158

Mg 24.23700 -7.30400 47.04100
C  26.77300 -5.20900 46.11000
C  22.04400 -5.57300 44.93800
C  22.00300 -9.79000 47.41900
C  26.64400 -9.28600 48.76700
N  24.41800 -5.52100 45.63200
C  25.57700 -4.89000 45.38100
C  25.36000 -3.74400 44.34300
C  23.82200 -3.73100 44.18900
C  23.38000 -5.02200 44.97400
C  23.06300 -2.41700 44.67300
C  26.22300 -3.98200 43.13200
C  26.71700 -2.60900 42.54900
H  25.89400 -2.00900 41.42100
N  22.25600 -7.58600 46.41200
C  21.59600 -6.76300 45.53300
C  20.24800 -7.26000 45.46000
C  20.13700 -8.44000 46.30800
C  21.49100 -8.64700 46.77000
C  19.16400 -6.51400 44.62700
C  18.87800 -9.16600 46.62600
O  17.74400 -8.77300 46.21700
C  18.87600 -10.38100 47.58400
N  24.30800 -9.27300 48.08400
C  23.21300 -10.02900 48.14300
C  23.50700 -11.27000 48.98300
C  24.93000 -11.08000 49.45200
C  25.34200 -9.82000 48.72400
C  22.44000 -11.70400 50.13500
C  25.87800 -12.21000 49.12700
C  26.32500 -13.01600 50.30800
N  26.32200 -7.26700 47.40800
C  27.15400 -8.08600 48.13400
C  28.50100 -7.55800 48.11600
C  28.41400 -6.35800 47.37300
C  27.06200 -6.31400 46.97800
C  29.72200 -8.18200 48.67700
C  29.07400 -5.22500 46.82300
O  30.18800 -4.76900 47.00300
C  28.04200 -4.51200 45.93900
C  28.08800 -3.02800 46.24600
O  27.73800 -2.53400 47.34300
O  28.64000 -2.37600 45.19200
C  28.82300 -0.91500 45.50900
H  21.30300 -4.98200 44.39600
H  21.36900 -10.65500 47.62700
H  27.39100 -9.82100 49.35800
H  25.68700 -2.84200 44.86000
H  23.66600 -3.86100 43.11800
H  23.76900 -1.87400 45.30300
H  22.20600 -2.64200 45.30800
H  22.79500 -1.86900 43.77000
H  25.72500 -4.43400 42.27400
H  27.05100 -4.65200 43.36300
H  27.76800 -2.70300 42.27500
H  26.65100 -1.90900 43.38200
H  18.30300 -7.15200 44.42700
H  19.52800 -6.10200 43.68500
H  18.93000 -5.68500 45.29500
H  17.83100 -10.68600 47.63700
H  19.19100 -10.18700 48.61000
H  19.44600 -11.22200 47.19000
H  23.46600 -12.05300 48.22500
H  25.11000 -10.92000 50.51500
H  22.64300 -11.12300 51.03500
H  22.77100 -12.73300 50.27400
H  21.41500 -11.62400 49.77200
H  26.79500 -11.87100 48.64300
H  25.34300 -12.88300 48.45700
H  27.19700 -12.58700 50.80000
H  26.56800 -14.01400 49.94300
H  25.58900 -13.09800 51.10800
H  29.87200 -9.18500 48.27700
H  29.64500 -8.26900 49.76100
H  30.58700 -7.57900 48.39800
H  28.38800 -4.67600 44.91900
H  27.92900 -0.30300 45.40000
H  29.46000 -0.42900 44.77000
H  29.17800 -0.73800 46.52500
Mg 9.25700 47.90000 25.70300
C  6.75900 48.16400 28.08500
C  11.38300 49.43900 27.98800
C  11.64200 47.50600 23.55400
C  6.82900 47.23700 23.27700
N  9.04800 48.81200 27.68200
C  8.01100 48.55100 28.53600
C  8.36400 48.88800 30.05800
C  9.72900 49.62700 29.85800
C  10.07800 49.26800 28.39900
C  9.75600 51.06100 30.24300
C  8.44500 47.68000 31.04100
C  9.17800 47.68700 32.33300
H  8.56500 47.08800 33.55500
N  11.29700 48.32700 25.80800
C  11.99900 48.97200 26.78100
C  13.34600 49.12600 26.34300
C  13.51900 48.43200 25.10000
C  12.11200 48.03800 24.77600
C  14.43800 49.87000 27.16300
C  14.65700 48.19200 24.18900
O  14.54600 47.74300 23.04000
C  16.02000 48.38200 24.68700
N  9.23900 47.62800 23.71100
C  10.37900 47.37500 23.07400
C  10.21700 47.04700 21.58300
C  8.68300 46.96100 21.49700
C  8.19700 47.30600 22.93300
C  10.85800 48.08300 20.55100
C  8.03800 45.61600 21.08900
C  8.63900 44.33800 21.75100
N  7.17500 47.66800 25.65400
C  6.32300 47.33300 24.56200
C  4.97400 47.31200 25.12800
C  5.11900 47.57800 26.47400
C  6.47400 47.81800 26.78000
C  3.76200 47.05600 24.34000
C  4.33400 47.78600 27.68000
O  3.13200 47.80900 27.84600
C  5.37200 48.15500 28.79400
C  5.32800 47.11000 29.79800
O  5.84800 45.99300 29.68800
O  4.59900 47.56900 30.85900
C  4.47200 46.73000 32.11200
H  12.06500 49.88300 28.71600
H  12.37000 47.26800 22.77500
H  6.13200 46.97800 22.47700
H  7.54400 49.55800 30.31800
H  10.46400 49.26300 30.57700
H  10.40300 51.59300 29.54600
H  10.21300 51.25400 31.21300
H  8.81600 51.60600 30.15800
H  8.99100 46.94800 30.44600
H  7.44200 47.33200 31.28700
H  9.33000 48.76300 32.41700
H  10.16600 47.25000 32.18500
H  13.91700 50.49700 27.88600
H  15.04300 50.48600 26.49800
H  15.21100 49.25500 27.62400
H  16.77600 48.18400 23.92800
H  16.24300 47.75200 25.54800
H  16.07000 49.44700 24.91700
H  10.78900 46.12000 21.62500
H  8.30200 47.78100 20.88900
H  11.46500 48.85100 21.02900
H  10.21200 48.63300 19.86700
H  11.47600 47.47200 19.89300
H  8.23400 45.63600 20.01700
H  6.95200 45.68900 21.14500
H  7.84500 43.87800 22.34000
H  9.57100 44.35200 22.31700
H  8.86100 43.72500 20.87800
H  3.93400 47.38700 23.31600
H  2.90100 47.59500 24.73400
H  3.50100 46.00000 24.26700
H  5.20600 49.14700 29.21400
H  4.47200 45.67000 31.85800
H  3.54200 46.93500 32.64100
H  5.36400 46.94300 32.70100

