158

Mg 47.74100 24.46600 28.46500
C  48.67600 26.63000 31.16100
C  46.84600 22.22700 30.66700
C  46.92100 22.64600 25.82900
C  48.95800 27.00600 26.26200
N  47.88000 24.41300 30.68400
C  48.03900 25.41500 31.57200
C  47.59200 25.08800 32.98100
C  47.10200 23.64600 32.82500
C  47.23700 23.38400 31.28300
C  47.85900 22.65600 33.77600
C  46.64600 26.12100 33.64200
C  46.03200 25.65200 35.00000
H  46.36300 26.58000 36.18000
N  47.04500 22.62000 28.22600
C  46.78700 21.81900 29.31000
C  46.22800 20.61200 28.84100
C  46.18800 20.75200 27.46000
C  46.73800 22.04500 27.06800
C  45.73900 19.47600 29.68200
C  45.66100 19.76500 26.49800
O  45.56600 20.04900 25.29800
C  44.93100 18.46900 26.87000
N  47.89400 24.78500 26.30800
C  47.46300 23.84800 25.51800
C  47.46800 24.33000 24.07400
C  47.92700 25.82500 24.13600
C  48.34800 25.89500 25.63500
C  48.44500 23.41800 23.19900
C  46.78800 26.85100 23.71500
C  47.26600 27.82900 22.57300
N  48.79000 26.40200 28.61100
C  49.21700 27.27900 27.66900
C  49.76600 28.46400 28.20000
C  49.64900 28.26300 29.62700
C  48.93800 27.03200 29.80800
C  50.45600 29.53800 27.47500
C  49.93500 28.79700 30.92200
O  50.54600 29.76900 31.26200
C  49.10100 27.90200 31.97700
C  50.08000 27.57300 33.04600
O  51.05000 26.83700 32.91300
O  49.83300 28.20600 34.15800
C  50.70400 27.93200 35.27700
H  46.50700 21.47600 31.38500
H  46.68700 22.05200 24.94300
H  49.08100 27.89800 25.64400
H  48.53500 25.13200 33.52600
H  46.04600 23.54400 33.07400
H  48.53400 23.22000 34.42000
H  48.52500 22.04500 33.16600
H  47.13300 22.06300 34.33300
H  45.78700 26.34700 33.00900
H  47.29300 26.96500 33.88000
H  46.36700 24.65900 35.29800
H  44.96300 25.61700 34.79000
H  44.74500 19.15200 29.37400
H  45.70800 19.68300 30.75200
H  46.43400 18.63700 29.68200
H  45.49400 17.75400 27.46900
H  44.50700 17.95700 26.00500
H  44.10000 18.77700 27.50400
H  46.47300 24.15600 23.66300
H  48.82000 25.83800 23.51200
H  49.16100 22.98000 23.89500
H  48.94300 23.98600 22.41300
H  47.97600 22.54300 22.75000
H  46.49700 27.39100 24.61600
H  45.90200 26.39600 23.27300
H  48.24900 27.43000 22.32500
H  47.48100 28.79500 23.03000
H  46.57300 27.82800 21.73100
H  51.22000 30.02000 28.08500
H  49.74600 30.30000 27.15300
H  50.96000 29.22400 26.56100
H  48.22000 28.45500 32.30100
H  51.68500 28.38900 35.15500
H  50.80400 26.86200 35.45800
H  50.15400 28.34400 36.12300
Mg 49.15100 34.46800 27.09700
C  47.14700 33.44800 29.60900
C  49.99200 37.34200 28.99800
C  51.03000 35.59600 24.50400
C  48.06800 31.87400 25.00100
N  48.64400 35.29400 29.05000
C  47.90300 34.59100 30.01100
C  48.06500 35.22500 31.37200
C  48.51000 36.61600 30.97400
C  49.13700 36.46300 29.59400
C  47.25600 37.66800 30.98400
C  49.06000 34.42100 32.20800
C  48.61500 33.90300 33.57700
H  47.40200 34.65700 34.15700
N  50.44000 36.18200 26.82800
C  50.60900 37.22100 27.70500
C  51.54600 38.18500 27.14400
C  51.80600 37.76100 25.81100
C  51.04600 36.44700 25.65500
C  51.89900 39.46200 27.92900
C  52.63300 38.48700 24.77500
O  52.97500 37.96100 23.71300
C  53.37400 39.84700 25.03200
N  49.39400 33.94200 25.04100
C  50.35000 34.39900 24.29000
C  50.56300 33.70800 22.97700
C  49.83000 32.34600 23.26800
C  49.04200 32.73500 24.46900
C  50.05800 34.44700 21.71100
C  50.67000 31.08000 23.39300
C  50.51500 30.06000 22.26200
N  47.74300 32.96700 27.15000
C  47.50500 31.90100 26.30000
C  46.62400 30.99700 27.00400
C  46.32400 31.63100 28.20000
C  47.08200 32.81600 28.34000
C  46.12500 29.60900 26.55000
C  45.62600 31.53000 29.43700
O  44.93500 30.63100 29.77200
C  46.13600 32.63100 30.41200
C  46.82500 31.79000 31.49400
O  47.95300 31.36100 31.55900
O  45.90300 31.61400 32.49200
C  46.29200 30.84100 33.76500
H  50.20100 38.23400 29.59100
H  51.65900 35.88500 23.65900
H  47.79100 31.02000 24.38000
H  47.04600 35.18900 31.75800
H  49.18000 37.15000 31.64700
H  47.58300 38.57500 31.49100
H  46.45500 37.27700 31.61200
H  46.82300 37.97600 30.03300
H  49.94200 35.04400 32.35300
H  49.29700 33.55500 31.59100
H  49.45600 33.89900 34.27000
H  48.45800 32.82700 33.50000
H  51.47600 39.52300 28.93200
H  51.75700 40.38700 27.36900
H  52.97800 39.39800 28.06200
H  53.98500 40.13900 24.17800
H  53.98600 39.66500 25.91600
H  52.56900 40.53800 25.28100
H  51.64900 33.77000 22.92200
H  49.13300 32.27700 22.43300
H  49.34500 33.91400 21.08200
H  50.87400 34.65800 21.02100
H  49.65800 35.39000 22.08600
H  50.39700 30.61200 24.33900
H  51.73500 31.27400 23.26800
H  49.82200 30.31200 21.45900
H  50.11300 29.14200 22.68900
H  51.46800 29.81600 21.79300
H  46.95000 28.90000 26.49400
H  45.77200 29.80900 25.53900
H  45.36900 29.14100 27.18000
H  45.19000 33.10700 30.66800
H  45.68700 29.93600 33.83700
H  46.09100 31.38000 34.69100
H  47.33300 30.54800 33.89700

