158

Mg -3.42800 16.71600 26.03600
C  -3.65600 14.44600 28.89100
C  -3.71900 19.31700 28.10400
C  -3.37600 18.71900 23.20300
C  -3.68800 13.94900 24.01300
N  -3.52200 16.86100 28.28900
C  -3.64500 15.84000 29.27800
C  -3.65200 16.43500 30.67200
C  -3.76100 17.89300 30.33100
C  -3.70400 18.11200 28.85900
C  -5.00600 18.55100 31.03700
C  -2.39900 16.09600 31.58000
C  -2.06400 17.00200 32.77200
H  -1.87500 16.27400 34.11300
N  -3.60200 18.67200 25.65500
C  -3.72700 19.58400 26.68100
C  -3.74300 20.94100 26.14900
C  -3.44000 20.79500 24.76300
C  -3.43200 19.37200 24.42400
C  -4.02800 22.21000 26.99700
C  -3.14400 21.84100 23.76900
O  -3.12700 21.57200 22.59100
C  -2.94800 23.34400 24.25500
N  -3.64000 16.36500 23.90500
C  -3.54700 17.32400 23.00100
C  -3.48500 16.86200 21.55400
C  -3.66700 15.28300 21.74500
C  -3.58000 15.13200 23.31700
C  -4.60400 17.46800 20.64200
C  -2.53500 14.47300 21.04500
C  -2.92500 13.06600 20.50700
N  -3.55300 14.63300 26.33800
C  -3.67100 13.66500 25.39100
C  -3.85400 12.37300 25.99500
C  -3.79600 12.63500 27.41000
C  -3.64900 14.04000 27.53200
C  -4.03700 11.11400 25.26900
C  -3.76000 11.97900 28.75000
O  -3.73200 10.78800 29.03500
C  -3.71900 13.13500 29.71500
C  -2.48000 13.00500 30.48700
O  -1.37900 13.39100 30.17700
O  -2.72600 12.44900 31.70900
C  -1.60100 12.37300 32.74100
H  -3.81500 20.19100 28.75000
H  -3.30900 19.25800 22.25600
H  -3.78200 13.02500 23.43800
H  -4.52500 15.97400 31.13300
H  -2.94600 18.50500 30.71700
H  -4.61700 19.04100 31.93000
H  -5.76700 17.81100 31.28300
H  -5.37700 19.34100 30.38400
H  -1.51900 15.84800 30.98700
H  -2.73600 15.17500 32.05600
H  -2.91200 17.67900 32.86700
H  -1.17500 17.60500 32.58300
H  -3.06100 22.57100 27.34900
H  -4.55700 21.96800 27.91900
H  -4.67400 22.88400 26.43500
H  -3.87400 23.64400 24.74700
H  -2.69900 23.81800 23.30600
H  -2.08200 23.32300 24.91600
H  -2.51400 17.17600 21.17000
H  -4.64900 14.88100 21.49700
H  -5.38200 16.70600 20.58000
H  -4.28300 17.68500 19.62300
H  -5.16300 18.32700 21.01300
H  -1.74500 14.16900 21.73300
H  -2.13500 15.07800 20.23200
H  -2.21800 12.38800 20.98500
H  -2.96200 12.91700 19.42800
H  -3.92100 12.92900 20.92700
H  -4.93600 11.22700 24.66300
H  -3.96900 10.18600 25.83700
H  -3.15100 11.07100 24.63600
H  -4.56900 13.09100 30.39500
H  -1.25200 13.37600 32.98500
H  -0.82600 11.72900 32.32500
H  -1.93400 11.89400 33.66100
Mg 46.96200 16.57000 27.98300
C  45.45300 16.14400 31.10200
C  49.36900 18.56800 29.47200
C  48.20400 17.20800 24.91100
C  44.21700 15.07900 26.54200
N  47.40100 17.20500 30.05300
C  46.66300 16.86700 31.17100
C  47.34900 17.27300 32.45400
C  48.42200 18.27500 31.90800
C  48.42800 18.03400 30.39000
C  48.19700 19.81900 32.26400
C  47.93200 16.14900 33.35400
C  47.38200 16.05300 34.80000
H  46.96300 17.38900 35.45400
N  48.67200 17.64000 27.31800
C  49.42900 18.47400 28.06800
C  50.49200 19.01400 27.22100
C  50.25400 18.48600 25.92600
C  49.02800 17.71500 25.98500
C  51.48100 19.94500 27.68000
C  51.04900 18.81800 24.67900
O  50.71900 18.26900 23.60000
C  52.20900 19.81100 24.67800
N  46.18100 16.33900 25.94500
C  47.03800 16.52900 24.85600
C  46.38900 16.13200 23.58400
C  45.17100 15.24900 24.08800
C  45.19200 15.51600 25.60600
C  46.07400 17.32000 22.67300
C  45.28900 13.73600 23.74600
C  45.84000 12.82100 24.81500
N  45.15900 15.80100 28.64600
C  44.13900 15.21900 27.93100
C  43.09800 14.82700 28.79700
C  43.58500 15.13300 30.07800
C  44.82400 15.75800 29.91300
C  41.94100 14.01900 28.36900
C  43.22400 14.98000 31.49500
O  42.25600 14.47400 32.05000
C  44.53800 15.63100 32.23400
C  44.10000 16.81500 33.07400
O  44.08100 18.00100 32.76500
O  43.49100 16.30800 34.21600
C  42.55100 17.22600 34.79400
H  50.08100 19.26500 29.91800
H  48.58900 17.34000 23.89800
H  43.43000 14.47700 26.08300
H  46.73100 17.87700 33.11700
H  49.33700 17.95900 32.41000
H  47.70400 19.89300 33.23300
H  47.62000 20.22100 31.43100
H  49.19200 20.25500 32.35200
H  49.02200 16.16000 33.36400
H  47.48900 15.30400 32.82700
H  48.11000 15.48600 35.38000
H  46.50800 15.43600 35.00500
H  51.31100 20.89300 27.17000
H  52.44800 19.48600 27.47700
H  51.44600 20.31000 28.70700
H  52.65900 19.90000 23.68900
H  52.94800 19.44600 25.39100
H  51.78500 20.75600 25.01900
H  47.07400 15.52600 22.99100
H  44.22300 15.55200 23.64200
H  46.27700 18.23800 23.22600
H  44.99600 17.33700 22.51300
H  46.52300 17.46800 21.69100
H  45.80000 13.62100 22.79000
H  44.27400 13.37200 23.58500
H  46.57900 12.09000 24.48700
H  45.01700 12.23300 25.22000
H  46.28400 13.39000 25.63200
H  41.33800 13.77600 29.24400
H  42.31500 13.17400 27.79000
H  41.35000 14.58300 27.64700
H  45.01100 14.88700 32.87500
H  41.79100 17.59300 34.10400
H  43.00500 18.06200 35.32600
H  42.02800 16.61100 35.52600

