158

Mg 0.89300 8.45700 25.69800
C  1.75000 10.40900 28.46200
C  1.12400 5.70800 27.63900
C  0.50000 6.57000 22.87000
C  1.23200 11.27700 23.71500
N  1.35000 8.05400 27.79300
C  1.56800 9.04500 28.78100
C  1.34700 8.40700 30.16500
C  1.47600 6.87900 29.89100
C  1.28600 6.85700 28.35400
C  2.83800 6.24600 30.20400
C  -0.03800 8.74500 30.85000
C  -0.15200 8.62500 32.40100
H  1.08000 8.25300 33.26400
N  0.78300 6.40600 25.28100
C  0.93400 5.42400 26.28400
C  0.75800 4.11900 25.60800
C  0.52100 4.29800 24.25400
C  0.59700 5.79000 24.03200
C  0.84100 2.84200 26.43900
C  0.34300 3.35500 23.10100
O  0.31100 3.74100 21.95300
C  0.25300 1.87600 23.40900
N  1.04200 8.82300 23.57100
C  0.68900 7.89200 22.66900
C  0.72500 8.42000 21.28900
C  0.83600 9.98700 21.48600
C  1.12500 10.07000 23.00800
C  1.75600 7.82000 20.32000
C  -0.39200 10.86000 21.03000
C  -1.52200 10.96400 21.98400
N  1.39300 10.38500 25.98100
C  1.36100 11.45200 25.09300
C  1.58200 12.72900 25.77100
C  1.73200 12.32000 27.10400
C  1.62100 10.93100 27.15700
C  1.74300 14.06100 25.19100
C  1.97600 12.86300 28.50300
O  2.25000 13.95300 28.90800
C  1.83300 11.54400 29.34500
C  3.01400 11.36700 30.23700
O  4.08000 11.02200 29.87200
O  2.63900 11.61600 31.54000
C  3.77300 11.50600 32.46500
H  1.03800 4.85600 28.31700
H  0.31600 6.06100 21.92100
H  1.13000 12.22000 23.17400
H  2.06900 8.68500 30.93300
H  0.62100 6.37200 30.33900
H  2.54500 5.61700 31.04500
H  3.50500 7.02600 30.57300
H  3.24800 5.53400 29.48800
H  -0.74000 7.96400 30.55900
H  -0.34400 9.70200 30.42700
H  -0.93900 7.92100 32.67100
H  -0.49500 9.60200 32.74000
H  -0.16300 2.45100 26.60400
H  1.38800 2.97700 27.37200
H  1.47800 2.13400 25.91000
H  -0.08900 1.26200 22.57600
H  -0.58300 1.82900 24.10800
H  1.16500 1.44400 23.82000
H  -0.28400 8.11100 21.01800
H  1.73600 10.49300 21.13600
H  2.44100 7.07900 20.73300
H  2.37400 8.69700 20.13000
H  1.28000 7.47500 19.40200
H  -0.60400 10.35100 20.09000
H  -0.04500 11.85800 20.76400
H  -1.53100 10.18500 22.74600
H  -2.40600 10.76700 21.37600
H  -1.59200 11.90700 22.52600
H  2.47200 14.03700 24.38100
H  1.98600 14.75000 26.00000
H  0.76000 14.39000 24.85400
H  1.03300 11.71400 30.06500
H  4.53600 12.27800 32.36200
H  4.11300 10.47300 32.39300
H  3.35400 11.62400 33.46400
Mg 30.53000 57.11200 40.10200
C  27.75200 54.98700 39.33300
C  32.61900 54.52700 38.99700
C  33.07800 59.27700 40.12300
C  28.22300 59.74800 40.69100
N  30.20000 55.05700 39.11900
C  29.01300 54.34000 39.05700
C  29.26100 52.86700 38.60400
C  30.82300 52.70400 38.77500
C  31.26100 54.17800 38.96500
C  31.23600 51.81700 39.96400
C  28.79100 52.60800 37.14100
C  28.46500 53.74900 36.13300
H  28.56400 53.34800 34.62000
N  32.57300 56.87800 39.72400
C  33.18700 55.78100 39.26900
C  34.64000 56.00700 39.13400
C  34.85800 57.25400 39.67000
C  33.46800 57.88600 39.84400
C  35.68600 54.84200 38.85000
C  36.18300 57.85800 39.96600
O  37.18700 57.24700 39.70000
C  36.40900 59.21500 40.48900
N  30.63200 59.27400 40.29200
C  31.83500 59.92100 40.32200
C  31.64800 61.39600 40.59500
C  30.07200 61.59800 40.85200
C  29.58400 60.10300 40.56700
C  32.55100 61.93600 41.70800
C  29.27500 62.69100 39.97900
C  29.52600 64.09500 40.48500
N  28.44800 57.46700 39.96700
C  27.70600 58.54200 40.22900
C  26.29200 58.22200 40.00100
C  26.27200 56.74700 39.68000
C  27.68000 56.38700 39.67300
C  25.12900 59.23400 40.21300
C  25.40100 55.66200 39.46300
O  24.14800 55.61800 39.55100
C  26.29700 54.39200 39.23400
C  25.93400 53.28400 40.13500
O  26.47800 52.93800 41.15900
O  24.94400 52.51100 39.52000
C  24.68900 51.19500 40.07500
H  33.22900 53.64200 38.80400
H  33.94500 59.94100 40.14500
H  27.53300 60.56200 40.92400
H  28.74200 52.24400 39.33200
H  31.23500 52.27600 37.86100
H  31.94100 51.02800 39.70400
H  30.39200 51.33500 40.45900
H  31.67500 52.43100 40.75000
H  27.94200 51.93000 37.22400
H  29.60400 51.99600 36.75100
H  29.23500 54.48500 36.36700
H  27.47600 54.15500 36.34200
H  36.58500 55.16700 38.32600
H  35.12400 54.10200 38.28100
H  36.06600 54.32000 39.72900
H  35.75800 59.34000 41.35400
H  36.35700 60.05100 39.79100
H  37.45700 59.26200 40.78400
H  31.89700 61.92000 39.67200
H  29.90700 61.75300 41.91800
H  33.49200 61.39200 41.63900
H  32.05800 61.80400 42.67100
H  32.92500 62.94000 41.50800
H  28.20000 62.53000 40.05600
H  29.58100 62.71300 38.93300
H  30.33100 64.05800 41.21800
H  28.61100 64.62400 40.75300
H  30.11500 64.67900 39.77800
H  24.32200 59.00000 39.51900
H  25.54200 60.22100 40.00400
H  24.75100 59.34200 41.23000
H  26.03600 54.16800 38.20000
H  23.73300 51.29900 40.58700
H  25.42100 50.86800 40.81300
H  24.74300 50.54600 39.20100

