158

Mg 35.43200 3.30500 29.87900
C  32.95100 3.92200 32.30000
C  37.82300 3.51100 32.51300
C  37.87200 2.53100 27.65500
C  33.08100 3.54500 27.41600
N  35.36100 3.75700 32.14800
C  34.24400 3.92100 32.89100
C  34.54200 3.98300 34.43000
C  36.11200 4.09800 34.42800
C  36.49900 3.77400 32.93000
C  36.66400 5.35800 35.02800
C  34.09500 2.66200 35.16900
C  33.63300 2.70900 36.62300
H  34.31800 3.75800 37.53800
N  37.51100 3.01800 30.04100
C  38.32800 3.19800 31.20100
C  39.67000 2.78200 30.88800
C  39.66500 2.33900 29.48800
C  38.31400 2.67300 28.97700
C  40.76300 2.60400 31.94800
C  40.69600 1.51900 28.71700
O  40.53900 1.19100 27.53400
C  41.89300 0.94700 29.38100
N  35.47000 3.09600 27.79600
C  36.56700 2.70700 27.15800
C  36.18000 2.65800 25.66000
C  34.63100 2.85600 25.51500
C  34.36200 3.21900 26.99700
C  36.98300 3.49500 24.60100
C  33.85300 1.69300 24.97200
C  33.31400 1.74000 23.58600
N  33.45000 3.84500 29.78100
C  32.58600 3.78600 28.69100
C  31.19400 4.02000 29.16900
C  31.30100 4.08100 30.56700
C  32.66700 3.84600 30.90400
C  29.92800 4.22800 28.41400
C  30.56900 4.28300 31.83700
O  29.41100 4.51400 32.05200
C  31.64900 4.23700 32.97100
C  31.76500 5.57700 33.57400
O  32.01400 6.65400 33.01700
O  31.19400 5.52200 34.84400
C  31.12000 6.70800 35.71100
H  38.56600 3.45200 33.31000
H  38.49900 2.13500 26.85400
H  32.33900 3.51800 26.61500
H  33.97900 4.84000 34.79900
H  36.50200 3.23400 34.96700
H  37.46600 5.12700 35.72900
H  35.87100 5.98100 35.44200
H  37.21100 5.82200 34.20700
H  34.82800 1.85600 35.14000
H  33.24200 2.32300 34.58100
H  33.83700 1.69200 36.95700
H  32.54300 2.72700 36.64500
H  41.71000 2.81000 31.45100
H  40.72400 1.60400 32.38000
H  40.61000 3.39800 32.67900
H  42.69100 1.63400 29.66400
H  42.27800 0.19200 28.69500
H  41.50100 0.34700 30.20200
H  36.47400 1.67400 25.29600
H  34.43000 3.71200 24.87000
H  36.42600 3.92800 23.77000
H  37.75500 2.86800 24.15600
H  37.50000 4.26900 25.16700
H  33.04000 1.43800 25.65200
H  34.49600 0.81800 25.06300
H  33.92600 2.49000 23.08400
H  32.27000 2.05400 23.56600
H  33.53100 0.89100 22.93700
H  29.27000 3.42000 28.73400
H  30.07300 4.39000 27.34600
H  29.43500 5.12700 28.78300
H  31.39400 3.52500 33.75600
H  30.28900 7.35500 35.42800
H  32.07400 7.23400 35.67500
H  31.00500 6.33900 36.73000
Mg 48.98700 25.12800 28.22100
C  49.96400 27.30100 30.78700
C  48.05500 22.80800 30.59200
C  48.19300 22.93100 25.71200
C  50.54700 27.17200 25.94500
N  48.86900 25.13500 30.38800
C  49.22900 26.16900 31.27600
C  48.74600 25.85900 32.72200
C  48.56500 24.38300 32.59900
C  48.49000 24.02300 31.07500
C  49.40600 23.47000 33.56800
C  47.45300 26.73400 33.00700
C  47.70000 27.89000 33.96100
H  46.78200 27.92200 35.13000
N  48.21200 23.07800 28.20500
C  47.91600 22.33400 29.29200
C  47.41800 21.04700 28.88100
C  47.30700 21.08300 27.42300
C  47.92600 22.35800 27.05700
C  46.97100 19.85900 29.80300
C  46.61700 20.07600 26.49700
O  46.63000 20.17000 25.27300
C  45.70300 18.86400 27.01600
N  49.40600 25.03900 26.15200
C  48.80000 24.15100 25.32900
C  49.13600 24.50100 23.85800
C  49.82700 25.92700 23.93200
C  49.92800 26.10300 25.37400
C  50.10400 23.50300 23.03600
C  49.10400 27.00100 23.19900
C  49.82800 28.28400 22.65600
N  50.02000 26.86500 28.26800
C  50.59300 27.61800 27.27000
C  51.21800 28.81800 27.73700
C  51.04100 28.75900 29.13000
C  50.29500 27.54800 29.42000
C  52.05500 29.77300 26.95500
C  51.21800 29.45300 30.45600
O  51.71400 30.57500 30.71100
C  50.44000 28.53100 31.52600
C  51.38600 28.16700 32.61400
O  52.13900 27.22500 32.63400
O  51.36800 29.08000 33.61000
C  51.89800 28.75800 35.00000
H  47.84700 22.02800 31.32600
H  48.03600 22.30300 24.83300
H  51.09300 27.67700 25.14600
H  49.54300 26.17500 33.39600
H  47.57400 24.14000 32.98300
H  50.13400 24.10000 34.08000
H  49.95800 22.78700 32.92200
H  48.72500 23.08300 34.32600
H  46.62400 26.07700 33.27200
H  47.22700 27.12600 32.01500
H  47.81100 28.88800 33.53700
H  48.64400 27.78000 34.49500
H  45.92500 19.58100 29.67300
H  47.12000 20.18200 30.83300
H  47.68600 19.04000 29.73200
H  46.19700 18.17600 27.70200
H  45.31700 18.28100 26.18000
H  44.85600 19.20600 27.61100
H  48.24800 24.45200 23.22600
H  50.88000 25.78400 23.68700
H  49.51100 22.73500 22.53900
H  50.79700 22.94600 23.66600
H  50.73700 23.97900 22.28700
H  48.32400 27.36100 23.87000
H  48.53900 26.57000 22.37300
H  49.40100 29.06700 23.28200
H  49.48300 28.39800 21.62800
H  50.91700 28.31200 22.71100
H  52.58000 29.10900 26.26800
H  52.62100 30.32700 27.70400
H  51.40300 30.43100 26.38100
H  49.55500 29.07700 31.85400
H  52.96000 28.99200 34.92500
H  51.65800 27.70900 35.17500
H  51.40500 29.38700 35.74100

