158

Mg 24.92900 -8.04100 46.76900
C  27.26600 -5.53700 45.80900
C  22.50700 -6.35600 44.89600
C  22.91500 -10.65700 47.24900
C  27.67000 -9.85100 48.20700
N  24.94400 -6.21300 45.38700
C  25.93900 -5.29100 45.26100
C  25.51600 -4.09700 44.40500
C  23.90200 -4.10100 44.59000
C  23.78700 -5.66500 44.91200
C  23.29100 -3.16900 45.63200
C  25.99600 -4.31700 42.96400
C  25.80100 -3.16000 42.00000
H  26.29300 -3.38300 40.59600
N  23.01800 -8.51600 46.03100
C  22.17900 -7.66900 45.36400
C  20.85900 -8.32400 45.27500
C  20.97200 -9.54800 46.00000
C  22.32200 -9.63100 46.46300
C  19.69200 -7.74900 44.51800
C  19.80800 -10.62200 46.19500
O  18.68200 -10.45700 45.71400
C  20.00000 -11.89400 46.98300
N  25.30500 -9.94400 47.51400
C  24.23500 -10.84800 47.65100
C  24.68700 -11.99900 48.48800
C  26.31900 -11.80400 48.47100
C  26.44600 -10.40700 48.11300
C  24.11500 -11.85600 49.87200
C  27.19800 -12.74300 47.54700
C  27.86500 -13.98700 48.26100
N  26.96500 -7.65900 47.20700
C  27.91200 -8.48200 47.75800
C  29.16100 -7.77200 47.82400
C  28.93100 -6.60000 47.05300
C  27.60800 -6.65000 46.63300
C  30.39800 -8.16300 48.49300
C  29.59300 -5.36300 46.64900
O  30.70900 -4.86400 46.89300
C  28.53400 -4.67800 45.78000
C  28.37100 -3.20300 46.22300
O  28.89600 -2.22000 45.69300
O  27.40400 -3.06500 47.27600
C  27.09900 -1.67600 47.68200
H  21.72900 -5.66600 44.56400
H  22.31900 -11.50400 47.59500
H  28.51800 -10.41300 48.60300
H  25.93000 -3.21900 44.90000
H  23.42100 -3.96800 43.62100
H  23.77800 -2.19900 45.53200
H  23.53700 -3.52600 46.63200
H  22.21700 -2.98300 45.65200
H  25.56300 -5.18500 42.46700
H  27.07200 -4.39600 43.11600
H  26.39900 -2.37000 42.45400
H  24.77600 -2.81000 41.87700
H  19.72200 -6.66000 44.48200
H  18.73300 -7.94600 44.99700
H  19.64000 -8.25600 43.55400
H  20.32000 -11.62500 47.99000
H  20.77000 -12.48500 46.48700
H  19.04400 -12.41100 47.07100
H  24.28000 -12.94900 48.14200
H  26.72200 -11.97400 49.46900
H  23.06300 -12.13900 49.91400
H  24.03600 -10.78900 50.07700
H  24.76800 -12.24600 50.65400
H  28.00200 -12.15200 47.10700
H  26.60300 -13.09500 46.70400
H  27.76800 -13.88900 49.34300
H  28.91000 -14.15100 47.99900
H  27.23200 -14.79000 47.88300
H  31.12000 -8.64900 47.83700
H  30.16000 -8.76200 49.37100
H  30.87700 -7.24000 48.82000
H  28.86100 -4.62700 44.74200
H  26.72900 -1.07600 46.85000
H  27.99700 -1.22900 48.10800
H  26.32800 -1.93600 48.40800
Mg 52.47600 23.66700 44.56300
C  49.51400 25.46400 44.01700
C  50.73800 20.71000 43.68300
C  55.45500 22.14100 44.19200
C  54.05400 26.60700 45.42600
N  50.32300 23.16300 43.88100
C  49.31200 24.06500 43.75200
C  48.02200 23.27500 43.49600
C  48.35300 21.76000 43.47600
C  49.91000 21.87500 43.74900
C  47.54000 20.94500 44.44100
C  47.06300 23.79400 42.34600
C  47.67500 23.93300 40.93200
H  47.55800 22.71800 39.93900
N  53.03300 21.69000 44.12700
C  52.14400 20.65100 43.78600
C  52.98900 19.42100 43.63700
C  54.33000 19.81200 43.69500
C  54.36000 21.26300 44.00500
C  52.35700 18.05800 43.32600
C  55.46600 18.91800 43.23000
O  55.27900 17.72700 43.04100
C  56.75800 19.48700 42.93700
N  54.45900 24.34100 44.59500
C  55.46700 23.45000 44.42400
C  56.75900 24.22500 44.83500
C  56.44100 25.75100 44.83100
C  54.88500 25.60100 45.03200
C  57.47300 23.65200 46.05100
C  56.77200 26.59600 43.55800
C  58.14100 27.28100 43.47200
N  51.88900 25.66200 44.74500
C  52.60500 26.69000 45.27000
C  51.75200 27.83000 45.51400
C  50.52900 27.44800 44.91900
C  50.66900 26.10500 44.46500
C  52.09100 29.20900 45.99900
C  49.14400 27.82000 44.61800
O  48.52800 28.86600 44.92400
C  48.55000 26.65400 43.88000
C  48.39100 27.09300 42.51300
O  49.19200 26.91900 41.60100
O  47.18100 27.72200 42.32700
C  46.72300 27.79300 40.92100
H  50.18800 19.78700 43.49000
H  56.48900 21.79600 44.11600
H  54.53400 27.47700 45.88100
H  47.50100 23.60700 44.39400
H  48.22900 21.42500 42.44600
H  47.30100 19.97500 44.00500
H  46.66700 21.55300 44.68000
H  48.16300 20.74100 45.31100
H  46.73100 24.78900 42.64000
H  46.12900 23.23300 42.36400
H  48.72000 24.18400 41.10900
H  47.14400 24.79700 40.53300
H  52.63900 17.22700 43.97300
H  52.53000 17.77700 42.28700
H  51.27300 17.96500 43.40200
H  57.38100 18.78700 42.37900
H  57.33400 19.52900 43.86100
H  56.69100 20.39900 42.34400
H  57.37000 24.11700 43.93800
H  56.85800 26.18700 45.73900
H  58.37400 23.11500 45.75400
H  56.83700 22.88800 46.49600
H  57.68500 24.42300 46.79200
H  56.02500 27.37400 43.40100
H  56.79400 25.97900 42.66000
H  58.60600 26.82500 42.59800
H  58.77400 27.08300 44.33800
H  58.10000 28.36900 43.42600
H  53.06600 29.56900 45.67300
H  52.02500 29.34600 47.07900
H  51.33100 29.85800 45.56500
H  47.56500 26.41900 44.28300
H  45.91000 27.06700 40.87700
H  47.49600 27.73000 40.15500
H  46.22600 28.76100 40.85800

