158

Mg 25.80700 0.01300 29.15500
C  27.87400 -0.05300 32.09000
C  23.09200 0.92500 31.08400
C  23.94000 0.01600 26.48100
C  28.59300 -1.01900 27.35300
N  25.51800 0.33100 31.35200
C  26.53900 0.34400 32.35900
C  25.91600 0.79100 33.69400
C  24.31600 0.92600 33.31100
C  24.30200 0.83100 31.80800
C  23.42600 -0.22500 33.95600
C  26.53800 2.01800 34.39900
C  27.31600 1.83900 35.69700
H  27.10800 2.92300 36.80700
N  23.86100 0.36700 28.77000
C  22.87600 0.74100 29.67500
C  21.56900 0.80700 29.02500
C  21.79900 0.60200 27.65200
C  23.21700 0.30100 27.58100
C  20.18500 1.16000 29.69000
C  20.79900 0.69000 26.41600
O  21.20600 0.60800 25.27100
C  19.30700 0.85000 26.58200
N  26.19400 -0.58800 27.19600
C  25.27600 -0.36800 26.26700
C  25.84200 -0.69600 24.84600
C  27.38900 -0.87600 25.14200
C  27.37900 -0.80400 26.69500
C  25.19700 -1.77300 23.90800
C  28.39500 0.18900 24.53100
C  29.73700 -0.31600 24.02600
N  27.80400 -0.66100 29.57700
C  28.80800 -0.95100 28.79700
C  30.02500 -1.10600 29.54400
C  29.68500 -0.75000 30.83700
C  28.29300 -0.46100 30.83200
C  31.34600 -1.51700 28.83300
C  30.20500 -0.57600 32.13700
O  31.29300 -0.79000 32.59300
C  29.00700 -0.17600 33.02400
C  28.75700 -1.23300 34.02900
O  28.30200 -2.35100 33.83300
O  29.10700 -0.73300 35.29800
C  28.82200 -1.58600 36.45500
H  22.23100 1.29700 31.64400
H  23.35800 0.12600 25.56300
H  29.47400 -1.32600 26.78500
H  26.08800 -0.05300 34.36200
H  24.07900 1.94000 33.63100
H  23.99300 -1.09200 34.29600
H  22.65100 -0.54500 33.26000
H  22.98800 0.31300 34.79600
H  25.93300 2.92000 34.49800
H  27.18500 2.30800 33.57200
H  28.29600 1.97900 35.24100
H  27.31900 0.86500 36.18600
H  19.55100 0.27700 29.60300
H  19.65800 2.02200 29.28000
H  20.22300 1.44600 30.74200
H  18.91600 1.19000 25.62300
H  19.21000 1.74700 27.19500
H  19.10400 -0.14600 26.97600
H  25.65900 0.18900 24.23600
H  27.74900 -1.84700 24.80100
H  24.26400 -2.27000 24.17400
H  25.91300 -2.55500 23.66100
H  24.76700 -1.22400 23.07000
H  28.47100 0.98700 25.27000
H  27.88700 0.62400 23.67100
H  30.33800 -0.53400 24.90900
H  30.17300 0.52500 23.48500
H  29.68300 -1.15300 23.33000
H  32.11500 -1.21200 29.54300
H  31.55400 -0.80900 28.03000
H  31.40300 -2.59300 28.66700
H  29.31100 0.73700 33.53500
H  29.09800 -1.10700 37.39500
H  29.44800 -2.47700 36.40000
H  27.77000 -1.86800 36.50700
Mg 43.76100 3.90500 47.60000
C  41.59100 6.55200 46.74300
C  41.18800 1.76300 47.51700
C  46.09400 1.43200 47.88200
C  46.53100 6.16300 47.06500
N  41.66000 4.12300 46.87900
C  40.89900 5.27900 46.63300
C  39.47200 4.90200 46.31700
C  39.36700 3.49700 47.11100
C  40.83000 3.07300 47.22800
C  38.75700 3.63000 48.58500
C  39.22900 4.82700 44.77800
C  38.33200 5.95200 44.24800
H  38.89800 7.04400 43.29600
N  43.60200 1.87100 47.68700
C  42.46000 1.19900 47.64600
C  42.82700 -0.18000 47.64000
C  44.19100 -0.36400 47.69000
C  44.76100 1.01000 47.80100
C  41.79900 -1.31700 47.36800
C  44.98100 -1.65800 47.65500
O  44.45400 -2.79700 47.50900
C  46.50100 -1.72800 47.65300
N  46.01700 3.73100 47.28200
C  46.64300 2.66400 47.70900
C  48.20500 2.91300 47.60000
C  48.37800 4.41300 47.31300
C  46.87000 4.77700 47.15000
C  49.01500 2.36200 48.81800
C  49.24400 4.75500 46.05800
C  50.66900 4.15100 46.02300
N  44.07000 5.97000 47.16700
C  45.24400 6.72700 46.90600
C  44.83600 8.09700 46.48300
C  43.42100 8.02400 46.63300
C  42.97500 6.74800 46.94200
C  45.76300 9.19900 46.15300
C  42.22100 8.86300 46.51000
O  42.21600 10.04300 46.28900
C  40.98000 7.88200 46.52500
C  40.16600 8.32900 47.73400
O  40.55300 8.45000 48.89400
O  38.91400 8.60600 47.18300
C  37.89600 9.18100 48.08500
H  40.43400 0.98100 47.63400
H  46.90200 0.76100 48.18000
H  47.29400 6.94400 47.06300
H  38.83000 5.70100 46.68900
H  38.78400 2.77200 46.54200
H  39.48900 3.39400 49.35700
H  37.98300 2.86400 48.63000
H  38.27600 4.59600 48.73700
H  38.78800 3.85500 44.55900
H  40.16100 4.81300 44.21400
H  37.86900 6.47500 45.08400
H  37.51400 5.48500 43.69900
H  41.94000 -1.71200 46.36200
H  40.75800 -1.00200 47.44000
H  42.02700 -2.10700 48.08400
H  46.72000 -1.44700 48.68200
H  46.91800 -1.21200 46.78800
H  46.84200 -2.76300 47.61500
H  48.47600 2.34300 46.71100
H  48.72000 5.03700 48.13900
H  49.48900 1.39700 48.63700
H  48.30900 2.20200 49.63300
H  49.81500 2.98100 49.22300
H  49.41200 5.82500 45.93200
H  48.77400 4.41600 45.13500
H  50.80900 3.66400 46.98800
H  51.46500 4.88500 45.89700
H  50.85700 3.44800 45.21100
H  46.66800 9.11800 46.75500
H  45.25300 10.14400 46.34400
H  46.17000 9.01500 45.15900
H  40.31600 7.82900 45.66200
H  37.39300 8.30900 48.50400
H  37.14500 9.76600 47.55400
H  38.33800 9.75800 48.89800

