158

Mg 47.09500 34.86800 28.28700
C  45.27200 32.94500 30.56300
C  47.43700 37.27800 30.73600
C  48.41300 37.05500 25.97200
C  46.20300 32.69100 25.70700
N  46.49400 34.95900 30.45100
C  45.75600 34.09100 31.17100
C  45.83300 34.60400 32.62300
C  46.02900 36.17100 32.46700
C  46.68400 36.16700 31.13600
C  44.63000 36.93600 32.46000
C  47.12400 34.02400 33.37500
C  47.01300 34.02300 34.94900
H  46.07600 35.03900 35.63400
N  47.91100 36.86100 28.32700
C  47.97400 37.68400 29.44400
C  48.76700 38.83300 29.12600
C  49.05000 38.79500 27.75100
C  48.52900 37.49400 27.26400
C  49.10600 39.89300 30.09900
C  49.70000 39.83500 26.91100
O  50.03300 39.57700 25.75600
C  50.06900 41.22200 27.35200
N  47.20700 34.86300 26.19100
C  47.76100 35.90000 25.48200
C  47.57200 35.71500 24.06200
C  47.05500 34.23500 23.90700
C  46.83500 33.87100 25.38400
C  46.60100 36.83800 23.48000
C  48.00200 33.23400 23.14600
C  49.32200 33.00300 23.80800
N  46.10100 33.11900 28.15300
C  45.83600 32.32900 27.03100
C  44.99000 31.23300 27.47800
C  44.75300 31.42600 28.86800
C  45.44300 32.63000 29.20300
C  44.31100 30.12000 26.63000
C  44.08800 30.94300 30.04000
O  43.31500 29.99000 30.26600
C  44.27100 31.96100 31.11500
C  44.37900 31.51100 32.53400
O  45.09500 30.60600 32.88900
O  43.35800 32.05100 33.27000
C  43.08200 31.63200 34.58100
H  47.55200 37.97600 31.56800
H  48.94500 37.65100 25.22700
H  45.93400 32.05400 24.86300
H  44.91900 34.26900 33.11300
H  46.77300 36.50800 33.18900
H  44.58700 37.51900 31.54100
H  44.71400 37.62600 33.30000
H  43.86500 36.16300 32.54100
H  47.98800 34.66100 33.18300
H  47.30900 33.01200 33.01500
H  48.01800 34.27400 35.28600
H  46.84700 33.02900 35.36400
H  48.36700 40.69300 30.06300
H  50.07800 40.35700 29.93500
H  49.15400 39.51600 31.12100
H  49.32200 41.60000 28.05000
H  50.18200 42.03300 26.63200
H  51.00500 41.17100 27.90700
H  48.47000 35.89600 23.47100
H  46.04600 34.18300 23.49800
H  46.24200 37.42400 24.32600
H  45.64500 36.52000 23.06500
H  47.02300 37.54300 22.76400
H  48.21700 33.62700 22.15200
H  47.45200 32.29600 23.08100
H  49.67500 33.85200 24.39400
H  50.06400 32.88700 23.01800
H  49.27200 32.14700 24.48100
H  43.38300 30.57900 26.28800
H  44.05500 29.25100 27.23600
H  44.94800 29.95500 25.76000
H  43.27100 32.39200 31.12900
H  43.63000 30.73600 34.87600
H  42.03700 31.50100 34.86300
H  43.29000 32.45000 35.27000
Mg 9.51100 47.16400 27.49300
C  7.28400 47.24000 30.24400
C  12.13200 47.95000 29.45300
C  11.39900 47.74700 24.66700
C  6.55700 47.16000 25.36800
N  9.72600 47.38900 29.57700
C  8.70100 47.46000 30.52200
C  9.30500 47.60900 31.89800
C  10.87600 47.87900 31.58900
C  10.93200 47.74400 30.08100
C  11.40100 49.20700 31.98300
C  8.90000 46.50300 32.90700
C  9.90400 46.20900 34.01200
H  9.38700 45.89700 35.46000
N  11.48400 47.61900 27.15900
C  12.38200 47.94300 28.10300
C  13.71100 48.14800 27.45400
C  13.54800 47.98000 26.06600
C  12.12800 47.79200 25.93100
C  14.97300 48.37800 28.22100
C  14.60900 47.96100 24.97100
O  14.35500 47.77300 23.81500
C  16.05100 48.10100 25.30300
N  9.02400 47.59600 25.35000
C  10.00400 47.72100 24.43100
C  9.47500 47.70700 23.01700
C  7.91300 47.32200 23.18100
C  7.80700 47.33900 24.73100
C  9.79900 49.09500 22.39500
C  7.35900 46.10200 22.51800
C  7.09200 46.20900 21.02300
N  7.36500 47.09100 27.67800
C  6.29700 47.05900 26.78000
C  4.98800 47.01100 27.43200
C  5.35300 47.00400 28.75900
C  6.78900 47.06900 28.88500
C  3.67700 47.03000 26.73600
C  4.82000 46.95100 30.15200
O  3.67900 46.84100 30.53300
C  6.02800 47.02800 31.09700
C  5.95800 45.68800 31.79900
O  6.41600 44.65100 31.34000
O  5.43900 45.83500 33.04700
C  5.60400 44.73300 33.98500
H  12.95100 48.09900 30.15900
H  12.04600 47.80100 23.78800
H  5.65300 47.02500 24.77000
H  8.94800 48.57200 32.26500
H  11.51100 47.18100 32.13400
H  10.74000 49.53300 32.78700
H  11.47000 49.89900 31.14400
H  12.34100 49.10700 32.52500
H  8.67100 45.63200 32.29300
H  7.94300 46.81000 33.32800
H  10.58600 47.05900 34.04800
H  10.57000 45.39400 33.73100
H  15.52700 47.47100 27.97900
H  14.82200 48.44200 29.29900
H  15.52800 49.23800 27.84800
H  16.43000 47.27200 25.90100
H  16.16000 49.08600 25.75700
H  16.50200 47.97300 24.31800
H  9.96300 46.89600 22.47700
H  7.26400 48.11400 22.80800
H  10.38400 49.71600 23.07400
H  8.82600 49.52500 22.15900
H  10.45900 49.00700 21.53200
H  6.35200 45.95200 22.90900
H  8.01100 45.29400 22.85000
H  7.67100 45.55800 20.36900
H  7.25000 47.19700 20.59000
H  6.04900 46.06000 20.74300
H  3.48600 46.03100 26.34300
H  3.63300 47.66900 25.85400
H  2.84400 47.25800 27.40100
H  5.83100 47.95000 31.64400
H  6.61300 44.33000 33.90600
H  4.90600 43.91400 33.81000
H  5.54700 45.10200 35.00900

