158

Mg 39.74500 9.67900 29.47200
C  41.71200 10.81700 32.24500
C  37.68700 8.06400 31.64600
C  38.23900 8.43800 26.90300
C  42.40400 10.79300 27.39200
N  39.70900 9.49000 31.70200
C  40.58300 10.06000 32.60400
C  40.16400 9.72600 34.04300
C  38.96400 8.76000 33.82800
C  38.71400 8.74800 32.28900
C  39.12800 7.32500 34.32100
C  39.61500 10.97700 34.75000
C  39.85000 10.96400 36.29700
H  40.40900 12.22500 37.06900
N  38.08200 8.56500 29.28600
C  37.36500 8.00800 30.26200
C  36.16600 7.32300 29.69200
C  36.34200 7.52100 28.29700
C  37.63600 8.21400 28.10500
C  34.98800 6.75200 30.53600
C  35.36700 7.08600 27.19300
O  35.65600 7.19700 26.00000
C  33.97200 6.59200 27.53100
N  40.11000 9.76300 27.40600
C  39.35900 9.16500 26.53000
C  39.91600 9.31000 25.05300
C  41.13600 10.21400 25.27500
C  41.19100 10.34000 26.81600
C  40.16200 7.90700 24.39700
C  41.22300 11.48200 24.49900
C  39.99500 12.43500 24.46100
N  41.74000 10.63500 29.67600
C  42.70000 10.98800 28.72800
C  43.74500 11.72900 29.35200
C  43.28100 11.73600 30.69900
C  42.11000 11.01100 30.87100
C  45.01500 12.22700 28.75800
C  43.69300 12.31600 32.06600
O  44.63500 12.97600 32.42300
C  42.71300 11.57900 33.07100
C  43.45400 10.76600 34.00500
O  43.51300 9.51800 33.97600
O  43.68100 11.58500 35.11000
C  44.15900 10.84700 36.34700
H  36.94200 7.60700 32.30200
H  37.66300 8.09300 26.04200
H  43.23300 11.12700 26.76500
H  41.00900 9.26500 34.55400
H  38.04700 9.11100 34.30200
H  39.05900 6.65600 33.46400
H  38.41300 7.09300 35.11000
H  40.15300 7.26700 34.68700
H  38.57700 11.06400 34.42800
H  40.05700 11.91000 34.39900
H  40.48500 10.11500 36.54800
H  38.88400 10.85900 36.79100
H  35.10200 6.99100 31.59400
H  34.80200 5.67800 30.50900
H  34.10700 7.28500 30.17800
H  33.86400 5.57900 27.91900
H  33.45100 6.54700 26.57500
H  33.36600 7.25700 28.14500
H  39.02400 9.77800 24.63600
H  42.01300 9.65700 24.94500
H  40.03100 7.07600 25.09000
H  41.12000 7.78200 23.89400
H  39.43000 7.87500 23.58900
H  41.54200 11.29400 23.47400
H  41.98300 12.05200 25.03500
H  40.15900 13.45900 24.79500
H  39.26400 11.96000 25.11600
H  39.43000 12.29300 23.54000
H  45.10800 11.63000 27.85100
H  45.92300 11.90400 29.26600
H  44.95400 13.31500 28.71500
H  42.10300 12.18400 33.74100
H  44.98400 11.36600 36.83700
H  44.58400 9.87600 36.09500
H  43.34800 10.62900 37.04100
Mg 54.66500 24.66100 44.46500
C  51.89300 26.59600 44.00100
C  52.69500 21.73800 43.91800
C  57.42100 22.67600 44.21100
C  56.64500 27.44000 44.38900
N  52.47800 24.21600 43.92800
C  51.58500 25.18500 43.89300
C  50.21300 24.47100 43.79600
C  50.43600 22.96800 44.28900
C  51.93400 22.92700 43.99100
C  50.09400 22.71900 45.76100
C  49.32300 24.57400 42.58200
C  49.94000 24.01000 41.33300
H  49.45800 24.59500 39.98800
N  55.00100 22.59900 44.05100
C  54.03600 21.55700 43.85700
C  54.70000 20.30900 43.84600
C  56.04700 20.45700 44.05600
C  56.22200 21.94500 44.15000
C  53.78700 19.02900 43.65100
C  57.11300 19.42200 44.01000
O  56.76900 18.29500 43.59600
C  58.60700 19.60900 44.37000
N  56.77200 25.00000 44.39500
C  57.72600 24.04300 44.33100
C  59.11800 24.62100 44.21000
C  58.80300 26.17200 44.18800
C  57.30900 26.27400 44.42300
C  60.10700 24.19100 45.38200
C  59.34600 26.92700 42.93500
C  58.45500 26.75400 41.64800
N  54.40800 26.67600 44.29700
C  55.29500 27.75700 44.29000
C  54.53500 28.98500 44.32700
C  53.18300 28.58600 44.12200
C  53.21800 27.15800 44.11900
C  55.05600 30.33600 44.61400
C  51.88000 29.10900 44.02300
O  51.54300 30.24000 43.99900
C  50.99800 27.84600 43.86200
C  50.42300 28.02400 42.53500
O  51.02400 27.87600 41.48100
O  49.04100 28.16400 42.55600
C  48.27600 28.15500 41.28000
H  52.03700 20.86600 43.92300
H  58.28700 22.01600 44.12900
H  57.27800 28.31500 44.22600
H  49.67000 24.99600 44.58300
H  49.95500 22.25400 43.62000
H  50.96600 22.25600 46.22300
H  49.24300 22.03800 45.75800
H  49.78600 23.61000 46.30700
H  48.94700 25.57600 42.37400
H  48.42500 23.99000 42.77800
H  49.84400 22.92800 41.24400
H  51.00600 24.23900 41.34400
H  54.23700 18.06300 43.42200
H  52.97900 19.28600 42.96700
H  53.36700 18.99000 44.65600
H  59.19000 20.21100 43.67400
H  59.02200 18.60200 44.41200
H  58.70600 20.03600 45.36800
H  59.48100 24.41500 43.20300
H  59.22200 26.73300 45.02300
H  60.89300 23.54800 44.98500
H  59.57500 23.44200 45.96800
H  60.55100 25.06600 45.85700
H  60.37000 26.59700 42.76000
H  59.40300 28.00500 43.08200
H  57.98200 27.71000 41.42200
H  57.67800 25.99000 41.67000
H  59.14900 26.46400 40.85900
H  54.85100 30.94500 43.73300
H  56.13500 30.26900 44.75800
H  54.53900 30.74800 45.48000
H  50.20500 27.84900 44.61000
H  48.10300 29.15700 40.88800
H  47.34600 27.65200 41.54600
H  48.78100 27.57100 40.51000

