158

Mg 40.63300 8.57100 29.47500
C  42.26100 10.37200 31.91500
C  38.52200 7.28800 31.85900
C  38.87000 7.31000 27.04800
C  43.00400 9.72200 27.15300
N  40.44900 8.90700 31.73400
C  41.13400 9.72100 32.50200
C  40.71400 9.63700 34.00300
C  39.44700 8.64100 33.84600
C  39.50200 8.23400 32.41100
C  39.37600 7.34900 34.74800
C  40.32200 11.01700 34.66800
C  39.38900 10.95600 35.78200
H  39.66900 11.77100 36.99800
N  38.95100 7.47600 29.40100
C  38.19200 6.97200 30.47100
C  37.16100 6.13900 30.06100
C  37.14400 6.21500 28.62200
C  38.35000 7.04900 28.28800
C  36.37900 5.25600 30.96500
C  36.09300 5.78100 27.53600
O  36.09400 6.05200 26.35200
C  34.84600 5.13600 28.12800
N  41.11400 8.31400 27.42000
C  40.06800 7.86900 26.63500
C  40.36500 8.14100 25.12000
C  41.85200 8.67200 25.17000
C  42.06600 8.92300 26.67400
C  40.11500 7.03500 24.03000
C  42.10900 9.81500 24.17200
C  41.47700 11.18400 24.46100
N  42.35100 9.61800 29.53600
C  43.17200 10.06700 28.51100
C  44.22700 10.86900 29.03100
C  43.88500 11.11400 30.33600
C  42.69500 10.36800 30.56200
C  45.33300 11.31700 28.22300
C  44.24400 11.75200 31.60800
O  45.22600 12.43200 31.83900
C  43.21600 11.35400 32.61800
C  43.95400 10.73000 33.79200
O  44.21200 9.54200 33.95800
O  43.94800 11.67400 34.79400
C  44.33100 11.18300 36.19500
H  37.81100 6.98200 32.62900
H  38.31400 7.04700 26.14600
H  43.58300 10.29500 26.42600
H  41.47800 9.02900 34.48600
H  38.47700 9.09000 34.06000
H  38.36500 7.21500 35.13400
H  40.09800 7.32900 35.56500
H  39.72200 6.47200 34.20200
H  39.98500 11.77200 33.95800
H  41.28300 11.37200 35.04000
H  39.34000 9.91300 36.09300
H  38.36400 11.08500 35.43300
H  36.63500 4.22900 30.70300
H  35.30300 5.28500 30.79900
H  36.48100 5.43200 32.03600
H  34.06800 4.92600 27.39400
H  34.44800 5.90400 28.79200
H  35.12400 4.20200 28.61500
H  39.68000 8.95700 24.89100
H  42.49500 7.82300 24.93400
H  39.97200 6.08000 24.53500
H  40.92100 7.06100 23.29500
H  39.21500 7.32700 23.48900
H  41.66900 9.52100 23.22000
H  43.18700 9.91300 24.03700
H  41.00000 11.39200 25.41900
H  40.74400 11.23500 23.65600
H  42.30000 11.85300 24.21100
H  45.78900 12.20900 28.65200
H  44.94700 11.56500 27.23400
H  46.08800 10.53300 28.16500
H  42.66200 12.21200 33.00000
H  43.64700 11.46200 36.99700
H  45.21200 11.77300 36.44600
H  44.58400 10.13100 36.32600
Mg 0.84200 43.05200 25.89000
C  3.19500 43.33000 28.53600
C  -1.39300 42.03500 28.27000
C  -1.13200 42.42000 23.41300
C  3.50800 43.72600 23.61900
N  0.90800 42.92900 28.22800
C  1.93700 43.12000 29.04400
C  1.57800 42.93200 30.55800
C  0.08000 42.56000 30.42800
C  -0.18300 42.41200 28.87800
C  -0.34500 41.32200 31.19900
C  1.80800 44.22700 31.35500
C  1.14200 44.46800 32.72000
H  0.94000 43.11900 33.59000
N  -1.03100 42.39600 25.83100
C  -1.78200 41.93100 26.92900
C  -3.05500 41.34700 26.42100
C  -2.96900 41.43800 24.94500
C  -1.68600 42.12700 24.67200
C  -4.06900 40.74400 27.36100
C  -3.98100 41.02000 23.88100
O  -3.90700 41.27700 22.63100
C  -5.23200 40.21600 24.25800
N  1.19100 42.90000 23.78000
C  0.15000 42.66000 22.96500
C  0.48100 42.72400 21.43900
C  1.92700 43.46100 21.56800
C  2.26400 43.37600 23.07400
C  0.58900 41.33400 20.66400
C  1.86700 44.84900 20.88200
C  1.26200 45.98500 21.65200
N  2.91700 43.53700 25.95100
C  3.89200 43.71000 24.96900
C  5.16600 43.80800 25.62500
C  4.96900 43.63700 26.98900
C  3.61000 43.51300 27.18000
C  6.50300 43.84500 24.83600
C  5.63600 43.49900 28.24000
O  6.86200 43.40800 28.43400
C  4.51600 43.43900 29.36800
C  4.83600 42.30000 30.27100
O  5.21800 41.17300 29.99700
O  4.69800 42.77500 31.56700
C  5.09900 41.95200 32.70300
H  -2.12500 41.64000 28.97700
H  -1.82700 42.24000 22.59100
H  4.37800 44.06200 23.05000
H  2.17700 42.09300 30.91200
H  -0.59700 43.35200 30.74700
H  -1.03000 41.71000 31.95300
H  0.51300 41.01600 31.79800
H  -0.76100 40.54000 30.56300
H  1.50300 45.07000 30.73500
H  2.87400 44.44200 31.42800
H  0.23900 45.04600 32.52400
H  1.69500 45.19600 33.31300
H  -5.08000 40.87600 26.97400
H  -4.03500 41.25600 28.32300
H  -3.93600 39.67000 27.48900
H  -4.94700 39.42200 24.94900
H  -5.46800 39.64100 23.36300
H  -6.01600 40.93400 24.49700
H  -0.31600 43.29000 20.95700
H  2.71800 42.88100 21.09300
H  0.18400 40.55500 21.31100
H  1.59900 41.04200 20.37400
H  0.04700 41.35600 19.71900
H  1.42000 44.78400 19.89000
H  2.89200 45.18900 20.73200
H  0.87000 45.72000 22.63400
H  0.53300 46.38300 20.94600
H  2.04800 46.74000 21.68200
H  6.50000 43.43800 23.82500
H  7.16200 43.17100 25.38400
H  6.89500 44.86200 24.84900
H  4.56500 44.32300 30.00400
H  6.14300 42.18600 32.91600
H  4.87000 40.89100 32.60200
H  4.43000 42.19800 33.52800

