158

Mg 6.43600 53.20400 40.73800
C  5.90500 49.65100 40.29300
C  9.63800 52.64800 39.57700
C  6.62400 56.44500 40.44500
C  3.01500 53.41400 41.31800
N  7.59200 51.32300 39.85900
C  7.21000 49.98700 39.90700
C  8.44400 49.01800 39.76800
C  9.63500 50.03600 39.87100
C  8.91300 51.42900 39.64600
C  10.23400 49.92600 41.28500
C  8.46100 48.15500 38.49900
C  8.35500 48.89600 37.19400
H  7.48600 48.19500 36.09800
N  7.95100 54.43300 40.00200
C  9.18600 54.03000 39.63400
C  9.90600 55.18800 39.28900
C  9.02500 56.33300 39.45100
C  7.78800 55.79300 40.03200
C  11.40600 55.17000 38.97500
C  9.38500 57.74600 39.10000
O  10.52100 57.98100 38.65700
C  8.54300 58.99600 39.25400
N  4.99200 54.67500 40.83400
C  5.39300 55.95600 40.81600
C  4.18400 56.94000 41.02900
C  3.04900 55.95600 41.18700
C  3.68300 54.59000 40.97400
C  4.38900 57.88200 42.32800
C  1.92800 56.26700 40.14600
C  0.58300 56.75300 40.74300
N  4.81800 51.82500 40.97400
C  3.49700 52.04600 41.17800
C  2.71400 50.85600 41.39300
C  3.67600 49.89200 41.06100
C  4.90000 50.50000 40.74800
C  1.22500 50.68400 41.73000
C  3.83200 48.42700 40.96400
O  3.06100 47.53400 41.08500
C  5.32000 48.26600 40.39400
C  5.18000 47.61500 39.05300
O  4.75200 48.03100 37.98400
O  5.45700 46.35900 39.24400
C  5.08100 45.37300 38.20900
H  10.71000 52.47000 39.68700
H  6.77000 57.52300 40.53900
H  2.02600 53.43700 41.78100
H  8.55400 48.26900 40.55200
H  10.27400 49.97100 38.99100
H  11.16400 49.39700 41.07500
H  9.59100 49.38400 41.97900
H  10.57900 50.90900 41.60400
H  7.65600 47.44400 38.68500
H  9.42800 47.65100 38.48200
H  9.31800 49.19400 36.78200
H  7.88200 49.84900 37.43000
H  11.45200 55.24200 37.88800
H  11.82200 54.23000 39.33900
H  11.96500 56.01400 39.37900
H  8.87700 59.87800 38.70800
H  8.47600 59.34000 40.28600
H  7.54300 58.96700 38.82200
H  4.19600 57.51600 40.10400
H  2.66000 55.92900 42.20500
H  5.38200 57.76200 42.76100
H  3.74400 57.71900 43.19200
H  4.35700 58.91500 41.98100
H  1.61400 55.39700 39.56900
H  2.08800 56.99800 39.35400
H  0.82800 57.67600 41.26700
H  0.12100 56.01800 41.40300
H  -0.10600 56.98100 39.93000
H  0.74800 51.32300 40.98600
H  1.17900 51.11000 42.73200
H  0.81300 49.68500 41.58900
H  5.92000 47.67600 41.08800
H  5.96800 44.85600 37.84400
H  4.58900 45.78800 37.33000
H  4.51800 44.53200 38.61400
Mg -5.72900 24.63700 26.75700
C  -4.38500 26.07300 29.58900
C  -7.54500 22.48400 28.92100
C  -7.05500 23.10300 24.05700
C  -3.57100 26.43900 24.77500
N  -5.84600 24.16300 29.01000
C  -5.31300 25.02200 29.92300
C  -5.97100 24.85800 31.26100
C  -6.56800 23.43000 31.18800
C  -6.57000 23.21200 29.62800
C  -5.85600 22.39600 32.05500
C  -7.04600 25.98000 31.52500
C  -6.93700 26.58200 32.97500
H  -6.48600 25.73200 34.17100
N  -7.21100 23.09200 26.51300
C  -7.84900 22.40300 27.54900
C  -8.78500 21.50400 26.94800
C  -8.63500 21.66700 25.50100
C  -7.61000 22.65400 25.32800
C  -9.74600 20.63100 27.76000
C  -9.41100 21.04100 24.48700
O  -9.25100 21.20100 23.28300
C  -10.39300 19.98500 24.88100
N  -5.29800 24.76200 24.71000
C  -5.99600 24.00500 23.77500
C  -5.46200 24.20300 22.34100
C  -4.50300 25.42700 22.63000
C  -4.35100 25.44800 24.08100
C  -4.86500 22.96500 21.67700
C  -4.97200 26.80000 22.11600
C  -4.42900 27.30800 20.77700
N  -4.22300 25.89700 27.04700
C  -3.41300 26.55700 26.16400
C  -2.62800 27.54800 26.87300
C  -2.95400 27.34100 28.26700
C  -3.94300 26.32400 28.23100
C  -1.69900 28.57400 26.27300
C  -2.76100 27.77900 29.60100
O  -1.97800 28.61800 30.10000
C  -3.61400 26.95700 30.49600
C  -2.76700 26.38300 31.55000
O  -1.89100 25.57400 31.39700
O  -3.05300 26.99000 32.80200
C  -2.19700 26.88800 33.90500
H  -8.11100 21.89100 29.64300
H  -7.65100 22.69500 23.23800
H  -2.92800 26.95800 24.06100
H  -5.21300 24.88000 32.04400
H  -7.61300 23.47600 31.49500
H  -6.69400 21.77000 32.36200
H  -5.34800 22.87500 32.89200
H  -5.20000 21.81600 31.40700
H  -8.09300 25.68600 31.44400
H  -6.94900 26.72900 30.73900
H  -7.96500 26.86200 33.20300
H  -6.27600 27.44800 32.95900
H  -9.73400 20.84600 28.82800
H  -9.61200 19.55400 27.65500
H  -10.77700 20.76800 27.43300
H  -10.19000 19.26200 25.67100
H  -10.54800 19.45200 23.94300
H  -11.34500 20.46600 25.10600
H  -6.32200 24.61100 21.81000
H  -3.55600 25.11100 22.19300
H  -5.29200 22.91800 20.67500
H  -5.12400 22.11000 22.30000
H  -3.77800 22.99100 21.59400
H  -4.78900 27.50400 22.92800
H  -6.05600 26.73600 22.01900
H  -3.78900 28.17000 20.96700
H  -5.34500 27.47700 20.21200
H  -3.92300 26.48100 20.27900
H  -0.85800 28.78900 26.93200
H  -2.16300 29.54700 26.10700
H  -1.27200 28.16100 25.35900
H  -4.40500 27.52700 30.98300
H  -2.16300 27.87200 34.37200
H  -1.17500 26.58600 33.67500
H  -2.62000 26.15300 34.59000

