158

Mg 8.29500 4.40800 27.38200
C  9.61600 2.83700 30.29600
C  6.36300 6.24700 29.65000
C  6.97300 5.85100 24.76400
C  10.18000 2.21900 25.41900
N  7.93200 4.41200 29.74900
C  8.68300 3.80000 30.68000
C  8.29300 4.24500 32.11800
C  7.15600 5.24000 31.87400
C  7.09400 5.27100 30.33900
C  5.72600 5.06400 32.50900
C  9.55500 4.77000 32.85000
C  9.19500 5.30300 34.23200
H  9.60600 4.64000 35.48300
N  6.81500 5.78400 27.27700
C  6.22900 6.52300 28.24000
C  5.33000 7.51700 27.64700
C  5.43700 7.39500 26.23500
C  6.45100 6.35700 26.02300
C  4.57800 8.55800 28.42300
C  4.57700 7.99300 25.08000
O  4.62300 7.70500 23.90600
C  3.76400 9.10600 25.41300
N  8.47500 4.04800 25.40300
C  7.80600 4.82500 24.48400
C  8.10900 4.29100 23.03000
C  9.29300 3.35600 23.24900
C  9.33900 3.14400 24.76400
C  6.87600 3.56900 22.37800
C  10.68500 3.86000 22.76200
C  11.61200 2.84600 22.11900
N  9.56600 2.78100 27.70400
C  10.29900 2.03400 26.82800
C  11.17300 1.16900 27.53700
C  10.99100 1.40800 28.92600
C  9.98800 2.43900 28.95600
C  12.07800 0.13600 26.88500
C  11.40500 1.06600 30.27500
O  12.15100 0.21300 30.68300
C  10.53600 2.06300 31.20000
C  9.83100 1.07100 32.09100
O  9.11700 0.14300 31.74300
O  10.05500 1.45700 33.41700
C  9.35800 0.69900 34.46500
H  5.75000 6.94900 30.22000
H  6.62400 6.36600 23.86600
H  10.86600 1.70900 24.74000
H  7.90300 3.35800 32.61700
H  7.51600 6.25700 32.02400
H  5.02700 4.88000 31.69200
H  5.50900 5.97300 33.07000
H  5.66400 4.09800 33.01100
H  10.12200 5.44000 32.20300
H  10.21300 4.00700 33.26400
H  8.11000 5.26700 34.32800
H  9.52800 6.34100 34.25700
H  3.52500 8.34600 28.60900
H  4.67200 9.55000 27.98000
H  5.12700 8.89500 29.30200
H  3.17300 9.39800 24.54500
H  4.28000 9.99400 25.77800
H  2.99200 8.88100 26.14900
H  8.38300 5.14500 22.41100
H  9.12000 2.34900 22.87000
H  6.07200 3.73400 23.09600
H  7.14100 2.52600 22.20000
H  6.57000 3.90100 21.38600
H  11.32400 4.23900 23.55900
H  10.57700 4.75900 22.15500
H  11.83800 3.20100 21.11300
H  11.20800 1.83400 22.08000
H  12.61000 2.87100 22.55600
H  11.57900 -0.77000 26.54000
H  12.83800 -0.15900 27.60800
H  12.57300 0.53600 26.00000
H  11.11700 2.75700 31.80700
H  8.99800 -0.22900 34.02100
H  8.49700 1.16100 34.94800
H  10.17000 0.45600 35.15100
Mg 17.11200 51.96700 25.81300
C  18.82000 50.45000 28.48400
C  14.82000 53.20600 28.14400
C  15.30400 53.05000 23.28900
C  19.33600 50.39400 23.62200
N  16.89600 51.87800 28.00600
C  17.69600 51.14700 28.87800
C  17.22200 51.36400 30.35100
C  15.80500 51.93500 30.14800
C  15.79600 52.32400 28.65500
C  14.73800 50.93200 30.40200
C  18.23500 52.33200 31.11100
C  18.39600 52.24000 32.63300
H  17.22400 51.68100 33.48800
N  15.35300 53.10300 25.72500
C  14.60100 53.53700 26.79900
C  13.57200 54.43900 26.27200
C  13.66800 54.40900 24.82800
C  14.77700 53.45100 24.53100
C  12.60000 55.15000 27.11700
C  12.82500 55.14800 23.77600
O  13.00100 55.14800 22.55800
C  11.78500 56.07000 24.34700
N  17.26400 51.61600 23.72400
C  16.34400 52.17900 22.87300
C  16.67400 51.90300 21.41000
C  18.14500 51.28300 21.49200
C  18.32500 51.15000 23.05700
C  15.64300 51.17900 20.53600
C  19.21000 52.23700 20.82500
C  20.68600 51.82200 20.69000
N  18.74600 50.69700 25.96700
C  19.50500 50.11100 24.98900
C  20.55100 49.34000 25.61600
C  20.39700 49.47200 27.00300
C  19.24400 50.32300 27.18800
C  21.68600 48.72700 24.91800
C  20.89800 49.13400 28.29400
O  21.87200 48.51600 28.64100
C  19.95500 49.82700 29.29400
C  19.56000 48.76900 30.27500
O  18.89800 47.77300 29.99700
O  19.93000 49.01000 31.55700
C  19.16800 48.16100 32.57100
H  14.07100 53.44400 28.90200
H  14.65600 53.50200 22.53600
H  20.07700 50.00000 22.92400
H  17.18200 50.40200 30.86300
H  15.61900 52.77100 30.82200
H  13.81500 51.50900 30.46400
H  14.79300 50.45400 31.38100
H  14.63400 50.31400 29.51000
H  18.01400 53.37000 30.86300
H  19.18000 52.08500 30.62700
H  18.54100 53.25100 33.01400
H  19.31000 51.67700 32.82400
H  12.49300 56.20700 26.87200
H  12.90400 55.27000 28.15700
H  11.68400 54.56400 27.18800
H  11.11400 55.70600 25.12600
H  11.14700 56.19200 23.47200
H  12.31000 56.99600 24.58100
H  16.80600 52.93500 21.08500
H  18.25100 50.33800 20.95800
H  16.08900 50.65600 19.68900
H  14.95600 51.88700 20.07400
H  15.10200 50.40600 21.08200
H  19.20100 53.10500 21.48400
H  18.81700 52.53100 19.85200
H  21.01100 52.17100 19.71000
H  20.93200 50.78400 20.91600
H  21.23100 52.34700 21.47500
H  22.15500 49.28000 24.10400
H  21.32900 47.71200 24.74400
H  22.42100 48.69200 25.72300
H  20.53500 50.60600 29.78900
H  19.15800 47.07200 32.52400
H  18.14000 48.52300 32.58800
H  19.66500 48.37300 33.51800

