158

Mg 24.31300 -8.33700 47.44000
C  26.84700 -6.31600 46.51800
C  22.39100 -7.14500 44.90300
C  22.16900 -11.11400 47.74100
C  26.62100 -10.27800 49.33600
N  24.58500 -6.91200 45.91000
C  25.67200 -6.11400 45.75800
C  25.52300 -5.07600 44.64000
C  24.08300 -5.41100 44.08400
C  23.60800 -6.55000 45.02400
C  23.15300 -4.19100 43.92800
C  26.62800 -5.27300 43.50600
C  27.12800 -3.93900 42.90700
H  26.95700 -3.61800 41.43900
N  22.42500 -8.88200 46.66800
C  21.79200 -8.17100 45.64500
C  20.47800 -8.74900 45.42900
C  20.36600 -9.93500 46.27100
C  21.69900 -9.98400 46.97800
C  19.63600 -8.29200 44.28800
C  19.15500 -10.86800 46.35200
O  18.12300 -10.51500 45.79100
C  19.10100 -11.98100 47.13600
N  24.27800 -10.46500 48.45800
C  23.31000 -11.38700 48.48700
C  23.66100 -12.70900 49.19400
C  25.13600 -12.24400 49.83200
C  25.37300 -10.87200 49.21000
C  22.67400 -13.10700 50.29200
C  26.27700 -13.29900 49.52200
C  27.30900 -13.59600 50.53000
N  26.34100 -8.40900 47.82000
C  27.09500 -9.13400 48.71600
C  28.27000 -8.44300 48.93900
C  28.27100 -7.29400 48.09400
C  27.07400 -7.35200 47.40300
C  29.44100 -8.82400 49.91200
C  28.99300 -6.13100 47.66000
O  30.12100 -5.71200 48.07100
C  28.08700 -5.40600 46.56300
C  27.74700 -4.04900 47.03900
O  27.45100 -3.71000 48.15300
O  27.92700 -3.19400 46.01400
C  27.65000 -1.74900 46.24600
H  21.79300 -6.74300 44.08300
H  21.50200 -11.97800 47.78500
H  27.39400 -10.65200 50.01000
H  25.61400 -4.10100 45.11900
H  24.19400 -5.86500 43.09900
H  22.34100 -4.44000 43.24500
H  23.84200 -3.48300 43.46800
H  22.78000 -3.77900 44.86600
H  26.29000 -5.89100 42.67500
H  27.45600 -5.89300 43.85100
H  28.21000 -4.00400 43.02800
H  26.71600 -3.10300 43.47200
H  18.59100 -8.58200 44.17300
H  20.16100 -8.62600 43.39300
H  19.82800 -7.23000 44.44400
H  19.83700 -12.69800 46.77200
H  18.10600 -12.41500 47.23600
H  19.37400 -11.65700 48.14000
H  23.80500 -13.56700 48.53700
H  24.98300 -12.03400 50.89000
H  22.64200 -14.17400 50.07200
H  21.70800 -12.60400 50.23600
H  23.09400 -13.06000 51.29600
H  26.84100 -13.09900 48.61100
H  25.80300 -14.27300 49.40400
H  27.23800 -14.66900 50.70900
H  27.11100 -13.00200 51.42300
H  28.31100 -13.44100 50.13100
H  29.90200 -9.74800 49.56400
H  29.04400 -9.05800 50.90000
H  30.10500 -7.96400 50.00400
H  28.76900 -5.22400 45.73200
H  26.71500 -1.63400 46.79300
H  27.58800 -1.19900 45.30700
H  28.51400 -1.45500 46.84300
Mg 46.79900 45.01000 43.31700
C  43.45700 44.27400 42.84400
C  47.48800 41.65200 42.54900
C  49.90400 45.80000 42.89000
C  45.73500 48.48300 43.52000
N  45.57500 43.14700 42.66300
C  44.24100 43.09200 42.67100
C  43.73600 41.64700 42.43100
C  45.03600 40.74100 42.59800
C  46.12400 41.89700 42.57400
C  45.08700 39.86200 43.80500
C  42.90200 41.32700 41.18300
C  43.19300 42.19100 39.93800
H  43.23400 41.47500 38.58700
N  48.53400 43.86600 42.72000
C  48.62300 42.54700 42.56300
C  50.01300 42.14500 42.59300
C  50.77000 43.37800 42.51100
C  49.75300 44.42600 42.61700
C  50.52900 40.67300 42.63200
C  52.22100 43.53600 42.39400
O  52.90600 42.50900 42.40500
C  52.96400 44.84900 42.31100
N  47.70100 46.85300 43.19700
C  49.05100 46.88500 43.35400
C  49.56400 48.35100 43.44200
C  48.25000 49.17100 43.62600
C  47.14200 48.09300 43.42900
C  50.56000 48.54200 44.55000
C  48.05300 50.35400 42.73100
C  47.66400 50.01700 41.25800
N  44.98100 46.14000 43.34200
C  44.72400 47.46800 43.39800
C  43.30300 47.69300 43.38100
C  42.76700 46.44200 43.12600
C  43.81600 45.55000 43.14600
C  42.61800 49.07300 43.51700
C  41.52000 45.77400 42.85300
O  40.39500 46.18200 42.79700
C  41.95900 44.32000 42.74200
C  41.38400 43.50600 43.81400
O  40.75500 42.44400 43.66400
O  41.62800 44.01900 45.05300
C  41.36500 43.16000 46.16900
H  47.87200 40.63100 42.60100
H  50.91600 46.20900 42.94800
H  45.46700 49.52400 43.71000
H  43.11000 41.49900 43.31100
H  45.14700 40.15600 41.68500
H  45.91900 40.16500 44.44000
H  45.31000 38.83900 43.49800
H  44.14200 39.78200 44.34100
H  41.86700 41.47400 41.49200
H  43.09700 40.27700 40.96700
H  44.13100 42.71500 40.12900
H  42.41000 42.93400 39.78600
H  50.52200 40.39100 41.57900
H  49.85300 40.05400 43.22200
H  51.55700 40.55900 42.97400
H  52.44400 45.53700 41.64400
H  53.96300 44.68900 41.90600
H  53.03700 45.28100 43.30900
H  50.11500 48.38800 42.50200
H  48.06200 49.54200 44.63300
H  51.60400 48.57800 44.23800
H  50.46900 47.63200 45.14300
H  50.29900 49.45800 45.08000
H  49.01700 50.84500 42.60000
H  47.27900 51.05200 43.05000
H  46.80500 50.57700 40.88700
H  47.38400 48.97500 41.10400
H  48.46800 50.23800 40.55600
H  43.12100 49.63200 44.30500
H  41.54000 48.95200 43.62500
H  42.77000 49.70900 42.64500
H  41.64800 43.92500 41.77400
H  41.96700 42.25600 46.07500
H  40.29300 42.98000 46.25200
H  41.71500 43.50800 47.14100

