158

Mg 25.80700 0.92600 29.52300
C  27.77000 0.69200 32.50400
C  23.02400 0.88000 31.39600
C  24.20300 0.89400 26.70000
C  28.79200 0.18600 27.71300
N  25.48900 0.58100 31.71300
C  26.36800 0.79700 32.74700
C  25.58600 0.93100 34.07700
C  24.10200 0.68800 33.62600
C  24.21500 0.74900 32.12900
C  23.44500 -0.62700 34.16500
C  25.98100 2.28800 34.72200
C  25.17200 2.68800 35.91600
H  25.92900 2.58000 37.26100
N  23.84200 0.90900 29.07900
C  22.83700 0.90900 29.98300
C  21.58900 1.18000 29.31100
C  21.85600 1.09600 27.89200
C  23.32200 0.91200 27.85300
C  20.19600 1.42800 30.02900
C  20.98600 1.00700 26.72000
O  21.41100 0.68900 25.62200
C  19.52600 1.23500 26.86200
N  26.42600 0.73800 27.55500
C  25.59700 0.97500 26.53200
C  26.16300 0.69600 25.16000
C  27.64400 0.42400 25.47900
C  27.63900 0.42700 27.02000
C  25.50500 -0.39400 24.24200
C  28.64400 1.46300 24.85700
C  29.99700 0.83900 24.52000
N  27.88000 0.49400 29.97000
C  28.95200 0.30200 29.12600
C  30.11800 0.09600 29.96500
C  29.74000 0.31100 31.32400
C  28.32800 0.49700 31.23000
C  31.39900 -0.28300 29.50600
C  30.20400 0.40000 32.67600
O  31.31400 0.42500 33.16300
C  28.88300 0.72900 33.51600
C  28.67100 -0.20300 34.61800
O  28.42900 -1.35200 34.49300
O  29.07800 0.42500 35.82100
C  28.93300 -0.26100 37.12900
H  22.10200 0.88100 31.98000
H  23.63900 0.95100 25.76600
H  29.60600 -0.24100 27.12400
H  26.00700 0.22200 34.79000
H  23.56600 1.56800 33.98200
H  23.17700 -1.43100 33.47900
H  22.59300 -0.33600 34.78000
H  24.13100 -1.05000 34.89900
H  25.92900 3.06100 33.95500
H  27.02100 2.19900 35.03600
H  24.24500 2.12300 36.01100
H  24.82000 3.70400 35.73700
H  19.61400 0.51300 29.91300
H  19.65300 2.20200 29.48700
H  20.22400 1.65400 31.09500
H  19.04700 1.05700 25.89900
H  19.24700 2.22300 27.22900
H  19.18000 0.46300 27.55000
H  26.09400 1.64600 24.62900
H  27.94400 -0.60400 25.27800
H  24.63700 -0.90900 24.65400
H  26.26800 -1.09000 23.89400
H  25.11600 0.22900 23.43700
H  28.66700 2.29100 25.56600
H  28.18100 1.87300 23.95900
H  30.28400 0.97900 23.47800
H  30.11400 -0.14000 24.98400
H  30.79000 1.40100 25.01500
H  31.55700 0.20800 28.54600
H  31.47100 -1.34800 29.28400
H  32.13700 -0.01100 30.26100
H  29.00900 1.72700 33.93600
H  28.47100 0.28500 37.95100
H  29.94000 -0.46600 37.49400
H  28.43600 -1.23100 37.10000
Mg -10.63400 39.24900 41.07300
C  -9.16700 36.23100 39.80600
C  -8.15900 40.88300 39.39400
C  -12.61400 41.93300 41.06000
C  -13.21400 37.21300 42.19600
N  -8.98400 38.62300 39.77900
C  -8.56600 37.36800 39.31300
C  -7.47200 37.42500 38.30700
C  -6.97200 38.84700 38.43100
C  -8.07300 39.48000 39.27800
C  -5.67800 39.04500 39.25100
C  -7.92500 36.91800 36.82100
C  -7.06000 35.91500 35.94900
H  -6.66400 36.37100 34.54000
N  -10.35900 41.20500 40.55600
C  -9.27100 41.71000 39.91000
C  -9.35500 43.13600 39.78200
C  -10.68800 43.49700 40.07900
C  -11.27100 42.20600 40.64000
C  -8.27500 44.00500 39.24700
C  -11.29000 44.91300 39.94000
O  -10.55500 45.88500 39.64800
C  -12.67100 45.16900 40.47200
N  -12.66400 39.54100 41.57500
C  -13.25400 40.79500 41.53500
C  -14.67300 40.76200 42.02100
C  -14.83400 39.26500 42.48000
C  -13.49200 38.57500 41.94800
C  -15.09400 41.73000 43.14300
C  -16.01500 38.33500 42.01000
C  -16.76000 37.52700 43.00100
N  -10.99600 37.13400 41.28300
C  -12.12400 36.49200 41.78700
C  -11.86500 35.03300 41.77100
C  -10.76100 34.89900 40.94000
C  -10.31400 36.26500 40.58600
C  -12.76700 33.89700 42.30700
C  -9.90000 33.93100 40.30700
O  -9.95700 32.68100 40.35400
C  -8.82500 34.77400 39.44800
C  -7.42300 34.32400 39.88600
O  -6.54700 34.02400 39.07600
O  -7.31800 34.18200 41.28100
C  -6.10400 33.46800 41.75800
H  -7.27900 41.28200 38.88500
H  -13.15500 42.88100 41.03700
H  -14.06600 36.60300 42.50100
H  -6.66200 36.77200 38.63200
H  -6.90400 39.38400 37.48400
H  -5.51000 38.13700 39.82900
H  -5.69700 39.88200 39.94900
H  -4.78400 39.18300 38.64300
H  -7.93800 37.82300 36.21300
H  -8.94600 36.55300 36.93700
H  -7.57300 34.97800 35.73300
H  -6.15700 35.69400 36.51900
H  -8.79300 44.78100 38.68400
H  -7.68700 43.42300 38.53700
H  -7.67600 44.57500 39.95700
H  -13.53200 44.73900 39.96100
H  -12.88000 46.23900 40.45600
H  -12.63300 44.87600 41.52100
H  -15.33400 40.89600 41.16500
H  -14.66800 39.13300 43.54900
H  -15.52100 42.60300 42.64900
H  -14.18900 42.05200 43.65800
H  -15.80100 41.34100 43.87600
H  -15.67800 37.76900 41.14200
H  -16.65100 39.07600 41.52600
H  -16.36700 36.51300 42.93100
H  -17.82800 37.49500 42.78300
H  -16.66800 37.89100 44.02400
H  -12.91900 34.07800 43.37100
H  -12.16700 32.98700 42.29100
H  -13.65900 33.68400 41.71800
H  -8.88300 34.70600 38.36200
H  -6.17600 33.16000 42.80100
H  -5.16500 34.00400 41.61900
H  -6.09800 32.60300 41.09500

