158

Mg 24.66500 -5.86500 45.64400
C  26.75300 -3.41700 44.42800
C  22.07200 -4.58800 43.79100
C  23.06900 -8.70500 46.00200
C  27.36700 -7.13700 47.50900
N  24.41800 -4.15900 44.26600
C  25.42800 -3.31300 43.89600
C  24.95800 -2.43500 42.71500
C  23.39100 -2.56700 42.84300
C  23.26100 -3.81900 43.66900
C  22.60500 -1.32300 43.50000
C  25.56300 -2.98900 41.37000
C  25.95700 -1.82900 40.38200
H  25.37000 -1.81800 39.00700
N  22.76700 -6.52100 45.11800
C  21.84900 -5.81000 44.42100
C  20.59200 -6.57500 44.37900
C  20.88900 -7.75600 45.07200
C  22.30800 -7.69200 45.43600
C  19.38500 -6.19200 43.63100
C  19.83400 -8.78500 45.35000
O  18.69200 -8.66900 44.87300
C  20.11800 -9.99700 46.17900
N  25.10200 -7.67700 46.72600
C  24.34800 -8.74400 46.46600
C  24.90500 -9.96900 47.16600
C  26.37900 -9.52800 47.56600
C  26.25800 -7.98600 47.30400
C  24.11700 -10.25400 48.51900
C  27.52100 -10.13100 46.75400
C  28.80700 -10.53000 47.53600
N  26.68700 -5.37500 45.96200
C  27.61500 -5.95900 46.79700
C  28.80700 -5.09400 46.83700
C  28.60900 -4.16400 45.76800
C  27.27300 -4.36000 45.35300
C  30.04100 -5.31400 47.65200
C  29.20500 -3.02100 45.08900
O  30.27300 -2.44300 45.11700
C  28.00700 -2.59100 44.09000
C  27.77700 -1.24100 44.39100
O  27.11000 -0.79200 45.32800
O  28.41900 -0.46700 43.39700
C  27.90900 0.89600 43.36600
H  21.29300 -4.03500 43.26100
H  22.71400 -9.73300 46.09600
H  28.20100 -7.53900 48.08900
H  25.19600 -1.37200 42.77000
H  23.04900 -2.85900 41.85100
H  23.40600 -0.70300 43.90300
H  21.91800 -1.52700 44.32100
H  21.96500 -0.81400 42.78000
H  24.84300 -3.55300 40.77800
H  26.46600 -3.59000 41.48000
H  27.00900 -2.01000 40.16300
H  25.82600 -0.84000 40.82200
H  19.04800 -7.08300 43.10100
H  19.55700 -5.29500 43.03600
H  18.58600 -5.96900 44.33700
H  19.21000 -10.41900 46.61000
H  20.64000 -9.73300 47.09900
H  20.57700 -10.80000 45.60200
H  24.86500 -10.73100 46.38800
H  26.64900 -9.62100 48.61800
H  23.20900 -10.80800 48.27900
H  24.02700 -9.24400 48.91800
H  24.65200 -11.02500 49.07300
H  27.91900 -9.31400 46.15100
H  27.19700 -10.90400 46.05700
H  29.67400 -9.87000 47.56500
H  29.07800 -11.53700 47.21900
H  28.66800 -10.68600 48.60600
H  30.73500 -5.68300 46.89700
H  29.90800 -6.09200 48.40300
H  30.33200 -4.37500 48.12200
H  28.32800 -2.75700 43.06200
H  26.87100 0.91900 43.03400
H  28.55000 1.50400 42.72700
H  27.92200 1.24800 44.39800
Mg 35.28100 48.59800 26.24000
C  35.49900 46.73000 29.25900
C  34.24600 51.20100 28.14900
C  34.84600 50.36500 23.35600
C  36.33500 45.82300 24.44300
N  35.05600 48.88400 28.51500
C  35.17300 48.05400 29.53000
C  35.24700 48.79500 30.88500
C  34.53000 50.16300 30.50900
C  34.65800 50.10900 28.96400
C  32.98100 50.28300 30.84200
C  36.73300 49.01200 31.37900
C  37.19100 48.36300 32.73600
H  37.33800 49.40300 33.84200
N  34.53900 50.40500 25.77200
C  34.10000 51.27900 26.72600
C  33.58600 52.43700 26.02800
C  33.59000 52.23700 24.59800
C  34.37400 50.99700 24.53300
C  32.84500 53.57500 26.70900
C  33.12700 53.07600 23.36000
O  33.28000 52.78800 22.16700
C  32.45500 54.43200 23.57300
N  35.60100 48.24900 24.21300
C  35.44100 49.10800 23.11500
C  35.58600 48.44900 21.76200
C  36.18600 47.06300 22.27200
C  36.14200 47.07200 23.74900
C  34.33500 48.38700 20.84800
C  37.68600 46.70000 21.85600
C  37.79700 45.39900 21.10100
N  35.78100 46.70300 26.70600
C  36.19100 45.70500 25.86100
C  36.35700 44.47200 26.64300
C  36.17000 44.81900 27.95500
C  35.72100 46.19600 27.97800
C  36.81000 43.12500 26.17400
C  36.22300 44.34000 29.31500
O  36.50600 43.26800 29.76800
C  35.66900 45.56100 30.20500
C  34.39300 45.18800 30.88900
O  33.37600 44.79000 30.37000
O  34.57600 45.30300 32.20700
C  33.41200 44.96300 33.00000
H  33.88900 52.00600 28.79400
H  34.72900 50.97100 22.45500
H  36.59600 44.90800 23.90600
H  34.61400 48.37200 31.66500
H  35.11400 50.99600 30.90000
H  32.69100 50.84900 31.72800
H  32.72600 49.24600 31.05900
H  32.30800 50.64800 30.06600
H  36.94300 50.08100 31.40200
H  37.36400 48.48400 30.66500
H  38.16200 47.88000 32.62800
H  36.45100 47.64900 33.10000
H  31.79900 53.68100 26.42100
H  33.31600 54.51200 26.41000
H  32.77800 53.50700 27.79500
H  32.15000 54.81900 22.60100
H  33.12600 55.17700 24.00000
H  31.55600 54.34100 24.18300
H  36.36100 49.01200 21.24100
H  35.52200 46.24100 22.00400
H  34.03900 47.35300 20.66900
H  34.55700 48.83900 19.88100
H  33.54900 49.03100 21.24300
H  38.28700 46.56400 22.75400
H  38.03300 47.44400 21.13900
H  38.58700 44.75200 21.48400
H  38.11600 45.68800 20.10000
H  36.81400 44.93800 21.00500
H  36.11100 42.40800 26.60400
H  37.79400 42.97400 26.61800
H  36.84300 43.06200 25.08600
H  36.43500 45.91100 30.89700
H  32.42700 45.08600 32.55000
H  33.49600 45.38400 34.00200
H  33.43900 43.88300 33.14700

