158

Mg 25.82000 0.89300 29.44000
C  27.69000 0.39800 32.35800
C  23.16200 1.45300 31.40300
C  24.08700 1.06100 26.63100
C  28.66900 -0.07300 27.62800
N  25.38800 0.70100 31.68800
C  26.35700 0.53700 32.68200
C  25.73500 0.79700 34.07300
C  24.27700 1.14800 33.67000
C  24.28300 1.14100 32.18000
C  23.18300 0.22100 34.30800
C  26.49600 1.91600 34.92200
C  27.04200 1.62700 36.34100
H  26.92500 2.70600 37.47800
N  23.93700 1.22300 29.07500
C  22.92500 1.45000 30.03000
C  21.62000 1.64800 29.35400
C  21.95800 1.67400 27.96700
C  23.38200 1.27900 27.83900
C  20.32000 1.74700 30.18700
C  21.02900 1.77700 26.78900
O  21.34600 1.56000 25.60900
C  19.62900 2.24500 27.02500
N  26.32400 0.44300 27.40300
C  25.41500 0.63000 26.39300
C  26.05200 0.59700 25.03900
C  27.56300 0.31600 25.43300
C  27.54600 0.25700 26.88000
C  25.63700 -0.42700 23.94800
C  28.60100 1.30500 24.89800
C  29.76100 0.61600 24.03900
N  27.73900 0.26600 29.85500
C  28.82300 -0.01100 29.02100
C  30.05900 -0.18100 29.80900
C  29.58800 0.01600 31.13100
C  28.21600 0.20700 31.13400
C  31.26800 -0.67400 29.29600
C  30.07400 -0.08800 32.44400
O  31.23600 -0.37700 32.83600
C  28.86500 0.16900 33.29200
C  28.62100 -1.09200 34.00200
O  27.93000 -1.99600 33.60500
O  29.23100 -0.97100 35.20400
C  28.70400 -1.71900 36.36000
H  22.29400 1.78300 31.97800
H  23.56400 0.99000 25.67600
H  29.53900 -0.36000 27.03400
H  25.77700 -0.19500 34.52300
H  23.93400 2.13400 33.98500
H  22.81400 0.67700 35.22700
H  23.68600 -0.71600 34.54800
H  22.29500 -0.05900 33.74100
H  25.77800 2.73500 34.98000
H  27.19600 2.33000 34.19600
H  28.12300 1.49600 36.28700
H  26.67600 0.64500 36.63800
H  20.36700 1.20600 31.13200
H  19.65600 1.15200 29.56100
H  19.99100 2.75400 30.44500
H  19.12200 1.48500 27.61900
H  19.17600 2.46900 26.05900
H  19.63400 3.21500 27.52400
H  25.96200 1.60600 24.63800
H  27.94600 -0.68500 25.23500
H  24.64600 -0.77400 24.24000
H  26.43300 -1.17100 23.93100
H  25.53000 -0.10200 22.91300
H  29.16000 1.71800 25.73700
H  28.15500 2.14400 24.36300
H  29.42400 0.86800 23.03300
H  29.88800 -0.45000 24.22800
H  30.71500 1.11700 24.20400
H  31.43200 -1.67000 28.88400
H  31.96100 -0.61300 30.13500
H  31.68200 -0.00500 28.54100
H  29.06300 0.98300 33.99000
H  27.77900 -1.25600 36.70500
H  29.43800 -1.83100 37.15800
H  28.56700 -2.77400 36.12200
Mg -2.20800 35.30100 26.79800
C  -4.08600 33.39400 29.08900
C  -1.25300 37.30300 29.43300
C  -0.85500 37.24400 24.68100
C  -3.53200 33.29300 24.19000
N  -2.73300 35.35800 29.01500
C  -3.36800 34.44200 29.75700
C  -3.08500 34.57300 31.29100
C  -2.47000 36.00300 31.39300
C  -2.08700 36.21900 29.84300
C  -3.35500 37.10500 32.01000
C  -2.35000 33.28900 31.90600
C  -2.81900 32.71800 33.22200
H  -3.22100 33.72000 34.38300
N  -1.18500 36.98100 27.06400
C  -0.80100 37.66900 28.20100
C  0.01100 38.78000 27.94800
C  0.11900 38.80000 26.51700
C  -0.63100 37.64200 26.02400
C  0.72400 39.63200 28.95700
C  0.96700 39.72100 25.69400
O  1.03700 39.55700 24.47900
C  1.66100 40.96900 26.27700
N  -2.22200 35.30100 24.72400
C  -1.55400 36.21300 24.06500
C  -1.43600 35.97800 22.58600
C  -2.05700 34.53000 22.43900
C  -2.66000 34.33800 23.85500
C  -2.04700 37.04600 21.63200
C  -1.13100 33.38000 22.04200
C  -1.10800 33.30700 20.49500
N  -3.53400 33.57200 26.60300
C  -4.01900 32.95500 25.43900
C  -4.74500 31.81300 25.87400
C  -4.81400 31.88100 27.28000
C  -4.10700 33.05300 27.69900
C  -5.30500 30.80400 24.89600
C  -5.39200 31.26600 28.47500
O  -5.99300 30.22900 28.63500
C  -4.95500 32.22900 29.70400
C  -6.15700 32.68500 30.47700
O  -7.15400 33.22100 29.95700
O  -5.88500 32.45800 31.81000
C  -6.90200 32.68700 32.86000
H  -0.90800 37.97300 30.22400
H  -0.27800 37.79000 23.93200
H  -3.73400 32.52400 23.44200
H  -3.98400 34.50700 31.90400
H  -1.53800 35.93600 31.95400
H  -4.37900 36.80300 32.23100
H  -3.34900 37.94800 31.31800
H  -2.84200 37.29900 32.95200
H  -1.31700 33.58800 32.08200
H  -2.19800 32.49400 31.17600
H  -1.97900 32.10000 33.53900
H  -3.60800 31.97400 33.10800
H  1.80500 39.61600 28.81500
H  0.51800 39.36300 29.99300
H  0.37400 40.65900 28.85900
H  0.97100 41.51100 26.92300
H  2.15300 41.43700 25.42500
H  2.52400 40.58600 26.82200
H  -0.37900 36.00800 22.32100
H  -2.80700 34.58200 21.65000
H  -2.67800 37.76300 22.15800
H  -2.63900 36.52900 20.87700
H  -1.25800 37.68600 21.23500
H  -1.46200 32.43000 22.46000
H  -0.20300 33.67700 22.53100
H  -1.74800 32.44400 20.30600
H  -0.16600 32.93700 20.09200
H  -1.47300 34.13200 19.88400
H  -6.11000 31.25700 24.31700
H  -5.72100 29.96400 25.45200
H  -4.59000 30.28100 24.26200
H  -4.35200 31.57000 30.32900
H  -6.78600 33.66800 33.32300
H  -6.79400 31.95500 33.66000
H  -7.91900 32.66600 32.46600

