158

Mg 40.43000 8.45400 29.65700
C  42.20500 9.54000 32.30600
C  38.38000 6.70100 31.89500
C  38.89600 7.01500 27.03100
C  42.94300 9.58900 27.47100
N  40.36900 8.15800 31.85700
C  41.08900 8.89500 32.78700
C  40.68000 8.56800 34.23500
C  39.64500 7.43000 34.07200
C  39.48400 7.36400 32.50300
C  40.14500 6.16100 34.75700
C  40.10900 9.89100 34.91300
C  40.91800 10.50500 36.08100
H  40.23800 11.48900 37.11600
N  38.70900 7.19600 29.54000
C  38.01800 6.59600 30.56300
C  36.94000 5.75400 29.99400
C  36.94500 6.12500 28.57800
C  38.23500 6.75700 28.28300
C  36.00100 4.72400 30.66500
C  35.94700 5.75100 27.51100
O  36.16100 5.86700 26.27900
C  34.64700 5.16600 27.88600
N  40.92100 8.27500 27.54600
C  40.11900 7.62500 26.71300
C  40.58600 7.81400 25.26200
C  41.67000 8.94100 25.33100
C  41.87500 8.97700 26.87100
C  41.07600 6.54900 24.58100
C  41.24600 10.27700 24.61800
C  39.93500 11.05100 25.06500
N  42.23900 9.43500 29.74000
C  43.17000 9.85600 28.86400
C  44.17100 10.60500 29.51700
C  43.86600 10.50600 30.82900
C  42.67700 9.75000 30.97600
C  45.25500 11.31800 28.84600
C  44.24800 10.91300 32.20100
O  45.20300 11.58300 32.57500
C  43.22600 10.31300 33.13900
C  44.04400 9.55700 34.17400
O  44.45900 8.39800 34.12400
O  44.05600 10.31400 35.34900
C  44.29900 9.44600 36.47800
H  37.74500 6.19700 32.62700
H  38.44900 6.52200 26.16600
H  43.72600 10.02000 26.84400
H  41.61500 8.30100 34.72700
H  38.72700 7.69900 34.59400
H  41.17600 6.24300 35.10300
H  40.03400 5.29000 34.11200
H  39.49400 5.84500 35.57200
H  39.06700 9.87500 35.23400
H  40.11800 10.68500 34.16600
H  41.70100 11.10600 35.61900
H  41.34100 9.63300 36.57900
H  34.97400 5.07600 30.75400
H  36.21800 4.40200 31.68300
H  35.79800 3.83800 30.06300
H  34.00000 5.04600 27.01700
H  34.23100 5.92500 28.54900
H  34.74500 4.14700 28.26200
H  39.71300 8.18900 24.72700
H  42.61100 8.57900 24.91600
H  41.54400 5.89400 25.31600
H  41.71100 6.94600 23.78900
H  40.27400 6.07200 24.01800
H  41.11500 9.87800 23.61300
H  42.04700 11.01700 24.63500
H  39.21900 10.89700 24.25800
H  40.12700 12.11700 25.18200
H  39.56000 10.64700 26.00600
H  45.02400 11.45900 27.79000
H  46.25200 10.90200 28.98800
H  45.19400 12.33200 29.24200
H  42.86900 11.17300 33.70500
H  43.94400 8.41500 36.47300
H  44.10500 9.93800 37.43000
H  45.37300 9.26900 36.53700
Mg 41.16300 41.76000 26.92400
C  40.38100 44.01800 29.67000
C  41.83200 39.41000 29.34500
C  41.84000 39.82500 24.51600
C  40.41000 44.42600 24.81300
N  41.27200 41.83700 29.32100
C  40.86400 42.82200 30.18400
C  40.93000 42.33000 31.66300
C  41.58500 40.89000 31.46400
C  41.56900 40.67800 29.96300
C  43.00200 40.61100 32.08000
C  39.64300 42.28100 32.49300
C  39.84100 42.32100 33.98500
H  38.83400 42.99700 34.85900
N  41.78100 39.83400 26.91200
C  41.98300 39.01900 27.96700
C  42.38400 37.68200 27.42000
C  42.35100 37.77400 26.02800
C  42.00800 39.16900 25.76200
C  42.72800 36.50600 28.33600
C  42.62700 36.74500 24.94600
O  42.68700 36.90400 23.73100
C  42.77400 35.28800 25.38100
N  41.41200 42.19200 24.84000
C  41.55900 41.13900 24.05300
C  41.38900 41.58900 22.62400
C  40.72300 43.02200 22.75000
C  40.82700 43.23600 24.20100
C  42.67200 41.36600 21.72300
C  39.27300 43.24900 22.19900
C  38.31000 42.04700 22.55400
N  40.77400 43.88700 27.13700
C  40.43400 44.81200 26.16300
C  40.16700 46.03700 26.77600
C  39.96800 45.68000 28.13100
C  40.44000 44.39300 28.31300
C  39.93400 47.29400 26.04600
C  39.46600 46.24300 29.39000
O  38.92900 47.28300 29.67700
C  39.65700 45.11800 30.45400
C  40.56300 45.71700 31.44400
O  41.74100 46.05300 31.25800
O  39.84000 45.85300 32.63200
C  40.64400 46.40100 33.76100
H  41.96600 38.60300 30.06800
H  41.81000 39.13200 23.67300
H  40.02800 45.19900 24.14300
H  41.64300 42.95100 32.20500
H  40.97600 40.11300 31.92600
H  43.35300 41.57000 32.46100
H  43.79200 40.25600 31.41900
H  42.90700 39.88600 32.88800
H  39.21500 41.28000 32.44600
H  38.81900 42.93800 32.21400
H  40.82200 42.76900 34.14800
H  40.00200 41.30300 34.34100
H  42.01800 35.68600 28.23000
H  42.77900 36.77600 29.39100
H  43.68400 36.10000 28.00700
H  42.88600 34.64400 24.50900
H  41.84700 35.00700 25.88100
H  43.64900 35.32400 26.03100
H  40.64100 40.96100 22.14000
H  41.37700 43.80400 22.36600
H  43.55100 41.50200 22.35300
H  42.43700 42.10900 20.96000
H  42.61800 40.34800 21.33700
H  39.25800 43.19400 21.11100
H  38.74000 44.06000 22.69500
H  38.55000 41.25100 21.84900
H  37.27100 42.34900 22.42300
H  38.49700 41.70900 23.57300
H  40.40600 47.39400 25.06800
H  40.25400 48.07600 26.73500
H  38.85200 47.29900 25.91300
H  38.73800 44.73000 30.89400
H  41.39200 45.70500 34.14100
H  39.95300 46.78200 34.51300
H  41.15800 47.27700 33.36500

