158

Mg -1.14300 18.00700 27.55000
C  -1.85300 15.80700 30.18200
C  -2.05700 20.67900 29.67000
C  -1.14300 20.02600 24.84800
C  -0.90500 15.28100 25.40100
N  -1.80200 18.18700 29.62200
C  -2.01700 17.14400 30.51000
C  -2.44200 17.72300 31.89900
C  -2.63200 19.23700 31.57000
C  -2.13100 19.35900 30.18900
C  -4.10100 19.77500 31.85100
C  -1.44600 17.44200 33.09900
C  -2.10900 17.09800 34.49300
H  -1.06300 17.07200 35.58900
N  -1.34100 20.08900 27.30700
C  -1.68300 20.96900 28.29200
C  -1.59900 22.31200 27.67700
C  -1.29600 22.23500 26.27900
C  -1.17300 20.72600 26.06600
C  -2.05100 23.55800 28.40300
C  -1.26100 23.26500 25.23700
O  -1.12000 22.90700 24.07100
C  -1.49300 24.69700 25.55500
N  -1.19200 17.66600 25.44200
C  -1.17900 18.64400 24.56700
C  -0.95500 18.19000 23.11800
C  -0.57200 16.72200 23.40700
C  -0.97500 16.51900 24.82000
C  -2.19500 18.46800 22.11300
C  0.95700 16.31900 23.11200
C  2.07800 17.15800 23.74400
N  -1.23000 15.91600 27.74000
C  -1.13800 14.96900 26.75000
C  -1.35500 13.67800 27.37000
C  -1.60500 13.94400 28.72800
C  -1.50300 15.33600 28.90600
C  -1.51100 12.45300 26.58800
C  -1.97800 13.37100 30.05700
O  -2.26500 12.23700 30.46200
C  -1.97300 14.52100 31.05400
C  -0.70200 14.34200 31.81000
O  0.40600 14.38900 31.32200
O  -0.87400 14.19500 33.12800
C  0.28400 13.84500 33.98800
H  -2.38100 21.44600 30.37600
H  -0.81400 20.69000 24.04500
H  -0.77500 14.47400 24.67700
H  -3.36100 17.31300 32.31800
H  -2.11600 19.93300 32.23200
H  -4.76900 19.00700 32.24100
H  -4.45100 20.01700 30.84800
H  -4.06100 20.63500 32.52100
H  -0.82800 18.33500 33.19600
H  -0.75200 16.61100 32.97300
H  -2.64500 16.15900 34.36000
H  -2.89200 17.85100 34.57900
H  -1.44600 24.42200 28.13000
H  -1.97500 23.35600 29.47100
H  -3.11400 23.77300 28.29100
H  -2.46600 24.93700 25.98400
H  -1.46200 25.31500 24.65700
H  -0.66600 25.14100 26.10800
H  -0.01100 18.58500 22.74400
H  -1.24500 16.13700 22.78100
H  -2.75700 19.30300 22.53100
H  -2.76400 17.55200 21.95400
H  -1.77300 18.66900 21.12800
H  1.16900 16.29200 22.04400
H  0.99900 15.25400 23.34100
H  1.54200 17.81700 24.42700
H  2.69200 17.80000 23.11200
H  2.80600 16.54200 24.27100
H  -2.01600 12.81000 25.69000
H  -2.07300 11.70600 27.14800
H  -0.58000 11.96200 26.30500
H  -2.87000 14.49900 31.67100
H  0.30300 12.77300 34.18600
H  0.29900 14.25200 34.99900
H  1.25400 14.09100 33.55700
Mg 47.83500 15.13100 28.14400
C  45.80300 14.80500 30.99800
C  50.00100 17.09700 30.19900
C  49.63900 15.83000 25.47500
C  45.39200 13.51900 26.22600
N  47.91400 15.75200 30.37000
C  46.95900 15.55600 31.27300
C  47.38500 15.99900 32.61200
C  48.47000 17.09200 32.22300
C  48.82500 16.62900 30.86100
C  48.01700 18.56000 32.33700
C  47.96600 14.82500 33.46800
C  48.40500 15.19200 34.94900
H  48.09000 16.60300 35.46100
N  49.71400 16.20100 27.93200
C  50.42400 16.82700 28.91300
C  51.53400 17.43900 28.22600
C  51.41900 17.15800 26.88300
C  50.29200 16.32000 26.68800
C  52.49200 18.30100 28.99200
C  52.31000 17.72900 25.76000
O  52.12200 17.37400 24.60800
C  53.67300 18.48600 25.93800
N  47.50000 14.75100 26.17300
C  48.48700 15.04200 25.24800
C  48.10700 14.49700 23.85000
C  46.76300 13.74500 24.08300
C  46.47800 13.98700 25.58600
C  48.14600 15.55400 22.66800
C  46.64800 12.24900 23.71300
C  45.63600 11.86800 22.63300
N  45.95300 14.36100 28.51600
C  45.02200 13.78700 27.64000
C  43.81200 13.47600 28.38800
C  44.07100 13.94600 29.66900
C  45.38900 14.37600 29.76600
C  42.62600 12.70300 27.79300
C  43.49100 14.08200 30.93700
O  42.41000 13.79000 31.45100
C  44.60900 14.64000 31.88300
C  44.07700 15.89200 32.48500
O  43.90300 16.94200 31.87300
O  43.92200 15.75900 33.87700
C  43.44700 16.84800 34.73700
H  50.52800 17.84300 30.79800
H  50.21400 16.14900 24.60300
H  44.62100 13.06500 25.60000
H  46.60200 16.41800 33.24300
H  49.30800 16.83400 32.87100
H  46.93500 18.62700 32.45700
H  48.28000 19.10400 31.43000
H  48.69000 19.02300 33.05900
H  48.82400 14.41100 32.93800
H  47.30200 13.96100 33.48600
H  49.48700 15.06000 34.95900
H  47.94100 14.60700 35.74300
H  53.49800 17.98800 28.71400
H  52.52300 18.21800 30.07900
H  52.24500 19.33300 28.74200
H  53.51600 19.37200 26.55200
H  54.07100 18.89800 25.01000
H  54.39700 17.82200 26.41000
H  48.84200 13.71500 23.66000
H  45.96200 14.22400 23.51900
H  48.24900 16.57500 23.03600
H  47.27400 15.63000 22.01800
H  48.97600 15.39300 21.98000
H  46.20000 11.80200 24.60100
H  47.62300 11.85700 23.42500
H  46.08300 11.07400 22.03500
H  45.35400 12.76900 22.08900
H  44.77800 11.43800 23.15000
H  42.57800 12.94000 26.73000
H  41.77400 13.10500 28.34200
H  42.80700 11.66900 28.08600
H  44.80700 13.94100 32.69600
H  42.40400 16.59500 34.92300
H  43.40600 17.77900 34.17000
H  43.94700 16.81900 35.70500

