158

Mg 54.81900 25.15200 43.58100
C  52.05300 27.37500 43.22600
C  52.95200 22.76500 41.97900
C  57.62400 23.42800 43.08000
C  56.67200 27.98000 44.72000
N  52.72100 25.09500 42.85300
C  51.83300 26.09000 42.69700
C  50.49000 25.65600 42.01900
C  50.73300 24.08000 42.02300
C  52.19300 23.99800 42.26100
C  49.93200 23.22600 43.09000
C  50.20500 26.24800 40.62000
C  51.25700 27.02900 39.86300
H  51.92800 26.15100 38.74100
N  55.24600 23.38200 42.63100
C  54.29800 22.46300 42.11200
C  54.97500 21.15700 41.91800
C  56.30900 21.30500 42.39200
C  56.47600 22.73700 42.70800
C  54.28300 19.94600 41.27300
C  57.28300 20.13600 42.33300
O  56.90600 19.03300 42.02800
C  58.64300 20.21600 42.87900
N  56.91400 25.64100 43.75100
C  57.87600 24.74200 43.54900
C  59.32100 25.40900 43.70400
C  58.93200 26.84700 44.22100
C  57.44700 26.89600 44.24500
C  60.27500 24.63800 44.61300
C  59.36300 28.00500 43.22300
C  60.26800 29.14100 43.69000
N  54.46600 27.22000 44.10100
C  55.27100 28.16200 44.65700
C  54.48300 29.32200 44.99700
C  53.19200 29.03200 44.46300
C  53.28000 27.81800 43.85300
C  54.88600 30.38300 45.81000
C  51.85500 29.51300 44.25500
O  51.37700 30.56000 44.52800
C  50.99500 28.46900 43.40600
C  50.67600 29.27500 42.14300
O  51.45200 29.99800 41.52600
O  49.33700 29.06900 41.84400
C  48.72400 29.96000 40.74800
H  52.29200 22.13300 41.38100
H  58.51300 22.79700 43.13800
H  57.27700 28.76200 45.18300
H  49.63100 25.84200 42.66300
H  50.56800 23.58900 41.06400
H  49.65100 22.25200 42.68900
H  48.99300 23.74900 43.27300
H  50.51300 23.12100 44.00600
H  49.32200 26.88700 40.64200
H  49.98400 25.47000 39.88900
H  52.10600 27.38600 40.44500
H  50.69100 27.86100 39.44400
H  54.81800 19.42400 40.48000
H  53.50400 20.39600 40.65700
H  53.75000 19.29500 41.96500
H  59.14900 19.33700 43.27800
H  58.48900 20.90000 43.71400
H  59.23100 20.72500 42.11500
H  59.81500 25.50100 42.73700
H  59.25400 27.13500 45.22100
H  60.48900 25.13500 45.55900
H  61.19500 24.27400 44.15700
H  59.71400 23.74500 44.88700
H  58.50800 28.42400 42.69300
H  59.97000 27.57600 42.42600
H  61.31600 29.08700 43.39300
H  60.29600 29.27500 44.77100
H  59.88100 29.99000 43.12700
H  55.33000 31.20600 45.25100
H  55.54600 30.07700 46.62200
H  53.94300 30.81300 46.14900
H  50.07100 28.11600 43.86300
H  47.73000 30.09900 41.17100
H  48.55600 29.43100 39.81000
H  49.18300 30.93800 40.60300
Mg 29.11500 57.21600 41.31400
C  26.33600 55.35400 40.24100
C  31.10500 55.10300 39.61200
C  31.47500 59.70100 41.29100
C  26.67800 59.77300 42.26800
N  28.80900 55.54600 40.03100
C  27.56900 54.94200 39.74500
C  27.75300 53.66200 38.88300
C  29.31200 53.40700 38.98400
C  29.77600 54.77700 39.45600
C  29.81900 52.19200 39.88300
C  27.18300 53.76800 37.49000
C  27.55300 55.13000 36.70900
H  27.62800 55.12000 35.25600
N  30.96400 57.33400 40.77800
C  31.69800 56.34000 40.15300
C  33.09800 56.63300 40.03700
C  33.23100 57.98400 40.54400
C  31.86200 58.36500 40.95100
C  34.18800 55.70600 39.45900
C  34.50800 58.65300 40.77400
O  35.55000 58.18900 40.34200
C  34.65200 59.97700 41.52900
N  29.03900 59.47600 41.64900
C  30.21300 60.24100 41.65100
C  29.93700 61.72100 41.97000
C  28.40200 61.68400 42.32500
C  28.01200 60.15200 42.13400
C  30.81800 62.28200 43.10400
C  27.53000 62.80900 41.68700
C  26.54800 63.55500 42.57200
N  26.93600 57.48300 41.50700
C  26.15200 58.55700 41.98900
C  24.77400 58.07000 41.95200
C  24.77500 56.84500 41.27400
C  26.11900 56.53600 41.01600
C  23.58700 58.67700 42.67700
C  23.87300 55.78600 40.80100
O  22.66400 55.59300 40.83800
C  24.81300 54.86100 40.03000
C  24.57200 53.39900 40.51000
O  24.54300 53.09700 41.68600
O  24.43700 52.63500 39.41700
C  24.31800 51.21700 39.76600
H  31.85800 54.44600 39.17100
H  32.27200 60.44700 41.26900
H  25.89700 60.44400 42.63100
H  27.44600 52.69900 39.29200
H  29.80900 53.34000 38.01600
H  29.63000 51.17900 39.52900
H  29.25700 52.43500 40.78500
H  30.86600 52.29800 40.16600
H  26.09600 53.69100 37.51000
H  27.53300 52.93100 36.88500
H  28.44400 55.64100 37.07400
H  26.70400 55.76600 36.95800
H  33.93700 55.39600 38.44500
H  34.33100 54.86800 40.14100
H  35.15500 56.14200 39.21000
H  34.27800 60.81700 40.94400
H  35.71900 60.13400 41.68800
H  34.05100 59.79500 42.42000
H  30.10700 62.30700 41.06700
H  28.42600 61.87400 43.39800
H  30.42700 62.47300 44.10400
H  31.43800 63.10900 42.75800
H  31.63500 61.56500 43.17500
H  26.95700 62.39200 40.85800
H  28.13800 63.61700 41.27900
H  26.62600 63.10100 43.56000
H  25.52900 63.28200 42.29600
H  26.77800 64.62000 42.56600
H  23.95600 59.17800 43.57200
H  22.92500 57.82800 42.84200
H  23.13400 59.44000 42.04300
H  24.52100 54.88000 38.98000
H  25.00300 50.91400 40.55800
H  24.45500 50.56500 38.90400
H  23.25000 51.10600 39.95700

