158

Mg 49.50800 44.67900 42.83600
C  46.21400 45.24200 41.79800
C  49.22200 41.48100 41.65500
C  52.87900 44.48000 42.84000
C  49.88000 48.27100 43.03100
N  47.93100 43.51500 41.89200
C  46.65400 43.89900 41.64000
C  45.75700 42.74700 40.96700
C  46.63700 41.53600 41.29500
C  48.01800 42.15900 41.66200
C  46.08500 40.44500 42.25000
C  45.30800 42.98900 39.47900
C  43.84000 43.18000 39.11700
H  43.48800 42.97100 37.64200
N  50.85400 43.16000 42.49500
C  50.55200 41.92500 41.99700
C  51.78200 41.16700 41.81700
C  52.80600 41.97200 42.32400
C  52.21200 43.24900 42.63700
C  51.87200 39.90700 41.01000
C  54.26300 41.54200 42.57100
O  54.56700 40.40100 42.24700
C  55.33100 42.36900 43.21600
N  51.13300 46.19200 43.02000
C  52.40200 45.81300 43.15200
C  53.35800 46.98700 43.35700
C  52.37900 48.24100 43.56700
C  51.04500 47.56100 43.19700
C  54.35400 46.79200 44.55800
C  52.68800 49.38300 42.59100
C  53.09900 50.66700 43.29800
N  48.25700 46.46400 42.65600
C  48.61300 47.82600 42.70900
C  47.34400 48.62400 42.47000
C  46.37100 47.61800 42.13100
C  47.01200 46.35000 42.16800
C  47.35900 50.19500 42.42300
C  45.03500 47.37400 41.68800
O  44.09500 48.13500 41.40500
C  44.85800 45.85700 41.47500
C  43.84200 45.50300 42.37300
O  43.91600 45.72200 43.55700
O  42.75800 44.90300 41.68400
C  41.58700 44.55200 42.48600
H  49.14200 40.44400 41.32200
H  53.96500 44.38900 42.77800
H  49.88300 49.35600 43.15300
H  44.83400 42.86200 41.53700
H  46.95100 41.06000 40.36600
H  46.03900 39.52600 41.66600
H  45.14100 40.79600 42.66700
H  46.76700 40.35400 43.09600
H  45.69600 42.26800 38.75900
H  45.74600 43.91500 39.10700
H  43.49700 44.14300 39.49500
H  43.34900 42.34400 39.61600
H  52.40700 39.12000 41.54100
H  52.60200 40.08500 40.22000
H  50.84300 39.67300 40.73800
H  55.71900 43.16400 42.57900
H  56.14600 41.79600 43.65800
H  54.84200 42.88400 44.04200
H  53.99900 47.25000 42.51500
H  52.37900 48.56800 44.60700
H  55.38100 46.84000 44.19800
H  54.07900 45.80500 44.93200
H  54.25800 47.53500 45.35000
H  51.90600 49.57500 41.85600
H  53.57300 49.12300 42.01000
H  52.88800 50.68800 44.36700
H  52.54100 51.49100 42.85200
H  54.16400 50.88200 43.20900
H  46.33300 50.56200 42.40700
H  47.82500 50.38700 41.45600
H  47.86900 50.79000 43.18000
H  44.51800 45.70000 40.45200
H  41.66800 43.56600 42.94300
H  40.64700 44.39000 41.95800
H  41.36600 45.35300 43.19000
Mg 7.30200 54.80900 42.17000
C  6.51300 51.47100 41.48700
C  10.47500 54.21300 40.95700
C  7.71700 58.21000 41.87000
C  3.87000 55.28500 42.62100
N  8.28600 53.08700 41.22400
C  7.82700 51.78400 41.14500
C  9.00900 50.85200 40.67300
C  10.26600 51.71400 41.00100
C  9.62700 53.10300 40.99000
C  11.04400 51.29300 42.31500
C  8.97300 50.40000 39.20100
C  8.79700 51.45500 38.07900
H  7.53900 51.24000 37.23400
N  8.95900 55.99800 41.61500
C  10.17100 55.53400 41.21500
C  11.03600 56.63400 41.00700
C  10.28300 57.81900 41.34400
C  8.91400 57.38600 41.68400
C  12.48400 56.60400 40.44100
C  10.75700 59.25900 41.45000
O  11.90500 59.53600 41.08900
C  9.96300 60.51600 41.88000
N  5.95800 56.52700 42.17200
C  6.38400 57.81800 42.03300
C  5.26200 58.85300 42.29700
C  4.02200 57.85100 42.49700
C  4.66400 56.45700 42.46300
C  5.54200 59.76800 43.52600
C  2.83000 58.06800 41.47900
C  1.58000 58.83600 41.93200
N  5.54600 53.65800 42.23900
C  4.24900 53.98900 42.52800
C  3.47800 52.83100 42.72100
C  4.33800 51.82100 42.30400
C  5.57200 52.38300 42.00400
C  2.04000 52.70000 43.18300
C  4.37400 50.36100 42.08200
O  3.51500 49.45800 42.31400
C  5.83100 50.13500 41.52100
C  5.88700 49.22300 40.40700
O  5.42100 49.49300 39.28400
O  6.61700 48.07500 40.71200
C  6.94400 47.10800 39.70000
H  11.53600 53.99600 40.82000
H  7.99100 59.26700 41.84400
H  2.82500 55.45200 42.89100
H  8.85600 49.99400 41.32700
H  10.96800 51.41100 40.22500
H  10.43200 50.66400 42.96100
H  11.24900 52.21000 42.86800
H  11.97100 50.74500 42.14200
H  8.20200 49.63400 39.12100
H  9.93600 49.95100 38.95900
H  9.70000 51.29100 37.49200
H  8.76700 52.43000 38.56500
H  12.79600 55.60500 40.13700
H  13.03700 56.97200 41.30500
H  12.73200 57.23300 39.58600
H  9.32000 60.93300 41.10400
H  10.64700 61.33500 42.09900
H  9.56500 60.25200 42.85900
H  5.14600 59.46000 41.39900
H  3.56600 57.99400 43.47600
H  5.11100 59.29000 44.40600
H  5.19100 60.77500 43.30100
H  6.60300 59.81500 43.77100
H  2.52700 57.09200 41.10100
H  3.14900 58.66700 40.62600
H  0.85600 58.08700 42.25500
H  1.03000 59.43100 41.20300
H  1.91000 59.39700 42.80600
H  1.69300 51.73600 43.55600
H  1.44100 52.87400 42.29000
H  1.95600 53.52600 43.89000
H  6.45600 49.59000 42.22800
H  7.96100 47.03000 39.31700
H  6.34800 47.17800 38.79000
H  6.79000 46.15100 40.19800

