158

Mg -0.04900 7.81500 26.75700
C  0.96900 9.61900 29.49500
C  -0.25100 4.99000 28.75400
C  -0.91400 5.91100 24.10700
C  0.61500 10.42900 24.67000
N  0.29600 7.40900 28.92300
C  0.64100 8.35400 29.80300
C  0.35300 7.83800 31.24800
C  0.38800 6.25400 30.96400
C  0.11400 6.19800 29.41300
C  1.68300 5.43100 31.38000
C  -0.97700 8.41700 31.80800
C  -1.05000 8.26300 33.39000
H  0.08700 7.66200 34.22300
N  -0.59000 5.78600 26.48700
C  -0.68700 4.86000 27.44700
C  -1.33500 3.71800 26.92300
C  -1.66500 3.94300 25.57200
C  -1.03500 5.23600 25.31400
C  -1.69800 2.52100 27.72500
C  -2.43300 3.10300 24.55900
O  -2.58300 3.41700 23.41300
C  -2.96800 1.71800 24.88400
N  -0.00100 8.04900 24.64900
C  -0.36700 7.14700 23.77500
C  -0.16800 7.61000 22.34300
C  -0.09600 9.15800 22.56200
C  0.27900 9.22700 24.04300
C  1.19200 7.00300 21.73800
C  -1.52000 9.96100 22.43100
C  -1.69000 10.81400 21.23900
N  0.81400 9.59500 27.00400
C  0.87000 10.63700 26.01600
C  1.12100 11.89400 26.71700
C  1.32300 11.48300 28.08200
C  1.03800 10.12100 28.17200
C  1.35300 13.24800 26.18800
C  1.59100 12.00400 29.40200
O  1.83300 13.17100 29.73100
C  1.32100 10.79700 30.35300
C  2.51700 10.53300 31.28100
O  3.25800 9.54600 31.34900
O  2.62400 11.57900 32.17300
C  3.77600 11.40300 33.07300
H  -0.27200 4.09000 29.37200
H  -1.17800 5.34500 23.21200
H  0.67400 11.33600 24.06400
H  1.19700 8.03300 31.90900
H  -0.40100 5.77200 31.54100
H  2.23200 5.04700 30.52100
H  1.36800 4.57400 31.97500
H  2.34000 6.17000 31.84000
H  -1.89000 7.98400 31.40100
H  -1.03500 9.49500 31.65400
H  -2.02400 7.86200 33.67300
H  -0.96800 9.28300 33.76600
H  -2.68200 2.70600 28.15500
H  -0.96400 2.28900 28.49700
H  -1.87200 1.63000 27.12200
H  -2.29700 0.86500 24.78700
H  -3.85300 1.47400 24.29600
H  -3.34300 1.78400 25.90500
H  -1.02700 7.34500 21.72600
H  0.60800 9.72000 21.94900
H  1.04600 6.24800 20.96500
H  1.73600 6.50400 22.54000
H  1.73600 7.77500 21.19400
H  -1.84700 10.45500 23.34600
H  -2.35200 9.26100 22.35600
H  -1.08700 10.53200 20.37600
H  -1.45900 11.85100 21.48200
H  -2.69900 10.75600 20.83200
H  0.40700 13.74400 25.97000
H  1.97800 13.34700 25.30100
H  1.68200 13.88800 27.00700
H  0.44600 11.02700 30.96100
H  3.79600 10.44400 33.59100
H  3.76500 12.25400 33.75400
H  4.70400 11.39600 32.50200
Mg 44.41100 5.03800 47.25700
C  42.10900 7.93000 46.90000
C  41.52500 3.01800 46.76000
C  46.37600 2.47500 46.98400
C  46.95700 7.19100 46.55400
N  42.06600 5.45500 47.00100
C  41.45100 6.65200 46.86100
C  39.95400 6.40700 46.61900
C  39.76200 4.85900 46.92300
C  41.24500 4.42100 46.88200
C  38.86900 4.47200 48.17000
C  39.53200 6.78500 45.20300
C  38.42300 7.80300 45.09400
H  37.60700 7.78700 43.81400
N  43.99500 3.02100 47.18800
C  42.81800 2.35300 46.90600
C  43.12400 0.97700 46.71700
C  44.52800 0.71400 46.77300
C  45.00300 2.07600 47.09300
C  42.04200 -0.13100 46.59100
C  45.27200 -0.63500 46.58600
O  44.73200 -1.64300 46.23700
C  46.82000 -0.82600 46.58900
N  46.42400 4.87300 46.75400
C  47.06300 3.69100 46.81300
C  48.56700 3.89800 47.00000
C  48.75500 5.37700 46.49200
C  47.29500 5.89400 46.64100
C  49.05500 3.59200 48.46800
C  49.34900 5.64000 45.01700
C  50.82500 5.99700 44.98100
N  44.57900 7.13200 47.03100
C  45.72200 7.85300 46.75600
C  45.39700 9.32500 46.74800
C  44.04800 9.38500 46.89900
C  43.54100 8.04700 46.93600
C  46.36100 10.42900 46.61500
C  42.85300 10.27600 46.99200
O  42.84100 11.52900 46.95700
C  41.62600 9.38500 46.95900
C  40.70500 9.58500 48.12300
O  40.59300 8.84900 49.11600
O  39.97700 10.66600 47.86300
C  38.88200 10.99500 48.70900
H  40.69900 2.31300 46.64900
H  47.15100 1.70800 46.93400
H  47.84600 7.80200 46.38100
H  39.37000 6.98900 47.33300
H  39.27400 4.21700 46.18900
H  39.54000 4.54200 49.02600
H  38.54400 3.43500 48.09400
H  38.04900 5.18200 48.28900
H  39.19800 5.93000 44.61400
H  40.46600 7.11500 44.74900
H  38.76700 8.79000 45.40300
H  37.77100 7.43300 45.88500
H  41.95900 -0.78400 47.45900
H  42.31700 -0.77400 45.75500
H  40.99300 0.13800 46.46300
H  47.02600 -1.82700 46.21000
H  47.32900 -0.53100 47.50700
H  47.22900 -0.22100 45.77900
H  49.06000 3.15100 46.37900
H  49.33800 5.93400 47.22500
H  48.12700 3.47900 49.03000
H  49.59800 4.46800 48.82100
H  49.69200 2.71200 48.37800
H  48.66500 6.40900 44.65800
H  49.30600 4.75700 44.37900
H  51.07500 6.54000 44.07000
H  51.31500 5.02500 44.92400
H  51.14900 6.48400 45.90200
H  47.35100 10.15400 46.97900
H  45.95700 11.31100 47.11200
H  46.48700 10.82900 45.60900
H  41.08600 9.66200 46.05300
H  38.99600 12.03700 49.00700
H  38.55000 10.46900 49.60400
H  37.91800 11.00300 48.20000

