158

Mg 41.00100 8.57200 30.34600
C  42.81900 9.75300 33.02100
C  38.48400 7.71500 32.53200
C  39.30900 7.52600 27.65400
C  43.56900 9.54000 28.19900
N  40.74800 8.53200 32.57200
C  41.60800 9.26600 33.42000
C  40.97700 9.42200 34.80800
C  39.74400 8.40700 34.73100
C  39.64000 8.16600 33.19100
C  39.75300 7.09800 35.57600
C  40.50200 10.82200 35.19900
C  40.04400 11.02400 36.66100
H  40.60200 12.16100 37.51600
N  39.20000 7.67800 30.13200
C  38.27800 7.40800 31.15500
C  37.10300 6.74200 30.55100
C  37.22700 6.84400 29.18800
C  38.60100 7.38100 28.91400
C  35.88000 6.28300 31.32700
C  36.22400 6.51300 28.08100
O  36.49300 6.76600 26.90500
C  34.90500 5.90200 28.32800
N  41.46400 8.31900 28.20700
C  40.56000 7.92000 27.33500
C  41.13200 7.94900 25.92700
C  42.38400 8.90400 26.07200
C  42.45200 8.97900 27.57000
C  41.53600 6.55400 25.33600
C  42.36700 10.24600 25.37300
C  41.87400 11.53700 26.04400
N  42.86000 9.42100 30.52300
C  43.82700 9.72400 29.59100
C  44.88600 10.47200 30.21200
C  44.54200 10.54600 31.55500
C  43.29900 9.84100 31.74400
C  46.07400 11.00800 29.53500
C  44.95400 11.03200 32.81600
O  45.93300 11.71800 33.20500
C  43.87000 10.52000 33.82200
C  44.60200 9.90200 34.93000
O  45.05400 8.76100 34.91300
O  44.82100 10.77200 35.97200
C  45.68200 10.31900 37.06700
H  37.66000 7.44600 33.19800
H  38.80700 7.25000 26.72500
H  44.35900 10.08100 27.67300
H  41.67100 9.01500 35.54400
H  38.83800 8.93200 35.03300
H  40.06500 6.38400 34.81400
H  38.80900 6.79000 36.02600
H  40.50300 7.10600 36.36700
H  39.67700 11.06100 34.52800
H  41.27100 11.57100 35.01400
H  40.27200 10.13500 37.25000
H  38.97900 11.20900 36.52100
H  36.15700 6.09400 32.36400
H  35.47100 5.35400 30.92900
H  35.09300 7.03400 31.39600
H  35.01600 4.91400 28.77500
H  34.41100 5.80900 27.36000
H  34.23200 6.41300 29.01600
H  40.53500 8.35300 25.10900
H  43.37800 8.54100 25.80800
H  42.61500 6.47800 25.47000
H  41.24900 6.40900 24.29500
H  41.10600 5.71200 25.87800
H  41.77900 10.12800 24.46300
H  43.37100 10.41600 24.98700
H  42.73600 12.19800 25.95500
H  41.43600 11.48000 27.04100
H  41.02600 11.91900 25.47600
H  45.83500 11.54100 28.61400
H  46.65800 10.16600 29.16300
H  46.76000 11.58600 30.15400
H  43.49600 11.51900 34.04400
H  45.00400 9.79800 37.74200
H  46.03500 11.20000 37.60300
H  46.51100 9.65700 36.81600
Mg 5.91400 53.18100 41.10900
C  5.77500 49.75300 40.31300
C  9.19700 53.17700 39.64800
C  5.75900 56.52700 40.90600
C  2.56700 52.94700 41.98500
N  7.32600 51.62100 40.20200
C  7.08500 50.31000 40.06900
C  8.43600 49.58500 39.64000
C  9.50100 50.72400 39.83200
C  8.62200 51.94300 39.85500
C  10.28300 50.58900 41.16600
C  8.28600 49.08800 38.20100
C  7.56300 49.99300 37.10900
H  8.13100 49.88400 35.68800
N  7.29200 54.67200 40.37000
C  8.52800 54.44500 39.79000
C  9.14800 55.73300 39.61000
C  8.18300 56.75700 39.93300
C  7.01900 55.99300 40.46900
C  10.44200 55.96800 38.96600
C  8.37400 58.27400 39.74200
O  9.35600 58.68400 39.16400
C  7.42100 59.31500 40.32200
N  4.36000 54.49400 41.48900
C  4.56800 55.85500 41.31200
C  3.35500 56.57500 41.74900
C  2.29100 55.40600 41.97200
C  3.09500 54.20900 41.83900
C  3.71700 57.39300 43.00500
C  1.02000 55.44600 40.98400
C  -0.26700 55.56600 41.73900
N  4.52500 51.68900 41.25000
C  3.22200 51.75900 41.66200
C  2.61700 50.48300 41.72300
C  3.58400 49.64700 41.19300
C  4.73700 50.46000 40.88300
C  1.34800 50.00000 42.24600
C  3.94500 48.29400 40.84400
O  3.28400 47.29200 40.94600
C  5.39600 48.29200 40.21400
C  5.23600 47.86100 38.82200
O  4.43400 48.26200 38.01100
O  6.00800 46.77700 38.70300
C  5.85000 46.20000 37.33300
H  10.24000 53.17600 39.32600
H  5.75200 57.61100 41.03600
H  1.49600 53.00000 42.19000
H  8.60600 48.69200 40.24100
H  10.14400 50.88600 38.96700
H  11.31900 50.46000 40.85500
H  9.97300 49.71700 41.74300
H  10.11000 51.41500 41.85600
H  8.03100 48.04100 38.36500
H  9.35600 48.93000 38.06400
H  7.68700 51.00900 37.48200
H  6.51100 49.71000 37.15200
H  10.38200 56.32100 37.93600
H  11.07200 55.08000 38.92400
H  10.91100 56.77600 39.52700
H  7.80000 60.27400 39.96800
H  7.43100 59.27900 41.41100
H  6.41800 59.16200 39.92400
H  3.04400 57.23700 40.94100
H  1.94100 55.45800 43.00300
H  3.06900 57.02100 43.79900
H  3.55000 58.46400 42.88900
H  4.76100 57.19200 43.24500
H  0.92200 54.51400 40.42600
H  1.15000 56.17700 40.18600
H  -0.11700 55.62600 42.81700
H  -0.93000 54.77500 41.39100
H  -0.81100 56.46000 41.43100
H  0.59700 50.38800 41.55800
H  1.15100 50.34400 43.26200
H  1.22400 48.91900 42.18100
H  6.01500 47.58300 40.76500
H  6.76500 45.71000 37.00100
H  5.75500 46.96300 36.56100
H  5.05500 45.46700 37.19600

