158

Mg 35.61200 0.82800 29.73500
C  33.42100 2.54400 31.97400
C  38.05600 1.20900 32.32900
C  37.90200 -0.17900 27.56600
C  33.25500 1.29900 27.32700
N  35.72300 1.71600 31.90400
C  34.63700 2.26900 32.55700
C  34.88900 2.34500 34.03900
C  36.46600 2.26400 34.10100
C  36.77200 1.62500 32.74900
C  37.25000 3.71600 34.31300
C  34.14300 1.11100 34.78600
C  33.67500 1.41700 36.24100
H  34.15400 2.65500 36.96700
N  37.69100 0.39100 29.95700
C  38.49100 0.63500 31.07800
C  39.86800 0.18000 30.78400
C  39.79200 -0.23600 29.41900
C  38.40700 -0.00000 28.94000
C  40.83900 0.02600 31.90100
C  40.81600 -0.79200 28.49200
O  40.61600 -1.12600 27.33900
C  42.08300 -1.16800 29.08600
N  35.57800 0.64800 27.73300
C  36.64500 0.14200 27.07500
C  36.35400 0.19300 25.54700
C  34.80000 0.47600 25.56600
C  34.48500 0.77700 26.96100
C  37.05600 1.28800 24.71700
C  33.95000 -0.66300 24.92500
C  32.85000 -0.14800 23.87400
N  33.67400 1.67000 29.64800
C  32.82400 1.72200 28.62300
C  31.49100 2.25300 29.01500
C  31.70300 2.66000 30.31000
C  33.02700 2.22400 30.63300
C  30.20900 2.16500 28.22200
C  31.07600 3.25000 31.46000
O  29.92200 3.64400 31.60900
C  32.20600 3.20900 32.63300
C  32.41500 4.61600 32.94700
O  33.24700 5.35400 32.52700
O  31.59200 4.89600 34.02400
C  31.68000 6.25400 34.60500
H  38.81500 1.27700 33.11100
H  38.60500 -0.50400 26.79600
H  32.58400 1.29100 26.46500
H  34.54900 3.33300 34.34900
H  36.82300 1.56900 34.86100
H  36.54200 4.47900 34.63300
H  37.61900 4.07300 33.35100
H  38.01400 3.67500 35.08900
H  34.76800 0.21800 34.75000
H  33.21500 0.84000 34.28100
H  33.94300 0.48800 36.74400
H  32.59100 1.52900 36.26900
H  41.64000 0.75600 32.01800
H  41.48900 -0.83000 31.72000
H  40.52100 -0.11800 32.93400
H  41.95900 -2.08200 29.66800
H  42.57700 -0.39200 29.67100
H  42.73500 -1.49300 28.27500
H  36.48500 -0.80700 25.13400
H  34.53100 1.39600 25.04800
H  37.90800 1.75400 25.21200
H  36.37300 2.12100 24.55200
H  37.27000 0.71200 23.81700
H  33.52500 -1.34200 25.66500
H  34.66300 -1.24200 24.33800
H  33.25900 -0.34000 22.88200
H  32.55700 0.89700 23.97000
H  31.87100 -0.57300 24.09500
H  30.38300 1.26200 27.63700
H  30.03100 3.03000 27.58300
H  29.36100 2.16500 28.90700
H  31.76400 2.59000 33.41400
H  32.13000 6.17800 35.59500
H  30.65900 6.63200 34.65500
H  32.33900 6.94100 34.07400
Mg 48.02700 34.90500 26.85500
C  46.48800 33.37300 29.64900
C  48.63400 37.66700 28.74200
C  49.05100 36.24400 24.07400
C  46.92500 31.93900 25.01600
N  47.61800 35.46300 28.99600
C  47.05800 34.65300 29.97500
C  47.11900 35.40900 31.36900
C  47.45700 36.88400 30.92700
C  47.94600 36.64900 29.49200
C  46.24100 37.85500 30.89400
C  48.23600 34.81300 32.19700
C  47.87800 34.66700 33.65300
H  48.95800 34.96900 34.74400
N  48.87800 36.67000 26.43900
C  49.16400 37.66200 27.35200
C  49.93600 38.66100 26.69600
C  49.91400 38.40900 25.26400
C  49.16900 37.10300 25.24700
C  50.35900 39.94600 27.43100
C  50.48300 39.23700 24.18100
O  50.33400 39.02000 22.97000
C  51.37100 40.40500 24.53000
N  48.00000 34.11400 24.90400
C  48.47600 34.96800 23.92600
C  48.44100 34.29500 22.56000
C  47.86000 32.82800 22.89300
C  47.51000 32.96400 24.38700
C  47.72600 35.18300 21.56700
C  48.95500 31.73700 22.65000
C  48.41900 30.32800 22.39700
N  46.92500 32.99500 27.23900
C  46.62100 31.92000 26.33600
C  45.92500 30.83400 27.13900
C  45.77200 31.41100 28.39600
C  46.42300 32.71800 28.38000
C  45.43800 29.51300 26.67700
C  45.29600 31.14400 29.74700
O  44.73900 30.13200 30.19200
C  45.70400 32.47500 30.55700
C  46.31800 32.04900 31.89100
O  47.49200 31.70200 31.97300
O  45.45200 31.96300 32.93500
C  45.97300 31.13400 34.03100
H  48.76900 38.68300 29.11900
H  49.63500 36.63700 23.23900
H  46.58100 31.04000 24.49900
H  46.18900 35.46100 31.93500
H  48.28700 37.34600 31.46300
H  46.32700 38.59800 31.68600
H  45.35100 37.27700 31.14200
H  46.08800 38.41500 29.97200
H  49.07600 35.50600 32.22600
H  48.52500 33.86800 31.73600
H  47.69300 33.59300 33.66700
H  46.96900 35.20900 33.91600
H  50.01400 40.81300 26.86800
H  51.44200 39.85600 27.52500
H  50.01700 40.08500 28.45600
H  50.78500 41.26500 24.85700
H  51.91700 40.69800 23.63300
H  52.12200 40.09400 25.25600
H  49.49700 34.20000 22.30700
H  47.03400 32.68200 22.19700
H  47.22800 35.91400 22.20400
H  46.98000 34.62200 21.00400
H  48.36400 35.77300 20.90800
H  49.59100 31.58100 23.52100
H  49.55300 32.06300 21.79900
H  48.83100 29.58900 23.08400
H  48.56200 30.00200 21.36600
H  47.33200 30.33700 22.48400
H  45.81400 28.77300 27.38400
H  45.93600 29.34100 25.72200
H  44.38200 29.60400 26.42600
H  44.77500 33.00400 30.77100
H  45.40100 31.51500 34.87700
H  47.03100 31.35800 34.16700
H  45.76400 30.06600 33.96200

