158

Mg -2.12800 17.14900 26.93900
C  -2.69000 15.06600 29.72100
C  -2.28400 19.86900 29.09300
C  -1.90800 19.19800 24.13600
C  -2.63100 14.39200 24.80500
N  -2.54800 17.33200 29.19000
C  -2.52400 16.38900 30.18600
C  -2.63800 17.00000 31.54300
C  -2.52700 18.51300 31.20400
C  -2.43000 18.59900 29.73500
C  -3.75000 19.21300 31.81000
C  -1.59600 16.39600 32.60500
C  -1.20500 17.21900 33.85100
H  -0.95400 16.53800 35.21000
N  -1.88400 19.20700 26.70300
C  -1.97800 20.19300 27.70300
C  -1.74700 21.45400 27.07400
C  -1.55200 21.25100 25.68300
C  -1.66600 19.83900 25.41600
C  -1.78600 22.71600 27.87000
C  -1.25000 22.31300 24.56400
O  -1.13100 21.96300 23.40600
C  -1.21500 23.82900 24.87000
N  -2.34700 16.84100 24.78600
C  -2.25400 17.85700 23.84800
C  -2.62500 17.36200 22.48200
C  -2.61500 15.77400 22.62600
C  -2.56000 15.62900 24.14200
C  -3.85300 18.14800 21.85100
C  -1.46900 15.05400 21.79300
C  -0.11900 15.16400 22.37600
N  -2.43700 15.11500 27.17200
C  -2.65900 14.14700 26.20000
C  -3.01900 12.98000 26.85800
C  -3.08500 13.25300 28.24100
C  -2.66900 14.58800 28.38900
C  -3.29300 11.69900 26.20500
C  -3.28800 12.61200 29.52600
O  -3.56200 11.43800 29.81800
C  -2.92900 13.85400 30.55500
C  -1.73100 13.35800 31.31700
O  -0.57400 13.61800 31.02200
O  -2.01400 12.57900 32.39700
C  -0.85900 12.15500 33.20200
H  -2.23100 20.62500 29.88000
H  -1.96200 19.84200 23.25600
H  -2.84100 13.53100 24.16800
H  -3.66600 16.75100 31.80500
H  -1.67300 18.95600 31.71600
H  -4.66900 18.73100 31.47700
H  -3.72300 20.25200 31.47900
H  -3.59500 19.13200 32.88600
H  -0.71700 16.07700 32.04500
H  -1.86100 15.38700 32.92100
H  -2.13900 17.76200 33.99600
H  -0.34900 17.79400 33.49800
H  -1.87200 22.65600 28.95500
H  -2.70700 23.21600 27.57000
H  -0.98200 23.38100 27.55300
H  -0.21200 24.24300 24.96900
H  -1.87500 24.08600 25.69800
H  -1.62600 24.28300 23.96800
H  -1.72900 17.59300 21.90700
H  -3.59500 15.33200 22.44400
H  -4.14200 19.00900 22.45300
H  -4.73000 17.51700 21.71000
H  -3.62800 18.53900 20.85900
H  -1.44600 15.56000 20.82800
H  -1.80000 14.03400 21.59700
H  -0.04700 15.75400 23.29000
H  0.60400 15.59500 21.68300
H  0.27800 14.17700 22.61200
H  -2.30800 11.23100 26.20200
H  -3.64900 11.78800 25.17800
H  -4.06600 11.24000 26.82000
H  -3.74500 13.79500 31.27400
H  -0.60800 13.03900 33.78900
H  0.05700 11.77700 32.74800
H  -1.28800 11.52000 33.97700
Mg 49.54600 46.36000 43.08300
C  46.40600 47.02900 41.57500
C  49.49900 43.30200 41.26200
C  52.75700 46.06400 43.70200
C  49.51900 49.70500 44.26600
N  48.18000 45.37000 41.44700
C  46.91200 45.81200 41.07200
C  46.26900 44.86300 40.07400
C  47.14300 43.54300 40.27000
C  48.38500 44.09800 41.06000
C  46.48700 42.40100 40.99000
C  46.36600 45.47700 38.62800
C  45.22100 44.90300 37.70100
H  45.69300 44.34900 36.32400
N  50.99500 44.87300 42.64600
C  50.70600 43.65800 41.97600
C  51.96600 42.91500 41.97100
C  52.96900 43.64500 42.63300
C  52.27700 44.92500 43.01400
C  52.16200 41.62300 41.31500
C  54.48300 43.27300 42.86400
O  54.95800 42.18700 42.55100
C  55.37000 44.21400 43.55200
N  50.94100 47.76700 43.62300
C  52.15600 47.31500 43.92300
C  53.05700 48.50400 44.49300
C  52.02400 49.65000 44.78000
C  50.76100 49.01900 44.22300
C  53.95800 48.14400 45.73000
C  52.40300 51.08800 44.09300
C  52.11900 52.35400 44.99500
N  48.16900 47.97500 43.19400
C  48.31000 49.23300 43.72800
C  46.95600 49.82400 43.66000
C  46.20300 49.01800 42.87700
C  46.96500 47.90400 42.53100
C  46.48700 51.18200 44.08500
C  44.87200 48.92200 42.25600
O  43.91700 49.70300 42.27300
C  44.96000 47.58300 41.32700
C  43.96400 46.72300 41.92600
O  44.17600 45.93200 42.86400
O  42.77700 46.96200 41.38000
C  41.67900 46.04000 41.73200
H  49.57200 42.29600 40.84300
H  53.80500 46.06200 44.01200
H  49.48300 50.64200 44.82600
H  45.24000 44.67500 40.38100
H  47.41500 43.18900 39.27500
H  46.06400 41.60000 40.38400
H  45.79300 42.73100 41.76300
H  47.10800 41.94200 41.76000
H  47.29500 45.32500 38.07800
H  46.19000 46.55300 38.61700
H  44.42600 45.63200 37.54900
H  44.89800 43.93600 38.08700
H  52.71000 40.94400 41.96700
H  52.76900 41.93600 40.46500
H  51.38500 41.07400 40.78300
H  55.02200 44.28800 44.58200
H  55.44100 45.21300 43.12200
H  56.39700 43.85900 43.63800
H  53.69200 49.04200 43.78900
H  51.89900 49.73400 45.85900
H  53.93300 47.08600 45.99200
H  53.67000 48.72500 46.60600
H  54.96900 48.45100 45.46300
H  51.74300 51.24300 43.24000
H  53.41900 51.17900 43.70900
H  53.10400 52.61700 45.38100
H  51.57000 52.01700 45.87500
H  51.58800 53.14500 44.46700
H  45.64200 51.43700 43.44600
H  47.27300 51.93700 44.04600
H  46.05600 51.00500 45.07100
H  44.83900 47.86200 40.28000
H  40.74100 46.36000 41.27900
H  41.45800 46.18700 42.78900
H  41.87000 44.99800 41.47800

