158

Mg 25.18900 -5.52100 45.54100
C  27.24600 -3.08100 44.02400
C  22.57500 -4.45900 43.41400
C  23.52100 -8.37000 46.09700
C  27.96700 -6.71400 47.26400
N  24.92400 -3.88600 44.00900
C  25.95800 -3.07600 43.49100
C  25.44900 -1.97600 42.55400
C  23.90500 -2.44900 42.35000
C  23.72500 -3.64200 43.38100
C  22.77500 -1.31900 42.44500
C  26.34300 -1.73100 41.32600
C  26.61700 -2.97900 40.43400
H  26.29800 -2.77900 38.89200
N  23.26100 -6.31900 44.91500
C  22.34300 -5.64400 44.13500
C  21.11300 -6.49500 44.03700
C  21.40900 -7.65900 44.84000
C  22.76900 -7.45200 45.31300
C  19.82600 -6.14200 43.26600
C  20.41500 -8.76400 45.15700
O  19.23400 -8.74000 44.72000
C  20.73300 -9.89900 46.09700
N  25.72000 -7.28000 46.55500
C  24.83500 -8.27400 46.72200
C  25.48700 -9.47000 47.53200
C  26.89900 -8.89000 47.84100
C  26.86500 -7.54900 47.12700
C  24.53800 -10.05500 48.63700
C  28.08000 -9.85400 47.57900
C  28.97500 -10.16200 48.76100
N  27.19200 -4.91100 45.75000
C  28.18100 -5.54600 46.48000
C  29.40800 -4.79700 46.36600
C  29.07400 -3.79400 45.38100
C  27.74000 -3.91800 45.04700
C  30.72400 -4.98600 47.06200
C  29.69600 -2.80600 44.52800
O  30.77800 -2.36800 44.49800
C  28.50900 -2.25800 43.64800
C  28.47400 -0.87900 44.06700
O  28.05200 -0.49300 45.14500
O  28.84500 -0.01300 43.08000
C  29.08100 1.42000 43.34400
H  21.80600 -4.04800 42.75700
H  23.09800 -9.34200 46.36100
H  28.75200 -6.92500 47.99300
H  25.36100 -1.06100 43.14000
H  23.64500 -2.84600 41.36900
H  21.80500 -1.59600 42.85700
H  22.53900 -0.99300 41.43200
H  23.07900 -0.45100 43.03100
H  27.31700 -1.42500 41.70800
H  25.90300 -0.87600 40.81400
H  25.79400 -3.64800 40.68400
H  27.58300 -3.43300 40.65700
H  19.30400 -7.06400 43.01200
H  20.07600 -5.61400 42.34600
H  19.35400 -5.45300 43.96700
H  19.88400 -10.55900 46.27600
H  21.10100 -9.54900 47.06200
H  21.43200 -10.53000 45.54900
H  25.44600 -10.22900 46.75100
H  27.03100 -8.59100 48.88100
H  23.62400 -9.47100 48.73700
H  25.11100 -9.87800 49.54800
H  24.48200 -11.14300 48.58400
H  28.66300 -9.46800 46.74300
H  27.56200 -10.74500 47.22200
H  28.73600 -9.78400 49.75500
H  30.02500 -9.90000 48.62900
H  28.99100 -11.24700 48.86600
H  30.70700 -4.63800 48.09500
H  31.55800 -4.53500 46.52600
H  31.00000 -6.03900 47.00800
H  28.90800 -2.36100 42.63900
H  29.07000 1.65500 44.40900
H  28.33200 2.07700 42.90300
H  30.08000 1.72800 43.03500
Mg 30.22200 58.18400 40.10300
C  27.62400 55.67300 39.50600
C  32.39800 55.68500 39.36900
C  32.50300 60.58900 40.07900
C  27.65600 60.43200 40.74500
N  30.00000 55.83200 39.62300
C  28.88400 55.17500 39.21800
C  29.27000 53.75300 38.69200
C  30.83600 53.63600 39.10900
C  31.11000 55.09600 39.40700
C  31.10200 52.60600 40.27800
C  29.17400 53.59600 37.13500
C  27.75100 53.17500 36.66800
H  27.00500 54.13400 35.65600
N  32.19000 58.15200 39.72300
C  32.93600 57.03200 39.50300
C  34.29400 57.40900 39.35600
C  34.37300 58.83000 39.41000
C  33.01700 59.28400 39.69400
C  35.49100 56.43500 39.34700
C  35.66100 59.66600 39.29800
O  36.75400 59.15400 39.09100
C  35.67500 61.12100 39.52000
N  30.05300 60.31000 40.17800
C  31.18400 61.06300 40.27200
C  30.79300 62.48100 40.77800
C  29.24400 62.42600 41.07200
C  28.96600 60.94800 40.68400
C  31.73600 63.06800 41.89800
C  28.33400 63.42800 40.19600
C  27.21700 64.11200 40.97800
N  28.10700 58.14300 40.13800
C  27.25100 59.16300 40.44900
C  25.87900 58.62400 40.34600
C  26.00300 57.22600 40.06700
C  27.34600 57.00100 39.91800
C  24.66200 59.44700 40.62600
C  25.32200 55.93300 39.90000
O  24.11500 55.76000 39.96800
C  26.28400 54.84500 39.42400
C  26.18700 53.71400 40.48200
O  26.66200 53.70800 41.54900
O  25.47800 52.61900 40.00600
C  25.44300 51.48800 40.94700
H  33.13400 54.91700 39.12500
H  33.19600 61.38200 40.36600
H  26.90900 61.16800 41.04700
H  28.58600 53.07600 39.20400
H  31.47700 53.33500 38.28100
H  31.92900 51.95700 39.99000
H  30.21800 52.00400 40.48800
H  31.53200 53.01300 41.19300
H  29.81500 52.76100 36.85200
H  29.47000 54.55900 36.72000
H  27.10800 52.94600 37.51800
H  27.77200 52.20700 36.16800
H  36.04400 56.53700 38.41400
H  35.31600 55.39300 39.61500
H  36.12400 56.81100 40.15100
H  34.92500 61.58700 38.88200
H  36.68600 61.49700 39.36200
H  35.47900 61.45600 40.53800
H  30.83800 63.08800 39.87400
H  28.99200 62.59700 42.11800
H  32.33200 62.23700 42.27600
H  31.28700 63.50600 42.78900
H  32.31000 63.84500 41.39400
H  27.92300 62.91200 39.32800
H  29.06200 64.16000 39.84600
H  27.42500 65.17700 41.07700
H  27.22900 63.61300 41.94700
H  26.38500 63.88600 40.31100
H  23.80700 58.87300 40.98200
H  24.45100 59.75900 39.60300
H  24.88400 60.24500 41.33400
H  25.95400 54.40700 38.48200
H  25.57900 50.50800 40.49000
H  24.43400 51.31800 41.32300
H  26.05000 51.53000 41.85200

