158

Mg -1.01400 34.93200 26.77000
C  -2.53900 32.88700 29.32900
C  -0.09500 37.01700 29.19300
C  -0.16700 37.01900 24.35700
C  -2.52300 32.89700 24.42900
N  -1.36000 34.91200 29.04700
C  -1.79700 33.92200 29.84600
C  -1.41400 34.14800 31.37100
C  -0.63700 35.59000 31.25000
C  -0.69200 35.89000 29.75300
C  -1.24900 36.76900 32.11100
C  -0.65800 33.00200 32.08000
C  -1.43200 32.30300 33.21600
H  -0.74800 31.84400 34.53800
N  -0.17700 36.67700 26.80500
C  0.16600 37.43400 27.89600
C  0.87100 38.63200 27.43800
C  0.82700 38.69900 26.06000
C  0.06400 37.45500 25.65500
C  1.28600 39.70400 28.43700
C  1.34400 39.76400 25.15300
O  1.21200 39.75500 23.93500
C  2.23500 40.83900 25.72200
N  -1.45500 35.00500 24.71200
C  -0.92500 35.97000 23.93800
C  -1.04400 35.60500 22.43600
C  -1.58400 34.14700 22.46900
C  -1.91900 34.02800 23.98000
C  -1.86300 36.61200 21.61700
C  -0.57800 33.05000 22.04400
C  0.86400 32.99900 22.61300
N  -2.22600 33.20300 26.76900
C  -2.77400 32.51500 25.75000
C  -3.60400 31.48100 26.26900
C  -3.57800 31.62800 27.67200
C  -2.66500 32.64200 27.93100
C  -4.34300 30.55600 25.43500
C  -4.14500 31.05700 28.83300
O  -4.97300 30.19000 29.07600
C  -3.47700 31.84300 30.01300
C  -4.45000 32.57600 30.83500
O  -4.79100 33.79300 30.71700
O  -4.74300 31.80900 32.01000
C  -5.44400 32.68200 32.98400
H  0.23600 37.80500 29.87300
H  0.31000 37.58200 23.55200
H  -2.81000 32.20300 23.63500
H  -2.42200 34.32300 31.74500
H  0.39700 35.45800 31.57000
H  -0.54100 37.57900 32.28800
H  -1.64300 36.41200 33.06300
H  -2.13800 37.13400 31.59800
H  0.29100 33.39500 32.44400
H  -0.38700 32.31800 31.27500
H  -1.74700 31.33500 32.82700
H  -2.32700 32.91200 33.34400
H  2.32900 39.44200 28.61700
H  0.64500 39.65600 29.31800
H  1.22700 40.71100 28.02600
H  2.93900 40.34700 26.39300
H  1.61100 41.53000 26.28900
H  2.84900 41.31800 24.96000
H  -0.03600 35.68100 22.02800
H  -2.50300 34.04200 21.89200
H  -2.57500 37.25400 22.13600
H  -2.52600 36.05900 20.95200
H  -1.29400 37.26000 20.95000
H  -0.62100 33.31700 20.98900
H  -1.00400 32.05200 22.14800
H  1.03500 32.02600 23.07400
H  1.10000 33.86800 23.22700
H  1.54200 33.13700 21.77000
H  -3.69800 29.77900 25.02600
H  -4.89700 31.11800 24.68300
H  -5.09600 30.13000 26.09800
H  -3.00000 31.08200 30.63100
H  -6.41400 33.09800 32.71000
H  -4.77600 33.38500 33.48200
H  -5.79200 31.96200 33.72400
Mg -4.59900 25.72200 25.99500
C  -2.81200 27.02200 28.55600
C  -6.46800 23.89700 28.10200
C  -6.46700 24.43400 23.33400
C  -2.49000 27.17800 23.65500
N  -4.71100 25.60600 28.03400
C  -3.88500 26.18300 28.92400
C  -4.29500 25.92500 30.39600
C  -5.36300 24.80100 30.25700
C  -5.49300 24.69000 28.67100
C  -4.94000 23.36200 30.90400
C  -4.97500 27.19700 31.14600
C  -5.43500 26.94600 32.54300
H  -4.86700 25.82500 33.46300
N  -6.13600 24.23700 25.75000
C  -6.84400 23.68400 26.77800
C  -7.99000 22.86000 26.30200
C  -7.92400 22.90500 24.85400
C  -6.80700 23.87500 24.59700
C  -8.93600 22.09900 27.23000
C  -8.81000 22.34000 23.74900
O  -8.49500 22.36000 22.57000
C  -10.05900 21.65600 24.04700
N  -4.47800 25.74600 23.77600
C  -5.44000 25.23500 22.93900
C  -5.23800 25.72700 21.52300
C  -3.97300 26.60300 21.62900
C  -3.63800 26.54700 23.13800
C  -5.14200 24.58800 20.44900
C  -3.89500 28.02100 20.96900
C  -4.20800 29.29400 21.74700
N  -2.80600 26.72100 26.03800
C  -2.06100 27.30300 24.99500
C  -1.03000 28.13200 25.54800
C  -1.25300 28.00800 26.94100
C  -2.40400 27.20300 27.17900
C  -0.29700 29.10600 24.77700
C  -0.87700 28.62400 28.28100
O  -0.08300 29.48700 28.53000
C  -1.92500 28.00600 29.28500
C  -1.21300 27.32500 30.34800
O  -0.51100 26.35700 30.18100
O  -1.41400 28.02400 31.55400
C  -0.70700 27.49400 32.72100
H  -7.17200 23.37600 28.75400
H  -7.11800 24.25700 22.47500
H  -1.94300 27.70400 22.87000
H  -3.50400 25.51700 31.02500
H  -6.34500 25.04100 30.66400
H  -4.88800 22.64200 30.08700
H  -5.66900 23.01800 31.63800
H  -4.05000 23.54900 31.50400
H  -5.85100 27.44900 30.54700
H  -4.28200 28.03800 31.13900
H  -6.49400 26.75100 32.37300
H  -5.24700 27.87700 33.07800
H  -8.60800 22.33000 28.24300
H  -8.99300 21.04100 26.97500
H  -9.91700 22.53300 27.03400
H  -10.39700 21.08500 23.18300
H  -10.82200 22.41400 24.22300
H  -9.93300 21.05800 24.95000
H  -6.18900 26.24700 21.41000
H  -3.19500 26.11300 21.04200
H  -6.17700 24.47600 20.12500
H  -4.81100 23.59600 20.75500
H  -4.61000 24.92900 19.56100
H  -4.55500 28.04300 20.10100
H  -2.91500 28.09400 20.49700
H  -4.33400 29.07800 22.80800
H  -5.19700 29.61100 21.41800
H  -3.44900 30.07400 21.68500
H  -0.24800 29.99700 25.40300
H  -0.66300 29.47100 23.81800
H  0.73900 28.78200 24.67300
H  -2.58800 28.76000 29.70800
H  0.33900 27.24600 32.54100
H  -1.20800 26.60300 33.09600
H  -0.74200 28.14700 33.59300

