158

Mg 40.66500 8.41300 28.84900
C  42.56100 9.45700 31.65500
C  38.63700 6.73200 31.20300
C  39.11700 7.01700 26.32000
C  43.09500 9.63900 26.70500
N  40.67900 8.04800 31.15500
C  41.43700 8.77200 32.04800
C  40.98400 8.64400 33.46700
C  39.84100 7.57800 33.31000
C  39.66100 7.43900 31.77900
C  40.21000 6.23600 33.92100
C  40.57000 9.91300 34.15200
C  39.63800 9.90900 35.38800
H  40.12600 10.87200 36.47700
N  39.01000 7.18000 28.77300
C  38.35800 6.55700 29.79700
C  37.41400 5.67300 29.27900
C  37.39400 5.84200 27.80700
C  38.55000 6.69200 27.58200
C  36.39500 4.88400 30.03800
C  36.40800 5.18400 26.83500
O  36.50000 5.31000 25.62600
C  35.11600 4.44800 27.35200
N  41.07800 8.31200 26.77200
C  40.26300 7.70800 25.87000
C  40.78700 7.81800 24.41500
C  42.10300 8.59700 24.62800
C  42.16300 8.85900 26.14400
C  40.83800 6.36500 23.78000
C  42.28200 9.85500 23.78900
C  41.24800 10.90000 23.78400
N  42.41000 9.42700 29.08300
C  43.32000 9.84400 28.12800
C  44.46500 10.41800 28.84100
C  44.14700 10.42300 30.18200
C  42.93300 9.76100 30.31300
C  45.59700 10.93400 28.19200
C  44.58700 10.75400 31.49800
O  45.57900 11.34000 31.82800
C  43.59500 10.24600 32.47900
C  44.19200 9.45100 33.55000
O  44.43900 8.26500 33.54100
O  44.51100 10.32300 34.55000
C  44.98000 9.75800 35.79100
H  38.02700 6.23000 31.95600
H  38.54000 6.59900 25.49300
H  43.87600 9.95100 26.00800
H  41.87400 8.29000 33.98600
H  38.92100 7.96100 33.75300
H  39.87200 5.33800 33.40300
H  39.72600 6.07200 34.88400
H  41.25000 6.15300 34.23800
H  39.97000 10.44900 33.41700
H  41.39200 10.54700 34.48500
H  39.68800 8.89300 35.77900
H  38.62100 10.21600 35.14800
H  36.66600 4.99400 31.08800
H  36.43900 3.82000 29.80500
H  35.41900 5.33100 29.84500
H  34.53900 5.09700 28.00900
H  35.43200 3.48900 27.76200
H  34.42100 4.28500 26.52800
H  40.01100 8.49300 24.05300
H  42.86900 7.82500 24.56100
H  40.11500 6.30000 22.96700
H  40.65200 5.51300 24.43300
H  41.77500 6.17900 23.25700
H  42.24500 9.58600 22.73400
H  43.18800 10.42700 23.98900
H  41.77700 11.84500 23.90800
H  40.78600 10.63400 24.73400
H  40.49900 10.94100 22.99300
H  46.07000 11.42300 29.04400
H  45.46100 11.59800 27.33800
H  46.26600 10.09400 28.00800
H  42.99100 11.02900 32.93800
H  44.26400 10.07700 36.54900
H  45.94800 10.15500 36.09800
H  44.96900 8.66900 35.76400
Mg 6.07600 54.17000 41.46700
C  5.28900 50.63600 41.09500
C  9.21100 53.32900 40.44200
C  6.61600 57.51500 41.12600
C  2.72300 54.72700 42.23300
N  7.05300 52.16700 40.71000
C  6.57000 50.89600 40.61000
C  7.64500 49.90100 40.22800
C  8.89200 50.75300 40.46700
C  8.33100 52.20600 40.54400
C  9.71400 50.48300 41.76500
C  7.66000 49.29100 38.75800
C  7.24800 50.24200 37.63100
H  5.76400 50.29500 37.18500
N  7.62900 55.30500 40.73500
C  8.88400 54.76500 40.47900
C  9.80300 55.80500 40.14900
C  9.10600 57.07400 40.43600
C  7.71000 56.71600 40.80600
C  11.23700 55.49000 39.83800
C  9.68700 58.50100 40.39000
O  10.90900 58.61800 40.24900
C  8.80600 59.73300 40.65200
N  4.82300 55.81400 41.66100
C  5.32100 57.08000 41.54000
C  4.23000 58.14000 41.86900
C  3.00700 57.25500 42.20000
C  3.51900 55.82000 42.03600
C  4.73300 59.11800 42.94900
C  1.71300 57.65400 41.38100
C  0.43900 57.89500 42.22200
N  4.32900 53.00800 41.87500
C  3.05800 53.36100 42.10100
C  2.17500 52.21600 42.19900
C  3.04700 51.13200 41.97400
C  4.33600 51.62900 41.64600
C  0.66900 52.16800 42.47400
C  3.11500 49.62700 41.85300
O  2.30600 48.75900 42.14200
C  4.53600 49.32900 41.34100
C  4.28000 48.68500 40.04600
O  3.74500 49.02200 39.03300
O  4.69800 47.34100 40.17400
C  4.85000 46.53400 38.94800
H  10.28300 53.15900 40.31700
H  6.59500 58.60100 41.01000
H  1.67100 54.96900 42.40100
H  7.62000 49.12800 40.99600
H  9.58200 50.66300 39.62800
H  9.68800 51.26800 42.52100
H  10.75300 50.35100 41.46500
H  9.46000 49.51500 42.19600
H  6.92500 48.48600 38.73600
H  8.64200 48.92900 38.45600
H  7.81800 49.92400 36.75800
H  7.56600 51.27900 37.73500
H  11.36000 54.46700 39.48100
H  11.91700 55.45700 40.69000
H  11.66400 56.14700 39.08100
H  8.05800 59.70200 39.85900
H  9.38200 60.65300 40.55500
H  8.28900 59.68100 41.61000
H  4.12500 58.71900 40.95100
H  2.74600 57.41700 43.24600
H  3.99700 59.30100 43.73300
H  4.83100 60.13500 42.56900
H  5.65100 58.70800 43.37000
H  1.48800 56.98500 40.55100
H  1.87000 58.62400 40.91000
H  0.39800 57.34000 43.15900
H  -0.40700 57.71400 41.55900
H  0.48800 58.93700 42.53700
H  0.07400 51.99300 41.57700
H  0.42500 53.12500 42.93500
H  0.35700 51.39900 43.18100
H  5.14000 48.70700 42.00100
H  5.77600 45.96100 38.97700
H  4.78000 47.20900 38.09500
H  4.05800 45.78800 39.01200

