158

Mg 49.13000 45.11200 43.49300
C  45.72000 45.17900 42.36800
C  49.28600 41.81600 42.44600
C  52.39200 45.24000 43.57200
C  48.90300 48.55200 43.79700
N  47.73000 43.77100 42.41600
C  46.35900 43.95200 42.14400
C  45.75400 42.70500 41.41500
C  46.69200 41.65600 41.97300
C  48.01000 42.42600 42.30000
C  46.19200 40.86400 43.24100
C  45.61000 42.87700 39.84300
C  44.25000 42.45500 39.14100
H  44.37100 41.42100 37.98700
N  50.61500 43.74800 43.16200
C  50.53000 42.42900 42.77900
C  51.75200 41.77300 42.68300
C  52.74600 42.73000 42.87000
C  51.96600 43.98600 43.25200
C  51.89600 40.30900 42.28000
C  54.18700 42.44500 42.67700
O  54.61500 41.36000 42.22300
C  55.26800 43.49300 42.93800
N  50.45300 46.66300 43.49900
C  51.76700 46.41000 43.82100
C  52.42500 47.66600 44.42600
C  51.30600 48.75000 44.38100
C  50.11300 47.88100 43.94100
C  53.16500 47.37300 45.78700
C  51.61700 49.95100 43.33600
C  51.61700 51.34200 43.98500
N  47.59600 46.60500 43.39600
C  47.63900 47.93900 43.55700
C  46.35000 48.59400 43.43100
C  45.55900 47.47400 43.01400
C  46.36700 46.28800 42.92100
C  46.11000 50.09800 43.52400
C  44.20500 47.06300 42.58200
O  43.15900 47.74100 42.43800
C  44.31200 45.61000 42.09900
C  43.19800 44.72800 42.69800
O  42.49400 43.91500 42.11700
O  43.03800 45.03700 44.08200
C  41.95600 44.28200 44.69100
H  49.21000 40.76000 42.17900
H  53.45200 45.11800 43.80200
H  48.88100 49.59900 44.10600
H  44.76300 42.37400 41.72500
H  46.79500 40.81900 41.28300
H  46.09200 39.79100 43.07900
H  45.16300 41.13400 43.48100
H  46.95500 41.01700 44.00500
H  46.44600 42.35000 39.38300
H  45.94900 43.87500 39.56600
H  43.86700 43.36300 38.67600
H  43.47900 42.19400 39.86600
H  52.19900 40.20100 41.23800
H  51.01800 39.73600 42.57900
H  52.68500 39.85000 42.87600
H  56.28100 43.22300 42.64000
H  55.22800 43.53900 44.02600
H  55.17300 44.52000 42.58600
H  53.15200 47.99900 43.68400
H  51.11000 49.01900 45.41900
H  53.01100 46.33400 46.08000
H  52.86500 48.09900 46.54200
H  54.22800 47.56000 45.64000
H  50.84400 50.01200 42.56900
H  52.59000 49.86600 42.85300
H  50.77700 51.94900 43.64800
H  52.46400 51.93700 43.64200
H  51.65000 51.19300 45.06400
H  46.27200 50.56300 42.55200
H  46.74000 50.66400 44.21000
H  45.08100 50.30900 43.81600
H  44.22900 45.67900 41.01400
H  41.17100 44.40700 43.94500
H  41.67100 44.63900 45.68000
H  42.18500 43.21700 44.65000
Mg 36.39300 49.62600 24.38200
C  36.49500 48.09600 27.50400
C  35.10000 52.42800 26.17000
C  35.60600 51.01400 21.52200
C  37.15500 46.62300 22.89700
N  35.83700 50.15400 26.58200
C  36.05500 49.39600 27.66300
C  35.78400 50.09600 29.02600
C  35.32000 51.56600 28.48600
C  35.38900 51.37000 26.99900
C  33.82200 51.90300 28.98700
C  37.01500 50.21000 29.92100
C  36.72800 49.69300 31.35600
H  35.27400 49.68800 31.95300
N  35.69100 51.56700 23.83700
C  35.27300 52.54200 24.73900
C  34.88900 53.71400 23.98900
C  34.99900 53.40200 22.58200
C  35.44700 51.93900 22.56800
C  34.27200 54.92700 24.66700
C  34.62700 54.17400 21.33300
O  34.68200 53.69500 20.16100
C  34.16900 55.53600 21.42400
N  36.26800 48.91600 22.49900
C  36.04100 49.71400 21.45400
C  36.32100 48.94500 20.13200
C  36.95600 47.62900 20.66800
C  36.76600 47.73200 22.14100
C  35.02300 48.76900 19.26200
C  38.40300 47.46800 20.18200
C  39.45500 48.52500 20.75100
N  36.87300 47.78300 24.96000
C  37.25200 46.62000 24.32700
C  37.73900 45.65000 25.20900
C  37.42300 46.18900 26.43900
C  36.89400 47.47400 26.29100
C  38.09600 44.22000 24.91000
C  37.36700 45.78000 27.87100
O  37.73000 44.74900 28.43700
C  36.85600 47.10200 28.59200
C  35.57800 46.64500 29.15800
O  34.47800 46.71100 28.62000
O  35.82300 45.90900 30.31100
C  34.64100 45.45900 30.98000
H  34.81100 53.28800 26.77800
H  35.33500 51.51800 20.59200
H  37.47100 45.74700 22.32700
H  34.93100 49.54900 29.42700
H  35.96400 52.35600 28.87400
H  33.41100 51.20500 29.71600
H  33.04300 51.96100 28.22700
H  33.87400 52.93500 29.33400
H  37.27400 51.25900 30.06100
H  37.89500 49.67000 29.57200
H  37.27600 50.25700 32.11200
H  37.09400 48.66600 31.37700
H  33.75200 54.55800 25.55100
H  33.59500 55.50300 24.03500
H  35.13000 55.50000 25.02000
H  34.82100 56.04400 22.13500
H  33.09900 55.52500 21.62900
H  34.16500 55.97200 20.42500
H  36.95700 49.63700 19.57900
H  36.40100 46.79500 20.23700
H  34.18000 49.40500 19.53000
H  34.75400 47.71900 19.15000
H  35.24800 49.04400 18.23200
H  38.50700 47.36800 19.10200
H  38.70100 46.44100 20.39300
H  40.02000 48.02100 21.53500
H  39.04100 49.50300 20.99900
H  40.14400 48.72900 19.93100
H  38.56000 44.16700 23.92500
H  37.17100 43.65200 24.81400
H  38.69500 43.72200 25.67300
H  37.45700 47.47800 29.41900
H  34.09200 44.70500 30.41600
H  33.99400 46.31100 31.19100
H  34.94500 45.13600 31.97600

