158

Mg 46.94400 24.37600 27.75700
C  47.76400 26.75400 30.31900
C  46.38700 22.06600 30.28400
C  46.49600 22.08000 25.35000
C  47.90600 26.76700 25.42400
N  47.00400 24.45600 30.05000
C  47.22700 25.58900 30.88600
C  47.15500 25.16300 32.38200
C  46.67800 23.65400 32.31400
C  46.73300 23.37000 30.77100
C  47.52900 22.67700 33.06400
C  46.21200 26.09700 33.20300
C  46.65700 26.43200 34.66400
H  45.59400 26.35500 35.73500
N  46.48000 22.28200 27.78400
C  46.29500 21.56000 28.94800
C  45.92600 20.24300 28.46400
C  46.07400 20.17900 27.08400
C  46.35100 21.52800 26.63400
C  45.64000 19.03300 29.41300
C  45.87900 19.02800 26.17000
O  46.16600 19.02600 24.94400
C  45.20300 17.75000 26.58800
N  47.29000 24.38700 25.74600
C  46.84400 23.44400 24.94400
C  46.79200 23.85500 23.45000
C  47.27400 25.41500 23.49100
C  47.56900 25.50300 24.97900
C  47.76200 23.07900 22.50700
C  46.23200 26.47400 23.08900
C  44.86000 26.61500 23.86100
N  47.77100 26.26700 27.81000
C  48.12900 27.13100 26.75300
C  48.62000 28.35200 27.28500
C  48.57700 28.25200 28.68600
C  47.93200 27.02400 28.91300
C  49.16900 29.56400 26.58000
C  48.69300 28.90200 29.90900
O  48.99800 30.03600 30.21700
C  48.24200 28.02900 31.00300
C  49.28100 27.81400 32.15600
O  50.23600 27.07600 32.07700
O  49.02500 28.59100 33.26300
C  50.07500 28.33400 34.26000
H  45.99300 21.48100 31.11800
H  46.32500 21.37000 24.53900
H  48.12000 27.59800 24.74800
H  48.18500 25.29100 32.71400
H  45.67600 23.61800 32.74200
H  46.90500 22.16200 33.79500
H  48.36800 23.21200 33.50900
H  47.96900 21.84500 32.51400
H  45.29200 25.51500 33.26400
H  46.00400 27.06400 32.74700
H  47.15500 27.39400 34.77700
H  47.47400 25.74600 34.88600
H  46.23500 18.16800 29.11800
H  44.59000 18.74800 29.35800
H  45.85300 19.14700 30.47600
H  45.78300 17.18500 27.31700
H  45.19900 17.11100 25.70400
H  44.19600 18.02200 26.90600
H  45.73400 23.80000 23.19200
H  48.20200 25.66200 22.97500
H  47.35300 23.12800 21.49800
H  47.71000 22.03700 22.82200
H  48.78400 23.45600 22.48300
H  45.96400 26.19200 22.07100
H  46.75500 27.41000 22.89300
H  44.75100 25.98600 24.74400
H  44.01300 26.50700 23.18300
H  44.66800 27.58000 24.32800
H  48.62400 30.49600 26.72900
H  49.31700 29.45200 25.50600
H  50.18100 29.70800 26.95700
H  47.46700 28.69500 31.38400
H  50.13000 27.30400 34.61100
H  49.78200 28.89000 35.15100
H  51.07700 28.67500 33.99900
Mg -10.88000 17.11900 43.31000
C  -7.40900 17.75300 43.23500
C  -11.45300 20.42800 42.52400
C  -14.03400 16.24700 42.60900
C  -9.98300 13.66700 43.50300
N  -9.55300 18.80700 43.00600
C  -8.19600 18.89000 43.07900
C  -7.67900 20.32200 42.70600
C  -8.93400 21.12700 42.99800
C  -10.10700 20.07900 42.83500
C  -9.01500 21.87100 44.37600
C  -7.17500 20.41400 41.18900
C  -5.99500 21.35900 40.82600
H  -4.89000 20.55500 40.28500
N  -12.57100 18.20900 42.61500
C  -12.57000 19.57700 42.31900
C  -13.90500 19.99400 41.97800
C  -14.69300 18.75700 41.93900
C  -13.74000 17.63800 42.38000
C  -14.31200 21.35300 41.59700
C  -16.17900 18.73600 41.47900
O  -16.73900 19.77800 41.21100
C  -17.00000 17.42500 41.27700
N  -11.84000 15.20600 42.97900
C  -13.16600 15.17500 42.87200
C  -13.66800 13.71600 43.06600
C  -12.34600 12.88700 42.94900
C  -11.35300 13.95400 43.21700
C  -14.46700 13.51000 44.38800
C  -12.17800 12.02100 41.67300
C  -12.15000 12.84600 40.30300
N  -9.08700 15.92400 43.54700
C  -8.89700 14.47700 43.57500
C  -7.49600 14.17200 43.71800
C  -6.87500 15.47900 43.67400
C  -7.88400 16.45400 43.44700
C  -6.89300 12.84200 44.07100
C  -5.61800 16.19400 43.79900
O  -4.54400 15.74200 44.06800
C  -5.84000 17.71900 43.44600
C  -5.56400 18.52700 44.69800
O  -5.95200 18.33200 45.83700
O  -4.69800 19.53800 44.33500
C  -4.35600 20.34900 45.46700
H  -11.62300 21.49700 42.67100
H  -15.08000 15.99700 42.42200
H  -9.63000 12.63400 43.56000
H  -6.93600 20.67300 43.42200
H  -9.21700 21.85300 42.23700
H  -9.71900 21.40600 45.06600
H  -9.20700 22.93400 44.23200
H  -8.05400 21.77700 44.88100
H  -7.90600 20.76700 40.46100
H  -6.95000 19.38400 40.91400
H  -5.67300 21.89100 41.72100
H  -6.34700 22.12200 40.13200
H  -14.52700 21.48100 40.53600
H  -13.53100 22.04200 41.91900
H  -15.18800 21.57900 42.20500
H  -17.97800 17.54400 40.80900
H  -17.22900 17.12200 42.29900
H  -16.45300 16.64900 40.74100
H  -14.18100 13.31400 42.19300
H  -12.28800 12.24700 43.83000
H  -14.95700 14.42100 44.73100
H  -13.86000 13.07300 45.18200
H  -15.12100 12.69200 44.08700
H  -12.98900 11.29300 41.71300
H  -11.28100 11.40100 41.66100
H  -12.76800 12.41600 39.51500
H  -11.09600 12.76100 40.03800
H  -12.52200 13.86500 40.41300
H  -5.86400 12.80500 44.42800
H  -6.95200 12.24900 43.15800
H  -7.46400 12.36600 44.86800
H  -5.32000 18.11100 42.57200
H  -5.20000 20.85000 45.94200
H  -3.60200 21.09800 45.22500
H  -4.02500 19.67400 46.25700

