158

Mg 30.11900 58.19200 40.33200
C  27.09600 56.44000 39.74200
C  31.81900 55.64500 38.71500
C  32.98600 60.13600 40.32600
C  28.15300 60.97500 41.43400
N  29.52700 56.27600 39.42300
C  28.21600 55.71300 39.33100
C  28.25400 54.43200 38.47500
C  29.77300 54.22200 38.15200
C  30.43800 55.42800 38.79800
C  30.41600 52.82000 38.59400
C  27.31500 54.42700 37.17400
C  27.65800 55.36900 36.02300
H  26.64800 56.29600 35.39900
N  32.11600 57.93300 39.66200
C  32.60300 56.85500 38.94600
C  34.04700 57.04000 38.74800
C  34.42900 58.31200 39.32600
C  33.13000 58.83900 39.81800
C  34.96900 55.95600 38.13700
C  35.86000 58.85600 39.48200
O  36.74900 58.30000 38.84600
C  36.26700 59.96100 40.34900
N  30.48300 60.23600 40.82500
C  31.74000 60.71500 40.81600
C  31.78800 62.16200 41.35700
C  30.33400 62.36300 41.71100
C  29.52000 61.17800 41.18200
C  32.73800 62.25900 42.59900
C  29.74200 63.74500 41.14000
C  29.56500 64.88300 42.10500
N  28.08600 58.60900 40.62700
C  27.44000 59.81100 41.09200
C  26.01300 59.47900 41.15400
C  25.92400 58.23400 40.60300
C  27.16500 57.70300 40.29600
C  24.94000 60.48500 41.61100
C  24.87500 57.28300 40.21300
O  23.67300 57.36200 40.28800
C  25.62100 56.06400 39.54600
C  25.18600 54.85200 40.27600
O  25.39900 54.65100 41.45300
O  24.45300 54.08400 39.44000
C  24.00900 52.77800 39.94100
H  32.23500 54.88800 38.04600
H  33.87200 60.76500 40.21800
H  27.46800 61.74500 41.79500
H  27.91800 53.66700 39.17500
H  29.89100 54.30500 37.07100
H  30.87200 52.23000 37.79800
H  29.61600 52.17700 38.95900
H  31.16200 52.94200 39.37900
H  26.24900 54.59600 37.32100
H  27.31700 53.37500 36.88900
H  27.87300 54.65900 35.22400
H  28.58300 55.91700 36.20200
H  35.67000 55.59400 38.88900
H  35.58300 56.36700 37.33500
H  34.46100 55.06900 37.76000
H  36.22700 60.97700 39.95800
H  37.29300 59.71400 40.62200
H  35.66900 59.81400 41.24900
H  32.18300 62.87200 40.63000
H  30.18600 62.29200 42.78800
H  32.19100 62.29600 43.54100
H  33.34100 63.15400 42.44400
H  33.58200 61.57200 42.66700
H  28.78700 63.53600 40.65800
H  30.38700 64.10800 40.34000
H  30.12300 65.79800 41.90700
H  29.84000 64.52000 43.09600
H  28.51700 65.14700 42.24400
H  25.26800 61.07700 42.46500
H  24.00700 59.93200 41.71700
H  24.77900 61.14500 40.75800
H  25.27900 56.16900 38.51700
H  23.46200 52.93200 40.87200
H  24.88000 52.15000 40.12800
H  23.46000 52.32800 39.11400
Mg 0.48700 43.73400 26.34700
C  2.91900 43.35100 28.94800
C  -1.94600 42.90500 28.68100
C  -1.59300 43.44300 23.88800
C  3.23200 43.94300 24.09800
N  0.58500 43.29300 28.56100
C  1.58500 43.23000 29.36900
C  1.14900 43.10400 30.88800
C  -0.24500 42.51400 30.65700
C  -0.58200 42.92800 29.23300
C  -0.21600 40.86500 30.78900
C  1.12500 44.49900 31.51300
C  1.47700 44.56300 32.99800
H  1.09600 43.43000 33.91700
N  -1.52900 43.35400 26.31800
C  -2.36900 43.06200 27.36700
C  -3.66300 43.05900 26.84700
C  -3.60700 43.07600 25.45300
C  -2.26000 43.30400 25.13700
C  -4.81600 43.13900 27.78200
C  -4.82000 42.98200 24.40100
O  -4.66000 43.32000 23.22800
C  -6.25700 42.75100 24.85500
N  0.79700 43.52400 24.31800
C  -0.26400 43.48800 23.48400
C  0.19200 43.22000 22.05000
C  1.70300 43.59000 22.08600
C  1.95600 43.61700 23.62200
C  -0.05700 41.74700 21.62100
C  1.94400 44.96300 21.44500
C  2.51500 44.95200 20.02000
N  2.66500 43.80000 26.48800
C  3.57500 43.96500 25.47600
C  4.94200 43.99200 26.00400
C  4.71300 43.88800 27.38300
C  3.39200 43.59400 27.58500
C  6.16700 43.99400 25.24700
C  5.31400 43.77600 28.73500
O  6.50100 43.82700 28.96900
C  4.24700 43.41700 29.82000
C  4.53700 42.20000 30.52400
O  4.46700 41.05800 30.06500
O  4.87700 42.53800 31.81100
C  5.30400 41.51600 32.71400
H  -2.74200 42.74100 29.41000
H  -2.31400 43.27700 23.08600
H  3.97800 44.07000 23.31000
H  1.87600 42.43900 31.35400
H  -0.95300 42.85600 31.41200
H  -0.80200 40.61400 31.67200
H  0.78300 40.43200 30.73800
H  -0.74600 40.41900 29.94700
H  0.19700 45.03800 31.32000
H  1.85400 45.03500 30.90500
H  1.04700 45.45700 33.45000
H  2.55000 44.73300 33.08800
H  -5.11600 42.14600 28.11600
H  -5.62300 43.64300 27.25000
H  -4.57800 43.68100 28.69700
H  -6.90400 42.47300 24.02300
H  -6.60600 43.75400 25.10000
H  -6.22400 41.90700 25.54500
H  -0.42500 43.85400 21.41200
H  2.42600 42.90400 21.64500
H  0.74200 41.08200 21.94800
H  -0.34200 41.59300 20.58100
H  -0.93300 41.35500 22.13800
H  2.69600 45.58200 21.93400
H  0.98600 45.46400 21.30600
H  1.74500 45.17200 19.28100
H  2.81500 43.94000 19.74700
H  3.31300 45.67500 19.84600
H  6.22400 44.96000 24.74600
H  6.15100 43.18600 24.51500
H  7.10500 44.03900 25.80200
H  4.12300 44.24200 30.52100
H  6.32100 41.12400 32.68300
H  4.67000 40.63300 32.63700
H  5.10600 41.99100 33.67500

