158

Mg 42.33600 41.43000 26.50600
C  41.71600 43.65100 29.13800
C  43.24900 38.95900 28.79200
C  43.23900 39.53600 23.90100
C  41.37800 43.95300 24.39600
N  42.53000 41.35500 28.72400
C  42.18400 42.39900 29.63900
C  42.13100 41.84300 31.07800
C  42.85900 40.47100 30.91700
C  42.82300 40.16700 29.39300
C  44.16000 40.34800 31.60600
C  40.67300 41.71600 31.62000
C  40.36000 42.81500 32.72600
H  39.79600 42.34700 34.08000
N  43.22000 39.51900 26.40900
C  43.44200 38.60700 27.41300
C  43.98100 37.38900 26.80700
C  43.95700 37.53700 25.36900
C  43.38000 38.86800 25.15300
C  44.38900 36.08700 27.63300
C  44.43000 36.66100 24.29000
O  44.36200 36.94200 23.10300
C  45.18800 35.42000 24.63500
N  42.50800 41.73500 24.41900
C  42.78300 40.78400 23.53400
C  42.56700 41.25400 22.06300
C  41.86600 42.59700 22.25900
C  41.94000 42.74900 23.74800
C  43.81300 41.15900 21.18400
C  40.41000 42.66200 21.75500
C  39.29900 42.06900 22.62000
N  41.64500 43.37000 26.69700
C  41.39900 44.32300 25.72200
C  40.97100 45.59100 26.31700
C  41.06500 45.36100 27.68300
C  41.52900 44.03400 27.83600
C  40.39300 46.81400 25.58500
C  40.75100 45.91500 28.92400
O  40.19900 46.94500 29.29800
C  41.16300 44.82100 29.97400
C  42.15900 45.38600 30.98000
O  43.37200 45.36900 30.87400
O  41.49300 45.75300 32.17200
C  42.30400 46.29800 33.22500
H  43.42000 38.17800 29.53500
H  43.47400 39.01300 22.97100
H  41.16500 44.76100 23.69300
H  42.64800 42.56100 31.71600
H  42.25300 39.72800 31.43500
H  44.50300 41.37200 31.75100
H  44.86900 39.91200 30.90300
H  44.11600 39.86500 32.58300
H  40.54100 40.75600 32.11800
H  39.96100 41.89300 30.81300
H  39.55500 43.38000 32.25600
H  41.18100 43.50200 32.92800
H  43.65700 35.29700 27.46300
H  44.25200 36.46800 28.64500
H  45.45100 35.86800 27.52100
H  44.50900 34.63400 24.96500
H  45.99800 35.67000 25.32000
H  45.70100 35.09300 23.73100
H  41.85300 40.52500 21.68000
H  42.43900 43.35300 21.72300
H  43.85200 42.13900 20.70800
H  43.67500 40.27600 20.55900
H  44.73100 41.07900 21.76700
H  40.39600 42.18400 20.77600
H  40.25800 43.73700 21.65900
H  39.09700 42.76900 23.43100
H  39.62200 41.19400 23.18400
H  38.42100 41.63300 22.14200
H  40.70000 46.79500 24.53900
H  40.81900 47.64800 26.14300
H  39.30600 46.88900 25.57100
H  40.34700 44.41100 30.56800
H  43.19300 46.85700 32.93100
H  42.61900 45.63200 34.02800
H  41.71200 47.11000 33.64700
Mg -11.59400 16.96700 41.69600
C  -8.38100 15.58500 41.22300
C  -10.43500 19.94300 40.67600
C  -14.72100 17.92400 41.86000
C  -12.73100 13.50100 41.93800
N  -9.64300 17.67000 41.01800
C  -8.49100 16.93500 40.85100
C  -7.27600 17.86600 40.42700
C  -7.88500 19.32400 40.41100
C  -9.40500 18.97900 40.62100
C  -7.31200 20.33400 41.43300
C  -6.82500 17.36400 39.06600
C  -5.37100 17.72400 38.65000
H  -5.20000 18.34900 37.28800
N  -12.48000 18.76400 41.39400
C  -11.83000 19.88100 40.96200
C  -12.81400 20.94100 40.85400
C  -14.04600 20.46100 41.25700
C  -13.76900 19.03200 41.62300
C  -12.40800 22.38400 40.33400
C  -15.28300 21.23200 41.49400
O  -15.45300 22.40400 41.05900
C  -16.46500 20.55300 42.18700
N  -13.51300 15.84600 41.47900
C  -14.62100 16.56000 41.77000
C  -15.67500 15.63200 42.31600
C  -15.15000 14.19400 42.02100
C  -13.71600 14.50600 41.76200
C  -16.01700 15.78600 43.80300
C  -15.65000 13.58700 40.77800
C  -16.56700 12.33800 40.95500
N  -10.80800 15.00100 41.65900
C  -11.37200 13.75100 41.83900
C  -10.32700 12.75000 41.92000
C  -9.15800 13.45500 41.83600
C  -9.48100 14.78200 41.55700
C  -10.56100 11.27100 42.12500
C  -7.71000 13.22700 41.81100
O  -7.08600 12.20500 41.97100
C  -7.16300 14.68400 41.55000
C  -6.50500 15.07300 42.82700
O  -7.08500 15.47900 43.83600
O  -5.14400 14.94900 42.78500
C  -4.39400 15.67000 43.77800
H  -10.19000 20.96400 40.37600
H  -15.73700 18.17200 42.17600
H  -12.97600 12.43700 41.94900
H  -6.53400 17.65100 41.19600
H  -7.74200 19.77900 39.43000
H  -6.54200 19.73000 41.91300
H  -8.06700 20.72300 42.11600
H  -6.95100 21.22200 40.91500
H  -7.54100 17.74400 38.33700
H  -7.04400 16.29700 39.10300
H  -4.72500 16.84700 38.71400
H  -4.89700 18.55500 39.17100
H  -12.84700 22.45200 39.33800
H  -11.35600 22.46100 40.05900
H  -12.81200 23.22500 40.89700
H  -17.13500 21.37400 42.44300
H  -16.18400 20.10500 43.14000
H  -16.93200 19.79600 41.55700
H  -16.61300 15.83000 41.79900
H  -15.22000 13.63600 42.95500
H  -17.06300 15.53300 43.97500
H  -15.88700 16.80000 44.18000
H  -15.38800 15.14900 44.42500
H  -14.78000 13.33200 40.17400
H  -16.15900 14.31600 40.14800
H  -17.02700 12.21200 41.93500
H  -16.00700 11.42100 40.77400
H  -17.32400 12.43700 40.17700
H  -9.66200 10.81300 42.53900
H  -10.71000 10.90600 41.10900
H  -11.37600 11.02200 42.80400
H  -6.40900 14.53000 40.77700
H  -3.71100 16.19600 43.11100
H  -3.99300 14.85700 44.38300
H  -4.88100 16.42200 44.39900

