158

Mg 42.91000 41.93100 25.65700
C  42.18800 44.15400 28.24300
C  43.97900 39.76800 28.10000
C  44.03300 40.04400 23.20800
C  42.21800 44.51600 23.31900
N  42.98500 41.91800 27.95700
C  42.65100 42.95500 28.78900
C  42.71200 42.63200 30.28500
C  43.53900 41.26200 30.18800
C  43.57200 40.96700 28.69300
C  45.03600 41.33400 30.74600
C  41.31200 42.49500 30.99300
C  41.18300 41.80000 32.25500
H  40.45200 42.57800 33.40900
N  43.81800 40.11000 25.64700
C  44.15100 39.31800 26.76500
C  44.63200 38.06500 26.30100
C  44.51500 38.08000 24.88300
C  44.22500 39.49800 24.52800
C  44.83200 36.86700 27.19000
C  44.61300 36.97400 23.92400
O  44.43200 37.19400 22.74200
C  44.65400 35.46500 24.36500
N  43.33400 42.33500 23.58400
C  43.63200 41.29600 22.77500
C  43.54100 41.71900 21.29300
C  42.95200 43.18000 21.28600
C  42.76300 43.33700 22.84500
C  44.79800 41.50300 20.46200
C  41.72300 43.49100 20.37700
C  40.32400 43.11000 20.90700
N  42.43900 43.88300 25.66800
C  42.04800 44.80800 24.65600
C  41.47200 45.96000 25.30000
C  41.48500 45.68100 26.66200
C  42.04300 44.42600 26.85900
C  40.90600 47.15600 24.48900
C  41.08400 46.20100 27.93100
O  40.52700 47.25500 28.15100
C  41.58100 45.27600 29.07000
C  42.61100 46.02600 29.77800
O  43.72100 46.36600 29.33800
O  42.17600 46.45600 30.97700
C  43.02400 47.37700 31.65800
H  44.23800 39.07000 28.89900
H  44.24600 39.45200 22.31500
H  41.81100 45.28100 22.65500
H  43.25100 43.32800 30.92800
H  43.08200 40.46500 30.77400
H  45.34700 42.37800 30.74400
H  45.65300 40.79600 30.02700
H  45.25400 40.86100 31.70400
H  40.64900 42.05700 30.24800
H  41.04400 43.53100 31.20400
H  42.17200 41.48200 32.58400
H  40.65100 40.86500 32.07700
H  44.89600 37.16700 28.23600
H  45.71500 36.24400 27.05000
H  43.96800 36.20500 27.13300
H  44.72300 34.91300 23.42700
H  43.65700 35.34300 24.78900
H  45.45200 35.05400 24.98300
H  42.72200 41.13500 20.87400
H  43.71400 43.91700 21.03500
H  45.65200 41.25700 21.09300
H  45.08600 42.32200 19.80300
H  44.70200 40.61700 19.83600
H  41.95300 43.14300 19.37000
H  41.73000 44.58100 20.41300
H  40.52300 42.33900 21.65100
H  39.70900 42.60600 20.16200
H  39.90000 43.97800 21.41300
H  40.71000 46.91000 23.44600
H  41.67200 47.93000 24.44600
H  40.12100 47.73500 24.97500
H  40.81100 44.95200 29.77000
H  43.75700 46.75600 32.17300
H  42.43100 47.98300 32.34200
H  43.59500 47.97800 30.95000
Mg 9.59300 48.60200 26.43800
C  7.58900 48.61600 29.26200
C  12.18000 49.78800 28.25600
C  11.32700 48.68200 23.60700
C  6.58000 48.15900 24.37900
N  9.77600 49.27200 28.52500
C  8.88300 49.10400 29.51100
C  9.57500 49.40700 30.91600
C  10.83100 50.27200 30.48300
C  10.99000 49.74300 29.01100
C  10.62600 51.81200 30.51500
C  9.96200 48.08200 31.60800
C  9.44800 47.85700 33.01300
H  9.80500 46.62200 33.71700
N  11.53800 48.96500 26.02300
C  12.50400 49.37900 26.94800
C  13.78300 49.38700 26.30800
C  13.60200 48.97800 24.94300
C  12.11500 48.87900 24.81400
C  15.11500 49.63000 27.07100
C  14.64400 48.82300 23.88200
O  14.28400 48.71300 22.74200
C  16.08400 48.91900 24.16600
N  8.99300 48.64300 24.28200
C  9.93700 48.61000 23.34900
C  9.31200 48.29500 21.91800
C  7.86100 47.89700 22.19900
C  7.79600 48.21100 23.71900
C  9.55200 49.49900 20.94200
C  7.59900 46.40900 21.95800
C  7.56100 46.10100 20.43600
N  7.44900 48.53900 26.68800
C  6.42800 48.20100 25.80500
C  5.26600 47.90400 26.58900
C  5.66200 48.04500 27.90300
C  7.02000 48.43000 27.95300
C  3.86400 47.59500 26.09600
C  5.18300 47.99000 29.28800
O  4.06200 47.78800 29.74600
C  6.45900 48.27400 30.22100
C  6.65000 47.03200 30.95800
O  7.31100 46.09600 30.57500
O  5.81500 46.94500 32.05300
C  5.77200 45.75800 32.89100
H  12.90800 50.37500 28.81900
H  11.94300 48.52700 22.71900
H  5.78300 47.85700 23.69600
H  8.86000 49.96700 31.51900
H  11.72800 49.98600 31.03300
H  11.52100 52.33500 30.85000
H  9.80700 52.06200 31.18900
H  10.42800 52.32200 29.57200
H  11.03800 47.92400 31.68400
H  9.63400 47.27100 30.95900
H  8.37700 47.72900 32.86000
H  9.42000 48.77900 33.59400
H  14.86900 49.70300 28.13000
H  15.55300 50.60600 26.86000
H  15.80900 48.81000 26.89000
H  16.65400 48.97000 23.23800
H  16.23200 47.96800 24.67700
H  16.36400 49.77600 24.77800
H  9.83200 47.44400 21.47900
H  7.05300 48.43800 21.70700
H  10.20500 49.16900 20.13400
H  9.99100 50.35700 21.45200
H  8.60500 49.85200 20.53300
H  6.65000 46.11700 22.40700
H  8.43500 45.84100 22.36700
H  7.34700 47.00400 19.86500
H  6.81200 45.31300 20.35200
H  8.45900 45.56900 20.12100
H  3.13200 48.09300 26.73100
H  3.52900 46.55900 26.05300
H  3.75100 47.96100 25.07500
H  6.16400 49.11700 30.84400
H  6.17500 45.94700 33.88600
H  6.35000 44.89500 32.56300
H  4.70800 45.52200 32.91700

