158

Mg 47.95600 15.82000 28.56500
C  45.96400 15.40400 31.57500
C  50.05000 17.67500 30.43000
C  49.23900 16.78400 25.74800
C  45.40300 13.96700 26.90400
N  48.08700 16.28900 30.81400
C  47.22800 15.91900 31.82200
C  47.79300 16.51800 33.15900
C  49.12200 17.24100 32.75000
C  49.13500 16.98200 31.26200
C  49.43200 18.66700 33.37700
C  48.13400 15.45200 34.29300
C  47.68900 15.64700 35.77900
H  47.82800 17.09500 36.48700
N  49.44200 16.98300 28.12600
C  50.21600 17.66500 29.05000
C  51.20200 18.43700 28.31700
C  50.96300 18.24500 26.93900
C  49.84700 17.29900 26.89100
C  52.33900 19.16500 28.96000
C  51.75700 18.68900 25.67800
O  51.67800 18.25400 24.51200
C  52.82000 19.71100 25.89100
N  47.45000 15.38100 26.64600
C  48.17800 15.91900 25.60300
C  47.86000 15.31200 24.22800
C  46.63000 14.33400 24.66100
C  46.47100 14.53400 26.17000
C  47.52900 16.38600 23.11500
C  46.98200 12.89100 24.33800
C  45.92100 12.19800 23.48100
N  46.10000 14.87200 29.04700
C  45.23100 14.12400 28.28800
C  44.01700 13.69500 29.10800
C  44.33000 14.16900 30.34000
C  45.56700 14.86900 30.30600
C  42.81500 12.94900 28.79900
C  43.84200 14.18700 31.71900
O  42.82100 13.64200 32.20400
C  44.91700 14.97000 32.57200
C  44.17300 16.06800 33.26300
O  43.82100 17.06200 32.63600
O  44.06800 15.76200 34.61300
C  43.55700 16.81000 35.37700
H  50.80400 18.23700 30.98600
H  49.77900 17.05000 24.83700
H  44.63000 13.44400 26.33600
H  47.07600 17.23500 33.55900
H  49.94800 16.63300 33.11900
H  49.14200 19.39200 32.61700
H  50.51000 18.75400 33.50800
H  48.95400 18.89100 34.33100
H  49.20300 15.24600 34.34900
H  47.60700 14.54000 34.01200
H  48.24000 15.07600 36.52600
H  46.67400 15.32200 36.00800
H  53.07300 18.36200 28.90000
H  52.20000 19.36800 30.02200
H  52.64200 20.13000 28.55500
H  52.29600 20.52500 26.39200
H  53.25200 20.00700 24.93500
H  53.54100 19.26600 26.57700
H  48.68400 14.71400 23.83900
H  45.74100 14.72300 24.16400
H  47.57400 15.87200 22.15500
H  48.17900 17.25900 23.05300
H  46.48700 16.69300 23.20400
H  47.10200 12.25300 25.21400
H  47.91100 12.78600 23.77900
H  45.29300 11.61100 24.15200
H  46.50900 11.53700 22.84400
H  45.24800 12.86800 22.94600
H  42.91200 12.49500 27.81300
H  42.02900 13.70300 28.75300
H  42.69500 12.24700 29.62400
H  45.39400 14.29600 33.28400
H  42.53900 17.06300 35.08300
H  44.30100 17.60400 35.30100
H  43.44900 16.43300 36.39400
Mg 6.34800 54.22700 39.46600
C  5.97200 50.79300 39.55500
C  9.66600 53.83800 38.77200
C  6.47300 57.52100 38.72500
C  2.89100 54.51100 39.83900
N  7.60800 52.49100 39.01100
C  7.25800 51.15900 39.15100
C  8.54500 50.27600 38.84200
C  9.66000 51.35700 39.03700
C  8.95800 52.69200 38.91000
C  10.60700 51.28200 40.28700
C  8.60500 49.70200 37.45100
C  8.26800 50.70300 36.35400
H  6.89100 50.57200 35.61000
N  7.87200 55.51200 38.90700
C  9.15300 55.15500 38.70400
C  9.97900 56.31000 38.42600
C  9.06900 57.45200 38.46700
C  7.72400 56.87800 38.68000
C  11.56100 56.32500 38.22200
C  9.34900 58.96100 38.48900
O  10.55500 59.32800 38.42700
C  8.43400 60.10200 38.74700
N  4.83100 55.78200 39.23300
C  5.20800 57.09100 39.00300
C  4.02000 58.05500 39.23800
C  2.80000 57.09800 39.15000
C  3.51600 55.68800 39.41900
C  4.22500 58.73900 40.61800
C  2.11500 57.05900 37.76400
C  0.60000 57.17500 37.82600
N  4.69200 52.91200 39.61800
C  3.38600 53.16300 39.90100
C  2.63500 51.91000 40.10700
C  3.61100 50.92400 39.98600
C  4.82600 51.61500 39.67300
C  1.22400 51.63100 40.58700
C  3.92700 49.50400 40.04300
O  3.18400 48.57800 40.34400
C  5.44300 49.34300 39.76500
C  5.62300 48.44900 38.61600
O  5.25100 48.68400 37.45400
O  6.37300 47.34800 39.03400
C  6.40100 46.29100 38.04700
H  10.73200 53.61000 38.70600
H  6.51400 58.59400 38.52300
H  1.81900 54.48000 40.04300
H  8.76200 49.47900 39.55200
H  10.40600 51.28100 38.24500
H  11.62600 51.63700 40.13200
H  10.64300 50.31800 40.79600
H  10.37400 51.99600 41.07700
H  7.91600 48.86100 37.36600
H  9.60000 49.29700 37.27100
H  9.13400 50.52100 35.71800
H  8.47600 51.74000 36.61800
H  12.03400 57.26700 37.94400
H  11.90900 55.57000 37.51600
H  11.94200 56.08100 39.21300
H  8.00400 60.44500 37.80600
H  9.01400 60.93000 39.15500
H  7.62400 59.90300 39.44900
H  3.99400 58.83300 38.47500
H  2.12800 57.20500 40.00100
H  4.83800 59.63200 40.50200
H  4.77800 57.99900 41.19700
H  3.36000 59.04400 41.20700
H  2.49900 56.17400 37.25800
H  2.45000 57.78700 37.02500
H  0.37300 57.74000 38.73000
H  -0.00700 56.27000 37.84300
H  0.13900 57.61200 36.94000
H  0.96300 50.58400 40.43300
H  0.49600 52.20400 40.01200
H  1.19900 51.81900 41.66000
H  5.99100 48.86100 40.57500
H  6.95600 45.43100 38.42000
H  6.78600 46.71600 37.12000
H  5.46500 45.82800 37.73500

