158

Mg 17.54500 -2.33900 27.83000
C  16.68600 -0.23500 30.49900
C  19.58100 -4.11600 30.11500
C  18.84400 -3.96500 25.24100
C  15.78300 -0.14400 25.74900
N  18.07700 -2.16400 30.02800
C  17.44100 -1.32200 30.93200
C  17.89100 -1.56600 32.35400
C  18.96400 -2.70000 32.13900
C  18.88100 -3.06900 30.63000
C  20.43500 -2.33200 32.51300
C  16.82300 -1.96400 33.40900
C  16.96400 -1.21700 34.80900
H  18.40800 -0.94000 35.24000
N  18.83000 -3.93000 27.67300
C  19.56400 -4.54500 28.75800
C  20.27500 -5.66300 28.26000
C  19.97000 -5.71200 26.89100
C  19.23600 -4.50600 26.50600
C  21.17300 -6.54400 29.10900
C  20.46600 -6.65400 25.85100
O  20.28200 -6.50800 24.62700
C  21.34200 -7.87200 26.36200
N  17.16600 -2.26000 25.84600
C  17.92500 -2.92600 24.93400
C  17.61800 -2.60400 23.39500
C  16.51900 -1.45800 23.64900
C  16.43100 -1.27800 25.15100
C  18.91200 -2.08500 22.51300
C  15.12100 -1.60500 22.97600
C  14.85000 -0.88800 21.65600
N  16.51800 -0.49100 28.00200
C  15.76800 0.19100 27.08000
C  15.07400 1.33200 27.68500
C  15.45800 1.17300 29.10900
C  16.27900 0.08400 29.16100
C  14.19200 2.25900 27.02200
C  15.12900 1.66700 30.36700
O  14.33600 2.51100 30.70000
C  16.08900 0.84100 31.34000
C  17.10000 1.72000 32.02400
O  18.21500 1.99600 31.51000
O  16.59800 2.15700 33.22000
C  17.41200 3.17300 33.87800
H  20.06600 -4.75500 30.85600
H  19.18000 -4.39000 24.29300
H  15.32900 0.52700 25.01700
H  18.35300 -0.61800 32.62700
H  18.69400 -3.62700 32.64600
H  20.38100 -1.32000 32.91600
H  21.12700 -2.29700 31.67100
H  20.71000 -3.10400 33.23200
H  16.77200 -3.00900 33.71500
H  15.87300 -1.78900 32.90300
H  16.59800 -1.79100 35.66000
H  16.50700 -0.23600 34.67700
H  21.08200 -7.61100 28.90800
H  20.88200 -6.48500 30.15800
H  22.15700 -6.16800 28.83100
H  21.73400 -8.50600 25.56700
H  20.63700 -8.54800 26.84400
H  22.15100 -7.43000 26.94500
H  17.13400 -3.46900 22.94100
H  16.97400 -0.54800 23.25900
H  18.75300 -1.10300 22.06700
H  18.97000 -2.88800 21.77800
H  19.76400 -1.99900 23.18700
H  14.44200 -1.13700 23.68800
H  14.81500 -2.65000 22.92100
H  13.89600 -0.39000 21.82800
H  14.92900 -1.50000 20.75700
H  15.57100 -0.07500 21.57500
H  13.17700 2.15900 27.40700
H  14.22300 2.08000 25.94700
H  14.53700 3.28100 27.17500
H  15.47400 0.40400 32.12600
H  17.20700 4.08800 33.32300
H  18.45400 2.87400 34.00000
H  16.93000 3.33100 34.84200
Mg -8.56900 41.35800 42.33900
C  -7.99300 37.86100 41.36400
C  -5.92500 42.05900 40.15500
C  -9.67000 44.51400 42.08700
C  -11.55800 40.34600 43.72300
N  -7.06600 40.08400 41.04700
C  -7.08900 38.69000 40.69900
C  -5.77000 38.18300 40.01000
C  -5.04400 39.61700 39.78100
C  -6.00100 40.68000 40.39800
C  -3.65700 39.68800 40.55600
C  -6.21600 37.43000 38.78400
C  -5.41800 36.11500 38.38900
H  -4.51300 36.44300 37.18400
N  -7.82100 42.99300 41.28900
C  -6.78700 43.08500 40.50700
C  -6.61700 44.39500 39.95800
C  -7.61600 45.16900 40.57700
C  -8.43900 44.26400 41.38800
C  -5.59400 44.85900 38.95500
C  -7.79400 46.74000 40.49600
O  -6.97500 47.34800 39.86500
C  -8.83200 47.50100 41.07400
N  -10.40800 42.32500 42.74600
C  -10.54300 43.65600 42.77100
C  -11.95200 44.05700 43.44600
C  -12.41600 42.72700 44.13600
C  -11.37900 41.71300 43.52700
C  -11.67100 45.17900 44.43900
C  -13.88800 42.42700 43.96300
C  -14.32100 41.52100 42.80900
N  -9.50600 39.49700 42.76500
C  -10.75200 39.27300 43.32200
C  -11.01800 37.83000 43.25500
C  -9.90200 37.24100 42.58900
C  -9.07400 38.28900 42.20800
C  -12.18900 37.10100 43.75200
C  -9.28400 35.97100 42.26300
O  -9.59000 34.84500 42.57600
C  -8.04300 36.28200 41.31500
C  -6.78200 35.76300 41.91900
O  -6.20700 36.27800 42.89000
O  -6.42800 34.60700 41.27600
C  -5.40800 33.77600 41.91400
H  -5.01400 42.22800 39.57600
H  -10.09300 45.51800 42.00800
H  -12.43900 39.98300 44.25600
H  -5.32500 37.57000 40.79400
H  -4.88000 39.81500 38.72200
H  -3.68600 39.06900 41.45300
H  -3.38300 40.69500 40.87000
H  -2.83000 39.49000 39.87400
H  -6.27300 38.11200 37.93600
H  -7.26500 37.13500 38.80400
H  -6.09600 35.31800 38.08300
H  -4.74000 35.82500 39.19200
H  -4.75000 45.40000 39.38200
H  -5.99300 45.62700 38.29300
H  -5.17700 44.08200 38.31300
H  -8.91400 48.49400 40.63300
H  -8.87600 47.53000 42.16300
H  -9.72600 47.07900 40.61500
H  -12.55200 44.52500 42.66600
H  -12.06700 42.78900 45.16700
H  -11.83700 46.16800 44.01200
H  -10.63500 45.16500 44.77700
H  -12.33600 45.01500 45.28600
H  -14.36100 43.37500 43.70500
H  -14.37400 42.10000 44.88300
H  -14.89700 42.20100 42.18100
H  -14.92400 40.65800 43.08900
H  -13.46300 41.18600 42.22600
H  -12.61700 36.56300 42.90600
H  -12.93100 37.71700 44.26000
H  -11.83400 36.27200 44.36400
H  -8.21600 35.87000 40.32000
H  -6.00500 33.23900 42.65100
H  -4.63300 34.28700 42.48600
H  -4.85600 33.12700 41.23400

