158

Mg 54.89100 24.15900 44.42900
C  52.03400 26.15400 43.41500
C  53.09000 21.51900 43.49300
C  57.77000 22.43300 44.85100
C  56.46000 27.12000 45.36000
N  52.86000 23.95700 43.40400
C  51.80800 24.86900 43.09800
C  50.60000 24.16600 42.55900
C  50.87200 22.68800 43.06200
C  52.36800 22.68700 43.35500
C  50.20100 22.41700 44.40600
C  50.45000 24.24700 41.07000
C  49.00600 24.41600 40.52000
H  48.81100 24.04400 39.09300
N  55.38900 22.20800 44.07300
C  54.47400 21.26000 43.78800
C  55.05400 19.94800 43.84100
C  56.39100 20.19700 44.33300
C  56.61400 21.65000 44.42100
C  54.36400 18.74200 43.39200
C  57.40700 19.05600 44.60400
O  57.07100 17.87600 44.44700
C  58.73700 19.25600 45.10500
N  56.91100 24.68600 44.92200
C  57.93900 23.84300 45.03900
C  59.28100 24.52500 45.37400
C  58.79500 26.00500 45.69500
C  57.32600 25.94000 45.24900
C  60.22100 23.89100 46.48000
C  59.63600 27.05100 44.96600
C  60.92300 27.45700 45.75800
N  54.38200 26.19800 44.44800
C  55.09800 27.27900 44.92900
C  54.29000 28.50100 44.99600
C  53.07300 28.08200 44.36600
C  53.19400 26.70300 44.06700
C  54.71300 29.79400 45.74200
C  51.80400 28.57200 43.90700
O  51.33800 29.65900 43.89100
C  51.07000 27.35200 43.29200
C  50.53500 27.64200 41.93500
O  51.25200 27.81600 40.95900
O  49.18800 27.70300 41.90500
C  48.47700 28.00200 40.60300
H  52.48600 20.60900 43.52300
H  58.68000 21.85600 45.02900
H  56.92100 28.01900 45.77400
H  49.74400 24.57000 43.09800
H  50.61500 21.84900 42.41400
H  49.26800 21.88100 44.23000
H  49.95400 23.36400 44.88500
H  50.78500 21.82500 45.11100
H  50.78500 23.35400 40.54200
H  50.94700 25.12200 40.65000
H  48.61800 25.41700 40.71300
H  48.41300 23.65900 41.03300
H  55.02600 18.33500 42.62800
H  53.44400 19.05800 42.90000
H  54.19800 17.92600 44.09500
H  59.37900 19.80300 44.41600
H  59.21300 18.29700 45.31100
H  58.73300 19.79100 46.05500
H  59.83500 24.45900 44.43700
H  58.76300 26.01600 46.78500
H  61.03000 24.61000 46.61200
H  60.66500 22.94100 46.18400
H  59.72600 23.85800 47.45000
H  59.00700 27.92100 44.77600
H  59.98100 26.74800 43.97700
H  61.16800 28.48200 45.48000
H  61.78200 26.84900 45.47200
H  60.79600 27.39500 46.83900
H  54.03800 30.64900 45.77900
H  55.68000 30.14500 45.38100
H  54.73300 29.55200 46.80500
H  50.23100 27.25200 43.98000
H  48.39700 29.08700 40.52800
H  47.52400 27.47200 40.59900
H  48.98600 27.61500 39.72000
Mg 47.94000 34.71500 26.75600
C  46.09000 33.49400 29.39800
C  48.62800 37.51300 28.69600
C  49.57200 36.04200 24.13800
C  47.03300 31.92600 24.82300
N  47.29500 35.39900 28.79700
C  46.70500 34.64100 29.73100
C  46.87600 35.20900 31.18200
C  47.38600 36.62700 30.86300
C  47.79300 36.55500 29.32400
C  46.45600 37.79200 31.15200
C  47.96600 34.37000 31.86500
C  48.23200 34.61000 33.31300
H  47.35600 35.56000 34.12600
N  49.00900 36.54200 26.42500
C  49.23800 37.53200 27.35000
C  50.11500 38.57600 26.77900
C  50.28500 38.12900 25.41200
C  49.62000 36.84300 25.24800
C  50.52400 39.74400 27.62400
C  51.09000 38.74500 24.38200
O  51.33500 38.30500 23.24900
C  51.66300 40.10400 24.69600
N  48.23200 34.13100 24.76500
C  48.99000 34.78500 23.89500
C  49.18500 34.09700 22.49800
C  48.66200 32.62300 22.89700
C  47.95500 32.89700 24.30300
C  48.34100 34.84900 21.33900
C  49.78500 31.56900 23.07800
C  49.95900 30.49900 22.04100
N  46.81200 33.03500 26.96100
C  46.41100 32.04500 26.10400
C  45.51100 31.12600 26.69700
C  45.34900 31.63400 27.98200
C  46.22100 32.77400 28.13100
C  44.97300 29.88400 26.10800
C  44.71300 31.41400 29.17600
O  44.01400 30.47000 29.59400
C  45.13000 32.55600 30.19800
C  45.58500 31.82900 31.49500
O  46.41700 30.97200 31.66500
O  44.73900 32.27100 32.52700
C  44.97900 31.85600 33.97000
H  48.80700 38.39300 29.31800
H  50.22700 36.29600 23.30200
H  46.88500 31.06000 24.17500
H  45.98000 35.19000 31.80200
H  48.29800 36.86400 31.41100
H  45.99100 38.10000 30.21600
H  46.90400 38.66700 31.62300
H  45.68000 37.40500 31.81200
H  48.86400 34.52400 31.26700
H  47.77100 33.31100 31.69700
H  49.21900 35.06300 33.41500
H  48.22700 33.61800 33.76500
H  49.86000 40.54200 27.29300
H  51.49000 40.16400 27.34400
H  50.58500 39.59500 28.70200
H  51.95500 40.59300 23.76700
H  52.44900 40.05100 25.45000
H  50.78200 40.66700 25.00600
H  50.22600 34.08800 22.17200
H  47.92000 32.32600 22.15600
H  47.35100 34.46600 21.58600
H  48.69900 34.49100 20.37400
H  48.57500 35.89200 21.55700
H  49.58700 30.93300 23.94100
H  50.74300 32.05300 23.26700
H  49.81200 29.56400 22.58200
H  50.96700 30.47700 21.62600
H  49.25600 30.63600 21.22000
H  45.63900 29.02200 26.13800
H  44.76000 30.09500 25.06000
H  44.05100 29.60500 26.61700
H  44.26500 33.15600 30.48000
H  45.96300 31.43500 34.17600
H  44.15200 31.26600 34.36600
H  45.00200 32.85700 34.40000

