158

Mg -1.36400 17.90000 27.03300
C  -1.76400 15.49900 29.80000
C  -1.94000 20.45000 29.30500
C  -1.31900 20.03000 24.47500
C  -0.86000 15.17200 24.90600
N  -1.84700 17.89400 29.24200
C  -1.91500 16.85000 30.18500
C  -2.20400 17.49600 31.57800
C  -2.57800 18.95200 31.27200
C  -1.99300 19.14000 29.88100
C  -4.04600 19.43000 31.50600
C  -1.09600 17.32100 32.63100
C  -1.71200 17.01800 33.98500
H  -0.75400 17.00000 35.18100
N  -1.45500 19.89700 26.93700
C  -1.65000 20.82200 27.93200
C  -1.45900 22.17500 27.43500
C  -1.27600 22.09300 26.03900
C  -1.27600 20.64100 25.75600
C  -1.77600 23.42000 28.28200
C  -1.00400 23.20000 25.00800
O  -0.74400 22.94200 23.83500
C  -1.03400 24.55700 25.43400
N  -1.27500 17.57200 25.07600
C  -1.30300 18.63100 24.20800
C  -0.99600 18.21000 22.72800
C  -0.74600 16.67000 22.86600
C  -0.99700 16.44400 24.36300
C  -2.21700 18.66100 21.86200
C  0.66500 16.31200 22.45000
C  1.82000 16.76700 23.40200
N  -1.22800 15.74800 27.31600
C  -0.97200 14.78700 26.31600
C  -1.02100 13.48000 26.93900
C  -1.35400 13.73800 28.28900
C  -1.47800 15.09100 28.47700
C  -0.77300 12.09000 26.33400
C  -1.49200 13.02300 29.56500
O  -1.32900 11.84400 29.88900
C  -1.83200 14.16800 30.67000
C  -0.77400 14.04000 31.67600
O  0.39300 14.32700 31.46900
O  -1.29000 13.57700 32.81200
C  -0.42800 13.28100 33.97600
H  -2.09100 21.28000 29.99800
H  -1.17400 20.57200 23.53800
H  -0.72100 14.39200 24.15500
H  -3.06200 16.91100 31.90800
H  -2.11100 19.62500 31.99100
H  -4.56700 18.74900 32.17900
H  -4.57600 19.46400 30.55400
H  -3.99000 20.33100 32.11600
H  -0.61400 18.28900 32.77000
H  -0.49700 16.50000 32.23900
H  -2.27200 16.08400 33.96900
H  -2.36800 17.86800 34.17500
H  -0.83500 23.81600 28.66300
H  -2.41800 23.11400 29.10700
H  -2.25200 24.10000 27.57500
H  -2.05400 24.78900 25.74000
H  -0.68800 25.12400 24.57000
H  -0.29300 24.50400 26.23200
H  -0.09300 18.78400 22.51800
H  -1.38900 15.96800 22.33400
H  -2.93000 19.24700 22.44100
H  -2.58300 17.78200 21.33000
H  -1.89700 19.30200 21.04000
H  0.90500 16.69700 21.45900
H  0.79100 15.23100 22.38200
H  2.52600 17.27100 22.74300
H  2.33000 15.91500 23.85200
H  1.45900 17.45500 24.16600
H  -0.06300 12.21400 25.51700
H  -1.66800 11.57000 25.99300
H  -0.26800 11.42300 27.03300
H  -2.84500 14.05200 31.05600
H  -0.62700 12.21700 34.10300
H  -0.82000 13.68400 34.91000
H  0.64800 13.45200 33.98600
Mg 47.42600 16.34100 28.70000
C  45.19800 16.18200 31.59600
C  49.55500 18.25300 30.63400
C  49.06900 17.02700 25.98100
C  44.74400 15.01400 26.82900
N  47.43500 16.98100 30.99400
C  46.39900 16.94500 31.88100
C  46.80600 17.55400 33.27000
C  48.14900 18.35800 32.88400
C  48.44600 17.84600 31.44900
C  47.98400 19.94000 32.99600
C  47.11400 16.45700 34.28500
C  46.65000 16.64800 35.70300
H  46.51300 18.12900 36.22800
N  49.26000 17.26500 28.42000
C  49.94300 18.02600 29.29200
C  51.16000 18.47100 28.67000
C  51.00800 18.09800 27.28500
C  49.75800 17.38500 27.18700
C  52.30400 19.16300 29.41200
C  51.95200 18.28400 26.04200
O  51.73700 17.81800 24.94800
C  53.24900 19.04400 26.30900
N  46.99900 15.95500 26.74200
C  47.82000 16.45300 25.77100
C  47.10700 16.41600 24.39500
C  45.94900 15.37800 24.67000
C  45.86800 15.44800 26.17800
C  46.49300 17.79500 23.92400
C  46.22600 13.86900 24.12100
C  45.00400 13.15400 23.55400
N  45.38600 15.57400 29.07900
C  44.44900 15.06600 28.23000
C  43.37900 14.48200 28.97800
C  43.61400 14.88100 30.29900
C  44.81800 15.65500 30.28300
C  42.37900 13.52500 28.40800
C  43.10100 14.76600 31.61800
O  42.10900 14.18100 32.09700
C  44.12100 15.65700 32.52800
C  43.32800 16.67600 33.38800
O  42.86100 17.71900 32.96500
O  43.34200 16.29000 34.67100
C  42.77700 17.37500 35.60400
H  50.24200 18.89400 31.19100
H  49.59100 17.32200 25.06900
H  44.04000 14.46300 26.20100
H  46.03000 18.21100 33.66400
H  48.99600 18.00700 33.47300
H  48.36700 20.28500 32.03600
H  48.53200 20.31500 33.86100
H  46.97100 20.27600 33.21900
H  48.15400 16.14200 34.18800
H  46.56500 15.64600 33.80600
H  47.12400 15.88400 36.31900
H  45.62000 16.29100 35.71000
H  52.22800 19.08200 30.49600
H  52.19100 20.22500 29.19200
H  53.23400 18.76600 29.00400
H  53.08200 19.89700 26.96700
H  53.51200 19.46800 25.34000
H  54.08400 18.39400 26.57000
H  47.82200 16.06100 23.65300
H  45.01000 15.72500 24.24100
H  46.85700 18.48800 24.68300
H  45.41100 17.77500 23.78800
H  47.03500 18.00700 23.00300
H  46.51700 13.23800 24.96100
H  47.00400 13.99400 23.36800
H  45.19100 12.10800 23.79800
H  45.04900 13.25800 22.47000
H  44.05800 13.47200 23.99100
H  42.72400 12.49300 28.33800
H  42.12100 13.94500 27.43600
H  41.46300 13.58800 28.99700
H  44.53100 14.91800 33.21600
H  41.70800 17.18200 35.69300
H  42.88400 18.36200 35.15300
H  43.31700 17.21900 36.53800

