158

Mg 46.66200 3.64900 48.10200
C  45.10400 6.69800 47.12000
C  43.62500 2.00200 47.46000
C  48.17000 0.65500 48.46200
C  49.61900 5.29600 48.16400
N  44.62200 4.29400 47.31700
C  44.23700 5.57900 46.96500
C  42.74400 5.65100 46.50300
C  42.23900 4.17600 46.80900
C  43.58900 3.42500 47.24400
C  41.09700 4.10000 47.89400
C  42.67400 6.13700 44.99000
C  41.97600 7.54700 44.64400
H  40.80200 7.44100 43.70800
N  46.01100 1.56500 47.97200
C  44.72500 1.13000 47.72800
C  44.71400 -0.33300 47.72900
C  46.00000 -0.72400 48.03700
C  46.84300 0.47500 48.12000
C  43.45800 -1.20800 47.53900
C  46.48700 -2.17200 48.25700
O  45.76300 -3.08400 47.97800
C  47.82500 -2.65900 48.76900
N  48.52500 3.00000 48.18100
C  48.97800 1.77900 48.48800
C  50.39000 1.73900 48.89100
C  50.89200 3.16000 48.63500
C  49.62300 3.92800 48.26900
C  50.63900 1.14300 50.27600
C  51.98700 3.25300 47.45000
C  51.33600 3.36000 46.03000
N  47.22000 5.62400 47.85700
C  48.54200 6.15300 47.99300
C  48.54700 7.55500 47.82300
C  47.19600 7.88100 47.49800
C  46.42700 6.64200 47.48200
C  49.80200 8.46100 47.93500
C  46.21200 8.94100 47.16400
O  46.33500 10.13200 47.03800
C  44.89000 8.18200 46.84200
C  43.84400 8.71000 47.74600
O  43.56500 8.25700 48.88400
O  43.16000 9.73600 47.14700
C  42.10400 10.49500 47.88100
H  42.63800 1.53700 47.40800
H  48.75300 -0.24000 48.69100
H  50.60300 5.75900 48.25700
H  42.26600 6.41100 47.12200
H  41.93100 3.70200 45.87700
H  41.58800 3.68600 48.77500
H  40.46800 3.29700 47.51000
H  40.49600 5.00000 48.02400
H  42.13700 5.34500 44.46600
H  43.64300 6.24900 44.50400
H  42.78100 8.08000 44.13700
H  41.71100 8.13200 45.52400
H  42.85800 -1.39800 48.43000
H  43.69500 -2.17800 47.10200
H  42.91600 -0.71600 46.73100
H  48.23400 -2.08200 49.59800
H  48.56200 -2.54600 47.97400
H  47.74200 -3.72200 48.99700
H  50.79400 1.05600 48.14400
H  51.30100 3.65900 49.51300
H  50.72400 0.07000 50.10800
H  49.74300 1.35100 50.86200
H  51.56800 1.44800 50.75800
H  52.75300 2.47800 47.47200
H  52.41600 4.24900 47.55300
H  50.45500 2.71900 46.06400
H  51.99300 2.98000 45.24700
H  50.99500 4.37600 45.82800
H  49.51400 9.42900 48.34500
H  50.06100 8.65700 46.89500
H  50.65100 8.03800 48.47300
H  44.57900 8.28200 45.80200
H  41.37300 9.81200 48.31400
H  41.48800 11.14000 47.25400
H  42.59400 10.98900 48.72100
Mg 47.46700 24.37500 28.12800
C  48.33500 26.66700 30.70500
C  46.93800 22.06400 30.63600
C  46.80500 22.16200 25.74500
C  48.47300 26.77300 25.69400
N  47.58600 24.48400 30.45600
C  47.98600 25.45700 31.29200
C  47.85400 25.03100 32.73800
C  47.60900 23.50700 32.61700
C  47.39600 23.29000 31.12400
C  48.64100 22.51600 33.20900
C  46.78600 25.90400 33.46100
C  46.45400 25.42700 34.89800
H  46.55700 26.54100 35.95400
N  46.97300 22.43400 28.14000
C  46.70800 21.62200 29.25500
C  46.22700 20.30600 28.87100
C  46.31300 20.29400 27.44400
C  46.67700 21.66200 27.05800
C  45.86300 19.22800 29.92900
C  46.02700 19.07700 26.54600
O  46.06500 19.17100 25.31200
C  45.57400 17.69400 27.17800
N  47.87900 24.38600 25.95400
C  47.35800 23.39200 25.23300
C  47.24100 23.77700 23.71600
C  47.70400 25.26800 23.70600
C  47.99900 25.50600 25.18600
C  47.93400 22.81600 22.76000
C  46.70700 26.28100 23.11000
C  47.31900 27.36500 22.20200
N  48.21300 26.30400 28.13600
C  48.61400 27.10700 27.05300
C  49.03300 28.43400 27.59300
C  48.92400 28.30900 29.02700
C  48.38300 26.97300 29.32000
C  49.71200 29.49600 26.80300
C  49.22300 28.95300 30.29700
O  49.72900 30.04200 30.52700
C  48.71200 27.93100 31.41100
C  49.68900 27.78200 32.52900
O  50.64300 27.06800 32.50000
O  49.35600 28.52000 33.63600
C  50.21900 28.12200 34.81500
H  46.70900 21.35100 31.43100
H  46.51000 21.46500 24.95700
H  48.70700 27.62800 25.05600
H  48.85500 25.22900 33.12100
H  46.68600 23.27200 33.14800
H  49.41800 23.03800 33.76800
H  49.03400 21.74400 32.54700
H  48.08800 21.88500 33.90400
H  45.94400 25.68200 32.80500
H  47.23500 26.89400 33.54100
H  47.11900 24.61400 35.18800
H  45.40000 25.15800 34.83100
H  44.83800 18.96700 29.66700
H  45.74700 19.59100 30.95000
H  46.47900 18.33400 29.83400
H  46.50600 17.37800 27.64700
H  45.24900 16.94300 26.45800
H  44.76400 17.78100 27.90200
H  46.17200 23.66600 23.53300
H  48.60800 25.21600 23.09900
H  48.55000 22.07200 23.26600
H  48.55100 23.31500 22.01300
H  47.16000 22.25800 22.23400
H  46.17900 26.73200 23.95000
H  45.89400 25.72800 22.64000
H  48.40200 27.26300 22.13100
H  47.18300 28.40300 22.50600
H  46.84100 27.24200 21.23100
H  50.60600 28.98000 26.45400
H  50.04600 30.26300 27.50200
H  49.16500 29.74400 25.89400
H  47.91900 28.55600 31.82200
H  49.92700 28.87500 35.54700
H  51.25700 28.23900 34.50400
H  49.98900 27.08000 35.03600

