158

Mg 2.56600 -3.25500 45.51300
C  5.93000 -2.25600 44.86900
C  1.60000 -0.90200 43.41400
C  -0.42800 -4.76100 45.58500
C  3.98000 -6.10900 47.13700
N  3.67700 -1.93700 44.05400
C  5.00500 -1.56600 44.04200
C  5.25100 -0.45800 42.98800
C  3.83400 0.10600 42.74300
C  2.94500 -0.98100 43.44300
C  3.63800 1.48400 43.51800
C  6.02700 -0.96900 41.75500
C  7.32800 -0.30900 41.34000
H  7.58300 0.06100 39.85400
N  0.83100 -2.84800 44.65900
C  0.59700 -1.72700 43.91500
C  -0.85200 -1.72100 43.59200
C  -1.49000 -2.88100 44.09300
C  -0.31900 -3.57000 44.79500
C  -1.46900 -0.63700 42.79400
C  -2.99000 -3.33100 44.02100
O  -3.84800 -2.64700 43.44200
C  -3.41000 -4.71700 44.48800
N  1.74600 -5.19000 46.37900
C  0.53600 -5.50100 46.30700
C  0.33700 -6.91100 46.93400
C  1.75900 -7.24900 47.44300
C  2.55800 -6.11900 46.94700
C  -0.74800 -6.98500 48.09200
C  2.13900 -8.67900 46.94900
C  2.15400 -9.75300 48.02800
N  4.51700 -3.99600 46.00300
C  4.94600 -5.06400 46.77600
C  6.35200 -4.99500 46.95300
C  6.75100 -3.82700 46.19200
C  5.64800 -3.36000 45.61700
C  7.15400 -5.89200 47.83400
C  7.93600 -3.05100 45.90900
O  9.07600 -3.18100 46.32700
C  7.43300 -1.92500 45.01200
C  7.53900 -0.66100 45.81000
O  6.82100 -0.45100 46.78600
O  8.29800 0.26000 45.15500
C  8.32400 1.63600 45.69900
H  1.22000 -0.07500 42.81000
H  -1.39900 -5.23900 45.72900
H  4.40000 -7.02400 47.56000
H  5.82800 0.35500 43.42900
H  3.60200 0.04800 41.68000
H  4.35200 1.57800 44.33600
H  2.65200 1.73200 43.91000
H  4.03200 2.34400 42.97600
H  5.44300 -0.98100 40.83500
H  6.19900 -1.99600 42.07600
H  8.16500 -0.92900 41.65800
H  7.46900 0.63400 41.86800
H  -1.96800 0.13100 43.38500
H  -2.18400 -1.02300 42.06700
H  -0.73400 -0.16100 42.14500
H  -2.78500 -5.39000 43.90200
H  -4.43200 -4.90400 44.15900
H  -3.40800 -4.73800 45.57800
H  -0.09500 -7.58500 46.19400
H  1.77900 -7.19800 48.53100
H  -1.42600 -6.13800 47.99000
H  -0.38100 -7.01500 49.11800
H  -1.38700 -7.85800 47.96200
H  3.11700 -8.66000 46.46800
H  1.55500 -9.00100 46.08600
H  2.98500 -10.43000 47.82800
H  1.24900 -10.35600 47.96600
H  2.27700 -9.30600 49.01400
H  6.55200 -6.01700 48.73400
H  8.15500 -5.52100 48.05200
H  7.13900 -6.87600 47.36600
H  7.98000 -1.90400 44.07000
H  8.34100 2.32600 44.85600
H  9.14800 1.90200 46.36100
H  7.40800 1.91800 46.22000
Mg 1.38500 42.06000 25.94500
C  2.77700 42.31100 29.14300
C  -1.67200 41.25300 27.42500
C  0.12600 41.32900 22.92200
C  4.47700 42.65600 24.57700
N  0.67100 41.78900 28.11700
C  1.42000 42.01300 29.20000
C  0.41200 41.97000 30.40400
C  -0.95600 41.48200 29.87500
C  -0.64600 41.51200 28.41400
C  -1.37300 40.00900 30.22300
C  0.26500 43.36900 31.12200
C  0.20200 43.44300 32.63700
H  0.01800 42.08700 33.54900
N  -0.53700 41.53800 25.29000
C  -1.62800 41.21600 25.99700
C  -2.72100 40.86600 25.14200
C  -2.25600 40.98600 23.80800
C  -0.83600 41.38700 23.93800
C  -4.07800 40.32100 25.66600
C  -3.03600 40.77300 22.50600
O  -2.52500 40.90200 21.39200
C  -4.54600 40.41400 22.51400
N  2.17400 42.08300 24.05000
C  1.46600 41.62800 22.91300
C  2.29400 41.77500 21.66100
C  3.60100 42.48300 22.16700
C  3.46300 42.41400 23.69800
C  2.44300 40.40400 21.04600
C  3.90900 44.02300 21.73500
C  2.66800 44.93100 21.49500
N  3.31600 42.33500 26.65800
C  4.49600 42.63700 25.98100
C  5.61500 42.65700 26.98200
C  4.97900 42.48800 28.22600
C  3.56500 42.37200 27.97600
C  7.04600 42.78000 26.59200
C  5.13200 42.37900 29.67800
O  6.17600 42.26900 30.33900
C  3.66900 42.31400 30.29800
C  3.60300 41.20300 31.13000
O  3.32500 40.08200 30.79000
O  4.04400 41.58600 32.35200
C  4.24100 40.63700 33.44000
H  -2.65500 41.18900 27.89600
H  -0.22600 41.05700 21.92500
H  5.38200 42.77800 23.97800
H  0.93600 41.24900 31.03200
H  -1.80500 42.12600 30.10600
H  -1.42300 39.40200 29.31900
H  -2.35800 39.94100 30.68600
H  -0.65400 39.60900 30.93800
H  -0.71600 43.71800 30.79900
H  1.01400 44.09700 30.81300
H  -0.62200 44.14100 32.78100
H  1.18700 43.81800 32.91500
H  -4.90100 40.84000 25.17500
H  -4.26700 40.66600 26.68300
H  -4.19200 39.24500 25.53300
H  -4.96400 40.06700 21.56900
H  -5.06800 41.17500 23.09300
H  -4.35700 39.45900 23.00400
H  1.79900 42.45200 20.96500
H  4.43600 41.90400 21.77200
H  3.37700 40.21400 20.51800
H  1.69200 40.26700 20.26800
H  2.27600 39.61400 21.77700
H  4.45400 43.91300 20.79800
H  4.58200 44.51600 22.43600
H  1.71500 44.48100 21.77400
H  2.57600 45.20000 20.44300
H  2.71100 45.89500 22.00100
H  7.20700 42.50700 25.54900
H  7.50700 42.09400 27.30300
H  7.39700 43.79800 26.76100
H  3.48500 43.19900 30.90700
H  5.24000 40.21900 33.57100
H  3.60500 39.78400 33.20300
H  3.91600 41.06800 34.38700

