158

Mg 26.02300 0.92800 29.15300
C  27.94600 0.97200 32.04000
C  23.17800 1.49400 31.01300
C  24.22300 0.97900 26.26100
C  28.89700 0.15800 27.26100
N  25.63500 1.19100 31.23800
C  26.54200 1.23900 32.21300
C  25.84500 1.28200 33.61700
C  24.33300 1.24300 33.32600
C  24.40400 1.36500 31.75000
C  23.42300 0.01100 33.85200
C  26.37800 2.48500 34.41100
C  26.75000 2.30900 35.83700
H  26.48100 3.47600 36.87600
N  23.99400 1.05000 28.72400
C  22.96000 1.30100 29.61000
C  21.71000 1.32900 28.86600
C  22.05500 1.31900 27.51400
C  23.49400 1.04500 27.45300
C  20.32600 1.39800 29.55600
C  21.04200 1.47700 26.31500
O  21.35800 1.42000 25.15100
C  19.59000 1.76400 26.63500
N  26.51000 0.67500 27.02200
C  25.63100 0.86700 26.02700
C  26.34800 0.68500 24.69800
C  27.84400 0.54500 25.03500
C  27.77600 0.45200 26.50300
C  25.73100 -0.51300 23.75800
C  28.75700 1.68200 24.51900
C  30.04600 1.28500 23.79400
N  28.04200 0.65600 29.51000
C  29.07600 0.25600 28.67300
C  30.22100 -0.10700 29.47800
C  29.85900 0.19500 30.79900
C  28.53100 0.66700 30.77800
C  31.54900 -0.62300 29.05400
C  30.24900 0.19200 32.16900
O  31.32900 -0.14600 32.64400
C  29.01200 0.70100 33.03700
C  28.80100 -0.34800 34.05700
O  28.11000 -1.33800 33.90300
O  29.51000 -0.03200 35.17100
C  29.40700 -0.99200 36.27200
H  22.36700 1.66300 31.72400
H  23.69000 1.18800 25.33200
H  29.79800 -0.10800 26.70400
H  26.10600 0.34200 34.10400
H  23.95200 2.23700 33.56200
H  23.97600 -0.67400 34.49400
H  23.10700 -0.64800 33.04300
H  22.47700 0.31700 34.30000
H  25.67000 3.30800 34.31200
H  27.29200 2.71700 33.86500
H  27.80900 2.10000 35.98700
H  26.27800 1.37300 36.13700
H  19.89900 2.39000 29.40800
H  20.38500 1.18500 30.62300
H  19.61700 0.68000 29.14200
H  19.58100 2.59900 27.33500
H  19.10300 0.90200 27.09000
H  19.13100 1.98400 25.67100
H  26.03100 1.62100 24.23900
H  28.19800 -0.40000 24.62200
H  26.55700 -1.04400 23.28500
H  25.03300 -0.23200 22.97000
H  25.15500 -1.10700 24.46800
H  28.97700 2.33300 25.36500
H  28.22600 2.32100 23.81300
H  30.86300 1.76100 24.33700
H  30.06000 1.55200 22.73700
H  30.23000 0.21800 23.92700
H  31.73700 -0.31200 28.02700
H  31.49100 -1.70700 29.15400
H  32.28300 -0.30500 29.79400
H  29.41100 1.59300 33.52000
H  30.24600 -0.69800 36.90400
H  29.40600 -2.03700 35.96400
H  28.52200 -0.71100 36.84300
Mg 26.85000 50.39400 26.95400
C  24.79300 51.65600 29.46700
C  29.06100 49.54500 29.58000
C  28.77900 49.24000 24.68900
C  24.47800 51.55500 24.60300
N  26.96200 50.71400 29.31000
C  25.82500 51.04800 30.01800
C  26.05200 50.79600 31.52200
C  27.56300 50.37200 31.58200
C  27.92700 50.20300 30.09500
C  28.51900 51.27100 32.42900
C  25.17200 49.67200 32.19100
C  24.58900 49.92100 33.62100
H  25.46400 50.83000 34.53000
N  28.67500 49.49900 27.11000
C  29.34000 49.15500 28.28500
C  30.50300 48.46500 27.84400
C  30.54500 48.35400 26.45800
C  29.31500 49.06800 26.03500
C  31.61000 47.91100 28.74800
C  31.55100 47.67100 25.46800
O  31.47200 47.80200 24.25200
C  32.59900 46.77900 26.01600
N  26.70500 50.52800 24.88500
C  27.58100 49.81700 24.12600
C  27.18500 49.65800 22.64700
C  25.75400 50.42200 22.68500
C  25.62700 50.87500 24.12400
C  28.06600 50.22400 21.54700
C  24.52900 49.52900 22.23900
C  23.53900 50.13000 21.19800
N  25.10800 51.57700 26.99900
C  24.18700 51.86200 25.97000
C  23.01900 52.45500 26.60400
C  23.33800 52.52900 27.95400
C  24.53400 51.86500 28.19900
C  21.79600 52.82800 25.82000
C  22.82800 52.86000 29.22300
O  21.81000 53.45000 29.48000
C  23.70900 52.27600 30.30100
C  24.26600 53.47400 31.04700
O  24.91500 54.38200 30.59300
O  23.73400 53.40300 32.32900
C  24.09600 54.51500 33.16500
H  29.64300 49.09800 30.38900
H  29.41900 48.98200 23.84300
H  23.75700 51.86800 23.84500
H  25.83100 51.73300 32.03300
H  27.76100 49.35000 31.90400
H  29.07400 50.70100 33.17400
H  27.97900 52.08300 32.91500
H  29.30700 51.71200 31.81800
H  25.63800 48.68700 32.20300
H  24.31800 49.64900 31.51300
H  24.17500 48.97700 33.97500
H  23.61800 50.39700 33.48400
H  32.45000 48.57600 28.54900
H  31.83100 46.85900 28.57200
H  31.34100 47.96600 29.80300
H  33.38100 46.55900 25.28900
H  32.19100 45.82400 26.34900
H  33.22400 47.25900 26.76900
H  27.01800 48.63600 22.30500
H  25.66800 51.40100 22.21400
H  29.08500 50.42900 21.87500
H  27.71900 51.13600 21.06200
H  28.13600 49.58200 20.66900
H  24.10500 49.24300 23.20100
H  25.01300 48.67000 21.77500
H  22.56500 50.22400 21.67900
H  23.39700 49.38400 20.41500
H  23.90700 51.06200 20.77000
H  21.81500 53.82300 25.37700
H  20.92500 52.80800 26.47500
H  21.61400 52.02800 25.10200
H  23.19100 51.58700 30.96800
H  25.13600 54.83900 33.14200
H  23.77300 54.30600 34.18500
H  23.55400 55.38800 32.80100

