158

Mg 55.29700 24.28600 44.51700
C  52.90600 26.55200 43.39700
C  53.43400 21.75000 43.11100
C  58.09100 22.24700 44.64700
C  57.35400 26.90400 45.25100
N  53.47200 24.18200 43.25400
C  52.62700 25.26100 42.98600
C  51.29200 24.72300 42.44900
C  51.36600 23.12500 42.61500
C  52.84000 22.99000 43.07000
C  50.29300 22.37300 43.49600
C  50.94300 25.05900 41.00100
C  49.49500 25.10700 40.49300
H  49.14800 24.96800 39.01500
N  55.68000 22.19800 44.03300
C  54.74300 21.37400 43.42000
C  55.37600 20.01400 43.26300
C  56.74100 20.11200 43.75500
C  56.92900 21.53200 44.17000
C  54.64200 18.85500 42.59400
C  57.81300 18.94800 43.81900
O  57.53000 17.82200 43.42100
C  59.15900 19.17600 44.41800
N  57.33400 24.50500 44.95000
C  58.26200 23.53700 45.05700
C  59.67100 24.08300 45.30500
C  59.41800 25.61000 45.37100
C  57.94100 25.70300 45.18100
C  60.54800 23.38500 46.32800
C  60.11800 26.37900 44.21900
C  61.07100 27.50200 44.67600
N  55.10900 26.29100 44.62500
C  56.00700 27.24800 44.99000
C  55.38700 28.54600 45.09800
C  54.16200 28.30500 44.38900
C  54.02400 26.93000 44.15600
C  56.09400 29.78900 45.59700
C  52.97600 28.97000 43.94800
O  52.63000 30.15000 44.09500
C  52.13800 27.90600 43.12500
C  52.35000 28.30100 41.72700
O  53.34700 28.18100 41.08400
O  51.16600 28.70500 41.15900
C  51.23000 28.73700 39.66900
H  52.81600 20.96400 42.67200
H  59.00700 21.68200 44.83300
H  58.00600 27.69600 45.62500
H  50.57100 25.08100 43.18300
H  51.21800 22.82200 41.57800
H  50.71000 21.86000 44.36200
H  49.62000 21.73800 42.92000
H  49.65200 23.06500 44.04300
H  51.50800 24.39600 40.34600
H  51.37900 26.04200 40.82100
H  49.04600 26.08200 40.68300
H  48.82700 24.46000 41.06200
H  54.78200 17.87100 43.04100
H  55.19300 18.54500 41.70600
H  53.57600 19.06400 42.50000
H  59.66300 19.82600 43.70300
H  59.71400 18.24100 44.50800
H  58.98300 19.62300 45.39600
H  60.19600 23.84700 44.37900
H  59.68200 25.88900 46.39100
H  60.29300 22.35900 46.59500
H  60.53100 24.04700 47.19400
H  61.59100 23.30200 46.02300
H  59.34700 26.91600 43.66700
H  60.68600 25.76100 43.52300
H  61.41200 27.37600 45.70400
H  60.73700 28.50800 44.42400
H  61.92900 27.36000 44.01900
H  55.40800 30.63100 45.50700
H  57.03900 29.99700 45.09500
H  56.33800 29.64100 46.64900
H  51.10300 27.94300 43.46500
H  51.79000 29.58200 39.26900
H  50.20800 28.77000 39.29200
H  51.59100 27.81900 39.20400
Mg 48.94000 24.87000 27.43700
C  49.97100 27.21000 29.83400
C  47.60700 22.99300 29.95200
C  48.07900 22.76600 25.09300
C  50.48800 26.86700 25.07200
N  48.82000 25.12900 29.52300
C  49.20700 26.22800 30.29500
C  48.52300 26.14800 31.70900
C  47.96900 24.66800 31.75000
C  48.12100 24.25800 30.27800
C  48.78500 23.71100 32.63600
C  47.57700 27.36400 32.04000
C  47.58200 27.80100 33.53200
H  46.31000 27.81200 34.35600
N  47.95700 23.00500 27.48000
C  47.49200 22.40300 28.64300
C  46.97900 21.10100 28.26400
C  47.02100 21.07500 26.80000
C  47.72200 22.27400 26.38100
C  46.55300 20.02900 29.31500
C  46.50500 19.95200 25.88100
O  46.67200 19.98100 24.66900
C  45.64900 18.79600 26.39200
N  49.53400 24.69600 25.43400
C  48.86900 23.79200 24.65400
C  49.45600 23.86100 23.23800
C  50.05200 25.34000 23.15300
C  50.05200 25.68500 24.66300
C  50.38700 22.68500 22.88500
C  49.15800 26.27100 22.30100
C  49.45900 26.09100 20.79300
N  50.16500 26.70800 27.39800
C  50.72700 27.36100 26.37100
C  51.31400 28.57900 26.89000
C  50.99600 28.58800 28.23200
C  50.33700 27.39300 28.49000
C  51.96200 29.73400 26.08000
C  51.22100 29.34200 29.43100
O  51.73300 30.44900 29.67100
C  50.47900 28.47000 30.59300
C  51.45000 28.18300 31.62500
O  52.60300 27.81200 31.52100
O  50.92100 28.61400 32.82100
C  51.84000 28.41900 33.90600
H  47.27300 22.32100 30.74600
H  47.82600 22.01200 24.34500
H  50.91300 27.41800 24.23000
H  49.35000 26.21500 32.41600
H  46.92600 24.60800 32.06100
H  49.25500 24.25800 33.45300
H  49.59700 23.13700 32.18900
H  48.05000 23.05100 33.09700
H  46.59900 26.95400 31.78700
H  47.79900 28.21200 31.39300
H  48.03600 28.79200 33.51600
H  48.10000 27.07500 34.15900
H  46.92800 20.33500 30.29200
H  46.94200 19.07500 28.96200
H  45.47200 19.99500 29.45200
H  45.13300 18.50000 25.47900
H  45.05600 19.07900 27.26200
H  46.47300 18.12400 26.63100
H  48.57800 23.70500 22.61000
H  51.07000 25.21100 22.78600
H  49.87600 22.02100 22.18900
H  50.77200 22.00500 23.64600
H  51.31000 23.06200 22.44300
H  49.25400 27.29200 22.67000
H  48.13600 25.92200 22.44800
H  49.84000 27.06500 20.48700
H  48.56500 25.94100 20.18700
H  50.10500 25.21800 20.70000
H  51.70000 29.77400 25.02200
H  53.03600 29.59600 26.20000
H  51.69600 30.64300 26.61900
H  49.69600 29.01700 31.11900
H  51.88600 27.36400 34.17600
H  51.31900 28.87800 34.74600
H  52.81500 28.87000 33.71900

