158

Mg 52.91700 23.44600 44.91200
C  50.64700 25.57000 43.50700
C  51.34300 20.78700 43.39900
C  55.59600 21.37100 45.48200
C  54.76700 26.21300 45.81200
N  51.28300 23.31300 43.53400
C  50.41900 24.24300 43.15800
C  49.21600 23.70900 42.41700
C  49.30500 22.22500 42.65800
C  50.76000 22.03200 43.23900
C  48.19900 21.73600 43.65600
C  49.10500 23.99500 40.88300
C  50.46700 24.33300 40.22500
H  51.62100 23.30200 40.15400
N  53.37500 21.30400 44.53300
C  52.50300 20.36300 44.04400
C  53.19500 19.06600 44.11200
C  54.43000 19.20200 44.78700
C  54.50900 20.64400 45.01900
C  52.61200 17.84600 43.58000
C  55.42400 18.05900 45.06700
O  55.11300 16.90500 44.81700
C  56.80600 18.21500 45.69600
N  54.93300 23.73100 45.30300
C  55.86100 22.73700 45.52600
C  57.16500 23.31100 46.09000
C  56.87700 24.84100 46.11400
C  55.43300 25.00800 45.75300
C  57.74400 22.83100 47.39400
C  57.77500 25.71500 45.11100
C  57.41600 25.80600 43.64500
N  52.71800 25.42100 44.90800
C  53.46800 26.42600 45.43400
C  52.68700 27.64000 45.46400
C  51.60300 27.34700 44.69800
C  51.66600 26.04400 44.30200
C  53.04900 28.95800 46.19200
C  50.39000 27.95200 44.17100
O  49.86500 29.02000 44.34900
C  49.80600 26.80700 43.29200
C  49.69100 27.38100 41.91700
O  50.62000 28.02600 41.45100
O  48.46900 27.21500 41.31800
C  48.42400 27.78900 39.90400
H  50.78400 19.97700 42.92500
H  56.32600 20.60900 45.76100
H  55.22200 27.13600 46.17700
H  48.33200 24.13200 42.89400
H  49.22500 21.60200 41.76700
H  47.97100 22.37900 44.50600
H  48.47400 20.72600 43.95900
H  47.21600 21.60400 43.20400
H  48.32900 24.72600 40.65700
H  48.80700 23.13800 40.28000
H  50.97000 25.14200 40.75400
H  50.21400 24.85300 39.30100
H  53.42700 17.29500 43.11100
H  51.93800 18.18000 42.79100
H  52.11300 17.29500 44.37700
H  57.35000 17.27700 45.79900
H  56.87000 18.81700 46.60300
H  57.38900 18.66900 44.89400
H  57.86800 23.15700 45.27100
H  56.94800 25.27100 47.11300
H  57.76400 21.74100 47.40400
H  57.23500 23.21500 48.27800
H  58.82900 22.92800 47.43900
H  58.76500 25.25900 45.10100
H  57.76600 26.74400 45.47000
H  58.33600 26.12500 43.15600
H  56.56200 26.42000 43.36000
H  57.14400 24.80200 43.32000
H  53.61800 28.75700 47.09900
H  52.10500 29.50000 46.26100
H  53.61700 29.55400 45.47900
H  48.81400 26.66600 43.72200
H  49.19400 28.43400 39.48200
H  47.48300 28.32700 40.01800
H  48.08000 26.98700 39.25000
Mg 45.70400 17.34100 29.17700
C  43.65800 16.90400 31.93300
C  47.61100 19.47400 31.23900
C  47.50900 18.45400 26.37800
C  43.39900 15.86600 27.06000
N  45.55700 18.18800 31.35200
C  44.78400 17.57000 32.31000
C  45.18600 17.97400 33.66300
C  46.27100 19.03900 33.34200
C  46.50600 18.87800 31.87200
C  46.05600 20.46500 33.80300
C  45.55100 16.85000 34.65200
C  46.30100 17.19300 35.84600
H  46.07000 18.57900 36.60200
N  47.30800 18.67300 28.91600
C  47.90100 19.47300 29.90200
C  48.95900 20.16900 29.30900
C  48.95000 20.01000 27.86300
C  47.91600 18.99600 27.65100
C  50.00200 21.01900 30.12400
C  49.77600 20.66200 26.82300
O  49.69300 20.44900 25.62800
C  50.78600 21.71900 27.25300
N  45.60200 17.08900 26.91700
C  46.43400 17.61000 26.07000
C  46.08500 17.19400 24.64500
C  44.87200 16.31900 24.87500
C  44.56800 16.41100 26.36600
C  45.89900 18.34000 23.54000
C  45.02000 14.90900 24.46900
C  45.68800 13.95700 25.49200
N  43.93700 16.54000 29.34600
C  43.13700 15.92000 28.43200
C  41.98300 15.50000 29.12800
C  42.17800 15.74300 30.45600
C  43.36300 16.43800 30.58900
C  40.77500 14.81400 28.61400
C  41.49200 15.66000 31.75100
O  40.39900 15.19500 32.05900
C  42.54000 16.33300 32.75600
C  41.88400 17.29900 33.67700
O  41.14600 18.26400 33.38900
O  42.18400 16.94500 34.93900
C  41.58800 17.76300 36.07000
H  48.12600 20.05600 32.00700
H  47.90200 18.83500 25.43300
H  42.57200 15.39300 26.52700
H  44.29200 18.42500 34.09200
H  47.24800 18.75900 33.73400
H  45.85900 21.07800 32.92400
H  46.94000 20.72900 34.38400
H  45.19700 20.46700 34.47300
H  46.02300 16.08600 34.03200
H  44.61000 16.44500 35.02400
H  47.36700 17.02100 35.70300
H  45.99700 16.42100 36.55300
H  49.84000 22.09500 30.05500
H  51.07900 20.97400 29.96500
H  49.82500 20.84100 31.18500
H  51.28000 22.11100 26.36400
H  51.65700 21.37400 27.81000
H  50.26800 22.59200 27.64800
H  46.84200 16.48800 24.30500
H  44.03400 16.71300 24.30000
H  46.00500 19.35500 23.92100
H  44.87800 18.24900 23.16800
H  46.60800 18.24400 22.71700
H  45.42100 14.83500 23.45800
H  44.05000 14.43200 24.33000
H  44.95800 13.28700 25.94400
H  46.28500 14.35400 26.31300
H  46.31700 13.17900 25.05800
H  40.79500 13.74300 28.81300
H  40.70200 15.08600 27.56100
H  39.90100 15.29500 29.05400
H  43.01200 15.52100 33.30900
H  40.86900 17.08900 36.53400
H  41.12200 18.67500 35.69700
H  42.38500 18.00800 36.77300

