158

Mg 10.46100 48.17900 26.19200
C  8.36600 47.80000 29.00900
C  12.78600 49.41200 28.01700
C  12.06900 48.66500 23.25400
C  7.47500 47.32800 24.30500
N  10.39900 48.71000 28.25700
C  9.60000 48.24300 29.28000
C  10.19800 48.64200 30.66300
C  11.44000 49.42700 30.24100
C  11.56500 49.16100 28.73200
C  11.60600 50.94600 30.60100
C  10.54800 47.45300 31.62400
C  9.96900 47.48100 33.07100
H  10.49200 46.44900 34.14300
N  12.21000 48.89800 25.74500
C  13.16000 49.25200 26.65100
C  14.49100 49.22800 26.05100
C  14.25500 49.08400 24.69300
C  12.79900 48.81800 24.47400
C  15.71500 49.56400 26.82600
C  15.23100 49.03900 23.55900
O  14.89600 48.88800 22.40800
C  16.67800 49.30600 23.82200
N  9.92600 47.98500 24.05400
C  10.73900 48.33400 23.02800
C  10.01400 48.32000 21.68600
C  8.69200 47.58300 22.04200
C  8.63800 47.70900 23.58900
C  9.85300 49.74000 21.19100
C  8.49100 46.15500 21.37400
C  9.30100 45.05000 22.00000
N  8.36600 47.53000 26.46700
C  7.37900 47.20200 25.66700
C  6.14600 46.92200 26.43200
C  6.49000 47.15100 27.71300
C  7.82900 47.52400 27.69400
C  4.77100 46.56300 25.91300
C  5.94100 47.06600 29.07700
O  4.89300 46.61700 29.55300
C  7.21100 47.49200 29.96000
C  7.45700 46.27500 30.77400
O  7.96500 45.20400 30.37800
O  7.02400 46.51300 32.00500
C  7.00900 45.33000 32.85500
H  13.58400 49.63200 28.72900
H  12.61800 48.88400 22.33600
H  6.68600 46.93300 23.66200
H  9.64100 49.44200 31.14900
H  12.40700 49.07600 30.60100
H  12.33800 51.00500 31.40600
H  10.75600 51.52200 30.96900
H  11.95100 51.44000 29.69300
H  11.63000 47.32900 31.56100
H  10.09700 46.60100 31.11500
H  8.88200 47.55400 33.07400
H  10.29500 48.41200 33.53500
H  16.20400 50.43500 26.39200
H  16.30800 48.64900 26.84400
H  15.36500 49.84700 27.81800
H  16.92700 50.36700 23.80300
H  17.14500 48.58000 23.15700
H  17.00100 49.04200 24.83000
H  10.37300 47.58800 20.96200
H  7.78500 48.10300 21.73600
H  8.82300 50.09100 21.25300
H  9.85600 49.78900 20.10200
H  10.64700 50.39500 21.55000
H  8.64000 46.15100 20.29400
H  7.42300 45.97300 21.48700
H  9.76400 45.41000 22.91900
H  10.04400 44.71000 21.27800
H  8.62600 44.27500 22.36200
H  4.88700 45.64300 25.34000
H  4.31800 47.41300 25.40400
H  4.16000 46.25700 26.76200
H  6.91800 48.30300 30.62700
H  6.73000 45.62300 33.86800
H  8.01400 44.91200 32.90000
H  6.24000 44.63300 32.52300
Mg 1.97800 41.61800 25.18500
C  2.52500 42.15600 28.52500
C  -0.95000 40.01000 25.92700
C  1.46100 41.30000 21.88400
C  5.19600 42.73400 24.56900
N  0.75100 41.30200 27.05300
C  1.26300 41.56000 28.26200
C  0.26000 41.17400 29.32700
C  -0.74000 40.17200 28.58000
C  -0.36600 40.54000 27.11300
C  -0.72100 38.68900 28.98200
C  -0.49100 42.32400 29.97500
C  -0.32600 42.64700 31.46400
H  -0.86800 41.64500 32.47400
N  0.34700 40.84100 24.08400
C  -0.72300 40.18600 24.54400
C  -1.57200 39.79800 23.42900
C  -0.94200 40.26300 22.20000
C  0.32300 40.86600 22.65100
C  -2.95000 39.27600 23.69100
C  -1.57200 40.33500 20.83300
O  -1.01100 40.81400 19.83900
C  -2.88900 39.72500 20.62300
N  3.25100 41.72700 23.50300
C  2.72200 41.73100 22.28000
C  3.77200 42.17300 21.24300
C  4.92400 42.78300 22.09600
C  4.40800 42.44600 23.45800
C  4.14500 41.05800 20.28200
C  5.04400 44.34100 21.73000
C  3.72600 45.24900 21.89900
N  3.63300 42.19500 26.29600
C  4.85600 42.67000 25.86600
C  5.68400 43.00600 27.09100
C  4.73300 42.88100 28.10600
C  3.50700 42.47400 27.58500
C  7.10300 43.52900 27.08800
C  4.57900 43.09400 29.53200
O  5.32100 43.56500 30.38900
C  3.13100 42.56700 29.86000
C  3.34900 41.27500 30.61000
O  4.05400 40.39300 30.27400
O  2.66500 41.29900 31.82000
C  2.83500 40.13000 32.71400
H  -1.87200 39.47400 26.16100
H  1.27200 41.29800 20.80800
H  6.14200 43.21200 24.30400
H  0.76700 40.61900 30.11600
H  -1.75200 40.56900 28.66500
H  0.00900 38.52200 29.77400
H  -0.46800 38.02700 28.15400
H  -1.67700 38.27200 29.29900
H  -1.56600 42.25800 29.80700
H  -0.24400 43.18400 29.35300
H  -0.77800 43.62600 31.62700
H  0.74500 42.64100 31.66300
H  -3.68100 40.03500 23.40900
H  -3.10300 38.98300 24.72900
H  -3.09200 38.40900 23.04600
H  -3.64100 40.08500 21.32500
H  -2.70600 38.65300 20.69900
H  -3.17000 39.88000 19.58200
H  3.27500 42.96900 20.68800
H  5.87600 42.32000 21.83500
H  5.08500 41.08800 19.73100
H  3.35000 40.91300 19.55000
H  4.22900 40.12900 20.84500
H  5.57100 44.50300 20.79000
H  5.77200 44.70200 22.45600
H  3.88000 45.98200 22.69100
H  2.85800 44.60700 22.05000
H  3.58000 45.83100 20.98900
H  7.82800 42.71600 27.12800
H  7.10400 44.16800 27.97100
H  7.30300 44.13400 26.20400
H  2.68700 43.33400 30.49500
H  2.88000 39.14800 32.24200
H  1.95000 40.06000 33.34700
H  3.70400 40.24100 33.36300

