158

Mg 0.80800 7.43000 24.93000
C  1.33000 9.16400 27.87100
C  1.06300 4.47900 26.77900
C  0.63200 5.69500 21.99500
C  1.06200 10.47700 23.09700
N  1.06500 6.93500 27.07700
C  1.25100 7.80200 28.10600
C  1.27400 7.08000 29.51000
C  1.23300 5.59300 29.05600
C  1.02700 5.68400 27.46100
C  2.43800 4.75100 29.43800
C  0.05700 7.37900 30.48900
C  0.42800 7.52600 31.98700
H  1.61000 6.78000 32.55600
N  0.68000 5.37400 24.47200
C  0.88500 4.36700 25.33800
C  0.91200 3.06400 24.63700
C  0.76600 3.36700 23.23500
C  0.68100 4.90200 23.16300
C  1.04500 1.76800 25.29000
C  0.62500 2.51400 22.01300
O  0.45000 2.93500 20.83200
C  0.45000 1.00900 22.18700
N  0.90700 7.96200 22.88800
C  0.65500 7.10500 21.88500
C  0.48600 7.83700 20.50000
C  0.59200 9.33100 20.87300
C  0.90400 9.28500 22.36800
C  1.36800 7.34900 19.31200
C  -0.49500 10.28000 20.33500
C  -1.95400 10.36300 20.94600
N  1.09100 9.42400 25.32100
C  1.17400 10.53100 24.55300
C  1.18900 11.72500 25.44600
C  1.30100 11.24100 26.72200
C  1.17900 9.85400 26.62000
C  1.22000 13.13700 25.03500
C  1.49500 11.62300 28.10800
O  1.63500 12.70100 28.66700
C  1.49200 10.27900 28.88700
C  2.66900 10.26300 29.84100
O  3.75900 9.72500 29.60600
O  2.27100 10.89400 31.01300
C  3.26500 11.04600 32.12100
H  1.13100 3.58500 27.40200
H  0.49000 5.23100 21.01600
H  0.97600 11.47600 22.66300
H  2.26200 7.31300 29.90700
H  0.30000 5.11000 29.34600
H  2.10800 3.94500 30.09300
H  3.11100 5.37500 30.02600
H  3.03500 4.31500 28.63600
H  -0.80800 6.71800 30.42900
H  -0.25600 8.37900 30.18700
H  -0.35100 7.00400 32.54300
H  0.44600 8.59500 32.19700
H  0.49100 0.95400 24.82200
H  0.58700 1.73200 26.27900
H  2.08900 1.46200 25.23000
H  1.33200 0.67700 22.73600
H  0.45900 0.65800 21.15500
H  -0.48800 0.70000 22.64900
H  -0.55900 7.71100 20.21700
H  1.51200 9.72400 20.44000
H  1.86100 6.40400 19.54000
H  2.08800 8.14600 19.12400
H  0.70200 7.15000 18.47300
H  -0.55500 9.95300 19.29700
H  -0.07400 11.28500 20.33900
H  -2.00000 9.53800 21.65700
H  -2.73000 10.23000 20.19200
H  -2.15800 11.33000 21.40600
H  2.19700 13.55100 25.28300
H  0.40100 13.56600 25.61200
H  1.01300 13.32300 23.98100
H  0.60000 10.23600 29.51200
H  4.18700 11.43200 31.68600
H  3.45800 10.03900 32.49000
H  2.84300 11.60800 32.95400
Mg 8.88600 2.85300 27.02600
C  10.12700 1.48300 30.05000
C  6.96100 4.90000 28.75600
C  7.34100 3.61100 24.15800
C  10.67100 0.22500 25.31600
N  8.39000 2.88200 29.24200
C  9.14500 2.47900 30.29500
C  8.70700 3.09100 31.64900
C  7.64000 4.13300 31.17600
C  7.62900 3.98200 29.57400
C  6.22700 4.13800 31.87300
C  9.95800 3.58200 32.40000
C  9.92500 4.56000 33.59500
H  10.49000 3.98500 34.89800
N  7.39600 4.12200 26.53100
C  6.71000 4.89700 27.38400
C  5.80100 5.75400 26.64900
C  5.95200 5.40200 25.27700
C  6.89900 4.33100 25.25800
C  4.95700 6.80600 27.31200
C  5.22500 5.88500 24.08200
O  5.41300 5.50400 22.93800
C  4.18500 6.86000 24.28200
N  9.00700 1.99600 25.06600
C  8.30900 2.59300 24.00400
C  8.73700 2.01300 22.67100
C  9.65700 0.81200 23.11600
C  9.83800 1.07200 24.59100
C  7.63700 1.70600 21.54900
C  10.94200 0.67900 22.23800
C  10.93600 -0.27100 21.07600
N  10.19700 1.23900 27.53200
C  10.85700 0.34300 26.70200
C  11.69900 -0.54600 27.56400
C  11.46300 -0.14900 28.90500
C  10.46700 0.90500 28.82200
C  12.69700 -1.47900 27.08000
C  11.78600 -0.39100 30.25800
O  12.54900 -1.25700 30.74300
C  10.86900 0.57500 31.07700
C  9.99000 -0.21600 31.99100
O  8.96400 -0.79900 31.63400
O  10.48700 -0.18100 33.29900
C  9.51000 -0.73300 34.17100
H  6.43300 5.58400 29.42200
H  6.82600 3.83100 23.22100
H  11.18400 -0.61800 24.85000
H  8.19400 2.39500 32.31400
H  8.08400 5.10700 31.37900
H  6.39400 4.65300 32.81900
H  5.92000 3.11600 32.09300
H  5.43600 4.68500 31.35900
H  10.66700 4.08300 31.74200
H  10.41800 2.65500 32.74500
H  8.85600 4.71600 33.74300
H  10.47800 5.42300 33.22500
H  3.92100 6.48300 27.21600
H  5.07800 7.71500 26.72300
H  5.26800 7.05900 28.32600
H  3.72300 7.26700 23.38200
H  4.47500 7.79800 24.75600
H  3.45100 6.43400 24.96500
H  9.23600 2.91500 22.31500
H  8.96800 -0.02000 22.97000
H  6.71900 1.33100 22.00200
H  7.94700 1.00000 20.77800
H  7.35600 2.64200 21.06700
H  11.80400 0.45300 22.86600
H  11.13200 1.69500 21.89200
H  11.79000 -0.94700 21.11200
H  11.06200 0.23800 20.12100
H  10.00300 -0.83500 21.05200
H  12.95700 -1.18400 26.06300
H  12.41200 -2.52100 26.93500
H  13.56500 -1.43900 27.73800
H  11.45800 1.12100 31.81300
H  8.58400 -0.22600 33.90100
H  9.65400 -0.32600 35.17200
H  9.45200 -1.82000 34.13600

