158

Mg 1.77900 -0.98300 44.87800
C  5.09300 -0.17100 44.22500
C  0.83800 1.85400 43.27400
C  -1.42900 -2.23100 44.67600
C  2.90600 -4.13700 45.88400
N  2.89200 0.57800 43.66300
C  4.21400 0.75700 43.73000
C  4.56600 2.10500 43.13500
C  3.20900 2.90100 43.10600
C  2.24100 1.74600 43.43200
C  3.16500 4.07800 44.14100
C  5.35200 2.04200 41.79100
C  4.99100 0.81300 40.84600
H  4.77000 1.17000 39.39200
N  -0.09400 -0.22500 44.23800
C  -0.24100 0.95500 43.57100
C  -1.61700 1.15500 43.19000
C  -2.27900 -0.00800 43.58800
C  -1.24700 -0.93000 44.15000
C  -2.05200 2.39400 42.39400
C  -3.78900 -0.36500 43.40400
O  -4.61200 0.55200 43.11300
C  -4.42800 -1.72300 43.56500
N  0.82100 -2.91400 45.10900
C  -0.51200 -3.16100 45.06900
C  -0.81700 -4.57800 45.55000
C  0.57100 -5.02600 46.10200
C  1.51600 -3.97000 45.67400
C  -2.06600 -4.76300 46.44900
C  0.92700 -6.44500 45.56000
C  1.91400 -7.35000 46.30200
N  3.62500 -1.92700 45.29000
C  3.92800 -3.21900 45.63400
C  5.35300 -3.41900 45.75400
C  5.89000 -2.21500 45.30700
C  4.78100 -1.36400 44.91000
C  6.07300 -4.57600 46.25000
C  7.12500 -1.55800 44.99300
O  8.26800 -1.86500 45.18300
C  6.65300 -0.18000 44.29800
C  7.11900 0.94000 45.14300
O  6.91400 1.16700 46.32100
O  7.80900 1.77500 44.21600
C  8.09800 3.12000 44.64300
H  0.57800 2.79400 42.78400
H  -2.44300 -2.61600 44.80200
H  3.34600 -5.08500 46.20000
H  5.21700 2.58500 43.86600
H  3.01900 3.27000 42.09800
H  3.43500 4.98200 43.59500
H  3.80400 3.81100 44.98200
H  2.11600 4.13900 44.43100
H  6.42600 2.09500 41.96900
H  5.05900 2.96000 41.28000
H  4.16100 0.21600 41.22300
H  5.80600 0.09100 40.90300
H  -3.07400 2.23400 42.05100
H  -1.48800 2.58700 41.48100
H  -2.02400 3.29000 43.01400
H  -5.45600 -1.71800 43.20300
H  -4.43600 -1.84500 44.64800
H  -3.83000 -2.54000 43.16100
H  -0.97300 -5.14400 44.63200
H  0.43500 -4.99300 47.18300
H  -2.83500 -5.24700 45.84700
H  -2.48200 -3.82400 46.81200
H  -1.89100 -5.29200 47.38600
H  1.40200 -6.19700 44.61100
H  0.02400 -6.93400 45.19700
H  1.34600 -8.27000 46.44500
H  2.28000 -6.86000 47.20400
H  2.71100 -7.53700 45.58200
H  5.79400 -5.03300 47.19900
H  7.15000 -4.42700 46.31800
H  5.86100 -5.43100 45.60900
H  7.00400 -0.04100 43.27600
H  7.15500 3.51500 45.02100
H  8.59100 3.69800 43.86100
H  8.77800 3.09500 45.49400
Mg 48.09100 16.81100 27.86400
C  46.09700 16.68600 30.79300
C  50.47100 18.40400 29.54000
C  49.79100 17.25200 24.86200
C  45.50400 15.31800 26.08700
N  48.28100 17.43200 29.94000
C  47.34300 17.36900 30.96100
C  47.98100 17.82600 32.24100
C  49.27500 18.64500 31.77900
C  49.39300 18.07800 30.35500
C  49.19300 20.16800 31.81000
C  48.19300 16.62900 33.24000
C  48.08100 16.92800 34.79400
H  47.48900 18.22600 35.26700
N  49.96000 17.68200 27.28700
C  50.81500 18.14500 28.20600
C  52.09000 18.33300 27.59800
C  51.86100 18.25100 26.18000
C  50.46300 17.74400 26.03600
C  53.31000 18.62100 28.40200
C  52.74800 18.56400 25.03800
O  52.31600 18.63400 23.87900
C  54.20100 18.96300 25.27600
N  47.64500 16.41000 25.69100
C  48.48600 16.77700 24.70800
C  47.66400 16.62000 23.35400
C  46.47500 15.71100 23.82000
C  46.50700 15.79600 25.26000
C  47.18500 17.92500 22.71400
C  46.57700 14.17000 23.38400
C  45.59200 13.73100 22.26100
N  46.21100 15.93400 28.30300
C  45.29500 15.33000 27.47900
C  44.01400 15.16400 28.17100
C  44.28900 15.64600 29.48600
C  45.61300 16.14700 29.52800
C  42.70700 14.57600 27.68900
C  43.75400 15.83500 30.82300
O  42.59100 15.65700 31.18200
C  44.94300 16.43800 31.74300
C  44.48200 17.62600 32.55700
O  44.80900 18.80900 32.31700
O  43.72400 17.13400 33.54400
C  42.94100 18.14000 34.26800
H  51.19600 19.01000 30.08800
H  50.23400 17.66300 23.95300
H  44.62400 14.96000 25.54900
H  47.35900 18.61700 32.65900
H  50.13900 18.28400 32.33700
H  48.77200 20.47900 30.85400
H  50.21300 20.51400 31.97300
H  48.60200 20.50700 32.66100
H  49.22200 16.30800 33.07400
H  47.58200 15.80500 32.87300
H  49.07200 16.83000 35.23900
H  47.46100 16.13700 35.21600
H  53.26700 18.21900 29.41400
H  53.41700 19.70000 28.51500
H  54.26000 18.25400 28.01400
H  54.31800 19.85300 25.89400
H  54.65400 19.09300 24.29300
H  54.67900 18.07300 25.68500
H  48.30600 16.12100 22.62700
H  45.51900 16.14300 23.52500
H  46.12100 18.13100 22.83300
H  47.21900 17.78900 21.63300
H  47.88500 18.72700 22.95000
H  46.30200 13.46200 24.16500
H  47.62700 14.02700 23.12700
H  46.24000 13.14900 21.60600
H  45.17200 14.57800 21.71700
H  44.72900 13.22600 22.69400
H  42.65500 14.72700 26.61100
H  41.95600 15.16200 28.22000
H  42.53300 13.52600 27.92400
H  45.21400 15.58600 32.36600
H  42.02100 17.60300 34.49700
H  42.64200 19.00800 33.68000
H  43.44000 18.46600 35.18100

