158

Mg 25.23800 1.76100 29.72100
C  27.41700 1.44700 32.55000
C  22.57800 1.96500 31.78200
C  23.43300 1.88800 26.98200
C  28.13400 1.07100 27.64400
N  25.07100 1.83900 31.97600
C  26.08400 1.68500 32.90300
C  25.53700 1.85800 34.36900
C  23.93500 1.86800 34.02200
C  23.79400 1.87800 32.50600
C  23.03900 0.98400 34.95300
C  25.97800 3.19000 35.17100
C  26.04200 2.93500 36.68600
H  25.55600 4.02000 37.63400
N  23.26000 1.96600 29.39800
C  22.32100 2.05000 30.35500
C  21.08300 2.15400 29.79800
C  21.26400 2.05900 28.39400
C  22.73700 1.97300 28.18300
C  19.76200 2.33200 30.67700
C  20.20700 1.84700 27.30200
O  20.50200 1.56200 26.12900
C  18.75500 1.90200 27.72400
N  25.72600 1.38900 27.60700
C  24.74300 1.66200 26.73200
C  25.31500 1.63500 25.26400
C  26.81700 1.47400 25.46600
C  26.90400 1.32200 27.00100
C  24.77400 0.67900 24.15300
C  27.60300 2.68500 24.80400
C  27.66000 4.04600 25.55200
N  27.35100 1.39300 29.96400
C  28.34900 1.09800 29.05900
C  29.55700 0.65800 29.78300
C  29.27700 0.95300 31.13500
C  27.87800 1.24900 31.21600
C  30.82600 0.22600 29.13600
C  29.84000 1.00800 32.47500
O  31.00000 0.97500 32.89500
C  28.60400 1.32000 33.42700
C  28.44800 0.32700 34.54500
O  28.29800 -0.86200 34.39400
O  28.57900 0.98700 35.70200
C  28.37400 0.18000 36.93400
H  21.74400 2.05900 32.48000
H  22.82300 1.90600 26.07500
H  29.05600 1.08900 27.05800
H  25.72800 0.99400 35.00500
H  23.65600 2.88500 34.30100
H  23.60500 0.50800 35.75300
H  22.55800 0.31300 34.24000
H  22.30400 1.68400 35.35000
H  25.17700 3.91900 35.04600
H  26.89600 3.53600 34.69500
H  27.03800 2.69700 37.06000
H  25.42800 2.04500 36.82700
H  19.76200 1.99600 31.71400
H  18.81800 1.96800 30.27100
H  19.55900 3.40200 30.65100
H  18.39200 2.81400 28.19700
H  18.60600 1.00100 28.32000
H  18.26400 1.67500 26.77700
H  25.10800 2.64200 24.90300
H  27.19200 0.56700 24.99000
H  23.74500 0.90400 23.87500
H  24.84600 -0.38700 24.36800
H  25.39600 0.84300 23.27300
H  27.08600 2.87300 23.86300
H  28.61000 2.26900 24.76200
H  26.92500 3.79400 26.31700
H  27.23700 4.81000 24.90000
H  28.68900 4.27700 25.82700
H  31.38800 -0.39300 29.83400
H  31.42200 1.05700 28.75900
H  30.59600 -0.39700 28.27100
H  28.90600 2.26200 33.88400
H  29.15600 -0.57500 37.00600
H  27.34800 -0.14700 37.10600
H  28.48700 0.80400 37.82000
Mg -1.59600 34.16900 26.55300
C  -3.43500 32.61600 29.15500
C  0.09900 36.01200 28.94200
C  -0.35800 35.94100 24.13000
C  -3.96100 32.80700 24.31800
N  -1.67900 34.30800 28.81800
C  -2.41800 33.49700 29.62900
C  -2.06500 33.69900 31.05900
C  -0.98900 34.89800 31.00600
C  -0.76900 35.04200 29.51200
C  -1.41500 36.25700 31.66900
C  -1.45000 32.38300 31.66800
C  -2.18900 31.94800 32.92700
H  -1.49200 32.03000 34.27300
N  -0.10500 35.64400 26.50500
C  0.45300 36.23100 27.57100
C  1.45000 37.16600 27.10900
C  1.33100 37.14900 25.69700
C  0.24100 36.29200 25.34900
C  2.31200 38.01400 28.07100
C  2.17800 37.88700 24.71700
O  2.00500 37.91500 23.52300
C  3.28900 38.67000 25.23400
N  -2.07100 34.28900 24.51500
C  -1.31700 35.03400 23.73200
C  -1.70800 34.92100 22.25400
C  -2.87800 33.86100 22.32200
C  -3.05100 33.69600 23.80100
C  -2.21400 36.28900 21.60500
C  -2.55300 32.49900 21.56000
C  -1.46300 31.68800 22.04800
N  -3.18900 32.89000 26.61100
C  -3.97000 32.34500 25.62700
C  -4.79500 31.30200 26.21700
C  -4.67100 31.51300 27.59300
C  -3.64800 32.46100 27.77900
C  -5.87300 30.52400 25.55300
C  -5.26100 31.05600 28.77400
O  -6.11400 30.24700 28.96200
C  -4.45900 31.70000 29.86300
C  -5.46100 32.39100 30.68500
O  -6.23400 33.23700 30.15000
O  -5.43100 32.02100 32.00300
C  -6.36500 32.58100 32.92500
H  0.57800 36.61100 29.71900
H  0.21100 36.38600 23.31100
H  -4.68900 32.29900 23.68200
H  -2.95800 33.96700 31.62400
H  -0.06400 34.66700 31.53400
H  -2.31300 36.59200 31.15100
H  -0.61400 36.99400 31.72900
H  -1.71000 36.12400 32.71000
H  -0.37100 32.53500 31.62700
H  -1.68400 31.52500 31.03700
H  -2.43100 30.88800 32.85100
H  -3.11600 32.52200 32.94800
H  3.34200 37.66300 28.00600
H  2.08200 37.90000 29.13000
H  2.22700 39.07900 27.85700
H  3.10200 39.52600 25.88200
H  3.71400 39.17200 24.36500
H  4.00200 37.94200 25.62100
H  -0.84700 34.53600 21.70900
H  -3.79500 34.35100 21.99500
H  -2.00100 36.25200 20.53700
H  -1.55100 37.09300 21.92200
H  -3.28700 36.45400 21.69900
H  -2.48100 32.68500 20.48800
H  -3.44200 31.87000 21.61900
H  -0.97100 32.17400 22.89000
H  -0.68500 31.47300 21.31500
H  -1.86600 30.72500 22.35900
H  -5.45300 29.84600 24.81000
H  -6.64100 31.17900 25.14200
H  -6.29600 29.85200 26.30100
H  -4.07300 30.82800 30.39100
H  -6.94900 31.73200 33.28100
H  -7.05900 33.37100 32.63900
H  -5.74300 32.92100 33.75400

