158

Mg -2.54000 17.61200 26.36500
C  -2.81200 14.92600 28.89800
C  -2.85200 19.83100 28.92400
C  -2.30700 19.92400 24.03800
C  -2.94400 15.03900 23.96000
N  -2.82400 17.34400 28.62600
C  -2.91400 16.22400 29.42700
C  -2.94800 16.61300 30.95300
C  -3.23600 18.18100 30.85000
C  -2.94300 18.47400 29.41900
C  -4.72000 18.56900 31.28600
C  -1.67100 16.14000 31.78100
C  -1.10100 16.94200 32.97500
H  -0.69100 16.23200 34.27600
N  -2.61500 19.62700 26.44800
C  -2.74300 20.37000 27.61600
C  -2.67700 21.73400 27.22900
C  -2.40700 21.82100 25.79400
C  -2.39000 20.41900 25.37300
C  -2.69800 22.85300 28.19200
C  -2.24900 23.02700 24.88200
O  -2.15600 22.90100 23.64600
C  -2.00500 24.32300 25.49200
N  -2.58700 17.43200 24.25300
C  -2.47300 18.57000 23.48200
C  -2.32100 18.20700 21.95100
C  -2.68700 16.65300 21.98500
C  -2.73400 16.32500 23.49900
C  -3.08700 19.06100 20.93900
C  -1.97400 15.64800 21.04800
C  -2.82500 14.72700 20.15400
N  -2.84500 15.44000 26.38100
C  -2.97000 14.56500 25.30300
C  -2.97900 13.22000 25.77800
C  -3.01600 13.36200 27.18400
C  -2.84200 14.65900 27.48400
C  -3.00000 11.93700 24.99500
C  -3.09800 12.56200 28.38800
O  -3.19300 11.36300 28.50400
C  -3.01100 13.60500 29.54600
C  -1.92000 13.11800 30.35300
O  -0.74600 13.48700 30.33900
O  -2.44100 12.22900 31.25300
C  -1.40400 11.61900 32.20300
H  -2.85100 20.56700 29.73100
H  -2.30400 20.70900 23.27900
H  -3.07300 14.30200 23.16500
H  -3.75100 16.04300 31.41900
H  -2.51100 18.60800 31.54300
H  -4.71700 18.83400 32.34300
H  -5.43300 17.76500 31.10400
H  -5.11200 19.40700 30.70900
H  -0.85500 15.93300 31.08900
H  -1.98200 15.22200 32.27900
H  -1.80300 17.64400 33.42600
H  -0.27400 17.57700 32.65700
H  -2.99300 22.59000 29.20800
H  -3.43300 23.57100 27.82800
H  -1.74400 23.37800 28.14800
H  -1.68900 25.04800 24.74200
H  -1.13500 24.09000 26.10600
H  -2.85800 24.56800 26.12600
H  -1.24100 18.25100 21.81100
H  -3.72000 16.63200 21.63600
H  -3.75600 19.63200 21.58300
H  -3.75000 18.48400 20.29400
H  -2.45800 19.70500 20.32400
H  -1.37900 15.06600 21.75300
H  -1.32500 16.17200 20.34700
H  -2.46800 14.64900 19.12700
H  -3.88000 14.99600 20.20900
H  -2.76000 13.74600 20.62500
H  -2.19200 11.93200 24.26300
H  -4.01800 11.86300 24.61300
H  -2.81300 11.14400 25.72000
H  -3.97200 13.54800 30.05800
H  -1.83700 10.85300 32.84600
H  -1.10900 12.45500 32.83800
H  -0.50700 11.21200 31.73600
Mg 0.46300 7.45300 25.50700
C  1.32800 9.57600 28.25100
C  0.81000 4.69800 27.63000
C  -0.32000 5.50900 22.96200
C  0.49200 10.25400 23.46000
N  1.03100 7.22400 27.60500
C  1.30700 8.14100 28.58100
C  1.41600 7.59400 29.95000
C  1.60700 6.10800 29.75800
C  1.11800 5.97900 28.24400
C  3.08500 5.53700 30.01100
C  0.23300 7.92600 30.91600
C  0.60000 8.24400 32.39600
H  1.77300 7.47000 33.15100
N  0.17300 5.37600 25.26400
C  0.36200 4.46400 26.26500
C  -0.03100 3.16700 25.71500
C  -0.25800 3.29600 24.32800
C  -0.17100 4.75300 24.12600
C  -0.00800 1.90600 26.58800
C  -0.39800 2.31800 23.24900
O  -0.58900 2.60900 22.08000
C  -0.22800 0.81600 23.48300
N  0.32000 7.74300 23.41000
C  -0.10900 6.80700 22.59200
C  -0.39800 7.35700 21.13700
C  -0.41500 8.89300 21.44300
C  0.26200 8.99500 22.79500
C  0.55600 7.00400 19.96900
C  -1.85800 9.49400 21.42400
C  -1.94200 10.88700 20.80100
N  0.94100 9.39300 25.70000
C  0.81100 10.49400 24.78900
C  0.98600 11.71500 25.46700
C  1.22400 11.42300 26.80900
C  1.14100 10.02300 26.89800
C  0.99500 13.07000 24.88300
C  1.49600 12.01100 28.18200
O  1.81800 13.10900 28.60000
C  1.54000 10.76500 29.11800
C  2.76700 10.82000 29.95300
O  3.90300 10.54300 29.66100
O  2.46500 11.40100 31.21500
C  3.50000 11.72800 32.22400
H  1.00000 3.83900 28.27700
H  -0.66500 4.92700 22.10500
H  0.36600 11.21600 22.95800
H  2.32100 8.06100 30.34000
H  0.96700 5.52100 30.41700
H  3.60100 5.53200 29.05100
H  2.98400 4.50500 30.34700
H  3.61200 6.15300 30.74000
H  -0.47500 7.09800 30.89600
H  -0.16600 8.88900 30.59700
H  -0.31600 8.06800 32.96100
H  0.80700 9.30600 32.52200
H  -0.71600 1.16800 26.21100
H  -0.32300 2.19700 27.59000
H  0.99700 1.48500 26.64100
H  -1.12900 0.45900 23.98200
H  0.67200 0.58000 24.05100
H  -0.22300 0.27700 22.53500
H  -1.36500 6.98700 20.79400
H  0.22600 9.37600 20.70600
H  1.44300 7.62700 20.07900
H  0.08100 7.22500 19.01300
H  0.96400 6.00100 20.09100
H  -2.27400 9.63400 22.42100
H  -2.56200 8.83200 20.91900
H  -2.77600 11.01500 20.11100
H  -1.09100 11.08400 20.14900
H  -1.87700 11.59400 21.62800
H  0.03100 13.05100 24.37400
H  1.82500 13.08300 24.17700
H  0.96600 13.97400 25.49100
H  0.69300 10.86400 29.79700
H  4.44900 11.86700 31.70500
H  3.66200 10.96800 32.98800
H  3.21500 12.68600 32.65800

