158

Mg -1.62200 34.81200 26.86200
C  -3.31900 32.92900 29.38700
C  -0.78000 36.99100 29.32000
C  -0.60400 36.81900 24.40100
C  -3.16300 32.72000 24.43600
N  -2.05100 34.96200 29.12100
C  -2.65500 34.03600 29.91700
C  -2.51400 34.37200 31.35500
C  -1.92000 35.82100 31.31300
C  -1.56900 35.99700 29.83700
C  -2.83000 36.92000 31.96500
C  -1.55700 33.32700 32.06200
C  -2.06400 32.40500 33.19600
H  -1.04600 32.35000 34.42200
N  -0.69400 36.54700 26.87000
C  -0.39100 37.28600 27.97200
C  0.39900 38.47900 27.53300
C  0.32400 38.47400 26.11800
C  -0.31700 37.27900 25.74600
C  1.18600 39.39700 28.46200
C  1.07800 39.40100 25.14600
O  0.96800 39.32400 23.90900
C  1.92700 40.50400 25.56600
N  -1.92900 34.83000 24.71700
C  -1.25800 35.66900 23.92800
C  -1.43400 35.30100 22.43500
C  -2.04400 33.91500 22.47400
C  -2.44700 33.80600 23.94500
C  -2.30800 36.34500 21.66900
C  -1.05400 32.76400 22.07000
C  0.13800 32.51600 23.01800
N  -2.86000 33.05300 26.85900
C  -3.46600 32.38400 25.78800
C  -4.23800 31.23200 26.32200
C  -4.21600 31.44800 27.71700
C  -3.41000 32.57000 28.00400
C  -5.04800 30.37700 25.51400
C  -4.68300 30.95300 28.98500
O  -5.38800 29.92200 29.15800
C  -4.03400 31.75600 30.08900
C  -5.05400 32.11900 31.11400
O  -5.96500 32.88100 30.91000
O  -5.00700 31.23700 32.15000
C  -6.13300 31.35100 33.08700
H  -0.38400 37.62800 30.11400
H  -0.26000 37.32300 23.49500
H  -3.51200 32.03900 23.65800
H  -3.50300 34.43300 31.80900
H  -1.02300 35.91800 31.92400
H  -2.28500 37.36000 32.80000
H  -3.82700 36.63300 32.29700
H  -2.96700 37.60200 31.12500
H  -0.65400 33.81400 32.42900
H  -0.90800 32.84800 31.32900
H  -2.25900 31.38700 32.86100
H  -2.98600 32.91800 33.47000
H  2.23400 39.47400 28.17000
H  1.13400 38.90800 29.43500
H  0.81300 40.40800 28.62200
H  2.21800 41.04200 24.66400
H  2.90900 40.13400 25.86100
H  1.52100 41.20500 26.29600
H  -0.40500 35.30400 22.07700
H  -2.93500 33.75900 21.86600
H  -3.18700 35.85400 21.25200
H  -1.63900 36.71500 20.89300
H  -2.50900 37.22200 22.28600
H  -0.59600 33.00100 21.11000
H  -1.67700 31.88000 21.93300
H  1.03400 32.65200 22.41200
H  0.21800 31.46300 23.28800
H  0.11800 33.14400 23.90900
H  -4.93900 29.44200 26.06400
H  -4.52600 30.02500 24.62400
H  -6.11300 30.57600 25.39600
H  -3.37400 31.13400 30.69400
H  -5.90100 32.09900 33.84500
H  -6.26300 30.38500 33.57500
H  -7.06500 31.66900 32.62000
Mg -5.20500 25.32100 25.84700
C  -3.55300 26.53100 28.61000
C  -6.42900 22.84300 27.69100
C  -6.08900 23.91900 22.90700
C  -3.09400 27.55000 23.84800
N  -5.01100 24.77000 27.92100
C  -4.45400 25.52000 28.93000
C  -5.02400 25.10600 30.29800
C  -5.63800 23.71600 29.98000
C  -5.65600 23.69200 28.39500
C  -4.68400 22.59300 30.51900
C  -5.90800 26.24400 31.00300
C  -5.39500 26.63200 32.44100
H  -5.41600 25.44600 33.47000
N  -6.37300 23.76700 25.36800
C  -6.74600 22.82300 26.29500
C  -7.47600 21.74900 25.62000
C  -7.49800 22.13600 24.19200
C  -6.62500 23.35900 24.08000
C  -8.04100 20.52000 26.37400
C  -8.19100 21.38300 23.04800
O  -8.15500 21.81600 21.91000
C  -8.82100 20.04400 23.20300
N  -4.84000 25.84800 23.66100
C  -5.33600 25.03400 22.71300
C  -4.90000 25.53000 21.28300
C  -3.71900 26.50500 21.62200
C  -3.90300 26.71100 23.14400
C  -4.39600 24.37400 20.33900
C  -3.68800 27.76100 20.65700
C  -4.72800 28.85000 20.80300
N  -3.76300 26.81600 26.07900
C  -3.00000 27.63100 25.23600
C  -2.04800 28.45700 25.99700
C  -2.26400 28.09300 27.33100
C  -3.21500 27.02000 27.30400
C  -1.12700 29.43000 25.49800
C  -1.93800 28.37700 28.75500
O  -1.07200 29.20500 29.19100
C  -2.71600 27.38800 29.56800
C  -1.90100 26.53200 30.46200
O  -1.32000 25.51700 30.19400
O  -1.79400 27.17300 31.69000
C  -1.21600 26.55400 32.83900
H  -6.79000 21.93700 28.18100
H  -6.29400 23.33800 22.00500
H  -2.35900 28.11100 23.26700
H  -4.15300 24.95200 30.93500
H  -6.64900 23.49500 30.32400
H  -4.34400 22.83800 31.52500
H  -3.76600 22.55800 29.93200
H  -5.15900 21.61300 30.47200
H  -6.94000 25.90400 31.08600
H  -5.91200 27.10300 30.33100
H  -5.94500 27.50700 32.78600
H  -4.35400 26.95300 32.41200
H  -9.10900 20.36600 26.21500
H  -7.85000 20.45800 27.44600
H  -7.51000 19.67800 25.92900
H  -8.10100 19.27300 23.47900
H  -9.10000 19.66400 22.22000
H  -9.71600 20.07600 23.82500
H  -5.60800 26.14000 20.72300
H  -2.80300 25.93200 21.47600
H  -5.21200 23.78800 19.91700
H  -3.77400 23.66300 20.88300
H  -3.78300 24.69200 19.49500
H  -3.87700 27.47300 19.62300
H  -2.70200 28.22500 20.62700
H  -5.23800 28.83800 21.76600
H  -5.40900 28.78900 19.95300
H  -4.32500 29.85600 20.68500
H  -1.58900 30.11000 24.78200
H  -0.19900 29.06300 25.05900
H  -0.84800 30.08900 26.32000
H  -3.39800 27.93900 30.21600
H  -1.94200 25.87600 33.28600
H  -1.01900 27.34000 33.56900
H  -0.27700 26.07100 32.56700

