158

Mg 30.52100 59.17900 39.53000
C  27.67800 57.32400 38.67500
C  32.49900 56.48900 38.80300
C  33.13600 61.23800 39.08800
C  28.50700 61.96200 39.90500
N  30.08700 57.21900 38.59800
C  28.90500 56.61500 38.40200
C  29.07000 55.23300 37.82600
C  30.53900 54.92900 38.35100
C  31.11100 56.31900 38.64300
C  30.52800 54.08800 39.59700
C  28.94600 55.28000 36.27500
C  28.07100 54.10300 35.74000
H  27.07400 54.45300 34.59900
N  32.56700 58.87200 39.08000
C  33.19300 57.69400 38.90200
C  34.59700 57.88900 38.76400
C  34.78900 59.30300 38.76900
C  33.43500 59.86000 38.87400
C  35.55000 56.73200 38.80600
C  36.14000 59.98900 38.60500
O  37.21800 59.39600 38.67600
C  36.24100 61.45200 38.41000
N  30.78500 61.31600 39.39000
C  31.94500 61.86500 39.31500
C  31.87600 63.40400 39.48700
C  30.44100 63.60800 39.85900
C  29.84400 62.20400 39.78700
C  32.96900 63.91900 40.55100
C  29.51100 64.47700 39.03700
C  29.86700 65.96000 38.75100
N  28.49600 59.58800 39.62600
C  27.84900 60.75500 39.68200
C  26.48400 60.54400 39.47000
C  26.32000 59.15400 39.13900
C  27.63200 58.65200 39.15800
C  25.47200 61.60100 39.43400
C  25.33700 58.09200 38.82900
O  24.08400 58.09000 38.62300
C  26.26200 56.81800 38.49500
C  25.85800 55.87400 39.63100
O  26.21300 55.87700 40.77800
O  24.94200 55.00300 39.17500
C  24.73200 53.92000 40.15800
H  33.02900 55.53800 38.71900
H  33.88200 62.01100 38.89400
H  27.82500 62.79700 40.07900
H  28.29700 54.56700 38.20900
H  31.12700 54.36800 37.62500
H  31.23500 54.44200 40.34800
H  30.62000 53.06200 39.24200
H  29.51700 54.14600 40.00000
H  29.92900 55.01400 35.88600
H  28.66000 56.25600 35.88200
H  27.40400 53.66400 36.48200
H  28.77200 53.29900 35.51600
H  36.08200 56.78100 39.75600
H  36.23100 56.81900 37.95800
H  35.12500 55.73400 38.69700
H  37.25800 61.71200 38.11700
H  35.97300 61.97500 39.32900
H  35.56300 61.80800 37.63400
H  32.06800 63.83700 38.50500
H  30.26100 63.91700 40.88800
H  33.43000 64.83800 40.19100
H  33.64600 63.13900 40.90000
H  32.39800 64.16300 41.44700
H  28.48500 64.63400 39.37000
H  29.52400 63.91100 38.10600
H  30.85800 66.19500 39.13700
H  29.17000 66.73000 39.08200
H  29.89100 66.10200 37.67000
H  25.10400 61.87100 40.42400
H  24.66200 61.32800 38.75800
H  25.99300 62.53300 39.21900
H  26.01700 56.36300 37.53500
H  24.55700 53.08200 39.48300
H  23.79100 54.10500 40.67500
H  25.50600 53.63000 40.87000
Mg -0.96900 44.01500 26.54800
C  1.34000 43.65700 29.18000
C  -3.34200 42.71000 28.56500
C  -3.12200 43.88800 23.92600
C  1.74200 44.73300 24.30400
N  -1.02600 43.47600 28.69200
C  0.02800 43.46700 29.60800
C  -0.47100 43.12700 30.98400
C  -1.91700 42.56900 30.71700
C  -2.10900 42.91400 29.21900
C  -2.05800 41.08400 31.02600
C  -0.53300 44.43200 31.89500
C  -0.86800 44.44800 33.38100
H  -0.83800 43.14100 34.09700
N  -2.95900 43.54500 26.30200
C  -3.80400 43.05500 27.29200
C  -5.08600 42.94100 26.76100
C  -5.13600 43.23700 25.38600
C  -3.70600 43.60900 25.18200
C  -6.31300 42.53600 27.65200
C  -6.21000 43.02200 24.32800
O  -5.97400 43.25100 23.14900
C  -7.58400 42.71500 24.81500
N  -0.67200 44.29400 24.45500
C  -1.80500 44.23200 23.60200
C  -1.34800 44.45200 22.14500
C  0.21200 44.90000 22.27200
C  0.47000 44.65400 23.74500
C  -1.54900 43.25200 21.13300
C  0.52300 46.36800 21.85100
C  1.81600 46.64600 21.09000
N  1.16700 44.13400 26.62100
C  2.08100 44.46200 25.68100
C  3.30500 44.53700 26.39500
C  3.09300 44.19900 27.69200
C  1.73400 44.01800 27.80100
C  4.59900 45.03000 25.72000
C  3.77300 44.18900 29.02200
O  4.93500 44.30500 29.40300
C  2.65000 43.82300 30.03400
C  2.92500 42.45500 30.59700
O  2.32300 41.43400 30.23800
O  3.96000 42.47500 31.47700
C  4.03400 41.28200 32.36500
H  -4.03500 42.14700 29.19500
H  -3.68600 43.86800 22.99100
H  2.63400 45.01200 23.74000
H  0.11400 42.38200 31.52200
H  -2.54600 43.12800 31.41000
H  -2.99900 40.93500 31.55700
H  -1.22400 40.85900 31.69000
H  -2.02700 40.61200 30.04400
H  -0.94400 45.30000 31.37900
H  0.52600 44.68200 31.84700
H  -1.81000 44.98800 33.48100
H  -0.14100 45.12600 33.82500
H  -7.15300 43.18900 27.42000
H  -6.14200 42.74900 28.70700
H  -6.62900 41.49500 27.58000
H  -7.52200 41.68300 25.16200
H  -8.20100 42.91000 23.93800
H  -7.90200 43.40900 25.59300
H  -1.82900 45.26200 21.59600
H  0.92300 44.24000 21.77400
H  -1.62900 42.27100 21.60100
H  -0.78000 43.29200 20.36200
H  -2.47500 43.42500 20.58500
H  0.53600 46.91800 22.79200
H  -0.24700 46.76600 21.19000
H  2.66300 46.28500 21.67400
H  1.81800 47.72600 20.94300
H  1.77800 46.14000 20.12600
H  4.96200 45.84600 26.34500
H  4.33800 45.31600 24.70100
H  5.45600 44.35900 25.67600
H  2.57000 44.48700 30.89400
H  3.02100 40.88700 32.44900
H  4.44500 41.52800 33.34400
H  4.76200 40.60300 31.92200

