158

Mg -12.71000 37.54100 41.50200
C  -10.61600 35.17600 40.09800
C  -10.65200 39.87800 40.08300
C  -15.14800 39.80700 41.67700
C  -14.84900 35.05700 42.56500
N  -10.89000 37.49200 40.06300
C  -10.17500 36.44500 39.67300
C  -8.95100 36.83900 38.94600
C  -8.84000 38.39800 39.17100
C  -10.17300 38.64300 39.83400
C  -7.68700 38.92600 40.04300
C  -9.11100 36.37100 37.41900
C  -7.75600 35.65700 36.97700
H  -6.79300 36.57400 36.06100
N  -12.85400 39.62100 41.00700
C  -11.87200 40.36300 40.54900
C  -12.32400 41.73700 40.50600
C  -13.67400 41.78900 40.89900
C  -13.95900 40.34800 41.20100
C  -11.39600 42.80900 40.04200
C  -14.53700 43.08800 40.92500
O  -14.15100 44.17300 40.46400
C  -15.98100 42.99000 41.29600
N  -14.67900 37.42800 42.01200
C  -15.51100 38.52100 41.95400
C  -16.94100 38.06100 42.21500
C  -16.81900 36.62400 42.78300
C  -15.41700 36.34300 42.48600
C  -17.82700 38.88200 43.08100
C  -17.82900 35.56600 42.21800
C  -17.61500 35.11100 40.77100
N  -12.68500 35.62400 41.51400
C  -13.56000 34.72100 42.03500
C  -13.03500 33.40600 41.99000
C  -11.88400 33.50300 41.20700
C  -11.74800 34.84200 40.96700
C  -13.71100 32.21100 42.61900
C  -10.69700 32.80000 40.65500
O  -10.34200 31.68300 40.67900
C  -9.93400 33.82000 39.78500
C  -8.57300 33.80800 40.37200
O  -8.26900 34.32900 41.43700
O  -7.75300 33.25800 39.44100
C  -6.29400 33.13600 39.86400
H  -9.95600 40.59500 39.64200
H  -15.96100 40.51500 41.85100
H  -15.56600 34.30700 42.90500
H  -8.15300 36.30500 39.46200
H  -8.88800 38.97100 38.24500
H  -7.92700 39.32200 41.03000
H  -6.97800 39.57500 39.53100
H  -7.05100 38.05700 40.21300
H  -9.37500 37.25200 36.83400
H  -10.00400 35.77500 37.23100
H  -7.98400 34.80500 36.33600
H  -7.22000 35.36300 37.87900
H  -11.58800 43.78300 40.49200
H  -11.28300 42.87800 38.96000
H  -10.36500 42.60500 40.33400
H  -16.46200 42.21400 40.70000
H  -16.48700 43.94800 41.17800
H  -16.05200 42.68300 42.33900
H  -17.37300 38.02700 41.21500
H  -17.06600 36.62200 43.84500
H  -17.31800 39.35900 43.91900
H  -18.69200 38.33300 43.45200
H  -18.19700 39.77100 42.57000
H  -18.82000 36.01000 42.31000
H  -17.95200 34.70800 42.87900
H  -17.05600 34.17700 40.83700
H  -17.03000 35.82200 40.18700
H  -18.63000 34.99900 40.39100
H  -13.79600 31.40900 41.88600
H  -14.71700 32.44200 42.96900
H  -13.18900 31.89300 43.52200
H  -10.05700 33.57400 38.73000
H  -6.16300 32.85500 40.90900
H  -5.68200 34.00200 39.61000
H  -5.73500 32.35400 39.35000
Mg -5.50100 25.77500 25.65600
C  -4.10100 27.38900 28.39200
C  -7.15800 23.70800 27.69200
C  -6.43500 24.02500 22.96700
C  -3.55800 27.82800 23.63800
N  -5.57900 25.58600 27.81200
C  -5.00700 26.36300 28.79300
C  -5.55900 26.08800 30.21400
C  -6.37800 24.81800 29.92700
C  -6.29800 24.68600 28.37600
C  -6.03100 23.61800 30.76700
C  -6.34200 27.32100 30.83700
C  -5.89600 27.72800 32.19800
H  -5.32800 26.64800 33.09400
N  -6.68400 24.12900 25.35100
C  -7.36900 23.41500 26.36000
C  -8.13100 22.31600 25.90500
C  -7.89700 22.40100 24.43500
C  -6.88100 23.53400 24.19300
C  -8.87400 21.25400 26.73900
C  -8.56800 21.53800 23.34100
O  -8.33500 21.70800 22.17600
C  -9.70600 20.74400 23.74000
N  -5.15600 26.06100 23.48100
C  -5.60900 25.09700 22.58300
C  -5.05100 25.42800 21.14200
C  -4.14800 26.68700 21.39200
C  -4.25300 26.86700 22.93000
C  -4.32300 24.14100 20.66400
C  -4.56500 27.94800 20.54700
C  -4.66900 27.73900 18.98600
N  -4.16600 27.39400 25.85300
C  -3.51500 28.15100 25.01100
C  -2.69500 29.13300 25.71900
C  -2.90600 28.90800 27.07200
C  -3.82300 27.84200 27.12000
C  -1.75500 30.13900 25.11500
C  -2.47700 29.31500 28.42300
O  -1.74600 30.17400 28.85900
C  -3.28000 28.28000 29.28000
C  -2.30400 27.42700 30.10400
O  -1.74200 26.39300 29.67500
O  -2.23500 27.85500 31.42300
C  -1.22900 27.08600 32.28200
H  -7.75900 23.18000 28.43500
H  -6.65000 23.40200 22.09600
H  -2.97000 28.38900 22.90800
H  -4.69400 25.77900 30.80000
H  -7.42800 24.98700 30.16500
H  -6.90200 23.44500 31.39900
H  -5.11700 23.67200 31.35800
H  -5.93600 22.82800 30.02200
H  -7.38700 27.10900 31.06200
H  -6.23700 28.22800 30.24100
H  -6.81400 28.08900 32.66000
H  -5.19700 28.55400 32.06700
H  -8.57800 21.38600 27.78000
H  -8.69600 20.23600 26.39200
H  -9.95200 21.41500 26.73100
H  -10.37400 21.28700 24.40900
H  -9.28200 19.82700 24.14900
H  -10.32000 20.54700 22.86100
H  -5.97600 25.63900 20.60600
H  -3.09700 26.55200 21.13700
H  -4.77300 23.25800 21.11900
H  -3.24400 24.06000 20.80000
H  -4.53000 24.12700 19.59400
H  -3.79100 28.69700 20.71300
H  -5.55500 28.25900 20.88100
H  -4.25300 26.75700 18.76000
H  -4.04800 28.44200 18.43000
H  -5.66500 27.87500 18.56400
H  -1.56200 30.05900 24.04500
H  -0.77900 30.11400 25.60000
H  -2.11400 31.16300 25.22100
H  -3.90200 28.81400 29.99900
H  -0.27700 27.27700 31.78700
H  -1.45700 26.02200 32.34400
H  -1.15600 27.45500 33.30500

