158

Mg 17.50100 -1.97700 28.44300
C  16.35200 0.06900 31.07000
C  19.06300 -4.03300 30.80600
C  19.01800 -3.50200 25.90200
C  16.17000 0.34900 26.23100
N  17.67800 -2.02100 30.66800
C  17.23600 -0.98200 31.53300
C  17.50900 -1.31000 32.93100
C  18.40900 -2.57100 32.86600
C  18.49000 -2.87300 31.36200
C  19.73000 -2.43500 33.69100
C  16.26800 -1.55200 33.86700
C  16.27500 -0.80000 35.22000
H  17.69100 -0.55200 35.78700
N  18.81700 -3.59300 28.34600
C  19.32700 -4.31500 29.42100
C  20.20500 -5.32000 28.93000
C  20.13500 -5.19600 27.48800
C  19.29400 -4.08100 27.15500
C  20.97300 -6.29300 29.80200
C  20.87500 -6.06300 26.37200
O  20.60300 -5.95800 25.15300
C  22.02700 -7.09200 26.87200
N  17.23800 -1.85700 26.32400
C  18.14800 -2.48600 25.53700
C  18.29100 -1.85700 24.15500
C  17.14600 -0.79400 24.13200
C  16.74300 -0.77200 25.64700
C  19.69300 -1.42900 23.84900
C  15.88400 -0.94900 23.33400
C  15.65600 -0.04600 22.10700
N  16.32400 -0.27500 28.56200
C  15.82300 0.61200 27.54200
C  14.99500 1.67300 28.17300
C  15.27300 1.54400 29.54900
C  16.05300 0.37800 29.73500
C  14.15300 2.66500 27.54800
C  14.96600 2.09200 30.83400
O  14.24600 3.08400 31.10900
C  15.67000 1.16900 31.86700
C  16.54700 2.03700 32.66300
O  17.77300 2.07100 32.60200
O  15.69000 2.73700 33.54600
C  16.39500 3.77300 34.34400
H  19.52300 -4.70900 31.53000
H  19.66300 -3.84700 25.09100
H  16.02100 1.16900 25.52500
H  17.99400 -0.39300 33.26600
H  17.87700 -3.37200 33.38000
H  20.63200 -2.51800 33.08300
H  19.84000 -3.13700 34.51700
H  19.75200 -1.46200 34.18200
H  15.98500 -2.57900 34.09900
H  15.43500 -1.26500 33.22500
H  15.80700 -1.33600 36.04500
H  15.78900 0.14700 34.98500
H  22.02200 -6.09900 29.57700
H  20.66400 -7.33700 29.74600
H  20.88300 -5.96200 30.83700
H  22.65900 -7.39400 26.03600
H  21.42000 -7.94900 27.16400
H  22.60400 -6.50900 27.59000
H  18.01200 -2.60200 23.41000
H  17.53700 0.18500 23.85500
H  19.83500 -0.35100 23.92100
H  19.99400 -1.90000 22.91300
H  20.39000 -1.88700 24.55100
H  14.98300 -0.82500 23.93500
H  15.73400 -2.01300 23.15000
H  16.41100 0.73800 22.04400
H  14.67800 0.42200 22.22000
H  15.45200 -0.52400 21.14900
H  14.11600 2.53600 26.46600
H  14.42100 3.68100 27.83900
H  13.18700 2.43700 27.99800
H  14.80200 0.78500 32.40300
H  17.24700 3.40600 34.91600
H  15.77700 4.18300 35.14300
H  16.67400 4.63700 33.74000
Mg 51.51500 46.28600 42.30200
C  48.40500 47.43500 40.60400
C  51.14800 43.52900 40.51400
C  54.77400 45.67200 43.16300
C  51.90100 49.71500 43.24600
N  49.95400 45.65300 40.66200
C  48.78800 46.16200 40.32200
C  47.92500 45.14100 39.54200
C  48.84300 43.85600 39.48200
C  50.11900 44.38600 40.23500
C  48.12600 42.53900 39.93200
C  47.32800 45.57700 38.12200
C  45.77800 45.33500 38.00100
H  45.48800 44.20600 37.02200
N  52.75300 44.76500 41.95300
C  52.33300 43.62600 41.21200
C  53.37200 42.65500 41.34500
C  54.48800 43.26700 42.08400
C  54.05800 44.61300 42.46400
C  53.28800 41.27900 40.75800
C  55.77000 42.57100 42.44000
O  56.00600 41.47900 41.89600
C  56.72500 43.03800 43.46300
N  53.04900 47.53700 43.11100
C  54.24300 46.96300 43.49500
C  55.09300 48.01500 44.27800
C  54.12500 49.20200 44.36700
C  52.98400 48.89200 43.42500
C  55.59000 47.53500 45.73100
C  54.79700 50.54900 44.09400
C  55.13500 51.39500 45.42100
N  50.40500 48.24100 42.11000
C  50.66800 49.52000 42.65200
C  49.53500 50.33600 42.44500
C  48.69200 49.61700 41.57300
C  49.19600 48.31400 41.44000
C  49.39200 51.76900 43.01300
C  47.35100 49.67100 40.96900
O  46.47100 50.50400 41.04200
C  47.12300 48.26700 40.26400
C  45.92900 47.77400 40.89900
O  45.80600 47.32100 42.01400
O  44.86300 47.89100 40.03900
C  43.48300 47.74600 40.54300
H  50.93900 42.52500 40.14000
H  55.83500 45.56000 43.39700
H  52.10100 50.73300 43.58600
H  47.12200 45.04600 40.27200
H  49.21300 43.75200 38.46200
H  48.17500 41.81100 39.12300
H  47.14100 42.74500 40.34900
H  48.59100 42.15900 40.84200
H  47.86400 45.00700 37.36300
H  47.54400 46.63100 37.94900
H  45.46600 46.33500 37.70100
H  45.20200 45.07500 38.88900
H  53.00200 41.24000 39.70700
H  52.42200 40.82000 41.23500
H  54.07700 40.55500 40.96500
H  56.21400 43.31500 44.38500
H  57.25000 43.85800 42.97400
H  57.42200 42.21000 43.60100
H  55.90600 48.29400 43.60700
H  53.69900 49.18800 45.37000
H  54.89800 47.74500 46.54800
H  56.50400 48.06200 46.00400
H  55.69100 46.46400 45.55800
H  54.24600 51.18200 43.39900
H  55.69100 50.43500 43.48100
H  55.84200 50.87800 46.07000
H  54.26500 51.62600 46.03600
H  55.64600 52.31900 45.15400
H  48.53000 52.20000 42.50400
H  50.30900 52.35800 43.01500
H  49.05700 51.49500 44.01400
H  47.09600 48.55100 39.21200
H  43.31100 46.90000 41.20800
H  42.78800 47.88500 39.71400
H  43.29600 48.61300 41.17600

