158

Mg 42.97500 4.20700 47.90600
C  40.90300 6.97200 47.58300
C  40.12400 2.18500 47.77400
C  45.06600 1.54000 47.74700
C  45.83800 6.33800 47.81100
N  40.73800 4.60500 47.77600
C  40.11500 5.80400 47.68300
C  38.57200 5.66900 47.81200
C  38.42300 4.11000 48.06100
C  39.87000 3.58100 47.84000
C  37.85300 3.70900 49.38900
C  37.77400 6.23200 46.62200
C  38.17800 5.61200 45.22000
H  37.64300 6.48200 43.99300
N  42.62100 2.10200 47.67800
C  41.41100 1.49500 47.60900
C  41.69600 0.08500 47.41000
C  43.05200 -0.07000 47.38200
C  43.66700 1.18500 47.62300
C  40.61000 -0.87700 47.41500
C  43.77200 -1.46500 47.25500
O  43.16700 -2.52900 47.13000
C  45.31300 -1.51000 47.23500
N  45.16500 3.99300 47.70800
C  45.73500 2.75200 47.79100
C  47.24500 2.73400 47.90000
C  47.55300 4.27600 47.78600
C  46.09700 4.95300 47.74000
C  47.76300 2.05600 49.19200
C  48.23200 4.72200 46.52000
C  49.73400 4.77300 46.46700
N  43.36000 6.17600 47.76200
C  44.54900 6.92000 47.73500
C  44.20200 8.28000 47.58100
C  42.83500 8.32200 47.52000
C  42.33400 7.07700 47.64500
C  45.15300 9.39400 47.55200
C  41.71800 9.31500 47.35900
O  41.81100 10.53500 47.29500
C  40.38600 8.37400 47.31500
C  39.49600 8.81700 48.39000
O  39.68900 8.67200 49.59000
O  38.35300 9.38800 47.87100
C  37.55700 10.23500 48.78400
H  39.18900 1.62300 47.71900
H  45.85200 0.78300 47.78000
H  46.67900 7.02600 47.70000
H  38.18100 6.10600 48.73100
H  37.70600 3.72600 47.33400
H  38.58300 3.13600 49.96100
H  36.89300 3.21500 49.23500
H  37.63300 4.61300 49.95800
H  37.64800 7.31400 46.58100
H  36.75100 5.89600 46.79400
H  37.62600 4.68600 45.05900
H  39.26600 5.55800 45.18300
H  40.40800 -1.34000 46.45000
H  39.70200 -0.40600 47.79000
H  40.85400 -1.69900 48.08800
H  45.59000 -0.68300 46.58200
H  45.77300 -2.43900 46.90000
H  45.72200 -1.32100 48.22700
H  47.68400 2.29100 47.00600
H  48.13200 4.60900 48.64800
H  47.00200 1.65800 49.86300
H  48.38100 2.74600 49.76600
H  48.38100 1.24700 48.80400
H  48.00400 5.77400 46.34500
H  47.83400 4.16200 45.67400
H  50.08800 4.06600 47.21700
H  50.07700 5.76200 46.77100
H  50.15400 4.53000 45.49200
H  45.71900 9.45900 48.48200
H  44.56800 10.27700 47.29500
H  45.87300 9.29300 46.74000
H  39.86600 8.59500 46.38300
H  38.24300 10.74600 49.45900
H  36.96700 9.56400 49.40900
H  37.06200 10.98600 48.16800
Mg 53.61400 23.43800 45.72200
C  51.29700 25.47600 44.22100
C  51.83800 20.73600 44.57700
C  56.38100 21.38300 46.25300
C  55.56100 26.09700 46.32000
N  51.81000 23.10500 44.58500
C  51.09000 24.13500 43.97500
C  49.77500 23.48700 43.41400
C  49.79900 22.05100 43.87700
C  51.26800 21.92500 44.37800
C  48.63000 21.62200 44.86300
C  49.67700 23.65100 41.84900
C  48.29000 23.84200 41.23600
H  48.05400 23.39700 39.84100
N  54.02800 21.29200 45.42200
C  53.14200 20.33200 44.99700
C  53.75000 18.99900 45.04000
C  55.02100 19.16400 45.62800
C  55.19100 20.68400 45.83700
C  53.03800 17.82200 44.34800
C  55.95100 18.02200 45.95200
O  55.74800 16.88100 45.54100
C  57.16200 18.34800 46.71700
N  55.77300 23.67400 46.01000
C  56.66100 22.73800 46.39200
C  58.01700 23.27900 46.85500
C  57.77400 24.86100 46.66700
C  56.26800 24.89900 46.32600
C  58.37000 22.94100 48.34600
C  58.60200 25.55700 45.48900
C  59.81300 26.41600 45.82900
N  53.41100 25.37900 45.59600
C  54.26000 26.41800 45.90300
C  53.68100 27.73200 45.66600
C  52.45600 27.40000 45.08400
C  52.40500 25.95600 44.92200
C  54.26600 29.14100 45.90000
C  51.23000 27.92500 44.54300
O  50.73800 29.00500 44.55500
C  50.41800 26.71000 43.90700
C  50.42900 26.92800 42.39500
O  51.42300 26.83700 41.63300
O  49.18200 27.37000 42.00800
C  49.18100 27.87700 40.67600
H  51.15500 19.92800 44.30800
H  57.37000 20.94300 46.39400
H  56.26400 26.90400 46.53700
H  48.94500 23.98100 43.91900
H  49.75800 21.45100 42.96800
H  47.94500 22.46100 44.98500
H  48.99700 21.37900 45.86000
H  48.05500 20.71600 44.67200
H  50.04800 22.76000 41.34000
H  50.27100 24.50200 41.51600
H  47.93400 24.84200 41.48400
H  47.61500 23.15600 41.74700
H  53.17300 16.90600 44.92300
H  53.50900 17.67900 43.37500
H  51.99000 18.06500 44.17100
H  56.87900 18.71400 47.70400
H  57.80200 18.95500 46.07600
H  57.68500 17.39400 46.77900
H  58.70000 22.86800 46.11200
H  57.89600 25.25800 47.67400
H  59.14800 22.18300 48.43200
H  57.44400 22.50700 48.72200
H  58.67400 23.82700 48.90400
H  57.88300 26.21300 44.99800
H  58.92100 24.80100 44.77100
H  59.62500 27.39200 45.38000
H  60.70800 26.04200 45.33200
H  60.03600 26.40900 46.89600
H  54.18900 29.36500 46.96300
H  53.71600 29.88400 45.32300
H  55.31100 29.25000 45.61200
H  49.43500 26.65200 44.37600
H  50.17300 28.06200 40.26300
H  48.59600 28.79200 40.77200
H  48.55500 27.18400 40.11400

