158

Mg 54.55900 24.82400 44.51600
C  52.24000 27.25200 43.52600
C  52.49600 22.39300 43.28600
C  57.15100 22.66900 44.49400
C  56.85400 27.44500 45.03300
N  52.57300 24.87500 43.56400
C  51.86200 25.94800 43.14300
C  50.57500 25.48500 42.27300
C  50.43600 24.11200 42.92800
C  51.93900 23.73600 43.27400
C  49.62900 23.91000 44.25100
C  51.00100 25.50400 40.76700
C  49.97200 26.21000 39.78500
H  49.75800 25.47800 38.48800
N  54.75400 22.73900 44.02300
C  53.77600 21.93300 43.59200
C  54.32300 20.60900 43.43300
C  55.64400 20.64700 43.93000
C  55.96600 22.02700 44.16400
C  53.40400 19.46400 42.88600
C  56.52900 19.42600 44.10600
O  56.18800 18.29100 43.83000
C  57.95800 19.53100 44.52800
N  56.79900 25.05800 44.42600
C  57.58200 23.99200 44.60100
C  58.98800 24.44000 44.97300
C  58.95500 26.01900 44.89700
C  57.46300 26.20200 44.88100
C  59.55700 23.94300 46.32200
C  59.78800 26.79100 43.87900
C  60.91800 27.64500 44.42600
N  54.51900 26.95500 44.60300
C  55.50800 27.89000 44.91700
C  54.87700 29.25300 44.85000
C  53.59000 29.02400 44.29100
C  53.47300 27.66200 44.13600
C  55.54300 30.54300 45.15100
C  52.43000 29.67100 43.80600
O  52.18600 30.85100 43.74700
C  51.49800 28.57600 43.39400
C  50.99000 28.81400 42.04300
O  51.61200 29.07500 40.98700
O  49.64100 28.77000 42.11100
C  48.87600 29.50800 41.12100
H  51.82500 21.61000 42.92700
H  57.98000 21.95800 44.46100
H  57.53100 28.29800 45.12300
H  49.73700 26.16800 42.41100
H  50.13300 23.36800 42.19100
H  49.08100 24.84700 44.35300
H  50.31700 23.67900 45.06400
H  48.93000 23.08700 44.10000
H  51.44900 24.57400 40.41500
H  51.83800 26.18500 40.61400
H  50.41400 27.17200 39.53000
H  49.02700 26.32400 40.31700
H  53.92600 18.51000 42.82000
H  53.00800 19.70100 41.89900
H  52.52800 19.21100 43.48300
H  58.49500 18.59700 44.69500
H  58.07800 20.10300 45.44700
H  58.51900 20.11800 43.80000
H  59.74900 24.07700 44.28200
H  59.29600 26.38900 45.86400
H  58.78700 23.97100 47.09300
H  60.38100 24.55300 46.69000
H  59.84400 22.91400 46.10500
H  59.08900 27.35900 43.26400
H  60.22900 26.01000 43.25900
H  61.95400 27.34900 44.26000
H  60.81300 27.83600 45.49400
H  60.79800 28.63600 43.98800
H  54.94400 31.35200 44.73400
H  56.50600 30.49200 44.64200
H  55.76900 30.66700 46.21100
H  50.64600 28.56700 44.07300
H  48.89700 29.01800 40.14800
H  49.19700 30.53600 40.95400
H  47.84800 29.45800 41.48100
Mg -11.28300 38.97200 41.17900
C  -9.79100 35.85500 40.59300
C  -8.66800 40.59200 39.66600
C  -13.27900 41.65400 40.76900
C  -14.09400 37.11200 42.31300
N  -9.49900 38.29200 40.25000
C  -9.12000 36.97900 40.13400
C  -7.77300 36.94700 39.42200
C  -7.28300 38.43500 39.33800
C  -8.55300 39.19900 39.79500
C  -6.01000 38.72400 40.09900
C  -8.06000 36.31400 37.98200
C  -7.03400 35.12600 37.63800
H  -6.26100 35.34800 36.30400
N  -10.97400 40.93700 40.38200
C  -9.79200 41.42600 39.86000
C  -9.95100 42.78700 39.55000
C  -11.25000 43.13700 39.98800
C  -11.95000 41.85900 40.37600
C  -8.82800 43.64100 38.88400
C  -11.78700 44.56200 39.90700
O  -10.98800 45.43400 39.55600
C  -13.24700 44.91100 40.34100
N  -13.38600 39.36400 41.42900
C  -13.93900 40.57900 41.27800
C  -15.45500 40.55900 41.57500
C  -15.61800 39.16600 42.37500
C  -14.29500 38.47100 42.01100
C  -16.04400 41.78500 42.28500
C  -16.86400 38.44600 41.79400
C  -17.86300 37.80400 42.77700
N  -11.83200 36.87300 41.58800
C  -12.95800 36.31500 42.06900
C  -12.82400 34.91500 42.21600
C  -11.55000 34.67200 41.61600
C  -11.01000 35.91000 41.21500
C  -13.76700 33.92700 42.78400
C  -10.55100 33.65500 41.33200
O  -10.52200 32.44300 41.61700
C  -9.36800 34.38900 40.50700
C  -8.06000 34.19600 41.19200
O  -7.12500 33.56000 40.73700
O  -8.01200 34.84800 42.40200
C  -6.80700 34.68700 43.17900
H  -7.75700 40.98700 39.21100
H  -13.84600 42.58600 40.70900
H  -14.87600 36.48000 42.74000
H  -7.09400 36.36400 40.04400
H  -7.20500 38.81300 38.31900
H  -5.18800 38.80500 39.38800
H  -5.77900 38.00500 40.88500
H  -6.26200 39.65400 40.61000
H  -7.96900 37.10700 37.24000
H  -9.02700 35.81300 37.93200
H  -7.51600 34.14800 37.64000
H  -6.38900 35.01200 38.50900
H  -9.28900 44.22100 38.08400
H  -7.99700 43.06900 38.47100
H  -8.48700 44.41000 39.57600
H  -13.89200 44.34200 39.67000
H  -13.40900 45.98500 40.25000
H  -13.31000 44.55500 41.36900
H  -15.96500 40.55500 40.61100
H  -15.78500 39.30500 43.44300
H  -15.17900 42.40500 42.52300
H  -16.63000 41.61300 43.18800
H  -16.64600 42.27800 41.52300
H  -16.55700 37.86100 40.92700
H  -17.42900 39.25800 41.33600
H  -18.72900 38.43900 42.58700
H  -17.54000 37.88000 43.81600
H  -18.06300 36.76800 42.50300
H  -13.31000 33.05500 43.25200
H  -14.51500 33.66600 42.03600
H  -14.34900 34.45000 43.54400
H  -9.27600 33.99800 39.49400
H  -5.94500 34.67900 42.51200
H  -6.86200 33.79500 43.80400
H  -6.83300 35.57300 43.81300

