158

Mg 37.01400 49.77900 24.71500
C  37.26400 47.98700 27.63600
C  35.45200 52.27900 26.28700
C  36.54300 51.32500 21.68800
C  38.09200 46.91100 22.93900
N  36.43100 49.99500 26.68800
C  36.76000 49.25000 27.79000
C  36.44100 49.96600 29.08000
C  35.65000 51.23400 28.57300
C  35.84700 51.17400 27.06800
C  34.23800 51.41800 29.03400
C  37.68600 50.20100 29.90100
C  37.43100 50.06800 31.42300
H  35.99200 50.34800 32.00600
N  36.28400 51.58700 24.10400
C  35.65400 52.49700 24.95000
C  35.17800 53.65900 24.20900
C  35.55200 53.40900 22.85000
C  36.17700 52.07600 22.83300
C  34.38300 54.83500 24.82300
C  35.42100 54.28000 21.63100
O  35.80800 53.89800 20.52000
C  34.89400 55.64100 21.66400
N  37.20900 49.14900 22.59300
C  36.98800 50.01200 21.55400
C  37.23000 49.39900 20.15800
C  37.92300 48.02800 20.62800
C  37.64500 47.98100 22.15700
C  35.92200 49.11700 19.33100
C  39.40300 47.86900 20.14600
C  40.51200 48.40700 21.11000
N  37.57100 47.86200 25.17300
C  38.08300 46.82900 24.36500
C  38.64800 45.80500 25.12600
C  38.26800 46.17000 26.43600
C  37.63900 47.41600 26.39800
C  39.52500 44.65500 24.57200
C  38.33500 45.84400 27.80900
O  38.80200 44.87600 28.40300
C  37.63600 47.00800 28.61700
C  36.41500 46.48000 29.26500
O  35.35700 46.18900 28.70900
O  36.65700 46.42100 30.60000
C  35.56900 45.78600 31.39400
H  35.08700 53.18000 26.78400
H  36.26300 51.82700 20.76000
H  38.58700 46.16100 22.31900
H  35.75900 49.35100 29.66800
H  36.24600 52.04200 28.99800
H  33.87400 50.53500 29.55800
H  33.45600 51.53100 28.28200
H  34.12200 52.28400 29.68600
H  38.01100 51.23000 29.74400
H  38.49600 49.58100 29.51600
H  38.07300 50.84300 31.84100
H  37.75000 49.04400 31.61700
H  33.40400 54.67500 24.37000
H  34.68000 55.78600 24.38100
H  34.22000 54.87200 25.90000
H  34.93700 56.03700 20.64900
H  35.45100 56.32700 22.30400
H  33.86900 55.63000 22.03500
H  37.90900 50.02300 19.57700
H  37.35300 47.18100 20.24600
H  34.98800 49.19900 19.88700
H  36.08700 48.26200 18.67500
H  35.83100 49.97400 18.66500
H  39.42500 48.34000 19.16400
H  39.58800 46.79700 20.07500
H  40.13000 49.05500 21.89900
H  41.12300 48.97900 20.41200
H  41.20100 47.73900 21.62700
H  39.41500 44.47600 23.50300
H  39.29500 43.75700 25.14600
H  40.59600 44.81900 24.69000
H  38.28900 47.30600 29.43700
H  35.80300 44.73000 31.53000
H  34.59600 45.66400 30.91900
H  35.37700 46.31200 32.32900
Mg 9.91400 46.77800 25.39200
C  7.50300 47.09000 27.74300
C  12.32600 47.75600 27.51900
C  12.42100 46.40800 22.82300
C  7.54100 46.22200 22.89300
N  9.86300 47.31600 27.37000
C  8.78900 47.34100 28.20500
C  9.23300 47.50700 29.67600
C  10.56400 48.24000 29.38800
C  10.96200 47.86300 27.91400
C  10.66200 49.72600 29.67800
C  9.43200 46.22800 30.57300
C  10.11800 46.51700 31.94600
H  9.44100 45.93300 33.15700
N  12.12700 46.91500 25.25700
C  12.87900 47.33000 26.30800
C  14.27500 47.33200 25.93800
C  14.38100 46.82600 24.59200
C  12.95700 46.66800 24.14700
C  15.39100 47.96600 26.77200
C  15.60800 46.58300 23.74100
O  15.47900 46.22500 22.58500
C  17.02600 46.72400 24.25600
N  10.05500 46.46600 23.20400
C  11.09600 46.45500 22.36800
C  10.73000 46.26500 20.87600
C  9.23000 46.15600 20.94200
C  8.87200 46.27700 22.42900
C  11.37100 47.42400 19.98600
C  8.71800 44.79700 20.41400
C  8.10200 44.79600 19.05000
N  7.88100 46.62500 25.24700
C  7.01600 46.39600 24.21700
C  5.60500 46.35000 24.79500
C  5.78200 46.47000 26.18500
C  7.16700 46.78900 26.37600
C  4.32700 46.17100 24.00500
C  5.07500 46.47600 27.43800
O  3.86000 46.31400 27.73100
C  6.21400 46.87100 28.48200
C  6.35500 45.71600 29.51200
O  6.86100 44.61000 29.34100
O  5.78900 46.13400 30.66300
C  5.54400 45.11500 31.70500
H  12.87400 48.12200 28.38900
H  13.12200 46.36100 21.98700
H  6.75300 45.97800 22.17800
H  8.60800 48.26300 30.15100
H  11.35400 47.77500 29.97900
H  9.85200 50.04900 30.33100
H  10.72600 50.23200 28.71500
H  11.58100 49.86600 30.24700
H  10.07100 45.57000 29.98400
H  8.48500 45.71900 30.75600
H  10.35100 47.57200 32.09000
H  11.09300 46.05100 31.80200
H  15.81300 48.83800 26.27300
H  16.04600 47.14000 27.04900
H  15.08100 48.31700 27.75700
H  17.08600 47.77200 24.55000
H  17.78700 46.45400 23.52300
H  17.16500 46.03500 25.08800
H  11.14900 45.28500 20.64500
H  8.80600 46.91300 20.28200
H  11.78200 48.18000 20.65500
H  10.63100 47.76300 19.26100
H  12.12700 46.92000 19.38400
H  7.98300 44.32300 21.06400
H  9.51500 44.05700 20.35900
H  8.53600 45.54600 18.38900
H  7.01900 44.91500 19.04500
H  8.28000 43.82800 18.58100
H  4.16200 45.09500 23.96200
H  4.68000 46.50500 23.02900
H  3.49800 46.69500 24.48000
H  5.95600 47.73800 29.09000
H  4.50900 45.03500 32.03700
H  6.17600 45.47800 32.51600
H  5.84900 44.09800 31.45800

