158

Mg 29.39200 57.48100 41.29500
C  26.74500 55.49700 40.29700
C  31.38100 55.51400 39.32500
C  31.74900 59.77100 41.42200
C  26.99700 59.80800 42.29200
N  29.12200 55.57600 40.11800
C  27.95700 54.94800 39.88800
C  28.16900 53.60800 39.05600
C  29.73200 53.52800 39.08600
C  30.10300 54.97600 39.47900
C  30.38200 52.37900 40.04200
C  27.49600 53.72300 37.64500
C  27.33200 55.06400 36.94400
H  27.59800 55.10100 35.46000
N  31.39600 57.47700 40.74300
C  32.03400 56.58400 39.99400
C  33.40000 56.96400 39.81800
C  33.51400 58.20100 40.39600
C  32.21900 58.57600 40.92800
C  34.43000 56.12300 39.12600
C  34.83200 58.94500 40.50100
O  35.87800 58.56700 39.94000
C  34.91200 60.26700 41.21900
N  29.37300 59.57000 41.70000
C  30.49100 60.32100 41.70300
C  30.28500 61.79100 42.07300
C  28.70500 61.69900 42.45700
C  28.29800 60.22400 42.16600
C  31.33600 62.46000 43.12100
C  27.86000 62.73400 41.62800
C  26.66600 63.44100 42.39600
N  27.25700 57.59700 41.51500
C  26.39800 58.62200 41.82100
C  25.04400 58.28200 41.70700
C  25.10000 57.00200 41.07900
C  26.50000 56.69600 40.95200
C  23.79400 59.04100 41.94800
C  24.33500 55.91900 40.58200
O  23.12300 55.68200 40.53200
C  25.35800 54.80200 40.14700
C  25.24400 53.37200 40.70500
O  25.48500 52.97800 41.80600
O  24.73900 52.57300 39.67700
C  24.47900 51.14300 40.05600
H  32.12700 54.94700 38.76400
H  32.51700 60.53800 41.54700
H  26.32700 60.63000 42.55200
H  27.81800 52.69900 39.54400
H  30.04800 53.33300 38.06100
H  29.63800 51.65900 40.38400
H  30.85600 52.74400 40.95300
H  31.15900 51.97900 39.39200
H  26.52000 53.23700 37.65700
H  28.02500 53.05900 36.96200
H  28.01000 55.77500 37.41700
H  26.26300 55.20400 37.10200
H  35.46300 56.21500 39.46100
H  34.38300 56.28900 38.05000
H  34.15100 55.08300 39.29800
H  34.24200 60.83300 40.57100
H  35.93800 60.61200 41.34300
H  34.35500 60.23800 42.15500
H  30.33400 62.36800 41.15100
H  28.66400 61.85600 43.53500
H  32.28600 61.94200 43.25200
H  30.87300 62.84200 44.03000
H  31.78300 63.30700 42.60100
H  27.35300 62.22400 40.80900
H  28.56800 63.45500 41.22000
H  25.80900 63.75100 41.79800
H  26.97000 64.34300 42.92800
H  26.21100 62.77200 43.12600
H  24.03300 60.02000 42.36300
H  23.28400 58.58000 42.79400
H  23.19100 59.24300 41.06300
H  25.13900 54.62700 39.09400
H  25.39300 50.59300 40.28300
H  24.11300 50.60300 39.18300
H  23.80800 51.08400 40.91300
Mg -4.84500 25.19800 25.56800
C  -3.34400 26.12600 28.62500
C  -6.79400 22.88500 27.56700
C  -5.72600 23.62000 22.88300
C  -2.56800 27.21900 23.88500
N  -4.92800 24.53700 27.89200
C  -4.29500 25.19100 28.87400
C  -4.87500 24.87900 30.26100
C  -5.72500 23.61500 29.84400
C  -5.88500 23.70800 28.31700
C  -5.11600 22.27900 30.27100
C  -5.75200 26.12400 30.79200
C  -5.55200 26.46500 32.32500
H  -4.69700 25.57000 33.16200
N  -6.26400 23.66300 25.21600
C  -6.95000 22.89800 26.11800
C  -7.95500 22.17000 25.44200
C  -7.60000 22.26500 24.06500
C  -6.48300 23.19000 23.95400
C  -9.06200 21.40300 26.19500
C  -8.32300 21.63400 22.87700
O  -7.98300 21.84200 21.72500
C  -9.62800 20.84900 23.10700
N  -4.14000 25.31600 23.63100
C  -4.62100 24.47900 22.67300
C  -3.96900 24.83700 21.28700
C  -3.26200 26.23000 21.50000
C  -3.34200 26.30000 23.05700
C  -2.90500 23.74500 20.81600
C  -3.98900 27.38700 20.76600
C  -3.09200 28.60300 20.54000
N  -3.22800 26.38000 26.07200
C  -2.46700 27.21300 25.28600
C  -1.61900 28.01200 26.11700
C  -1.91700 27.59100 27.40300
C  -2.92400 26.61100 27.35300
C  -0.76500 29.07600 25.63800
C  -1.63400 27.86000 28.76100
O  -0.82400 28.63200 29.33300
C  -2.49200 26.85400 29.62600
C  -1.56300 26.19100 30.52400
O  -1.03100 25.10400 30.29900
O  -1.50900 26.90600 31.73200
C  -0.54800 26.27600 32.71600
H  -7.49500 22.20000 28.05000
H  -6.13200 23.12000 22.00100
H  -1.96200 27.84800 23.23000
H  -4.19200 24.55700 31.04700
H  -6.66500 23.63900 30.39500
H  -5.86200 21.86800 30.95100
H  -4.11500 22.35600 30.69600
H  -4.97000 21.64000 29.40100
H  -6.82100 25.91400 30.74300
H  -5.67700 27.02400 30.18200
H  -6.51600 26.67500 32.79000
H  -5.09600 27.45500 32.31300
H  -9.73200 20.66800 25.74900
H  -9.72300 22.12000 26.68300
H  -8.56600 20.89700 27.02400
H  -9.29200 19.95200 23.62600
H  -9.94900 20.63500 22.08700
H  -10.30100 21.39500 23.76800
H  -4.78600 24.81200 20.56600
H  -2.24000 26.25900 21.12200
H  -1.95900 24.17400 20.48400
H  -3.39800 23.07600 20.11000
H  -2.55100 23.12100 21.63700
H  -4.93400 27.67500 21.22500
H  -4.18300 26.92800 19.79600
H  -2.95600 28.75600 19.46900
H  -2.15900 28.44300 21.08000
H  -3.58800 29.52200 20.85100
H  -0.56600 29.80500 26.42400
H  -1.23900 29.59200 24.80300
H  0.20700 28.61600 25.45800
H  -3.08900 27.55000 30.21500
H  -0.52900 25.18700 32.77000
H  -0.71300 26.64800 33.72800
H  0.47700 26.57000 32.49100

