158

Mg 47.81300 34.63300 27.59100
C  45.79300 33.10600 29.83800
C  48.16400 37.29700 29.50200
C  49.42800 36.32200 24.99200
C  47.13700 32.02000 25.19800
N  47.01200 35.13600 29.45900
C  46.29100 34.28600 30.28900
C  46.26300 34.89400 31.70700
C  46.65700 36.40100 31.51300
C  47.26800 36.33200 30.07000
C  45.50500 37.45400 31.63400
C  47.28900 34.08700 32.66000
C  46.77500 33.80900 34.07100
H  47.62800 34.57600 35.13600
N  48.83800 36.41700 27.32200
C  48.87000 37.34000 28.31100
C  49.78100 38.35600 27.97400
C  50.30800 38.03400 26.68200
C  49.50000 36.87800 26.26700
C  50.00500 39.60900 28.78500
C  51.29100 38.82800 25.78900
O  51.53700 38.43300 24.64200
C  52.11600 40.04800 26.29100
N  48.04400 34.32300 25.33200
C  48.90700 35.07700 24.61100
C  49.03800 34.54100 23.14800
C  48.33300 33.11200 23.23000
C  47.75100 33.17800 24.65200
C  48.44600 35.39600 22.03000
C  49.44500 31.96000 23.03400
C  50.26500 31.50500 24.32800
N  46.67000 33.01500 27.43500
C  46.62600 31.95200 26.53700
C  45.88000 30.88700 27.09200
C  45.50700 31.28900 28.34300
C  45.97900 32.56300 28.48600
C  45.43800 29.59700 26.42100
C  44.78400 30.97900 29.55600
O  44.27700 29.89900 29.92000
C  44.82100 32.22400 30.43900
C  44.91500 31.79400 31.84300
O  45.85900 31.16100 32.41900
O  43.69900 32.00600 32.51500
C  43.69700 31.56000 33.89100
H  48.24400 38.11400 30.22300
H  49.81800 36.85000 24.12000
H  47.22600 31.08300 24.64400
H  45.23400 34.77300 32.04600
H  47.43700 36.70600 32.21100
H  44.64300 37.16700 32.23600
H  45.17500 37.78200 30.64800
H  45.84200 38.32300 32.19900
H  48.21700 34.65400 32.58800
H  47.63400 33.17100 32.17900
H  46.87100 32.75700 34.34000
H  45.75000 34.11900 34.27300
H  49.71600 40.41200 28.10800
H  51.06900 39.67000 29.01600
H  49.46100 39.69300 29.72600
H  51.48800 40.93800 26.32500
H  52.93500 40.21600 25.59100
H  52.46200 39.90800 27.31500
H  50.11600 34.52800 22.98600
H  47.57300 32.90600 22.47600
H  49.14100 35.54900 21.20400
H  48.20000 36.33100 22.53300
H  47.48100 35.10000 21.62100
H  50.02800 32.25000 22.16000
H  48.99700 31.03000 22.68400
H  49.87900 31.91500 25.26100
H  51.31200 31.80100 24.26000
H  50.37200 30.42100 24.36000
H  45.32900 28.84900 27.20500
H  46.21900 29.36500 25.69700
H  44.47200 29.83200 25.97400
H  43.81400 32.63000 30.34300
H  42.86600 30.85400 33.89000
H  43.51100 32.39200 34.56900
H  44.60200 31.26800 34.42400
Mg 36.36000 49.67500 24.19800
C  36.38600 48.35500 27.35700
C  35.23200 52.74000 25.69900
C  36.07500 51.18700 21.08700
C  37.52200 46.78900 22.82800
N  35.85400 50.41800 26.28000
C  35.95000 49.69000 27.36000
C  35.58800 50.50000 28.62000
C  35.07600 51.84900 28.06300
C  35.44200 51.63700 26.55500
C  33.53500 52.11200 28.24100
C  36.80300 50.57700 29.61400
C  36.53400 50.09800 31.06300
H  35.07700 49.89500 31.67600
N  35.76600 51.62500 23.46900
C  35.34100 52.73500 24.32300
C  35.08300 53.85600 23.55200
C  35.10200 53.43600 22.17300
C  35.64300 51.99700 22.16100
C  34.63500 55.16900 24.26600
C  34.68600 54.26600 21.04100
O  34.72600 53.77800 19.91700
C  34.11300 55.59900 21.15500
N  36.82000 49.12600 22.26200
C  36.58900 49.91000 21.12900
C  37.04000 49.16000 19.90600
C  37.60300 47.78300 20.44900
C  37.22200 47.88200 21.93000
C  35.96400 49.09400 18.82100
C  39.12700 47.60600 20.19900
C  40.22900 48.25100 21.12800
N  36.80700 47.88500 24.85900
C  37.34700 46.78900 24.20200
C  37.63200 45.74300 25.11500
C  37.31800 46.30700 26.38100
C  36.78500 47.58600 26.18300
C  38.16400 44.33900 24.77900
C  37.31900 46.12900 27.80100
O  37.76300 45.14000 28.44800
C  36.56900 47.28000 28.47000
C  35.28500 46.86100 29.00500
O  34.22100 47.21000 28.57000
O  35.56000 46.14000 30.13100
C  34.42200 45.79700 31.01100
H  34.91100 53.61300 26.27200
H  36.02600 51.65700 20.10300
H  38.04500 45.99700 22.28800
H  34.79000 49.93600 29.10400
H  35.63700 52.72000 28.40400
H  33.08100 51.55200 29.05900
H  33.02200 51.56200 27.45100
H  33.34000 53.18200 28.30000
H  37.23300 51.57000 29.74500
H  37.61800 49.93900 29.27400
H  37.09300 50.82500 31.65300
H  37.06700 49.14800 31.12000
H  35.08800 55.32400 25.24500
H  33.56700 55.09700 24.47100
H  34.77200 55.98800 23.56000
H  34.90200 56.26700 21.50200
H  33.23800 55.66700 21.80100
H  33.78300 55.99800 20.19600
H  37.83000 49.78700 19.49300
H  37.09700 46.90800 20.04200
H  36.15700 49.59500 17.87200
H  34.94500 49.37000 19.09300
H  35.93200 48.09000 18.39900
H  39.21200 47.95300 19.16900
H  39.30200 46.53800 20.06900
H  40.23900 47.63500 22.02700
H  39.83000 49.24100 21.34900
H  41.21000 48.28700 20.65400
H  39.09500 44.47900 24.22900
H  37.41900 43.73000 24.26700
H  38.50000 43.72700 25.61600
H  37.15700 47.78200 29.23900
H  33.78700 45.02500 30.57600
H  33.80200 46.69300 31.04900
H  34.74600 45.52100 32.01400

