158

Mg 48.46200 45.38000 42.63900
C  44.86000 45.27000 42.12300
C  48.41400 41.99300 42.26400
C  51.79700 45.52500 42.60400
C  48.18700 48.94000 42.51400
N  46.85400 43.83800 42.10200
C  45.47100 44.02800 42.03600
C  44.71300 42.70900 41.82600
C  45.85700 41.63600 41.94000
C  47.13700 42.49300 42.22200
C  45.57400 40.48600 43.03100
C  43.96400 42.70600 40.50300
C  44.69800 43.29000 39.30300
H  44.95100 42.35900 38.06400
N  50.00100 43.95500 42.44600
C  49.79100 42.55500 42.33300
C  51.11600 41.92500 42.30900
C  52.08500 42.90600 42.41300
C  51.31600 44.21000 42.53100
C  51.24900 40.43700 42.14300
C  53.63700 42.80700 42.37400
O  54.16300 41.73600 42.18800
C  54.56700 43.96600 42.75300
N  49.77300 46.93000 42.74300
C  51.09100 46.71200 42.71700
C  51.79800 48.11000 42.70500
C  50.64300 49.10000 42.83600
C  49.47100 48.28300 42.56100
C  52.97000 48.30600 43.68300
C  50.88700 50.43300 42.09000
C  50.76200 51.84900 42.74100
N  46.82200 46.85000 42.62200
C  46.92600 48.27200 42.53700
C  45.48100 48.78800 42.57100
C  44.66500 47.65400 42.37300
C  45.50800 46.52800 42.35900
C  45.02800 50.23200 42.37900
C  43.26000 47.17600 42.23700
O  42.16200 47.74800 42.26500
C  43.38000 45.64800 42.04400
C  42.53200 44.97000 43.03800
O  41.52900 44.34900 42.83700
O  43.02600 45.12900 44.33800
C  42.39100 44.27100 45.37100
H  48.34700 40.94800 42.57400
H  52.82700 45.76700 42.33200
H  48.16400 50.03100 42.53000
H  43.88500 42.69500 42.53400
H  45.95800 41.05900 41.02100
H  45.71700 39.46000 42.69200
H  44.52000 40.50100 43.30800
H  46.19900 40.65000 43.90800
H  43.03200 43.18500 40.80100
H  43.77500 41.66700 40.23000
H  45.68600 43.65900 39.57700
H  44.14900 44.12500 38.86800
H  50.38500 40.20000 41.52200
H  51.25500 40.11100 43.18300
H  52.11900 40.09800 41.58100
H  54.06300 44.43700 43.59700
H  54.50200 44.57300 41.85000
H  55.51900 43.51600 43.03600
H  52.23600 48.23200 41.71400
H  50.58100 49.39400 43.88400
H  52.81000 48.99000 44.51700
H  53.81600 48.58700 43.05500
H  53.29400 47.37100 44.14200
H  50.16100 50.40900 41.27700
H  51.91600 50.39100 41.73300
H  51.72100 52.35200 42.61300
H  50.61400 51.77100 43.81800
H  49.99500 52.51400 42.34400
H  43.96100 50.40700 42.24600
H  45.55500 50.71100 41.55300
H  45.44800 50.78200 43.22100
H  43.10600 45.52200 40.99600
H  41.30400 44.32900 45.30400
H  42.81000 44.49000 46.35300
H  42.68900 43.26400 45.07800
Mg 26.79000 49.93300 26.67600
C  24.77700 51.27800 29.23800
C  29.08700 48.87700 29.04000
C  28.86900 49.24800 24.15000
C  24.46900 51.55600 24.37800
N  26.99600 50.15700 28.82100
C  25.95900 50.55100 29.64600
C  26.24600 50.21200 31.12800
C  27.64800 49.60900 31.08600
C  27.96600 49.46600 29.59200
C  28.78200 50.37700 31.90000
C  25.14800 49.28100 31.78100
C  24.39300 49.78800 33.01600
H  24.98600 49.55200 34.38100
N  28.70900 49.07000 26.64400
C  29.46300 48.71600 27.73200
C  30.71700 48.11000 27.23200
C  30.76100 48.33500 25.77500
C  29.39100 48.91800 25.47100
C  31.82100 47.49700 28.02800
C  31.82100 47.92100 24.76800
O  31.61300 48.02800 23.57100
C  33.12200 47.46400 25.25500
N  26.63400 50.29200 24.65300
C  27.64900 49.88200 23.75500
C  27.23200 50.18900 22.20800
C  25.84200 50.93500 22.41700
C  25.62500 50.93000 23.90900
C  28.23100 50.92800 21.34000
C  24.66300 50.27700 21.54100
C  24.29100 48.86700 22.00300
N  25.03300 51.21900 26.71400
C  24.12800 51.64700 25.71100
C  23.01400 52.33100 26.27000
C  23.23100 52.12700 27.67200
C  24.45700 51.50100 27.88900
C  21.87000 53.00500 25.58600
C  22.66300 52.36800 28.97900
O  21.58100 52.97100 29.20500
C  23.62300 51.85800 30.02200
C  24.10200 52.95700 30.93900
O  25.04000 53.80200 30.87700
O  23.31500 52.76500 32.03500
C  23.41800 53.68200 33.13800
H  29.77100 48.30900 29.67400
H  29.53800 49.22800 23.28700
H  23.80400 51.99900 23.63400
H  26.16000 51.16900 31.64300
H  27.69200 48.59600 31.48600
H  28.38400 51.24700 32.42200
H  29.63800 50.65300 31.28400
H  29.23600 49.83600 32.73100
H  25.56700 48.34800 32.15900
H  24.48600 48.98500 30.96700
H  23.31800 49.65100 32.90400
H  24.48500 50.87400 33.01400
H  31.54700 47.43700 29.08100
H  32.84100 47.88000 28.06100
H  31.93000 46.50600 27.59000
H  33.47100 48.25100 25.92400
H  33.71100 47.29100 24.35400
H  33.08900 46.50000 25.76200
H  27.05400 49.25700 21.67200
H  25.83300 51.93700 21.99000
H  29.18300 50.87600 21.86900
H  27.90400 51.91900 21.02600
H  28.26900 50.34000 20.42300
H  25.10300 50.13700 20.55300
H  23.85800 51.01000 21.49500
H  23.25900 48.71000 22.31700
H  24.89000 48.46800 22.82200
H  24.41000 48.11600 21.22200
H  22.18200 53.51500 24.67500
H  21.41500 53.76600 26.22100
H  21.14000 52.26200 25.26400
H  23.09500 51.14500 30.65500
H  24.13100 53.33900 33.88800
H  22.41400 53.71200 33.56300
H  23.60400 54.73200 32.91400

