158

Mg 8.79400 3.73100 27.13800
C  10.24100 2.34000 29.96100
C  7.01500 5.77900 29.23200
C  7.27800 4.87400 24.40500
C  9.96300 1.01800 25.30100
N  8.63100 4.02700 29.30500
C  9.46300 3.39100 30.23100
C  9.21600 4.00700 31.61200
C  8.10900 5.02400 31.42300
C  7.88800 4.95800 29.87700
C  6.76200 4.85300 32.25700
C  10.51000 4.47900 32.29300
C  10.39100 5.35800 33.56200
H  11.10600 4.83500 34.82900
N  7.38700 5.20200 26.87200
C  6.79500 5.94600 27.86000
C  5.85800 6.87500 27.17100
C  6.09500 6.80800 25.77500
C  6.87500 5.50300 25.63800
C  5.12400 7.89700 28.00000
C  5.60200 7.69200 24.60000
O  5.75500 7.47800 23.40900
C  5.02600 8.97600 25.00200
N  8.51800 2.96300 25.15500
C  7.95000 3.71400 24.19100
C  8.23700 3.13000 22.82000
C  9.14700 1.94200 23.07600
C  9.24900 1.99600 24.61800
C  6.99000 2.83100 22.02700
C  10.51100 1.99900 22.27800
C  10.95000 0.63100 21.70100
N  9.97500 2.10500 27.49800
C  10.37000 1.07500 26.65200
C  11.26300 0.23600 27.32200
C  11.27900 0.74600 28.65900
C  10.45800 1.87000 28.69600
C  12.00200 -0.87500 26.67300
C  11.94000 0.52000 29.91500
O  12.72900 -0.28300 30.36300
C  11.21500 1.56600 30.81000
C  10.61100 0.73700 31.99200
O  9.45900 0.35100 32.13200
O  11.59500 0.75800 32.95600
C  11.08900 0.49100 34.28700
H  6.39000 6.29300 29.96500
H  7.15200 5.48300 23.50700
H  10.36200 0.24100 24.64500
H  8.82900 3.15500 32.17000
H  8.47000 6.01300 31.70700
H  5.93800 4.55900 31.60700
H  6.54600 5.81200 32.72800
H  6.89500 4.20100 33.12000
H  11.10700 4.92700 31.49900
H  11.05900 3.57500 32.55700
H  9.35200 5.49100 33.86400
H  10.83500 6.33000 33.34900
H  4.23100 8.36100 27.58200
H  5.74500 8.77500 28.17700
H  4.80900 7.53100 28.97700
H  5.52400 9.36600 25.88900
H  3.99800 8.69800 25.23700
H  5.25600 9.67700 24.20000
H  8.85600 3.85500 22.29200
H  8.62900 0.99900 22.90100
H  6.19000 3.35400 22.55200
H  6.81700 1.81000 21.68700
H  6.92500 3.33700 21.06300
H  11.26800 2.42000 22.93900
H  10.51000 2.68600 21.43100
H  10.06800 -0.00900 21.71700
H  11.73500 0.25500 22.35600
H  11.12400 0.68800 20.62700
H  12.16900 -0.62900 25.62500
H  11.34000 -1.74000 26.65300
H  13.00200 -1.11600 27.03500
H  12.07600 2.14300 31.14600
H  11.91300 0.19900 34.93700
H  10.40600 -0.35800 34.25300
H  10.56700 1.34400 34.72100
Mg 26.05800 50.40000 27.29600
C  24.03300 51.43300 29.91200
C  28.66600 49.79300 29.61700
C  28.09200 49.75600 24.83700
C  23.68900 51.72400 25.07900
N  26.23200 50.41900 29.46500
C  25.22500 50.89400 30.35600
C  25.63600 50.53000 31.81100
C  27.19100 50.23500 31.67900
C  27.39300 50.12700 30.17200
C  28.17700 51.25900 32.20200
C  24.83600 49.34400 32.35800
C  24.55100 49.14000 33.84600
H  25.17000 50.09500 34.91600
N  28.09000 49.70300 27.21800
C  28.97300 49.53300 28.26800
C  30.24500 49.13800 27.68900
C  30.09600 49.08200 26.30100
C  28.69600 49.47000 26.06400
C  31.46500 48.93900 28.58000
C  31.12500 48.86300 25.20200
O  30.79900 48.76800 24.02300
C  32.60900 48.74500 25.49700
N  25.97800 50.81000 25.19900
C  26.90000 50.36000 24.35000
C  26.34000 50.22600 22.92800
C  24.84700 50.64500 23.08300
C  24.82700 51.07000 24.56900
C  27.12200 51.05900 21.80600
C  23.74000 49.58100 22.79900
C  22.44400 50.14000 22.09700
N  24.34000 51.53000 27.38500
C  23.49000 52.04900 26.43700
C  22.32000 52.65400 27.08200
C  22.49700 52.37500 28.44000
C  23.72900 51.76300 28.56200
C  21.17000 53.26800 26.39500
C  21.86700 52.48400 29.71600
O  20.76900 52.90200 30.11800
C  22.89400 51.89300 30.73800
C  23.30200 52.91700 31.75300
O  24.23000 53.67500 31.62500
O  22.62900 52.74200 32.95100
C  23.04900 53.55400 34.10900
H  29.47000 49.80400 30.35600
H  28.67500 49.46000 23.96300
H  22.83500 51.71800 24.39800
H  25.41200 51.45700 32.33700
H  27.52000 49.32300 32.17700
H  28.88100 50.76800 32.87400
H  27.62600 52.04100 32.72500
H  28.68700 51.67200 31.33200
H  25.38100 48.46700 32.00800
H  23.93200 49.21700 31.76200
H  25.15500 48.25100 34.03000
H  23.52800 48.84300 34.07700
H  31.50600 49.82600 29.21200
H  32.42800 48.94300 28.07000
H  31.37400 47.95900 29.04800
H  33.15000 48.60100 24.56100
H  32.76400 47.98600 26.26400
H  32.96700 49.72300 25.81700
H  26.31400 49.16700 22.67100
H  24.65100 51.56800 22.53600
H  27.77100 51.65500 22.44900
H  26.51400 51.79600 21.28100
H  27.70700 50.41900 21.14600
H  23.45000 49.09300 23.73000
H  24.18700 48.89900 22.07600
H  22.40000 49.75100 21.08000
H  22.57400 51.21800 22.00000
H  21.54000 49.91000 22.66000
H  21.21200 52.92400 25.36100
H  21.33400 54.33900 26.51000
H  20.21100 53.08100 26.87800
H  22.47100 51.01200 31.22200
H  23.28700 54.59700 33.90100
H  23.95700 53.05100 34.44200
H  22.26300 53.46400 34.85900

