158

Mg 41.32000 8.94900 29.96800
C  43.19300 10.12400 32.64800
C  38.88100 8.00800 32.32700
C  39.39500 7.77400 27.41900
C  43.90900 9.37500 27.81400
N  41.05100 9.07300 32.23600
C  41.93800 9.65600 33.07800
C  41.35100 9.64500 34.49300
C  40.20400 8.68400 34.38700
C  39.95700 8.69000 32.85500
C  40.42300 7.25800 35.05000
C  40.92300 11.06900 35.01100
C  40.41800 11.19800 36.48700
H  41.33600 11.76600 37.62100
N  39.39900 8.07500 29.94200
C  38.58200 7.74800 30.99200
C  37.36800 7.16400 30.50600
C  37.51900 7.05500 29.08200
C  38.76400 7.76100 28.74900
C  36.30500 6.64400 31.51400
C  36.53800 6.62900 28.16100
O  36.58600 6.85500 26.96000
C  35.28500 5.90100 28.68000
N  41.56000 8.51000 27.87100
C  40.65800 8.10200 27.01800
C  41.35800 7.81000 25.61700
C  42.73300 8.53400 25.81600
C  42.76200 8.74400 27.29000
C  41.52600 6.28100 25.15900
C  42.96300 9.75200 24.88700
C  42.31700 11.15900 25.23400
N  43.16700 9.68200 30.09100
C  44.10800 9.88500 29.11200
C  45.28200 10.62600 29.72100
C  44.97400 10.72600 31.09000
C  43.67900 10.11000 31.27600
C  46.47200 11.01200 28.97000
C  45.40800 11.18700 32.36300
O  46.42500 11.85500 32.59000
C  44.36600 10.91800 33.41900
C  44.95400 10.20900 34.57200
O  45.29700 9.04400 34.63300
O  44.96700 11.08200 35.65800
C  45.31600 10.60700 36.98200
H  38.27000 7.65100 33.15900
H  38.82400 7.39700 26.56700
H  44.69600 9.63600 27.10400
H  42.22700 9.36200 35.07700
H  39.33700 9.19500 34.80700
H  39.72200 7.26000 35.88500
H  41.41600 7.12900 35.48100
H  40.19600 6.46600 34.33600
H  40.19900 11.54200 34.34900
H  41.85000 11.63400 35.10400
H  40.04100 10.25300 36.88000
H  39.64400 11.94500 36.31000
H  35.32100 7.05100 31.28100
H  36.42600 6.83900 32.58000
H  36.31700 5.56300 31.37200
H  35.58700 5.07000 29.31800
H  34.63000 5.59100 27.86500
H  34.76600 6.64900 29.27800
H  40.80600 8.34300 24.84200
H  43.53900 7.81100 25.68600
H  40.99600 5.64200 25.86600
H  42.53700 5.87400 25.14400
H  41.11700 6.24700 24.15000
H  42.60800 9.39400 23.92100
H  44.05100 9.68700 24.85900
H  41.99600 11.22700 26.27300
H  41.59000 11.57600 24.53700
H  43.09700 11.92000 25.27200
H  46.89000 11.98700 29.22100
H  46.13000 11.02300 27.93500
H  47.27600 10.31200 29.19600
H  43.95200 11.86100 33.77500
H  44.79300 11.17400 37.75200
H  46.40600 10.63600 36.99800
H  45.02400 9.55900 37.05900
Mg 5.32600 54.12900 41.38000
C  5.00800 50.69900 40.88500
C  8.73400 53.79500 40.41000
C  5.76900 57.39400 41.54600
C  2.00600 54.22700 42.07000
N  6.61400 52.55200 40.48800
C  6.18900 51.25100 40.40100
C  7.38800 50.38100 39.90500
C  8.58800 51.32200 40.18400
C  7.92500 52.62600 40.37500
C  9.61200 50.91200 41.32500
C  7.27800 49.84600 38.45300
C  6.52000 50.84500 37.41700
H  5.83600 50.20000 36.16500
N  7.03100 55.43300 41.01800
C  8.30100 55.13800 40.65100
C  9.07800 56.35500 40.64000
C  8.29400 57.45300 41.04900
C  6.97000 56.77900 41.28100
C  10.54900 56.41500 40.25400
C  8.70600 58.94200 41.15200
O  9.78800 59.36200 40.68400
C  7.77300 59.97000 41.79700
N  4.07200 55.67100 41.71500
C  4.48300 56.90300 41.87000
C  3.20600 57.84700 41.96600
C  2.07900 56.82000 42.12800
C  2.76000 55.48000 41.90800
C  3.23000 58.82500 43.08600
C  0.96500 56.94700 41.16100
C  0.45200 58.32900 40.70400
N  3.79000 52.76300 41.52800
C  2.51500 52.91300 41.94500
C  1.89600 51.60400 42.01900
C  2.85700 50.73600 41.65300
C  3.94200 51.44600 41.36600
C  0.42800 51.35800 42.51500
C  3.08900 49.29100 41.54300
O  2.34700 48.30000 41.67800
C  4.57500 49.25800 41.04500
C  4.44900 48.55000 39.79000
O  4.09100 49.07500 38.74400
O  4.72000 47.24400 39.95400
C  4.65500 46.33200 38.77400
H  9.82000 53.68400 40.36700
H  5.71300 58.48400 41.50500
H  0.93200 54.36700 42.20600
H  7.46400 49.53400 40.58700
H  9.14800 51.49700 39.26600
H  9.51600 49.84600 41.53300
H  9.45100 51.47100 42.24700
H  10.62500 51.16300 41.00900
H  6.76200 48.88600 38.42000
H  8.29500 49.87000 38.06200
H  7.21900 51.58500 37.02900
H  5.71000 51.36100 37.93300
H  10.65000 56.82000 39.24700
H  10.96300 55.41000 40.16700
H  11.19600 56.99200 40.91400
H  8.39200 60.82100 42.08000
H  7.49200 59.48000 42.72900
H  6.94000 60.10400 41.10700
H  3.14100 58.38300 41.01900
H  1.62000 56.83800 43.11600
H  3.14100 59.80000 42.60800
H  4.21200 58.79800 43.55900
H  2.47600 58.72400 43.86700
H  0.14900 56.47100 41.70500
H  1.23500 56.34900 40.29100
H  0.85800 58.46000 39.70100
H  0.83600 59.11700 41.35100
H  -0.63700 58.28700 40.70600
H  0.49800 51.66200 43.55900
H  0.20100 50.31900 42.27500
H  -0.16000 52.09400 41.96500
H  5.19500 48.68600 41.73600
H  5.04900 46.71500 37.83300
H  3.66600 45.93100 38.55400
H  5.42200 45.56500 38.88500

