158

Mg 42.27100 41.72700 26.34500
C  40.96300 43.93000 28.64900
C  42.90700 39.48100 28.80000
C  43.51400 39.73800 23.99500
C  41.69100 44.24100 23.92300
N  42.08300 41.76300 28.53900
C  41.36000 42.71700 29.23700
C  41.31500 42.37500 30.76400
C  42.02200 40.99000 30.73400
C  42.37300 40.68700 29.27400
C  43.26600 40.77000 31.60100
C  39.90700 42.39400 31.38600
C  39.58000 41.66000 32.63100
H  39.30200 42.50000 33.88500
N  42.92000 39.85400 26.38100
C  43.10200 39.00800 27.44600
C  43.46700 37.67700 27.05800
C  43.60700 37.74100 25.63900
C  43.40800 39.20800 25.29400
C  43.50500 36.45600 27.98100
C  43.70200 36.68400 24.62300
O  43.94900 36.79900 23.43900
C  43.61500 35.22800 25.11200
N  42.48200 41.93800 24.21500
C  43.24200 41.03500 23.51500
C  43.56500 41.52900 22.14300
C  42.68300 42.81500 21.99000
C  42.24500 43.04100 23.46100
C  45.13200 41.67900 21.94200
C  41.51900 42.77200 21.01000
C  40.07300 43.03400 21.42900
N  41.55100 43.62600 26.24800
C  41.36100 44.54100 25.20500
C  40.72900 45.78200 25.64600
C  40.64600 45.59500 27.05300
C  41.08200 44.27800 27.33600
C  40.29700 46.96100 24.88800
C  40.20900 46.22800 28.28700
O  39.74900 47.36200 28.47200
C  40.46700 45.16400 29.37200
C  41.50100 45.74600 30.30500
O  42.68100 45.75400 30.18100
O  40.93600 46.17600 31.47700
C  41.76100 46.50500 32.64600
H  43.29200 38.79100 29.55400
H  44.01300 39.28200 23.13800
H  41.56300 45.03300 23.18200
H  42.03000 43.03200 31.26000
H  41.22600 40.29100 30.99000
H  44.11600 40.75700 30.91900
H  43.16700 39.86800 32.20500
H  43.40100 41.62200 32.26800
H  39.13500 42.09700 30.67600
H  39.66800 43.45400 31.48200
H  40.48400 41.09500 32.85500
H  38.80300 40.91100 32.48000
H  44.45100 36.01500 27.66600
H  42.66000 35.80700 27.75000
H  43.54100 36.72100 29.03800
H  43.54000 34.63700 24.19900
H  42.63700 35.10700 25.57900
H  44.55500 34.94600 25.58500
H  43.18900 40.83500 21.39100
H  43.27800 43.71100 21.81100
H  45.67600 41.42000 22.85100
H  45.31300 42.74500 21.80200
H  45.54500 41.10400 21.11300
H  41.58200 41.84200 20.44500
H  41.75100 43.50700 20.23800
H  39.43900 42.57400 20.67200
H  39.88200 44.08600 21.21800
H  39.74800 42.78100 22.43900
H  39.77900 46.57600 24.00900
H  41.04000 47.72600 24.66400
H  39.72900 47.59600 25.56800
H  39.52700 45.04800 29.91300
H  41.57500 47.50000 33.04900
H  42.81500 46.57100 32.37600
H  41.59300 45.70300 33.36500
Mg -6.49900 25.91100 24.63700
C  -4.68900 27.18900 27.42100
C  -8.26100 24.03600 26.83200
C  -7.76900 24.34400 21.99900
C  -4.36800 27.77000 22.65600
N  -6.40300 25.60500 26.84000
C  -5.60600 26.24800 27.79100
C  -6.03700 25.78300 29.20200
C  -7.01200 24.58700 28.91000
C  -7.30200 24.81200 27.45900
C  -6.42600 23.15200 29.24000
C  -6.70300 26.86300 30.10000
C  -6.13900 26.74000 31.54800
H  -6.07300 25.39300 32.27900
N  -7.76100 24.35000 24.46000
C  -8.52800 23.82100 25.45200
C  -9.64100 23.03100 24.86400
C  -9.43900 23.06200 23.47500
C  -8.26700 23.96000 23.30100
C  -10.63200 22.17600 25.78200
C  -10.20400 22.42700 22.40600
O  -9.96300 22.50700 21.17300
C  -11.40200 21.72300 22.87600
N  -6.27800 26.16700 22.57100
C  -6.79200 25.26900 21.61000
C  -6.24400 25.53200 20.20600
C  -5.24400 26.77300 20.44600
C  -5.30800 26.96100 22.04100
C  -5.61800 24.30600 19.50600
C  -5.64600 28.08500 19.70700
C  -4.53700 28.73500 18.99200
N  -4.87500 27.23800 24.86800
C  -4.15300 27.96600 24.00300
C  -3.19000 28.67900 24.67100
C  -3.34500 28.45000 26.04900
C  -4.40700 27.54200 26.14100
C  -2.24300 29.65400 24.06500
C  -2.85900 28.76300 27.39900
O  -1.90500 29.48600 27.75200
C  -3.76700 27.93400 28.37800
C  -2.85600 27.13400 29.25500
O  -2.38100 26.01500 28.99500
O  -2.71400 27.76200 30.40900
C  -1.87800 27.10700 31.44900
H  -8.95300 23.57000 27.53700
H  -8.26300 23.88200 21.14200
H  -3.73400 28.35400 21.98500
H  -5.14300 25.41900 29.71000
H  -7.89600 24.65600 29.54500
H  -6.25500 22.60700 28.31100
H  -6.86500 22.71100 30.13500
H  -5.39300 23.36000 29.51700
H  -7.77200 26.73700 30.27300
H  -6.35700 27.82200 29.71600
H  -6.97300 27.19000 32.08800
H  -5.19900 27.26700 31.71000
H  -11.62400 22.61400 25.67200
H  -10.44600 22.26000 26.85300
H  -10.58800 21.11400 25.54100
H  -11.15400 20.82600 23.44300
H  -11.96200 21.38900 22.00300
H  -11.90300 22.56900 23.34700
H  -7.07700 25.95200 19.64100
H  -4.21400 26.47700 20.24500
H  -4.57400 24.53700 19.29500
H  -6.24700 24.03600 18.65700
H  -5.55500 23.47900 20.21200
H  -6.20700 28.71100 20.40200
H  -6.44900 27.92100 18.98800
H  -4.47600 29.75700 19.36700
H  -4.74000 28.72200 17.92100
H  -3.59100 28.21800 19.14900
H  -2.37900 29.62400 22.98400
H  -1.23000 29.42600 24.39700
H  -2.62300 30.60100 24.44900
H  -4.31200 28.53300 29.10800
H  -0.85800 27.46300 31.29900
H  -1.99900 26.02400 31.47800
H  -2.15100 27.35600 32.47500

