158

Mg 53.80600 24.10100 44.47800
C  51.23800 26.26900 43.45100
C  51.79900 21.63000 43.34400
C  56.43100 22.15100 44.82100
C  55.66900 26.87400 45.47100
N  51.86500 24.01100 43.30200
C  51.02000 25.03300 43.00300
C  49.88900 24.49700 42.12200
C  49.71900 23.09600 42.76600
C  51.16800 22.89700 43.24700
C  48.65000 22.99000 43.88800
C  50.09900 24.63800 40.61400
C  48.97500 25.13000 39.70000
H  49.59200 25.80600 38.46100
N  54.08000 22.10300 44.17400
C  53.11700 21.24300 43.72500
C  53.69700 19.92300 43.69100
C  54.99200 20.00800 44.28200
C  55.23700 21.47700 44.45500
C  52.97400 18.68300 43.17300
C  55.87000 18.80400 44.68700
O  55.54200 17.65300 44.52300
C  57.24900 18.98900 45.38000
N  55.80600 24.48300 44.79900
C  56.66300 23.48000 45.01900
C  58.03700 24.00600 45.34000
C  57.87400 25.55500 45.29000
C  56.37200 25.64200 45.23100
C  58.65300 23.60100 46.70100
C  58.48300 26.27000 44.04800
C  59.06400 27.69200 44.21500
N  53.54400 26.17600 44.57200
C  54.31500 27.16500 45.09400
C  53.61900 28.47500 45.08900
C  52.39000 28.12900 44.48900
C  52.38900 26.76200 44.11300
C  54.02800 29.73400 45.67900
C  51.03500 28.59500 44.06500
O  50.56300 29.72800 44.13300
C  50.26400 27.41400 43.51800
C  49.79700 27.78700 42.13200
O  50.54700 27.89600 41.19100
O  48.50000 28.15300 42.17700
C  47.87000 28.72400 40.99900
H  51.08100 20.82200 43.18900
H  57.32300 21.54400 44.98700
H  56.31000 27.62600 45.93600
H  48.99900 25.07500 42.36800
H  49.44200 22.28000 42.09800
H  47.80900 23.56600 43.50000
H  49.04900 23.48000 44.77600
H  48.40600 21.94300 44.06700
H  50.45100 23.65800 40.29400
H  51.02200 25.16600 40.37400
H  48.36700 25.91500 40.15000
H  48.37200 24.29800 39.33700
H  52.17700 18.90400 42.46300
H  52.51300 18.22800 44.05000
H  53.55600 17.85800 42.76200
H  57.07500 19.73100 46.16000
H  57.98500 19.34300 44.65800
H  57.65000 18.09800 45.86300
H  58.72500 23.56500 44.61900
H  58.38500 25.91100 46.18500
H  59.14300 22.62900 46.63300
H  57.90900 23.37700 47.46500
H  59.37700 24.28900 47.13700
H  57.73100 26.21100 43.26100
H  59.27000 25.55900 43.80000
H  60.15300 27.73000 44.25700
H  58.65600 28.27900 45.03700
H  58.73900 28.39400 43.44700
H  54.89300 30.19800 45.20600
H  54.21900 29.47300 46.72000
H  53.19000 30.42600 45.58600
H  49.39700 27.20500 44.14400
H  48.03900 28.24900 40.03300
H  48.28600 29.72700 41.09400
H  46.81300 28.95800 41.12400
Mg 26.50400 50.93600 26.76100
C  24.21400 51.85100 29.42300
C  28.70400 50.10500 29.06500
C  28.74800 50.38600 24.13200
C  24.37500 52.34800 24.63800
N  26.53800 51.21000 29.04600
C  25.48300 51.39300 29.90400
C  25.90900 51.33700 31.36700
C  27.48300 51.03400 31.25900
C  27.58800 50.72200 29.72400
C  28.49000 52.13200 31.69100
C  25.11300 50.13200 32.11700
C  24.62400 50.31700 33.61900
H  25.58700 50.53800 34.83400
N  28.47500 50.27300 26.62700
C  29.25900 49.95500 27.71900
C  30.57300 49.50100 27.25500
C  30.52600 49.64500 25.88300
C  29.22400 50.14200 25.46000
C  31.60800 49.02700 28.27500
C  31.66300 49.26100 24.92800
O  31.55400 49.46900 23.73700
C  32.97500 48.67700 25.51400
N  26.60500 51.25100 24.69300
C  27.49700 50.91500 23.83400
C  27.06800 51.20500 22.38400
C  25.62600 51.63400 22.53400
C  25.57600 51.81400 24.05900
C  28.03000 52.23000 21.57500
C  24.47900 50.68600 22.18100
C  23.29800 51.31400 21.50200
N  24.74400 51.90000 26.92200
C  24.00500 52.48700 25.93600
C  22.73500 53.00300 26.38200
C  22.84200 52.80300 27.78100
C  24.03500 52.09300 28.08500
C  21.61800 53.41700 25.52600
C  22.12100 52.91000 29.01800
O  20.99000 53.26900 29.23300
C  22.93200 52.21900 30.03800
C  23.13900 53.16600 31.13000
O  23.74900 54.20700 30.99000
O  22.37100 52.89100 32.27400
C  22.44600 53.84300 33.40700
H  29.37200 49.83200 29.88500
H  29.44600 50.20100 23.31300
H  23.64900 52.73100 23.91800
H  25.65400 52.25100 31.90300
H  27.72900 50.09800 31.76100
H  28.00200 52.66500 32.50700
H  28.78400 52.79900 30.88100
H  29.28600 51.46200 32.01600
H  25.71400 49.22300 32.15300
H  24.27400 49.86200 31.47600
H  24.12800 49.38100 33.87700
H  23.86700 51.08900 33.75700
H  32.62200 49.39000 28.10600
H  31.75100 47.94800 28.22900
H  31.26500 49.26800 29.28100
H  33.71000 48.48600 24.73200
H  32.76800 47.66800 25.86900
H  33.34400 49.39900 26.24200
H  27.05500 50.20100 21.96100
H  25.45800 52.48700 21.87600
H  28.93900 52.58500 22.06100
H  27.48700 53.11400 21.24100
H  28.39700 51.69300 20.70000
H  24.11300 50.12400 23.04000
H  24.85100 49.92000 21.50000
H  23.07300 50.67800 20.64600
H  23.41800 52.37600 21.29000
H  22.38700 51.26500 22.09700
H  20.82700 53.83900 26.14600
H  21.28900 52.57500 24.91600
H  21.97300 54.24300 24.91000
H  22.39500 51.34600 30.40900
H  23.42200 53.73500 33.88000
H  21.63000 53.69300 34.11500
H  22.30600 54.87700 33.09300

