158

Mg -2.54000 17.50600 27.27500
C  -2.87600 15.04300 29.84200
C  -3.42800 19.88900 29.48600
C  -2.38000 19.73300 24.76800
C  -2.36600 14.92500 24.96700
N  -2.93800 17.48100 29.40200
C  -2.91800 16.40900 30.27500
C  -3.05800 16.83200 31.78300
C  -3.48100 18.35700 31.53400
C  -3.33700 18.58500 30.01800
C  -4.96400 18.85200 32.00500
C  -1.84200 16.49700 32.70500
C  -1.37700 17.48600 33.79100
H  -1.11200 16.81500 35.15200
N  -2.79200 19.59100 27.18500
C  -3.15100 20.36100 28.18800
C  -3.01600 21.74500 27.71300
C  -2.47900 21.69500 26.43800
C  -2.56400 20.30400 26.07200
C  -3.32900 22.95500 28.71500
C  -2.03400 22.81000 25.41400
O  -1.63300 22.58000 24.30100
C  -1.97200 24.19100 25.96200
N  -2.54600 17.30800 25.19200
C  -2.45700 18.40100 24.39900
C  -2.26100 18.00300 22.88800
C  -1.95100 16.48700 22.97200
C  -2.26100 16.21500 24.44600
C  -3.53200 18.42300 22.06800
C  -0.49400 16.12000 22.65600
C  0.65300 16.70200 23.45300
N  -2.63200 15.44900 27.26300
C  -2.62000 14.52400 26.23600
C  -2.78100 13.18000 26.78100
C  -2.85300 13.34600 28.16200
C  -2.79400 14.75800 28.41100
C  -2.71400 11.85000 26.10800
C  -2.91500 12.59300 29.40400
O  -2.87400 11.40400 29.69500
C  -3.01100 13.72000 30.53400
C  -2.05600 13.46900 31.55300
O  -0.86100 13.85300 31.52100
O  -2.61700 12.70600 32.49500
C  -1.70200 12.21100 33.54800
H  -3.73700 20.62400 30.23300
H  -2.25900 20.39200 23.90500
H  -2.19900 14.13700 24.23000
H  -3.99400 16.52500 32.24800
H  -2.69700 19.00500 31.92500
H  -4.61100 19.60400 32.71200
H  -5.52700 18.15800 32.63000
H  -5.56800 19.24900 31.18900
H  -0.93900 16.31200 32.12400
H  -2.03100 15.59500 33.28800
H  -2.17000 18.23000 33.85600
H  -0.43400 17.94800 33.49700
H  -3.96000 22.59000 29.52500
H  -3.88300 23.72300 28.17500
H  -2.46700 23.43300 29.18000
H  -1.01200 24.35500 26.45100
H  -2.80500 24.46200 26.61200
H  -1.91100 24.90800 25.14400
H  -1.37800 18.52500 22.51900
H  -2.64800 16.01400 22.28000
H  -3.48800 19.45100 21.70600
H  -4.42100 18.45400 22.69700
H  -3.74800 17.75200 21.23700
H  -0.39700 16.07100 21.57100
H  -0.46600 15.07600 22.96700
H  1.19400 15.87500 23.91200
H  0.24400 17.40900 24.17400
H  1.31400 17.23600 22.77000
H  -2.31800 11.83700 25.09200
H  -3.67800 11.34100 26.08100
H  -1.95500 11.27600 26.64000
H  -4.03200 13.59000 30.89400
H  -0.85700 11.62700 33.18200
H  -2.24300 11.60100 34.27100
H  -1.20800 12.97400 34.15100
Mg 25.55000 1.99900 29.18800
C  27.43500 1.55700 32.17400
C  22.82400 2.57600 31.08500
C  23.87200 2.24300 26.32200
C  28.41900 0.86000 27.39000
N  25.19900 2.00600 31.39500
C  26.10700 2.01500 32.35900
C  25.46800 2.32000 33.75500
C  23.96900 2.46200 33.40700
C  23.98100 2.34000 31.87400
C  23.10800 1.41200 34.15900
C  26.23300 3.51000 34.44100
C  26.48600 3.14500 35.92900
H  26.28700 4.13500 37.05600
N  23.64100 2.28000 28.74900
C  22.60000 2.51900 29.67200
C  21.33100 2.59400 29.05500
C  21.61500 2.40600 27.65500
C  23.08300 2.28300 27.53700
C  20.07400 2.52200 29.88900
C  20.62400 2.39100 26.48600
O  20.93300 2.31300 25.31500
C  19.21000 2.37900 26.81400
N  26.05600 1.73400 27.14500
C  25.21300 2.00300 26.15300
C  25.96900 2.28200 24.78400
C  27.34900 1.72100 25.20100
C  27.32600 1.42100 26.67000
C  25.37800 1.60800 23.54500
C  28.64600 2.57700 24.83200
C  28.75700 4.05100 25.40300
N  27.47700 1.16400 29.63400
C  28.50700 0.79100 28.80700
C  29.69200 0.63700 29.53400
C  29.29700 0.87800 30.86900
C  27.98300 1.23200 30.90400
C  31.07400 0.21000 28.97800
C  29.73800 0.90900 32.32200
O  30.82600 0.64300 32.78800
C  28.53900 1.30100 33.16800
C  28.25100 0.22300 34.14800
O  27.76300 -0.80700 33.78100
O  28.55100 0.45700 35.48600
C  28.28200 -0.64600 36.39800
H  21.95900 2.94400 31.64100
H  23.27100 2.22200 25.41000
H  29.30000 0.50500 26.85100
H  25.68600 1.39100 34.28100
H  23.64800 3.44100 33.76200
H  22.74500 0.66400 33.45400
H  22.23700 1.76300 34.71200
H  23.71300 0.93800 34.93300
H  25.49000 4.30600 34.40800
H  27.20300 3.84000 34.07000
H  27.50900 2.77300 35.88700
H  26.05300 2.17800 36.18700
H  20.02900 1.53400 30.34600
H  19.12800 2.69400 29.37600
H  20.09800 3.26200 30.69000
H  19.02600 3.38200 27.19700
H  18.94100 1.58200 27.50700
H  18.65000 2.26000 25.88600
H  25.91200 3.36500 24.67800
H  27.38400 0.69000 24.85000
H  24.83600 0.69000 23.76900
H  26.17400 1.43300 22.82100
H  24.63200 2.25900 23.08900
H  28.62500 2.66200 23.74600
H  29.56100 2.03400 25.06900
H  27.91600 4.28400 26.05500
H  28.89700 4.81000 24.63300
H  29.65500 4.03900 26.02100
H  31.81400 0.22900 29.77800
H  31.45400 0.83900 28.17200
H  30.99000 -0.80100 28.57900
H  28.96800 2.20700 33.59600
H  29.02500 -1.38200 36.09200
H  27.25200 -1.00200 36.37300
H  28.59600 -0.42700 37.41900

