158

Mg 1.47700 -1.89400 42.58600
C  5.02000 -1.75000 42.10100
C  1.30500 1.20700 40.93800
C  -1.71400 -2.57600 41.91200
C  1.89100 -5.17200 43.83400
N  2.99000 -0.45900 41.60600
C  4.37800 -0.64300 41.61200
C  5.07900 0.58100 40.83500
C  3.85700 1.59600 40.60400
C  2.65100 0.78500 41.10200
C  4.09000 2.90800 41.42400
C  5.78300 0.16500 39.45200
C  6.55800 1.31300 38.78200
H  6.25500 1.65600 37.29800
N  -0.01500 -0.82300 41.71200
C  0.11100 0.44200 41.11700
C  -1.23600 0.90600 40.80000
C  -2.07900 -0.24100 40.95900
C  -1.28200 -1.30600 41.50800
C  -1.59900 2.27100 40.30200
C  -3.59400 -0.29900 40.62700
O  -4.08200 0.76200 40.30300
C  -4.53500 -1.49800 40.74100
N  0.32300 -3.66600 42.75800
C  -0.98800 -3.63800 42.49300
C  -1.59900 -5.01300 42.84700
C  -0.51200 -5.86400 43.57400
C  0.67400 -4.86200 43.33700
C  -2.94000 -5.07200 43.62000
C  -0.39400 -7.35000 43.05800
C  -0.91800 -8.50700 43.94700
N  3.13700 -3.09000 43.14400
C  3.12400 -4.42200 43.56100
C  4.50900 -4.82300 43.68000
C  5.26000 -3.72800 43.22600
C  4.38400 -2.80200 42.80100
C  4.99300 -6.17700 44.14200
C  6.65700 -3.27800 42.98400
O  7.73600 -3.76700 43.27000
C  6.52300 -2.03700 42.13400
C  7.30900 -0.93100 42.61000
O  8.05300 -0.31800 41.85200
O  7.06000 -0.57100 43.89600
C  7.67000 0.67700 44.35500
H  1.22200 2.20600 40.50600
H  -2.76000 -2.84000 41.74100
H  1.97900 -6.14500 44.32300
H  5.81900 1.03900 41.49200
H  3.78600 1.67500 39.51900
H  3.14200 3.42500 41.57600
H  4.66900 3.66200 40.89200
H  4.59200 2.58600 42.33600
H  5.05200 -0.25500 38.76100
H  6.45300 -0.65200 39.71600
H  7.63700 1.21700 38.90400
H  6.23500 2.15400 39.39600
H  -1.00900 3.05000 40.78500
H  -2.60500 2.65800 40.46000
H  -1.47000 2.27300 39.22000
H  -5.50600 -1.19500 40.35000
H  -4.67700 -1.87200 41.75400
H  -4.20300 -2.27000 40.04600
H  -1.89600 -5.55800 41.95100
H  -0.79700 -5.79200 44.62400
H  -3.32500 -4.07400 43.83400
H  -2.85400 -5.68800 44.51600
H  -3.59600 -5.63300 42.95600
H  0.65500 -7.45600 42.78400
H  -0.99000 -7.47000 42.15400
H  -1.51300 -8.01400 44.71500
H  -0.04900 -8.96700 44.41800
H  -1.44800 -9.22600 43.32200
H  5.26100 -6.77000 43.26800
H  4.12000 -6.64000 44.60300
H  5.80000 -6.01300 44.85500
H  7.04700 -2.28400 41.21100
H  7.22200 1.58000 43.93700
H  8.74600 0.65400 44.18500
H  7.52100 0.70700 45.43400
Mg -1.02700 35.21100 27.48700
C  -2.53900 33.40300 29.81000
C  0.19300 37.39600 29.70000
C  -0.02000 37.23200 24.79700
C  -2.60600 33.17100 24.99600
N  -1.23300 35.35000 29.45500
C  -1.82000 34.48800 30.31000
C  -1.56200 34.85600 31.76200
C  -0.89000 36.25200 31.70400
C  -0.54400 36.30300 30.15800
C  -1.68000 37.48300 32.16400
C  -0.68300 33.84300 32.56500
C  -1.24100 33.36900 33.95100
H  -0.29700 33.30700 35.17700
N  0.08000 36.93600 27.24500
C  0.46500 37.69500 28.33800
C  1.24300 38.86900 27.88400
C  1.18900 38.80800 26.43900
C  0.33000 37.66100 26.11000
C  2.04400 39.73200 28.78900
C  1.81400 39.66000 25.43500
O  1.81700 39.35100 24.24600
C  2.67500 40.77400 25.81500
N  -1.25200 35.08200 25.29300
C  -0.62800 36.03900 24.44100
C  -0.93700 35.70800 22.91400
C  -1.47700 34.21400 23.06400
C  -1.83700 34.17500 24.52000
C  -2.00500 36.65100 22.29700
C  -0.42000 33.16100 22.68500
C  -0.87700 31.96200 21.88600
N  -2.25700 33.57500 27.35700
C  -2.87200 32.85800 26.33100
C  -3.76600 31.84600 26.84600
C  -3.57800 31.99800 28.20800
C  -2.78600 33.10800 28.45900
C  -4.61900 30.84600 26.19200
C  -3.97500 31.43200 29.46400
O  -4.67300 30.50700 29.72600
C  -3.29000 32.38500 30.60100
C  -4.48900 32.98400 31.31600
O  -5.07600 34.03000 31.00100
O  -4.81600 32.39900 32.48000
C  -6.05100 32.96300 33.02200
H  0.75000 37.99100 30.42700
H  0.36900 37.70800 23.89500
H  -3.14400 32.55000 24.27700
H  -2.53400 34.80200 32.25200
H  0.09300 36.17400 32.16800
H  -1.23200 38.47600 32.12200
H  -2.12000 37.37500 33.15500
H  -2.54300 37.54200 31.50000
H  0.27600 34.23300 32.90600
H  -0.41300 32.97800 31.95900
H  -1.65600 32.38300 33.74100
H  -2.09200 33.96400 34.28100
H  2.03300 39.32500 29.80000
H  1.51200 40.68000 28.71500
H  3.07200 39.94000 28.49500
H  3.50700 40.38300 26.40100
H  2.09600 41.48500 26.40400
H  2.97700 41.31000 24.91600
H  -0.09200 35.90600 22.25500
H  -2.37500 34.07100 22.46300
H  -2.68500 36.11700 21.63300
H  -1.54200 37.39600 21.65100
H  -2.53000 37.11300 23.13300
H  -0.05800 32.74800 23.62700
H  0.37100 33.76700 22.24400
H  -0.09000 31.63300 21.20700
H  -1.83700 32.09500 21.38700
H  -1.06100 31.05500 22.46200
H  -4.32600 29.82000 26.41800
H  -4.57800 31.05400 25.12300
H  -5.63500 31.02100 26.54600
H  -2.70000 31.81300 31.31700
H  -6.73800 33.16300 32.20000
H  -5.90700 33.90800 33.54800
H  -6.44700 32.18000 33.66900

