158

Mg 25.13600 1.36700 29.38200
C  27.24200 1.22300 32.12500
C  22.44300 1.64900 31.61100
C  23.08500 0.69100 26.78800
C  27.95000 0.63500 27.30400
N  24.86900 1.58400 31.63000
C  25.92500 1.52500 32.51700
C  25.39000 1.69000 33.93000
C  23.87000 1.69400 33.83000
C  23.69600 1.60400 32.26700
C  23.14500 0.47200 34.55700
C  26.00600 2.87100 34.67900
C  26.59800 2.54300 36.11300
H  26.06400 3.51000 37.23000
N  23.08700 1.31100 29.23400
C  22.14000 1.42300 30.29600
C  20.81300 1.36600 29.66300
C  20.94600 1.08100 28.22500
C  22.42600 0.98100 28.01500
C  19.58900 1.63700 30.46400
C  19.85700 1.04600 27.11000
O  20.12400 0.75600 25.95100
C  18.43000 1.23700 27.38400
N  25.48700 0.67800 27.36100
C  24.43300 0.52200 26.52400
C  24.87400 0.39800 25.04800
C  26.45100 0.42200 25.18400
C  26.66900 0.66800 26.68800
C  24.39700 -0.98200 24.40300
C  27.12300 1.53700 24.37100
C  26.84800 3.05700 24.77700
N  27.15800 1.10100 29.61300
C  28.18000 0.81300 28.73400
C  29.42100 0.65500 29.38800
C  29.11400 0.80600 30.74200
C  27.73100 1.13300 30.84900
C  30.73200 0.20600 28.83700
C  29.68700 0.84300 32.08000
O  30.86400 0.78400 32.45200
C  28.41200 0.91200 33.00000
C  28.21900 -0.23700 33.85200
O  27.53600 -1.21100 33.62300
O  28.90800 0.00900 35.04800
C  28.81000 -1.02600 36.08500
H  21.63000 1.84700 32.31300
H  22.49900 0.46100 25.89500
H  28.80000 0.28600 26.71400
H  25.74400 0.79700 34.44400
H  23.49800 2.63400 34.23700
H  22.64500 0.85100 35.44800
H  23.88100 -0.23700 34.93600
H  22.43100 -0.03900 33.91100
H  25.37600 3.76100 34.68600
H  26.87500 3.11300 34.06700
H  27.65800 2.74200 35.96000
H  26.45700 1.47400 36.27500
H  19.69500 1.51100 31.54100
H  18.74900 0.97500 30.25300
H  19.24200 2.64800 30.24800
H  18.31300 2.23700 27.80000
H  18.26900 0.49800 28.16900
H  17.82400 1.00300 26.50800
H  24.45400 1.27700 24.56000
H  26.95400 -0.50600 24.91200
H  23.83800 -0.75600 23.49600
H  23.92200 -1.43700 25.27200
H  25.23400 -1.56400 24.01600
H  26.89500 1.35200 23.32200
H  28.19500 1.42200 24.53400
H  26.68400 3.65000 23.87800
H  27.71100 3.42000 25.33500
H  25.90300 3.18200 25.30600
H  30.57400 -0.22300 27.84700
H  31.14600 -0.53700 29.51800
H  31.38500 1.07200 28.73500
H  28.67700 1.70300 33.70100
H  28.97600 -1.97300 35.57200
H  27.82700 -0.85500 36.52300
H  29.64200 -0.80700 36.75400
Mg -1.84500 34.60100 27.51000
C  -3.56600 32.82600 29.75400
C  -0.68200 36.72200 29.87600
C  -0.67800 36.72500 25.01700
C  -3.41300 32.71900 24.86200
N  -2.31500 34.92400 29.49100
C  -2.83200 33.88000 30.28800
C  -2.80500 34.27700 31.79700
C  -2.03500 35.67100 31.72400
C  -1.65900 35.80900 30.26100
C  -3.01100 36.87200 32.25600
C  -2.08000 33.19600 32.61500
C  -2.79300 32.68000 33.92700
H  -1.87400 32.56400 35.16100
N  -0.71600 36.34000 27.49400
C  -0.23600 37.01200 28.57800
C  0.75400 38.02300 28.26500
C  0.69600 38.05800 26.81900
C  -0.28500 37.02400 26.37200
C  1.54800 38.89500 29.27300
C  1.40300 39.13400 25.95000
O  1.38400 39.08000 24.71300
C  2.26200 40.18500 26.60600
N  -2.24500 34.83100 25.29400
C  -1.54700 35.72900 24.52100
C  -1.69900 35.48600 23.09000
C  -2.34500 34.10500 23.04500
C  -2.71200 33.85600 24.45000
C  -2.43100 36.63000 22.27200
C  -1.66900 32.90900 22.35500
C  -0.38100 32.42300 22.95400
N  -3.22900 33.01700 27.31000
C  -3.66400 32.29400 26.18400
C  -4.59600 31.22300 26.63800
C  -4.48700 31.34400 28.07600
C  -3.69000 32.45700 28.36200
C  -5.39000 30.31400 25.84400
C  -4.84900 30.74600 29.37300
O  -5.54400 29.73000 29.64100
C  -4.19800 31.64000 30.47200
C  -5.24800 32.04500 31.47300
O  -5.87500 33.06800 31.44400
O  -5.55000 31.00400 32.31000
C  -6.29800 31.35600 33.53900
H  -0.17600 37.16400 30.73600
H  -0.26400 37.36700 24.23700
H  -3.84900 32.05400 24.11400
H  -3.81000 34.31200 32.21700
H  -1.09800 35.63000 32.28000
H  -3.62200 37.30300 31.46300
H  -2.44500 37.68100 32.71900
H  -3.61700 36.48200 33.07400
H  -1.08400 33.53000 32.90500
H  -1.84800 32.27600 32.07900
H  -3.21100 31.70800 33.66500
H  -3.65000 33.32700 34.11800
H  1.57300 38.50000 30.28900
H  1.13600 39.89400 29.41600
H  2.57000 38.98100 28.90500
H  1.83500 40.73100 27.44700
H  2.54600 40.87400 25.81000
H  3.18500 39.64700 26.82500
H  -0.69800 35.37300 22.67400
H  -3.34700 34.28500 22.65500
H  -3.45100 36.47200 21.92400
H  -1.89800 36.84100 21.34500
H  -2.32500 37.52900 22.88000
H  -1.57100 33.23200 21.31900
H  -2.41800 32.12100 22.27600
H  0.27300 32.56100 22.09200
H  -0.51100 31.38700 23.26800
H  -0.17200 32.96300 23.87700
H  -4.84900 29.44600 25.46700
H  -5.60500 30.73100 24.86100
H  -6.27500 30.18300 26.46700
H  -3.54100 31.09400 31.14900
H  -5.90900 32.20000 34.10900
H  -6.20700 30.43500 34.11400
H  -7.33000 31.67500 33.39200

