158

Mg -1.67300 17.83700 26.21800
C  -1.89100 15.32000 28.57300
C  -2.12900 20.19200 28.70900
C  -1.83000 20.16700 23.95000
C  -2.28600 15.37300 23.73400
N  -1.77400 17.71200 28.41600
C  -1.79500 16.58400 29.19900
C  -1.95900 16.90000 30.72400
C  -2.00700 18.48700 30.69700
C  -2.00900 18.83500 29.16700
C  -2.91800 19.31500 31.60800
C  -0.75100 16.36200 31.65900
C  -0.32000 17.13900 32.91500
H  -0.13900 16.37200 34.21200
N  -1.71400 19.95900 26.35500
C  -1.93800 20.69100 27.40000
C  -2.02400 22.08200 27.01800
C  -1.87700 22.13300 25.64200
C  -1.74300 20.75700 25.20500
C  -2.28800 23.29200 27.98000
C  -1.97800 23.32300 24.77600
O  -1.87600 23.22600 23.55600
C  -2.38000 24.66200 25.36200
N  -2.09300 17.75400 24.07900
C  -2.00500 18.89400 23.35300
C  -2.22600 18.66300 21.86900
C  -2.69300 17.11300 21.83800
C  -2.24800 16.70200 23.27100
C  -3.26800 19.55700 21.25700
C  -2.01600 16.27000 20.73000
C  -3.06400 15.70500 19.69000
N  -1.75000 15.75200 26.10500
C  -2.05700 14.88000 25.05400
C  -2.11100 13.54200 25.46800
C  -2.07600 13.66300 26.84200
C  -1.90400 15.00800 27.20100
C  -2.25100 12.28900 24.65200
C  -2.13700 12.88700 28.05800
O  -2.30600 11.70000 28.25000
C  -2.02400 13.95800 29.22800
C  -0.75200 13.69100 29.95300
O  0.32700 14.01800 29.56800
O  -1.00800 12.99500 31.11200
C  0.17700 12.78500 31.97600
H  -2.12900 21.02800 29.41100
H  -1.93300 20.91100 23.15800
H  -2.59500 14.74700 22.89400
H  -2.89600 16.55600 31.16000
H  -1.03900 18.87700 31.00900
H  -3.79800 19.55900 31.01100
H  -2.43900 20.19400 32.03900
H  -3.34300 18.69900 32.40000
H  0.08400 16.16900 30.98500
H  -1.13400 15.41900 32.04900
H  -1.00500 17.96300 33.11900
H  0.67100 17.53300 32.68900
H  -3.21000 23.76400 27.64000
H  -1.53400 24.07700 27.93600
H  -2.45400 22.92800 28.99400
H  -2.42200 25.36900 24.53400
H  -1.66200 25.03300 26.09300
H  -3.36500 24.43800 25.77200
H  -1.21200 18.78100 21.48800
H  -3.78100 17.17500 21.81900
H  -3.68600 19.03100 20.39900
H  -2.71800 20.44900 20.95600
H  -4.09000 19.90600 21.88200
H  -1.44200 15.47700 21.21000
H  -1.28700 16.85600 20.16900
H  -3.98900 16.23400 19.91800
H  -3.09800 14.63200 19.50100
H  -2.87900 16.09600 18.68900
H  -1.76100 12.45900 23.69400
H  -3.27900 11.92600 24.64200
H  -1.75200 11.53700 25.26400
H  -2.86000 13.76100 29.89900
H  0.63400 11.81600 31.77600
H  -0.18300 12.67700 32.99900
H  0.86000 13.63400 31.98000
Mg 40.37700 8.57200 28.93800
C  42.48200 9.80400 31.56100
C  38.38400 7.05200 31.40300
C  38.52900 7.44100 26.48800
C  42.83700 9.66000 26.57100
N  40.48500 8.42300 31.16400
C  41.35900 9.13500 32.01700
C  40.87600 9.02200 33.51800
C  39.75200 7.86200 33.40100
C  39.51200 7.71200 31.91600
C  39.96300 6.58000 34.16800
C  40.28200 10.42300 34.02500
C  41.07900 11.12100 35.15700
H  40.42300 11.94900 36.22600
N  38.71200 7.35900 28.91200
C  37.96900 6.85500 30.00000
C  36.82300 6.10000 29.51400
C  36.84100 6.20400 28.03500
C  38.04400 7.06700 27.76200
C  35.72500 5.48100 30.36300
C  35.97100 5.54700 27.01300
O  36.01000 5.76700 25.82300
C  34.95400 4.44700 27.34600
N  40.69100 8.48700 26.80900
C  39.71100 8.09300 26.02600
C  40.08400 8.30200 24.53100
C  41.37600 9.05000 24.60000
C  41.65900 9.08600 26.05300
C  40.09400 7.05900 23.59700
C  41.42500 10.37900 23.91900
C  40.76500 11.58500 24.53900
N  42.26300 9.54900 28.97900
C  43.12700 9.84800 27.96100
C  44.28300 10.49200 28.52000
C  44.00400 10.54500 29.92200
C  42.83100 9.92100 30.18200
C  45.59700 10.76300 27.92300
C  44.61000 10.84100 31.18600
O  45.72700 11.27700 31.39600
C  43.60000 10.49300 32.28800
C  44.30500 9.69000 33.31900
O  44.85300 8.60600 33.14000
O  44.34100 10.32000 34.55200
C  44.79100 9.38700 35.59100
H  37.72700 6.70300 32.20300
H  37.88800 7.09700 25.67400
H  43.63700 9.95200 25.88700
H  41.65800 8.73000 34.22000
H  38.82800 8.30800 33.76800
H  39.14700 6.30600 34.83600
H  40.85600 6.75000 34.76900
H  40.04000 5.66900 33.57400
H  39.25200 10.44500 34.37900
H  40.27900 11.05200 33.13400
H  41.77800 11.86000 34.76600
H  41.63900 10.28000 35.56600
H  34.76000 5.96800 30.21800
H  35.80300 5.64300 31.43800
H  35.76900 4.44600 30.02500
H  35.39400 3.73700 28.04600
H  34.78200 3.96600 26.38300
H  34.06700 4.86900 27.81700
H  39.26700 8.87700 24.09500
H  42.14400 8.41100 24.16400
H  40.72600 7.38800 22.77200
H  39.12600 6.79000 23.17400
H  40.53900 6.16600 24.03700
H  40.99100 10.23800 22.92900
H  42.48600 10.62700 23.89000
H  41.40500 12.45000 24.36600
H  40.42600 11.56200 25.57500
H  39.86200 11.83400 23.98100
H  46.41700 10.27500 28.45000
H  45.75600 11.84100 27.93200
H  45.80200 10.74400 26.85300
H  43.38000 11.48900 32.67100
H  44.11400 8.55000 35.76100
H  44.78400 10.00700 36.48800
H  45.75700 8.91500 35.41200

