158

Mg 47.46200 16.19200 29.11700
C  45.76500 16.01700 32.24400
C  49.89300 18.09200 30.58300
C  48.83700 16.79900 26.08800
C  44.57800 14.88500 27.61900
N  47.68500 17.09600 31.13500
C  46.98600 16.70500 32.27400
C  47.76700 17.08400 33.46400
C  48.87000 17.94100 32.99100
C  48.85700 17.66000 31.48700
C  48.84300 19.44600 33.31600
C  48.32000 15.77400 34.25200
C  48.38700 15.81500 35.86000
H  47.74200 17.00700 36.68100
N  49.17800 17.22500 28.43700
C  50.09500 17.89100 29.22500
C  51.11300 18.47000 28.43200
C  50.86600 18.05200 27.10900
C  49.56300 17.36400 27.14900
C  52.25900 19.27400 28.91200
C  51.71000 18.13700 25.91200
O  51.33700 17.72100 24.77800
C  53.12200 18.83600 25.98500
N  46.76100 15.91500 27.19200
C  47.59200 16.15600 26.06300
C  46.90000 15.69800 24.78400
C  45.62200 14.94400 25.30700
C  45.62500 15.32100 26.75700
C  46.57700 16.84100 23.73000
C  45.57800 13.40000 25.03100
C  44.86100 13.01500 23.71700
N  45.54100 15.50600 29.74400
C  44.44900 15.02500 29.00800
C  43.33700 14.65300 29.92300
C  43.90300 14.94500 31.19700
C  45.16200 15.48800 31.02000
C  42.04400 13.93000 29.59600
C  43.66200 14.72400 32.64500
O  42.67600 14.23900 33.27400
C  44.89700 15.50700 33.34600
C  44.22400 16.62800 34.00300
O  43.78700 17.61400 33.40500
O  44.06200 16.41300 35.38300
C  43.17100 17.33300 36.15800
H  50.78200 18.47600 31.08800
H  49.10500 16.90700 25.03500
H  43.77000 14.39800 27.06900
H  47.28300 17.74000 34.18800
H  49.87800 17.67900 33.30900
H  48.50000 19.49500 34.34900
H  48.17800 20.01200 32.66400
H  49.88200 19.77000 33.26000
H  49.30400 15.50100 33.87000
H  47.68300 14.92400 34.00900
H  49.44800 15.82300 36.11000
H  47.80400 14.96400 36.21200
H  53.17000 18.67700 28.95800
H  52.18300 19.51800 29.97200
H  52.28500 20.21100 28.35600
H  52.88500 19.89600 26.07600
H  53.59700 18.64500 25.02200
H  53.79600 18.39500 26.72000
H  47.50000 14.97300 24.23400
H  44.75900 15.36900 24.79400
H  45.52000 16.71800 23.49300
H  47.08200 16.75500 22.76800
H  46.75000 17.83300 24.14800
H  45.07000 12.83600 25.81300
H  46.61700 13.09700 24.89800
H  44.80000 13.95700 23.17300
H  43.86900 12.59400 23.88300
H  45.45100 12.41100 23.02700
H  41.77900 13.97200 28.53900
H  41.30300 14.54000 30.11300
H  42.05500 12.90300 29.96000
H  45.36200 14.93500 34.14900
H  43.10200 18.34600 35.76200
H  43.48200 17.37600 37.20200
H  42.11900 17.06400 36.25800
Mg 9.92400 46.89000 25.71100
C  7.18400 47.16200 28.13900
C  12.03100 48.12400 27.89400
C  12.14600 46.92700 23.17900
C  7.36700 46.42600 23.30700
N  9.64900 47.42500 27.86500
C  8.49000 47.41800 28.67200
C  8.89000 47.88800 30.10000
C  10.42600 48.29600 30.01000
C  10.71700 48.00500 28.51300
C  10.79900 49.77200 30.40500
C  8.60300 46.84900 31.33400
C  9.28400 46.88300 32.69500
H  8.38500 46.57600 33.88600
N  11.77300 47.32400 25.62700
C  12.52900 47.78600 26.64500
C  13.85300 47.83700 26.32600
C  13.97100 47.41800 24.95100
C  12.58300 47.26000 24.42700
C  15.00800 48.27200 27.20500
C  15.21000 47.13800 24.03800
O  15.07600 46.78600 22.87700
C  16.58500 47.15900 24.56400
N  9.75500 46.65500 23.52200
C  10.82200 46.69300 22.73900
C  10.48800 46.31800 21.24500
C  8.92100 46.22000 21.38800
C  8.65700 46.41200 22.84200
C  11.12400 47.26900 20.13900
C  8.38000 44.78200 20.83400
C  7.01800 44.91100 20.00000
N  7.71100 46.83100 25.72800
C  6.91800 46.58600 24.60900
C  5.54800 46.53900 25.08300
C  5.58800 46.78300 26.51400
C  6.92700 46.87000 26.79600
C  4.36700 46.44700 24.17700
C  4.77000 46.91700 27.72700
O  3.57300 46.75200 27.92100
C  5.78000 47.30300 28.75800
C  5.64600 46.34600 29.87300
O  5.88300 45.15300 29.80600
O  5.19500 47.00600 30.98900
C  4.72200 46.15800 32.07000
H  12.65200 48.47500 28.72100
H  12.90300 46.92500 22.39200
H  6.58400 46.46000 22.54700
H  8.30200 48.78900 30.27800
H  11.01200 47.56300 30.56500
H  9.90700 50.35900 30.62900
H  11.16900 50.33600 29.54800
H  11.41500 49.87300 31.29800
H  8.83000 45.85500 30.94800
H  7.52300 46.96100 31.43200
H  9.85900 47.78800 32.89400
H  9.95600 46.02600 32.73100
H  14.60500 48.77800 28.08100
H  15.53500 49.05500 26.65900
H  15.61400 47.49200 27.66800
H  16.55100 48.00200 25.25400
H  17.26300 47.41900 23.75100
H  16.87100 46.17700 24.94200
H  11.04700 45.38300 21.22100
H  8.53800 47.05500 20.80100
H  10.33000 47.94500 19.82300
H  11.38100 46.57400 19.33900
H  11.99100 47.81700 20.50900
H  8.23300 44.09200 21.66600
H  9.05400 44.31200 20.11800
H  6.94600 44.27100 19.12000
H  6.83900 45.92800 19.65200
H  6.25300 44.67900 20.74200
H  4.68600 45.89500 23.29300
H  3.88000 47.38100 23.89700
H  3.65700 45.86400 24.76400
H  5.67500 48.26600 29.25800
H  4.13800 46.78100 32.74800
H  5.43500 45.59100 32.66700
H  4.02700 45.48700 31.56500

