158

Mg 24.05000 -4.42100 45.14300
C  26.23000 -2.18100 43.58900
C  21.36800 -3.16700 43.18600
C  22.37700 -7.34100 45.51200
C  26.85500 -5.85600 46.69300
N  23.82600 -2.95300 43.62700
C  24.82000 -2.12000 43.17100
C  24.21200 -1.01000 42.25000
C  22.70700 -1.26900 42.30800
C  22.55200 -2.49800 43.22300
C  21.85000 -0.07200 42.82100
C  24.75800 -1.05600 40.83900
C  24.50000 0.19300 39.98800
H  23.99900 -0.16500 38.59500
N  22.03200 -5.04400 44.58000
C  21.13200 -4.37700 43.74900
C  19.99400 -5.25000 43.52100
C  20.25500 -6.48600 44.19300
C  21.60600 -6.33900 44.84200
C  18.85200 -4.71500 42.68500
C  19.29200 -7.57900 44.15400
O  18.23000 -7.54700 43.50800
C  19.63900 -8.90200 44.84300
N  24.55100 -6.25900 46.06500
C  23.63500 -7.26300 46.09100
C  24.27600 -8.55700 46.73900
C  25.74200 -8.00500 47.18600
C  25.73400 -6.61200 46.56800
C  23.41100 -9.27700 47.75700
C  26.96600 -8.87600 46.83300
C  27.58900 -9.60900 48.04600
N  26.09400 -3.98700 45.32700
C  27.13000 -4.58200 46.06000
C  28.29100 -3.67600 46.04300
C  27.97100 -2.78300 44.99600
C  26.66300 -3.04100 44.63000
C  29.54700 -3.68600 46.91600
C  28.49000 -1.65400 44.29200
O  29.56200 -1.07800 44.43000
C  27.46100 -1.34800 43.28800
C  27.19000 0.09200 43.32200
O  27.14400 0.81200 44.31400
O  27.13500 0.63200 42.08500
C  26.90800 2.06100 42.08400
H  20.53400 -2.75400 42.61500
H  21.85000 -8.24800 45.81400
H  27.60100 -6.34800 47.32200
H  24.38300 -0.02900 42.69300
H  22.46100 -1.61000 41.30300
H  21.38300 0.58200 42.08400
H  22.42900 0.47000 43.56800
H  21.07500 -0.33000 43.54300
H  24.37600 -1.98700 40.42000
H  25.84400 -1.06600 40.93000
H  25.36600 0.83900 39.84600
H  23.74800 0.80900 40.48200
H  18.68500 -3.64700 42.82600
H  17.96600 -5.16700 43.13000
H  18.97900 -4.93000 41.62400
H  19.48400 -8.70800 45.90500
H  20.68100 -9.17000 44.67400
H  18.92000 -9.69500 44.64200
H  24.39400 -9.30400 45.95400
H  25.61200 -7.99700 48.26800
H  22.82100 -8.59300 48.36700
H  24.10000 -9.76500 48.44600
H  22.83800 -9.98500 47.15800
H  27.67500 -8.37700 46.17200
H  26.45100 -9.68800 46.31900
H  27.28200 -9.10000 48.96000
H  28.66500 -9.58900 47.87800
H  27.32300 -10.66600 48.00800
H  29.61300 -3.08300 47.82200
H  30.28000 -3.32700 46.19500
H  29.66600 -4.73300 47.19700
H  27.75200 -1.61400 42.27100
H  27.76100 2.55200 42.55100
H  25.97000 2.38400 42.53600
H  26.98900 2.49500 41.08800
Mg 27.08700 49.05300 26.35900
C  24.79100 50.34100 28.90600
C  29.20800 48.02800 28.93500
C  29.13200 47.86900 24.12900
C  25.00900 50.45900 23.96300
N  26.97100 49.19200 28.66800
C  25.87700 49.66800 29.48700
C  26.19200 49.42600 30.99800
C  27.64700 48.83900 30.95100
C  27.98000 48.69600 29.45100
C  28.70800 49.69700 31.73200
C  25.16600 48.43900 31.67300
C  24.36200 49.04100 32.83400
H  24.19400 48.24700 34.11700
N  28.98500 48.20200 26.50400
C  29.68900 47.79500 27.62300
C  30.89000 47.09200 27.29600
C  30.84100 46.97000 25.84400
C  29.61300 47.67900 25.45600
C  31.87600 46.53300 28.29800
C  31.75000 46.34700 24.87000
O  31.60000 46.41300 23.62500
C  32.89700 45.65100 25.38200
N  27.13800 49.22200 24.27000
C  28.06700 48.55900 23.54600
C  27.65800 48.65700 21.98900
C  26.31500 49.39000 22.03900
C  26.08300 49.66300 23.51300
C  28.73000 49.37200 21.10600
C  25.19900 48.53600 21.38900
C  24.36400 47.51300 22.27000
N  25.27400 50.26600 26.36800
C  24.57100 50.72900 25.30200
C  23.38300 51.46700 25.79500
C  23.45500 51.41400 27.22100
C  24.56200 50.61100 27.52000
C  22.30000 52.04000 24.94900
C  22.74500 51.69700 28.46200
O  21.70300 52.27500 28.61500
C  23.66600 51.11100 29.63200
C  24.08200 52.21800 30.49200
O  24.78600 53.19800 30.16500
O  23.59500 52.01500 31.71400
C  24.06300 52.90900 32.78200
H  29.80600 47.63500 29.76000
H  29.64700 47.36500 23.30900
H  24.40800 50.88200 23.15500
H  26.12100 50.40600 31.46900
H  27.63500 47.85800 31.42600
H  28.22200 50.26400 32.52600
H  29.16000 50.42700 31.06200
H  29.51900 49.07800 32.11600
H  25.61300 47.49800 31.99300
H  24.50800 48.05300 30.89500
H  23.35600 49.12600 32.42200
H  24.63700 50.04700 33.15100
H  32.89000 46.79700 27.99700
H  31.92100 45.44500 28.33700
H  31.74600 46.85700 29.33100
H  33.59300 46.38200 25.79400
H  33.13300 44.95100 24.58000
H  32.58800 45.01900 26.21400
H  27.45100 47.62400 21.70800
H  26.34400 50.40000 21.62900
H  29.01100 48.71100 20.28500
H  29.66500 49.60600 21.61500
H  28.34100 50.29500 20.67700
H  25.57700 48.00400 20.51600
H  24.44300 49.09300 20.83500
H  23.33000 47.84700 22.34800
H  24.68200 47.29900 23.29000
H  24.42900 46.62300 21.64400
H  21.74900 51.39800 24.26200
H  22.77800 52.79800 24.32900
H  21.61100 52.34400 25.73700
H  23.04900 50.36000 30.12500
H  24.02900 53.93800 32.42300
H  25.11000 52.69200 32.99300
H  23.29500 52.84500 33.55200

