158

Mg 24.30300 -5.61100 45.67200
C  26.33800 -3.30800 44.06000
C  21.64000 -4.34700 43.73100
C  22.48200 -8.38900 46.25200
C  27.09700 -7.16500 46.98100
N  24.06600 -4.13300 43.84700
C  25.03000 -3.21200 43.59900
C  24.38900 -2.09500 42.68300
C  22.88000 -2.46000 42.64400
C  22.82200 -3.71900 43.49800
C  21.90100 -1.34400 43.13500
C  25.00900 -2.18400 41.24700
C  25.60200 -0.87300 40.63200
H  25.63400 -0.78100 39.06400
N  22.37000 -6.21700 45.15000
C  21.42300 -5.53800 44.44200
C  20.11800 -6.25400 44.47300
C  20.30900 -7.37500 45.34300
C  21.75600 -7.35100 45.65000
C  18.99400 -5.71700 43.64300
C  19.25800 -8.41400 45.67600
O  18.09500 -8.29800 45.24700
C  19.60700 -9.58800 46.50200
N  24.78700 -7.60700 46.29900
C  23.80600 -8.50100 46.61300
C  24.39800 -9.72700 47.28400
C  25.92200 -9.33800 47.38300
C  25.99200 -8.05400 46.78300
C  23.81300 -10.17200 48.65900
C  26.88000 -10.37800 46.83500
C  27.81100 -11.03400 47.84600
N  26.27800 -5.21100 45.79100
C  27.29000 -5.84900 46.48800
C  28.50100 -5.06200 46.43900
C  28.20200 -4.07400 45.48300
C  26.84700 -4.25300 45.04800
C  29.79000 -5.33000 47.10600
C  28.75300 -2.91300 44.80400
O  29.85600 -2.33200 44.84400
C  27.52800 -2.39200 43.84600
C  27.21700 -1.00300 44.24000
O  26.52200 -0.66100 45.13000
O  27.72200 -0.17300 43.18200
C  27.51000 1.27000 43.29200
H  20.77000 -3.91400 43.23300
H  21.96300 -9.32000 46.48600
H  27.93200 -7.64600 47.49500
H  24.56900 -1.09100 43.06700
H  22.51900 -2.65900 41.63500
H  21.50800 -0.81700 42.26600
H  22.53100 -0.62200 43.65500
H  21.14800 -1.69000 43.84300
H  24.61900 -2.73100 40.38800
H  25.93500 -2.73900 41.40000
H  26.62100 -0.85000 41.01700
H  25.13200 0.04400 40.98700
H  19.30800 -5.48100 42.62600
H  18.61600 -4.85700 44.19700
H  18.17500 -6.43500 43.65000
H  20.12100 -9.25800 47.40500
H  20.19800 -10.34800 45.99200
H  18.63400 -9.97100 46.81000
H  24.26900 -10.49900 46.52600
H  26.17600 -9.03600 48.39900
H  23.60200 -11.24100 48.68500
H  23.02500 -9.48600 48.97000
H  24.54100 -10.11700 49.46900
H  27.42300 -9.98600 45.97500
H  26.30700 -11.18700 46.38300
H  28.78700 -11.00800 47.36100
H  27.64800 -12.07500 48.12700
H  27.78900 -10.42500 48.74900
H  30.25800 -6.27600 46.83300
H  29.63600 -5.45600 48.17700
H  30.52300 -4.58500 46.79800
H  28.05300 -2.44000 42.89100
H  28.46000 1.63000 42.89700
H  27.36200 1.51600 44.34400
H  26.72700 1.54100 42.58400
Mg 5.99300 54.81500 40.53300
C  3.32800 52.49000 40.40800
C  8.05800 52.37900 39.38100
C  8.34600 57.10300 40.21300
C  3.56500 57.33900 41.21800
N  5.64300 52.73700 39.79400
C  4.55000 51.97700 39.80600
C  4.69300 50.58400 39.15500
C  6.27400 50.52900 39.09200
C  6.68800 51.96300 39.46700
C  7.09400 49.49000 39.85600
C  4.02200 50.53700 37.72200
C  3.32200 49.12500 37.43500
H  3.90400 48.25100 36.39200
N  8.09200 54.71700 40.09400
C  8.69900 53.63300 39.58500
C  10.05700 54.03200 39.41900
C  10.06400 55.44000 39.34100
C  8.80900 55.82600 39.88500
C  11.17800 53.04800 39.12800
C  11.23500 56.32100 38.84200
O  12.27700 55.75700 38.49200
C  11.19500 57.77000 38.86700
N  5.85700 56.92900 40.42600
C  7.07400 57.59300 40.56300
C  6.92400 59.08500 40.96100
C  5.36300 59.17600 41.05300
C  4.89600 57.70600 40.89300
C  7.60500 59.23000 42.30700
C  4.80500 60.27600 40.05900
C  4.00900 59.79500 38.82400
N  3.87600 54.96600 40.87500
C  3.10300 56.02000 41.25200
C  1.82600 55.51400 41.68000
C  1.88900 54.20500 41.35900
C  3.15400 53.85800 40.89600
C  0.71600 56.24200 42.21200
C  1.14800 52.93900 41.30100
O  -0.00100 52.64700 41.59500
C  2.06200 51.85700 40.68100
C  1.32800 51.15200 39.64300
O  0.98200 51.59800 38.58000
O  1.03200 49.89500 40.13100
C  0.03400 49.20800 39.28900
H  8.77500 51.64800 39.00100
H  9.17900 57.80700 40.26000
H  3.01100 58.22900 41.52300
H  4.29600 49.90500 39.91000
H  6.53700 50.38300 38.04500
H  7.58500 48.96900 39.03400
H  6.50800 48.81000 40.47400
H  7.74800 49.93100 40.61000
H  4.84900 50.73500 37.04000
H  3.28600 51.31700 37.52900
H  2.28700 49.31100 37.14500
H  3.34100 48.52400 38.34400
H  10.84400 52.01400 39.21900
H  11.94600 53.16900 39.89100
H  11.66500 53.27200 38.17900
H  10.32400 58.14900 38.33300
H  11.94200 58.17500 38.18400
H  11.22200 58.18100 39.87600
H  7.46100 59.64600 40.19800
H  4.93700 59.45900 42.01600
H  6.89900 59.81300 42.89800
H  8.51800 59.81700 42.20700
H  7.87600 58.29500 42.79800
H  5.55800 60.96900 39.68400
H  4.06100 60.90100 40.55500
H  2.94400 59.95300 38.99300
H  4.22200 58.75500 38.57900
H  4.27600 60.37000 37.93700
H  1.02700 56.77600 43.11000
H  -0.11000 55.53900 42.32100
H  0.44200 57.02200 41.50200
H  2.27500 51.20900 41.53100
H  -0.56000 48.45700 39.81000
H  0.53600 48.79400 38.41400
H  -0.82800 49.82200 39.02800

