158

Mg 8.82900 3.77600 27.80400
C  10.34100 2.24900 30.61700
C  7.14100 5.63300 29.98800
C  7.42100 5.21100 25.10700
C  10.30900 1.38700 25.80100
N  8.88500 3.97200 30.07800
C  9.59300 3.31800 31.01800
C  9.30800 3.75500 32.44300
C  8.12100 4.77900 32.20400
C  8.02200 4.76100 30.63000
C  6.75300 4.30600 32.80100
C  10.57100 4.26500 33.21300
C  10.26800 5.38500 34.27400
H  11.04700 5.48500 35.63800
N  7.47400 5.22400 27.54700
C  6.87400 5.83800 28.61400
C  6.02900 6.88900 28.07800
C  6.05700 6.77000 26.64800
C  7.02200 5.72000 26.38900
C  5.13100 7.82400 28.92700
C  5.19900 7.49800 25.53700
O  5.40200 7.25200 24.32700
C  4.07000 8.39700 25.91300
N  9.02400 3.47600 25.70000
C  8.24000 4.10400 24.86700
C  8.38000 3.56500 23.38600
C  9.46100 2.38000 23.57100
C  9.56300 2.34100 25.08900
C  7.00000 3.12000 22.83200
C  10.75700 2.83600 22.86200
C  11.47700 1.68700 22.13700
N  9.95800 2.02200 28.08700
C  10.64300 1.23500 27.17500
C  11.40200 0.28500 27.84300
C  11.37000 0.63800 29.16800
C  10.47300 1.73400 29.27800
C  12.15600 -0.84600 27.09600
C  11.82900 0.30000 30.51800
O  12.52700 -0.59400 30.94600
C  11.23700 1.42900 31.47300
C  10.61100 0.72200 32.66200
O  9.58800 0.04900 32.61500
O  11.43400 0.82800 33.74100
C  10.73600 0.35700 34.99200
H  6.40900 6.08300 30.66300
H  6.99400 5.61200 24.18600
H  10.70100 0.59300 25.16200
H  8.92900 2.83800 32.89400
H  8.32100 5.80100 32.52600
H  6.74400 3.37700 33.37100
H  5.97400 4.24300 32.04200
H  6.41600 5.06200 33.51100
H  11.30800 4.71200 32.54500
H  11.11800 3.43600 33.66100
H  9.20900 5.29800 34.51700
H  10.53800 6.35500 33.85700
H  5.45000 8.81200 28.59500
H  5.27700 7.58600 29.98100
H  4.08900 7.67500 28.64400
H  3.69000 8.75900 24.95800
H  4.55200 9.25000 26.39200
H  3.33000 7.91900 26.55500
H  8.71700 4.35800 22.71900
H  9.13400 1.46400 23.07900
H  6.36900 3.13800 23.72100
H  7.05000 2.09000 22.48100
H  6.56100 3.89500 22.20400
H  11.47200 3.25300 23.57200
H  10.61600 3.53000 22.03300
H  11.71100 0.98300 22.93600
H  12.36400 1.98800 21.58000
H  10.68900 1.25000 21.52400
H  13.06300 -0.45500 26.63500
H  11.51100 -1.31100 26.35100
H  12.46800 -1.54600 27.87100
H  11.95200 2.14400 31.88100
H  10.59200 1.09700 35.78000
H  11.47900 -0.30900 35.42900
H  9.80900 -0.20900 34.89900
Mg 47.17200 25.23600 29.29700
C  47.80800 27.56000 31.84200
C  45.70600 23.21300 31.70300
C  46.57700 23.03800 26.82800
C  48.87600 27.28500 27.09500
N  46.71100 25.40200 31.50600
C  47.13000 26.42900 32.34700
C  46.59000 26.21200 33.76700
C  45.97400 24.79600 33.72400
C  46.20300 24.39800 32.22500
C  46.50900 23.82500 34.84200
C  45.53800 27.41900 34.05600
C  45.34100 27.85200 35.53000
H  45.83500 26.94700 36.68000
N  46.35700 23.36900 29.29300
C  45.64900 22.73500 30.34800
C  45.05000 21.55600 29.89400
C  45.40900 21.38400 28.49900
C  46.16200 22.62000 28.13500
C  44.32300 20.63100 30.84500
C  45.01200 20.24300 27.48800
O  45.32000 20.24800 26.28900
C  44.12900 19.17700 27.99100
N  47.66200 25.15400 27.21600
C  47.35800 24.07700 26.35500
C  47.63300 24.44200 24.87600
C  48.50200 25.74400 25.02300
C  48.33300 26.09700 26.48400
C  48.38300 23.23800 24.23900
C  48.10300 26.83300 24.04000
C  49.14500 27.88500 23.68900
N  48.10300 27.15200 29.29600
C  48.81300 27.74700 28.40200
C  49.33700 28.95700 28.92300
C  48.94200 28.98300 30.25700
C  48.22700 27.79900 30.42400
C  50.20100 29.93800 28.17900
C  48.92100 29.74300 31.47600
O  49.41600 30.86300 31.66400
C  48.17600 28.85600 32.53900
C  49.13600 28.61700 33.64800
O  50.21400 28.05200 33.47600
O  48.72000 29.17300 34.83700
C  49.61000 29.45000 35.95100
H  45.12100 22.60700 32.39900
H  46.20400 22.44300 25.99200
H  49.44700 27.93200 26.42600
H  47.39400 26.27000 34.50100
H  44.92900 24.86500 34.02600
H  45.69700 23.34600 35.38900
H  47.20400 24.19200 35.59800
H  46.96200 22.93800 34.39900
H  44.60400 26.92200 33.79400
H  45.67600 28.27000 33.38900
H  44.28700 28.05100 35.72200
H  45.89400 28.78600 35.63000
H  43.24600 20.54900 30.70500
H  44.41700 20.77100 31.92200
H  44.74200 19.63500 30.69600
H  43.21300 19.56600 28.43700
H  44.75400 18.47500 28.54300
H  43.88400 18.56800 27.12100
H  46.72900 24.56100 24.27900
H  49.53500 25.42000 24.89600
H  47.71600 22.45000 23.89100
H  49.00700 22.78600 25.01000
H  49.12500 23.64500 23.55200
H  47.26700 27.35800 24.50100
H  47.65600 26.26900 23.22200
H  50.04100 27.80500 24.30500
H  48.86700 28.92300 23.86900
H  49.45500 27.87500 22.64400
H  49.59400 30.78800 27.86700
H  50.52600 29.49400 27.23800
H  51.01200 30.36700 28.76700
H  47.33800 29.38600 32.99100
H  50.60100 29.02800 35.78300
H  49.44100 28.92900 36.89300
H  49.55300 30.52900 36.09900

