158

Mg 44.14000 3.40300 47.50700
C  41.71400 5.88000 46.76300
C  41.55000 1.12200 47.19000
C  46.47800 0.95200 47.56800
C  46.57300 5.71200 46.76700
N  41.88600 3.57700 47.20300
C  41.09900 4.67400 46.91800
C  39.69200 4.28900 46.50100
C  39.64700 2.91400 47.21000
C  41.12200 2.48600 47.14100
C  39.08600 2.81200 48.60300
C  39.47100 4.32400 44.97600
C  38.31700 5.15900 44.41100
H  38.61700 6.41700 43.61300
N  44.06100 1.26600 47.40600
C  42.89000 0.50200 47.32800
C  43.28900 -0.82900 47.49000
C  44.72000 -0.90000 47.63600
C  45.17500 0.46600 47.53600
C  42.37600 -1.94500 47.34800
C  45.62900 -2.16000 47.65600
O  45.10600 -3.27100 47.65700
C  47.08400 -2.12600 47.52300
N  46.22900 3.35000 47.04200
C  47.00500 2.28000 47.25100
C  48.47700 2.60900 47.28400
C  48.52100 4.08100 46.97800
C  47.03800 4.42900 46.94500
C  49.12700 2.30000 48.65700
C  49.34200 4.61000 45.75200
C  50.75500 5.15800 46.02500
N  44.15500 5.45900 47.01500
C  45.25900 6.25200 46.76200
C  44.78000 7.59700 46.66600
C  43.40700 7.49400 46.61800
C  43.08500 6.18500 46.81500
C  45.55700 8.89500 46.45600
C  42.11000 8.26500 46.54800
O  41.82200 9.45500 46.59000
C  41.03600 7.16400 46.59600
C  40.08100 7.37000 47.68300
O  40.42100 7.40700 48.86900
O  38.74800 7.53600 47.28300
C  37.81300 7.56900 48.40100
H  40.74300 0.39500 47.08000
H  47.31000 0.28500 47.80100
H  47.38700 6.43900 46.71700
H  38.98500 5.03800 46.85800
H  39.16500 2.14000 46.61200
H  38.50500 3.66300 48.95800
H  39.90400 2.63800 49.30200
H  38.45500 1.92400 48.65900
H  39.19600 3.30400 44.70600
H  40.38100 4.48900 44.39900
H  37.64300 5.47600 45.20700
H  37.83000 4.37500 43.83100
H  41.39900 -1.66600 46.95300
H  42.15600 -2.44600 48.29100
H  42.77900 -2.74400 46.72600
H  47.49000 -1.46800 46.75500
H  47.53000 -3.12000 47.46900
H  47.39700 -1.78900 48.51100
H  49.06000 2.04600 46.55500
H  48.77800 4.67000 47.85800
H  48.37500 2.25300 49.44400
H  49.88100 3.07600 48.78900
H  49.78800 1.43600 48.59100
H  48.80700 5.16400 44.98100
H  49.53400 3.65000 45.27200
H  50.77900 5.16600 47.11500
H  50.92400 6.14600 45.59800
H  51.54400 4.47700 45.70800
H  46.31600 9.02300 47.22800
H  44.99100 9.81100 46.62300
H  46.17300 8.93400 45.55800
H  40.53900 7.21500 45.62800
H  37.62000 8.61000 48.65700
H  38.10500 6.94100 49.24300
H  36.85900 7.16700 48.05800
Mg 48.16100 34.54200 26.50300
C  45.94200 33.67900 29.22000
C  48.61400 37.63500 27.97500
C  49.62300 35.46900 23.71400
C  47.02000 31.60700 24.80700
N  47.29900 35.57400 28.42600
C  46.57100 34.94700 29.42000
C  46.36700 35.95500 30.58200
C  46.80100 37.33700 29.97300
C  47.61800 36.86900 28.70100
C  45.55700 38.20200 29.62900
C  47.35000 35.49400 31.81000
C  46.67500 35.61100 33.19400
H  46.09500 36.94300 33.68500
N  49.10700 36.26600 25.98800
C  49.34300 37.36000 26.79300
C  50.23700 38.23400 26.09500
C  50.56200 37.66300 24.81800
C  49.74500 36.36700 24.75600
C  50.66600 39.55800 26.72500
C  51.55400 38.15900 23.71800
O  51.72400 37.54000 22.65400
C  52.37200 39.46200 23.96100
N  48.03500 33.72400 24.47900
C  48.84200 34.31500 23.57300
C  49.10600 33.40300 22.28400
C  48.36900 32.12200 22.68700
C  47.76400 32.46100 24.03700
C  48.66100 34.05000 20.90700
C  49.35900 30.88700 22.93200
C  48.62400 29.49600 22.75100
N  46.78400 33.02700 26.86800
C  46.49200 31.92400 26.10900
C  45.51600 31.14400 26.77600
C  45.37800 31.69700 28.02100
C  46.11700 32.89900 28.04400
C  44.81500 29.89900 26.28500
C  44.67900 31.55200 29.34200
O  43.85400 30.70200 29.70500
C  44.99500 32.89900 30.18500
C  45.62000 32.49600 31.45500
O  46.76000 32.03800 31.51300
O  44.67100 32.60700 32.50000
C  45.07800 31.92400 33.70300
H  48.69500 38.64200 28.38900
H  50.17800 35.72200 22.80800
H  46.92700 30.57700 24.45800
H  45.34300 35.97600 30.95600
H  47.46100 37.89100 30.64100
H  45.38300 38.35200 28.56300
H  45.73400 39.20900 30.00600
H  44.67200 37.77700 30.10400
H  48.27100 36.07100 31.73200
H  47.66900 34.45500 31.72600
H  47.39800 35.21800 33.90800
H  45.86900 34.87700 33.20100
H  50.43500 40.37800 26.04500
H  51.72100 39.53200 26.99700
H  50.32800 39.68300 27.75300
H  51.60800 40.20900 24.17800
H  52.93200 39.65400 23.04600
H  53.09800 39.27600 24.75200
H  50.18000 33.25700 22.16800
H  47.62700 31.87300 21.92900
H  47.78200 33.69000 20.37100
H  49.56700 33.94700 20.30900
H  48.51000 35.12600 20.99800
H  49.73900 30.89400 23.95400
H  50.24300 30.99200 22.30400
H  47.62700 29.45600 22.31300
H  48.68800 28.88100 23.64800
H  49.15200 28.94600 21.97200
H  45.07900 29.66000 25.25500
H  43.76600 30.19500 26.30100
H  45.08700 29.09800 26.97300
H  44.03200 33.36700 30.38500
H  44.85100 32.45400 34.62800
H  46.12000 31.60700 33.65900
H  44.50500 31.01300 33.87500

