158

Mg 8.99300 4.15700 27.63200
C  10.29300 2.42400 30.37100
C  7.07800 5.96100 29.69400
C  7.66200 5.49100 24.90800
C  10.70700 1.83500 25.55300
N  8.62700 4.02800 29.76100
C  9.35700 3.43000 30.72500
C  9.22600 4.00900 32.09900
C  8.02600 4.98400 31.91600
C  7.83200 5.01000 30.35200
C  6.69600 4.64100 32.65300
C  10.57300 4.77700 32.57700
C  10.50300 5.51200 33.88400
H  11.41300 4.95000 35.02000
N  7.63900 5.57900 27.34700
C  6.94900 6.26700 28.34800
C  6.07200 7.26500 27.75000
C  6.13100 7.08300 26.31900
C  7.18200 6.06700 26.14100
C  5.08900 8.08100 28.59300
C  5.38900 7.86300 25.27000
O  5.52300 7.57300 24.08500
C  4.63500 9.15700 25.63800
N  9.31000 3.85300 25.50700
C  8.55400 4.51700 24.63500
C  8.61800 3.96000 23.19000
C  9.81600 2.97100 23.39100
C  9.89900 2.81400 24.87800
C  7.28800 3.27100 22.78700
C  11.25400 3.36500 22.87100
C  11.81700 2.25500 21.98200
N  10.33400 2.59500 27.88000
C  10.87300 1.69800 26.95300
C  11.67500 0.74000 27.60300
C  11.56100 0.98800 29.00600
C  10.70000 2.05800 29.07700
C  12.18600 -0.47200 27.02000
C  11.95300 0.56100 30.22300
O  12.77100 -0.34100 30.61000
C  11.17700 1.55100 31.25000
C  10.38700 0.83000 32.27900
O  9.45400 0.04400 32.06800
O  10.70500 1.31100 33.53300
C  9.84900 1.00700 34.67600
H  6.55700 6.58700 30.42200
H  7.16500 5.95600 24.05500
H  11.18300 1.02700 24.99300
H  8.97700 3.23500 32.82500
H  8.34000 5.99100 32.19100
H  6.90500 4.00700 33.51400
H  5.99000 4.14800 31.98500
H  6.30000 5.53600 33.13500
H  10.75000 5.47800 31.76100
H  11.35600 4.02000 32.62400
H  9.48600 5.44300 34.27200
H  10.83800 6.53200 33.69600
H  4.06600 7.80000 28.34500
H  5.20100 9.16100 28.49800
H  5.04500 7.93800 29.67200
H  4.30000 9.73700 24.77800
H  5.31900 9.71600 26.27600
H  3.75100 8.86500 26.20400
H  8.87700 4.85000 22.61800
H  9.59300 1.97000 23.02200
H  6.58500 3.88300 22.22100
H  6.75900 3.13800 23.73100
H  7.45200 2.36200 22.20900
H  11.89000 3.55000 23.73700
H  11.17800 4.28800 22.29500
H  11.59200 2.39900 20.92500
H  11.58900 1.24800 22.33300
H  12.90000 2.33400 22.06900
H  12.94600 -0.22500 26.27800
H  11.39400 -1.01900 26.50900
H  12.60000 -1.15600 27.76100
H  11.96100 2.09900 31.77200
H  10.16200 0.01400 34.99900
H  8.80500 1.05700 34.36600
H  10.00900 1.75100 35.45600
Mg 6.72300 53.27700 40.73000
C  6.50300 49.89300 40.35000
C  9.87300 53.31000 39.54400
C  6.54600 56.69900 40.48800
C  3.30900 53.22100 41.75900
N  7.96400 51.77700 39.91500
C  7.72400 50.40400 39.82400
C  8.99900 49.62900 39.43200
C  10.11700 50.74100 39.72000
C  9.27800 52.06600 39.67900
C  11.00900 50.52700 41.02900
C  8.98800 49.07700 37.97900
C  8.24400 49.88100 36.96600
H  7.59000 49.10300 35.72600
N  8.07700 54.81200 40.05800
C  9.32000 54.55900 39.54300
C  9.93600 55.85100 39.21300
C  8.95300 56.86400 39.50800
C  7.79400 56.14800 40.03800
C  11.36900 56.01200 38.76000
C  9.12000 58.46400 39.33000
O  10.16600 58.87200 38.77400
C  8.08100 59.41400 39.81100
N  5.17300 54.70600 40.98400
C  5.40000 56.03900 40.90400
C  4.10900 56.83600 41.15500
C  3.11100 55.73300 41.68400
C  3.92300 54.44200 41.51200
C  4.13300 58.17400 42.08000
C  1.67200 55.67900 41.00800
C  0.44500 55.57500 41.80900
N  5.23800 51.87500 41.17400
C  3.91200 51.98600 41.49800
C  3.38000 50.67600 41.81700
C  4.34300 49.79700 41.27200
C  5.41500 50.59200 40.90000
C  1.99800 50.29200 42.37500
C  4.64800 48.41100 40.96600
O  3.97900 47.38700 41.10300
C  6.15900 48.41000 40.44900
C  6.10300 47.68300 39.13000
O  5.75600 48.14600 38.04400
O  6.38300 46.33700 39.26400
C  6.35700 45.41100 38.09400
H  10.92900 53.14900 39.32000
H  6.33200 57.76000 40.33800
H  2.29600 53.06400 42.13700
H  9.08100 48.80500 40.14100
H  10.82300 50.67200 38.89300
H  11.20400 51.45000 41.57500
H  11.94000 50.07100 40.69400
H  10.58900 49.89200 41.81000
H  8.53300 48.08700 37.97900
H  9.98900 48.97900 37.55700
H  8.95100 50.54400 36.46700
H  7.55600 50.61000 37.39500
H  11.30700 56.45300 37.76500
H  11.87800 55.05500 38.65000
H  11.96800 56.67100 39.38900
H  7.18000 59.22500 39.22700
H  8.35400 60.45000 39.60800
H  8.05500 59.25000 40.88800
H  3.65900 57.06900 40.19000
H  2.92900 55.74100 42.75800
H  3.94900 59.10100 41.53600
H  5.06700 58.16200 42.64200
H  3.36100 58.23700 42.84600
H  1.49800 54.84800 40.32400
H  1.71800 56.55200 40.35700
H  0.64700 55.30800 42.84600
H  -0.18100 54.80100 41.36500
H  -0.04400 56.54600 41.89000
H  1.59700 51.09300 42.99700
H  2.03900 49.38600 42.97900
H  1.31500 50.21800 41.52900
H  6.74800 47.83200 41.16100
H  6.08100 45.94800 37.18700
H  5.69300 44.56500 38.27000
H  7.38000 45.04500 37.99700

