158

Mg 2.99300 0.74900 44.09700
C  5.87800 2.55600 43.62700
C  1.29500 3.23000 42.35000
C  0.48200 -1.40700 43.61900
C  5.05700 -1.95400 45.13000
N  3.58700 2.57200 43.00300
C  4.79400 3.20700 43.01400
C  4.79200 4.54300 42.26300
C  3.28100 4.80900 42.06900
C  2.63800 3.46700 42.56800
C  2.70300 6.11700 42.75600
C  5.70300 4.55400 40.94100
C  6.17800 3.26000 40.23800
H  6.25600 3.15000 38.65000
N  1.11500 0.97500 43.35800
C  0.59900 2.04700 42.68900
C  -0.78000 1.85600 42.47100
C  -1.10100 0.56700 42.91400
C  0.16500 -0.04200 43.28300
C  -1.56500 2.93000 41.89500
C  -2.47500 -0.09600 42.97800
O  -3.45800 0.53300 42.62100
C  -2.67900 -1.53800 43.34100
N  2.84900 -1.38300 44.22700
C  1.61300 -1.98000 44.14400
C  1.67900 -3.46700 44.53100
C  3.19300 -3.63600 44.90500
C  3.74500 -2.24400 44.78700
C  0.63400 -3.83900 45.70100
C  3.97900 -4.73800 44.12000
C  4.57500 -5.77500 45.09200
N  4.98900 0.35300 44.44500
C  5.70800 -0.77400 44.87200
C  7.11700 -0.38400 45.03300
C  7.19800 0.86600 44.57800
C  5.89400 1.29900 44.21600
C  8.21400 -1.24800 45.65000
C  8.11100 1.95400 44.32300
O  9.38000 1.93900 44.47100
C  7.31900 3.14100 43.80500
C  7.40900 4.25200 44.86600
O  8.39800 4.90700 45.22900
O  6.13600 4.60400 45.28900
C  5.89700 5.84300 46.12200
H  0.79000 4.01600 41.78500
H  -0.23100 -2.23200 43.67300
H  5.60400 -2.84400 45.45000
H  5.24200 5.27900 42.92900
H  3.12100 4.91400 40.99600
H  3.32700 6.93600 42.39700
H  2.69500 6.06800 43.84500
H  1.69200 6.29900 42.39000
H  6.56700 5.18400 41.15100
H  5.16300 5.00300 40.10800
H  5.68800 2.37700 40.64800
H  7.16400 3.00100 40.62300
H  -2.62900 2.90200 42.13000
H  -1.23500 2.90300 40.85600
H  -1.23600 3.88100 42.31300
H  -2.23400 -1.79300 44.30300
H  -2.18700 -2.14700 42.58200
H  -3.75100 -1.73200 43.34900
H  1.31600 -4.05400 43.68800
H  3.23600 -3.79400 45.98300
H  -0.35300 -4.02900 45.27800
H  0.56500 -3.07600 46.47600
H  0.97000 -4.72700 46.23600
H  4.81700 -4.28800 43.58800
H  3.32500 -5.13200 43.34300
H  4.19800 -5.69700 46.11200
H  5.65000 -5.61400 45.17300
H  4.40600 -6.78400 44.71700
H  8.19700 -1.28200 46.73900
H  9.19000 -0.83900 45.39000
H  8.17200 -2.27500 45.28800
H  7.85000 3.46400 42.91000
H  6.28100 6.68700 45.55000
H  6.38300 5.84900 47.09900
H  4.84200 6.08100 46.25400
Mg 44.32900 3.78600 47.92000
C  41.73700 6.15100 47.23300
C  41.90800 1.36800 47.95800
C  46.74400 1.48500 47.96500
C  46.61000 6.25400 47.21400
N  42.02100 3.80600 47.64000
C  41.18800 4.88400 47.43200
C  39.73200 4.44500 47.29600
C  39.83000 2.92900 47.86300
C  41.36400 2.62400 47.83300
C  39.37100 2.85100 49.30100
C  39.22400 4.45000 45.84100
C  38.06500 5.37500 45.58000
H  38.01700 6.17100 44.21000
N  44.33900 1.63700 47.87800
C  43.23700 0.88400 47.97700
C  43.65700 -0.55200 47.97200
C  45.07900 -0.58700 47.95000
C  45.46000 0.84600 48.00500
C  42.71800 -1.67400 48.20700
C  45.95500 -1.87900 48.01500
O  45.50700 -3.01300 47.93200
C  47.47300 -1.74300 48.20700
N  46.33900 3.86400 47.56200
C  47.14900 2.83200 47.84100
C  48.60300 3.22800 48.02200
C  48.56500 4.67200 47.38800
C  47.07600 4.96800 47.45100
C  49.23900 2.94500 49.34200
C  49.15900 4.75900 45.92000
C  50.66700 5.02000 45.85600
N  44.26300 5.84800 47.46600
C  45.29400 6.66000 47.17000
C  44.75000 7.95300 46.91500
C  43.34700 7.86700 46.95800
C  43.11100 6.46000 47.25400
C  45.37400 9.22300 46.39600
C  42.12200 8.49700 46.75700
O  41.88600 9.63100 46.40300
C  41.01400 7.48100 47.20100
C  40.56200 7.80500 48.61000
O  41.29100 8.25200 49.49500
O  39.21400 7.41300 48.74500
C  38.66300 7.85300 50.05200
H  41.11200 0.63000 47.84400
H  47.49000 0.75200 48.28000
H  47.35300 7.04400 47.09000
H  39.05000 4.90900 48.00900
H  39.30600 2.12800 47.34000
H  40.19800 2.70600 49.99600
H  38.72700 1.97100 49.30000
H  38.82000 3.71300 49.67700
H  38.86900 3.49700 45.45100
H  40.04700 4.72900 45.18300
H  38.12000 6.00700 46.46600
H  37.16600 4.75900 45.54200
H  41.74300 -1.24300 48.43200
H  43.00600 -2.37500 48.99000
H  42.70500 -2.12800 47.21600
H  47.68600 -1.24100 49.15100
H  48.00900 -1.22100 47.41500
H  47.90100 -2.74400 48.24700
H  49.29900 2.76400 47.32300
H  49.09400 5.35800 48.04900
H  48.48200 2.69900 50.08600
H  49.63300 3.86800 49.76900
H  50.06300 2.24400 49.20700
H  48.68000 5.51100 45.29200
H  48.87500 3.84400 45.40000
H  50.84500 5.99800 46.30400
H  51.24700 4.97600 44.93400
H  51.19400 4.40500 46.58500
H  44.92000 9.46100 45.43400
H  46.45500 9.15000 46.28000
H  45.21400 10.01400 47.12900
H  40.13300 7.37900 46.56600
H  38.57100 8.93500 50.15200
H  39.32700 7.49900 50.84000
H  37.67400 7.40500 50.14300

