158

Mg 47.27600 15.81100 28.08300
C  45.20700 15.75800 31.04400
C  49.53500 17.73700 29.71800
C  48.78700 16.34700 25.14100
C  44.57300 14.38800 26.38500
N  47.29100 16.66800 30.15800
C  46.47600 16.43100 31.18600
C  47.11200 16.97100 32.55400
C  48.43300 17.65300 32.04400
C  48.46900 17.27000 30.55800
C  48.54100 19.18400 32.22200
C  47.28100 15.79900 33.54500
C  46.95900 16.06200 35.01100
H  47.17300 17.52200 35.47300
N  49.03700 16.76100 27.51800
C  49.79700 17.55100 28.33000
C  50.94500 18.03000 27.61800
C  50.78200 17.63000 26.23800
C  49.47600 16.88900 26.27900
C  52.06800 18.78200 28.27400
C  51.62700 17.88300 25.01800
O  51.32500 17.41300 23.99700
C  52.90800 18.65200 25.12500
N  46.64600 15.67100 26.04900
C  47.54200 15.75900 25.04000
C  46.97600 15.23400 23.74600
C  45.79400 14.27000 24.24400
C  45.65100 14.85100 25.65400
C  46.52100 16.30100 22.66200
C  46.16300 12.74500 24.21100
C  45.79600 11.99700 22.90300
N  45.28500 15.30700 28.56300
C  44.34600 14.65100 27.73600
C  43.10500 14.40200 28.56200
C  43.45700 14.78500 29.89700
C  44.70400 15.40200 29.81500
C  41.82200 13.83800 28.04600
C  42.90400 14.90800 31.25500
O  41.76800 14.64300 31.63800
C  44.10900 15.43700 32.10100
C  43.66700 16.70700 32.74100
O  43.70500 17.82200 32.23900
O  43.33600 16.44200 34.05400
C  42.87600 17.57700 34.85700
H  50.10200 18.44500 30.32600
H  49.26500 16.37000 24.15900
H  43.86800 13.74400 25.85600
H  46.36000 17.69500 32.86800
H  49.33500 17.22500 32.48300
H  47.63600 19.42500 32.78000
H  48.47200 19.59800 31.21600
H  49.45500 19.49100 32.73200
H  48.34600 15.57600 33.60200
H  46.68500 14.95400 33.19900
H  47.59200 15.36500 35.56000
H  45.91200 15.76100 34.99800
H  51.95800 18.93800 29.34700
H  52.19500 19.75200 27.79200
H  52.98500 18.22600 28.07900
H  52.80900 19.39700 25.91400
H  53.05200 19.17800 24.18100
H  53.67800 17.94900 25.44100
H  47.69400 14.59000 23.23800
H  44.85300 14.42400 23.71700
H  46.62800 17.30500 23.07200
H  45.51500 16.17500 22.26200
H  47.23400 16.11900 21.85800
H  45.68500 12.31700 25.09300
H  47.24600 12.62800 24.22300
H  45.22700 11.15100 23.28900
H  46.59200 11.65900 22.24000
H  45.16900 12.57300 22.22200
H  41.47400 13.00800 28.66100
H  41.85800 13.47600 27.01800
H  41.05900 14.61200 28.13200
H  44.37800 14.63400 32.78800
H  41.82200 17.83000 34.75100
H  43.40400 18.52200 34.73000
H  43.10700 17.40700 35.90900
Mg -4.75400 25.45100 26.33600
C  -3.48700 26.96900 29.23000
C  -6.68500 23.45300 28.26600
C  -5.48300 23.82200 23.59600
C  -2.34900 27.47700 24.58400
N  -4.95800 25.29300 28.51900
C  -4.40900 25.99400 29.47500
C  -5.01700 25.61600 30.86500
C  -5.73700 24.31900 30.48700
C  -5.80600 24.33900 28.95900
C  -5.03600 23.00300 30.98900
C  -5.84700 26.81700 31.46500
C  -5.63300 27.00100 32.98900
H  -5.35700 25.65400 33.71600
N  -6.06100 23.89100 25.95800
C  -6.82700 23.25800 26.83300
C  -7.87000 22.37800 26.13900
C  -7.43900 22.36000 24.71700
C  -6.31100 23.38700 24.67400
C  -9.00600 21.57600 26.82700
C  -7.97900 21.64700 23.54600
O  -7.42500 21.70200 22.45600
C  -9.21000 20.70800 23.72900
N  -4.22500 25.81100 24.39700
C  -4.56600 24.91400 23.43300
C  -3.90700 25.19400 22.04500
C  -2.96100 26.37800 22.39100
C  -3.20300 26.64000 23.86700
C  -3.08700 24.01800 21.49300
C  -3.19400 27.68400 21.56100
C  -1.87500 28.36100 21.05000
N  -3.22900 26.92400 26.75100
C  -2.41500 27.69100 25.94300
C  -1.68000 28.66600 26.75500
C  -2.06500 28.39800 28.09600
C  -2.96500 27.34200 28.02000
C  -0.61000 29.64100 26.35100
C  -1.85800 28.81200 29.45600
O  -1.11900 29.67500 29.96500
C  -2.67100 27.74800 30.30700
C  -1.80900 26.97900 31.16100
O  -0.99000 26.19900 30.75300
O  -2.12100 27.19500 32.40800
C  -1.26100 26.52300 33.36500
H  -7.44100 22.92900 28.85500
H  -5.71100 23.24400 22.69800
H  -1.54900 28.01700 24.07400
H  -4.11800 25.38200 31.43600
H  -6.73000 24.16700 30.90900
H  -4.21700 23.13500 31.69600
H  -4.60500 22.48800 30.13000
H  -5.81900 22.34500 31.36400
H  -6.88300 26.51700 31.31000
H  -5.74100 27.77000 30.94800
H  -6.54000 27.35000 33.48300
H  -4.79900 27.69300 33.10700
H  -9.87700 22.07600 26.40200
H  -9.07900 21.65700 27.91200
H  -9.11900 20.53400 26.52900
H  -9.90700 21.37100 24.24200
H  -8.88600 19.97000 24.46300
H  -9.42500 20.09400 22.85400
H  -4.64600 25.42700 21.27800
H  -1.92100 26.13300 22.17500
H  -2.01400 24.09000 21.66500
H  -3.25300 23.85000 20.42900
H  -3.39600 23.10200 21.99800
H  -3.81800 28.32800 22.18000
H  -3.71800 27.41900 20.64300
H  -1.90000 29.43900 21.20700
H  -1.94700 28.21600 19.97200
H  -0.94200 27.90600 21.38000
H  -0.93700 30.68000 26.33100
H  -0.27400 29.43000 25.33600
H  0.16200 29.57000 27.11700
H  -3.39500 28.37100 30.83200
H  -0.28800 26.99500 33.49600
H  -0.95900 25.51000 33.09900
H  -1.79800 26.42000 34.30800

