158

Mg -2.47400 16.98200 26.60800
C  -3.03200 14.73800 29.35100
C  -3.23700 19.64400 28.75800
C  -2.12000 19.04300 24.02500
C  -2.40400 14.26400 24.59000
N  -2.77500 17.23100 28.91700
C  -2.99500 16.09800 29.77900
C  -3.30500 16.62400 31.15300
C  -3.43800 18.23200 30.92900
C  -3.20200 18.37900 29.44100
C  -4.69200 19.07200 31.43300
C  -2.20400 16.06800 32.16300
C  -1.65600 16.88600 33.28200
H  -1.14800 16.23900 34.59300
N  -2.55900 19.03800 26.45400
C  -2.82000 19.96700 27.46600
C  -2.78900 21.25300 26.82900
C  -2.49300 21.11300 25.44300
C  -2.32600 19.68700 25.25600
C  -3.33100 22.40800 27.68500
C  -2.47300 22.20100 24.34700
O  -2.15800 22.04200 23.18000
C  -2.69300 23.65900 24.90900
N  -2.47500 16.71800 24.57000
C  -2.07600 17.74600 23.67600
C  -1.85900 17.21900 22.24400
C  -1.85300 15.68500 22.51000
C  -2.26100 15.51600 23.96900
C  -2.96300 17.69000 21.19900
C  -0.48500 15.03400 21.95100
C  -0.69300 14.10400 20.66900
N  -2.75000 14.92300 26.85500
C  -2.59200 13.93600 25.94000
C  -2.81400 12.63900 26.52700
C  -2.98900 12.89600 27.88600
C  -2.90500 14.29900 28.03200
C  -2.85300 11.31800 25.80500
C  -3.18100 12.27800 29.14800
O  -3.33500 11.11600 29.47700
C  -3.12800 13.45800 30.19100
C  -1.93700 13.20700 31.01400
O  -0.75800 13.22800 30.70700
O  -2.33100 12.89700 32.32700
C  -1.38900 12.53500 33.35900
H  -3.35100 20.49600 29.43100
H  -1.86700 19.67000 23.16800
H  -2.40500 13.42700 23.88900
H  -4.31000 16.24100 31.33400
H  -2.63000 18.70800 31.48400
H  -5.53800 18.41300 31.62800
H  -5.01600 19.83700 30.72700
H  -4.50200 19.61100 32.36100
H  -1.31600 15.60300 31.73600
H  -2.53000 15.19600 32.72900
H  -2.43800 17.56900 33.61300
H  -0.76900 17.34700 32.84700
H  -4.04600 22.98200 27.09600
H  -2.55400 23.12000 27.96400
H  -3.91800 22.12000 28.55700
H  -3.74100 23.71000 25.20700
H  -2.41700 24.31000 24.08000
H  -2.00400 23.87100 25.72600
H  -0.96500 17.80500 22.03000
H  -2.66400 15.15900 22.00700
H  -3.96900 17.33400 21.42400
H  -2.69600 17.37800 20.19000
H  -3.15800 18.76200 21.15900
H  -0.08900 14.43500 22.77100
H  0.25100 15.79800 21.69900
H  -1.71600 14.09100 20.29300
H  -0.53100 13.08900 21.03000
H  -0.04500 14.26100 19.80700
H  -1.84100 11.10100 25.46200
H  -3.53600 11.17100 24.96900
H  -3.12500 10.59600 26.57500
H  -3.92600 13.42000 30.93200
H  -1.51100 12.99900 34.33800
H  -0.38000 12.78800 33.03200
H  -1.53800 11.46000 33.46700
Mg 49.80200 45.24300 43.28700
C  46.48400 45.57800 42.32400
C  49.64900 42.00000 42.26000
C  53.04900 45.12500 44.01200
C  49.79600 48.77800 43.81700
N  48.16800 43.93000 42.50000
C  46.89200 44.24700 42.19200
C  46.09400 43.02700 41.62700
C  47.11600 41.91300 41.89400
C  48.40400 42.62600 42.20500
C  46.64000 40.92900 42.95100
C  45.73500 43.28900 40.09100
C  47.06300 43.52000 39.23800
H  47.17900 42.87100 37.87300
N  51.21700 43.78800 43.13800
C  50.95700 42.51700 42.68400
C  52.20700 41.77600 42.61500
C  53.21600 42.67900 43.11400
C  52.53700 43.96700 43.49900
C  52.24300 40.21500 42.32400
C  54.67000 42.30800 43.23200
O  55.06500 41.24100 42.79900
C  55.65500 43.23100 43.82200
N  51.23300 46.76200 43.76000
C  52.51500 46.37800 44.17200
C  53.35400 47.63300 44.36000
C  52.32000 48.85300 44.31400
C  51.00600 48.08300 43.95000
C  54.33900 47.71400 45.54700
C  52.69400 49.86300 43.18500
C  52.69900 51.32000 43.55700
N  48.42000 46.85100 43.35500
C  48.56200 48.25200 43.50500
C  47.35000 48.95400 43.25900
C  46.50200 47.91400 42.83500
C  47.24100 46.68500 42.83000
C  47.12700 50.45000 43.36700
C  45.19200 47.73700 42.23300
O  44.32900 48.51000 41.95200
C  45.13300 46.24100 41.88200
C  43.91500 45.67700 42.46700
O  42.75600 45.74400 42.06600
O  44.28500 45.00100 43.61800
C  43.22000 44.29900 44.36400
H  49.79400 40.96700 41.93500
H  54.11500 45.20000 44.23800
H  49.84200 49.86000 43.95500
H  45.15600 42.92900 42.17300
H  47.20000 41.31600 40.98600
H  47.30700 40.94300 43.81300
H  46.59600 39.93800 42.50000
H  45.67400 41.22800 43.35900
H  45.05900 44.14400 40.12400
H  45.39700 42.34300 39.66700
H  47.98200 43.32500 39.79100
H  46.95500 44.58600 39.03900
H  51.70200 39.96900 41.41000
H  51.82200 39.72300 43.20100
H  53.20300 39.70900 42.22100
H  55.76900 44.10600 43.18000
H  56.59800 42.68600 43.77100
H  55.32700 43.41400 44.84500
H  53.88800 47.60000 43.41000
H  52.22700 49.39100 45.25700
H  54.34300 46.93000 46.30400
H  54.31200 48.57200 46.21800
H  55.31700 47.58200 45.08300
H  52.13700 49.75100 42.25500
H  53.73400 49.69000 42.91000
H  53.62500 51.78900 43.22600
H  52.41800 51.49600 44.59600
H  51.87300 51.77200 43.00900
H  46.16000 50.70500 42.93500
H  47.92500 51.08200 42.97800
H  46.98200 50.69000 44.42000
H  44.91100 46.31300 40.81800
H  42.46300 43.83700 43.72900
H  42.72900 45.11900 44.88800
H  43.61700 43.60600 45.10500

