158

Mg 42.08300 7.06800 30.54800
C  43.88700 9.23500 32.60300
C  39.87900 6.40900 33.10200
C  40.25600 5.34400 28.41900
C  44.32600 7.89200 27.94500
N  41.88400 7.88500 32.58900
C  42.71200 8.73900 33.22600
C  42.30200 8.82100 34.72700
C  41.05600 7.93400 34.81800
C  40.94600 7.25200 33.42500
C  40.97100 6.90000 35.92000
C  42.09500 10.25400 35.27100
C  41.05900 10.53300 36.42700
H  41.67100 11.34900 37.59100
N  40.41200 5.89000 30.73900
C  39.55100 5.84300 31.82700
C  38.43400 4.92300 31.51900
C  38.56600 4.55900 30.19000
C  39.76200 5.29400 29.69100
C  37.38400 4.49000 32.57000
C  37.76800 3.61400 29.35800
O  38.05400 3.36300 28.15600
C  36.72900 2.77700 29.90200
N  42.34500 6.65700 28.54900
C  41.40200 5.91000 27.86100
C  41.68000 5.78700 26.41200
C  42.77500 6.93900 26.28300
C  43.31500 7.04400 27.64500
C  42.14400 4.31800 25.96000
C  42.11200 8.29600 25.87300
C  42.12400 8.68100 24.36700
N  43.90400 8.19300 30.27500
C  44.64900 8.44900 29.13600
C  45.72900 9.35900 29.46800
C  45.44400 9.70500 30.85100
C  44.36200 8.97200 31.25600
C  46.82100 9.95000 28.59600
C  45.92000 10.47200 31.96200
O  46.80100 11.34400 32.05300
C  45.04000 10.06700 33.18300
C  45.78700 9.41000 34.27800
O  46.21200 8.28800 34.17100
O  45.78200 10.22700 35.36700
C  45.79900 9.41500 36.60000
H  39.15700 6.23000 33.90100
H  39.58400 4.87100 27.69900
H  45.04500 8.27400 27.21600
H  43.13700 8.31500 35.21100
H  40.14200 8.52200 34.90300
H  41.77200 7.09600 36.63300
H  40.96300 5.84800 35.63500
H  40.03600 7.15800 36.41800
H  41.83300 10.82200 34.37800
H  43.07500 10.64800 35.54100
H  40.59800 9.63700 36.84200
H  40.22200 10.95500 35.87100
H  36.59300 5.21100 32.36300
H  37.74400 4.68200 33.58100
H  37.06400 3.45800 32.42000
H  37.18700 1.92200 30.40000
H  36.07600 2.39900 29.11500
H  36.00800 3.28800 30.54100
H  40.78200 6.01300 25.83700
H  43.56600 6.70500 25.57100
H  42.58700 3.82200 26.82400
H  42.97500 4.38300 25.25900
H  41.27000 3.76800 25.61200
H  42.58700 9.11900 26.40700
H  41.04600 8.22000 26.08700
H  42.99200 8.27100 23.85100
H  42.22300 9.76300 24.27500
H  41.31000 8.29800 23.75200
H  47.72800 9.99400 29.19900
H  46.66200 10.96800 28.24000
H  46.96600 9.32400 27.71600
H  44.80200 11.07300 33.52900
H  45.37000 8.41400 36.60700
H  45.15600 10.08500 37.17100
H  46.77100 9.39100 37.09200
Mg -2.18200 34.86700 26.86800
C  -3.82800 33.12100 29.49600
C  -0.95700 36.98800 29.33100
C  -0.89500 36.70000 24.42500
C  -3.79700 32.87900 24.61900
N  -2.29300 34.95900 29.14900
C  -2.89100 34.07500 29.93800
C  -2.74900 34.37100 31.46600
C  -1.98900 35.72700 31.41100
C  -1.80600 35.98200 29.83800
C  -2.66300 36.98100 32.14800
C  -2.01200 33.17300 32.23500
C  -2.66200 32.56700 33.45600
H  -1.79200 32.41000 34.74900
N  -0.94200 36.52100 26.83800
C  -0.57100 37.27200 27.94000
C  0.38300 38.30600 27.46000
C  0.18700 38.33900 26.04300
C  -0.51300 37.14500 25.73500
C  1.26000 39.18200 28.32200
C  0.65500 39.42100 25.07000
O  0.51200 39.41900 23.85300
C  1.36900 40.57000 25.53900
N  -2.34200 34.77800 24.90100
C  -1.62400 35.57400 24.05200
C  -1.72200 35.22400 22.63700
C  -2.44800 33.88300 22.75700
C  -2.88000 33.77500 24.14800
C  -2.44100 36.21500 21.75300
C  -1.55100 32.60200 22.45400
C  -0.26400 32.26200 23.26700
N  -3.66000 33.34500 26.97100
C  -4.20200 32.60700 25.97000
C  -5.20700 31.80400 26.51300
C  -5.07100 31.89400 27.87300
C  -4.03000 32.79200 28.10400
C  -6.27100 31.09300 25.63400
C  -5.46000 31.33400 29.10100
O  -6.21700 30.41700 29.40800
C  -4.70900 32.11600 30.23900
C  -5.74700 32.71700 31.18900
O  -6.67600 33.41800 30.81100
O  -5.61700 32.18900 32.44000
C  -6.61000 32.42300 33.46000
H  -0.75200 37.66700 30.16100
H  -0.34400 37.18700 23.61800
H  -4.12600 32.11700 23.90900
H  -3.72800 34.50400 31.92500
H  -0.99700 35.64900 31.85700
H  -1.80100 37.51900 32.54400
H  -3.25200 36.74500 33.03400
H  -3.28300 37.65000 31.55200
H  -0.97200 33.45000 32.40800
H  -1.97200 32.31400 31.56500
H  -3.12100 31.62000 33.17000
H  -3.41500 33.28900 33.77200
H  0.96700 40.22600 28.20600
H  2.19500 38.84800 27.87200
H  1.22400 38.96400 29.38900
H  0.78700 41.00700 26.34900
H  1.37400 41.26900 24.70200
H  2.35900 40.33200 25.93000
H  -0.76700 35.09900 22.12800
H  -3.34700 33.93200 22.14200
H  -2.08200 37.21400 22.00100
H  -3.52500 36.15000 21.85100
H  -2.22500 35.96700 20.71400
H  -1.26000 32.72600 21.41200
H  -2.24800 31.76600 22.51200
H  -0.51400 31.86000 24.24900
H  0.27100 33.20500 23.38300
H  0.30400 31.48100 22.76200
H  -6.20300 31.26500 24.56000
H  -7.26900 31.10400 26.07200
H  -5.96500 30.05300 25.74000
H  -4.00600 31.53700 30.83800
H  -7.62100 32.51900 33.06300
H  -6.47500 33.32300 34.06100
H  -6.60800 31.53900 34.09700

