158

Mg 46.50600 24.94600 29.16100
C  47.11000 27.31200 31.63600
C  45.51500 22.74200 31.56700
C  46.46400 22.64400 26.87800
C  48.17300 27.21100 26.87500
N  46.23500 25.10400 31.34200
C  46.55100 26.14400 32.12300
C  46.08700 25.85400 33.52100
C  45.80900 24.30500 33.53600
C  45.96900 23.96100 32.07200
C  46.63900 23.44400 34.45800
C  44.95100 26.78300 34.12600
C  45.17900 27.62500 35.46000
H  45.73400 26.87000 36.66000
N  45.90000 22.98700 29.17900
C  45.47400 22.27200 30.24300
C  45.04000 20.92200 29.83700
C  45.28800 20.85700 28.38500
C  45.96300 22.17400 28.08700
C  44.44500 19.88700 30.66200
C  44.88800 19.77700 27.35500
O  45.16100 19.89000 26.18400
C  44.10600 18.57200 27.75400
N  47.17300 25.01200 27.15800
C  47.10100 23.84900 26.42800
C  47.67900 24.03800 24.96300
C  48.27600 25.46400 25.11000
C  47.81000 25.93000 26.44300
C  48.83100 23.03900 24.69600
C  47.78300 26.34400 23.92300
C  48.73200 26.55400 22.75700
N  47.38500 26.95100 29.18000
C  47.98400 27.68000 28.18900
C  48.34200 28.93300 28.64900
C  48.01500 28.90700 30.05700
C  47.47100 27.61600 30.31300
C  49.16300 29.98800 27.94200
C  48.12300 29.62800 31.31500
O  48.52400 30.80900 31.51300
C  47.57600 28.50700 32.42200
C  48.57800 28.04800 33.45700
O  49.22900 27.00800 33.40700
O  48.70800 29.07600 34.35700
C  49.51400 28.74800 35.52500
H  45.17800 22.04500 32.33700
H  46.37700 21.87500 26.10800
H  48.67300 27.86000 26.15300
H  46.96700 25.97600 34.15200
H  44.76900 24.06300 33.75600
H  47.34100 22.76200 33.97800
H  46.02600 22.83400 35.12200
H  47.20300 24.04500 35.17200
H  44.02800 26.25400 34.36200
H  44.62700 27.46800 33.34300
H  44.17000 27.93600 35.73100
H  45.91100 28.35500 35.11500
H  43.55500 19.45000 30.20900
H  44.11600 20.19200 31.65600
H  45.03900 18.99200 30.84600
H  43.06400 18.86500 27.87900
H  44.52900 18.08200 28.63000
H  44.17100 17.84700 26.94200
H  46.80000 23.81700 24.35700
H  49.36500 25.42800 25.08600
H  49.41300 23.48100 23.88800
H  48.35100 22.10300 24.41100
H  49.46100 22.76000 25.54000
H  47.52500 27.34700 24.26200
H  46.88700 25.87800 23.51400
H  49.26300 27.50500 22.70200
H  48.02600 26.53300 21.92600
H  49.45200 25.74600 22.63500
H  49.48800 29.59700 26.97800
H  49.96100 30.39600 28.56300
H  48.59200 30.89400 27.73600
H  46.81800 28.91900 33.08700
H  48.85200 28.54500 36.36600
H  50.09600 29.57300 35.93600
H  50.22100 27.92600 35.41300
Mg 42.35700 41.20000 25.73500
C  41.70700 43.62600 28.08600
C  43.21400 39.09000 28.27900
C  43.10800 38.95800 23.33100
C  41.37500 43.48300 23.18400
N  42.59400 41.43000 27.93000
C  42.07600 42.42300 28.66400
C  42.11900 42.01900 30.17300
C  42.80700 40.68800 30.18400
C  42.88700 40.39700 28.73500
C  44.11900 40.67300 31.00900
C  40.73500 42.06300 31.00600
C  40.61800 41.37200 32.37100
H  41.10700 42.30900 33.50300
N  43.15600 39.31400 25.81100
C  43.42400 38.58800 26.94900
C  43.78900 37.28900 26.58000
C  43.79000 37.23300 25.14200
C  43.39800 38.54300 24.65700
C  43.98100 36.20400 27.65200
C  44.12900 36.07800 24.23900
O  44.07300 36.19700 22.97100
C  44.49400 34.75900 24.87100
N  42.25300 41.23600 23.56400
C  42.50400 40.14400 22.81900
C  42.30900 40.41000 21.31300
C  41.55500 41.77800 21.35100
C  41.66900 42.19200 22.78100
C  43.69300 40.48400 20.55100
C  40.13300 41.69200 20.74200
C  39.20200 40.81900 21.68900
N  41.92300 43.18600 25.63900
C  41.51300 43.99300 24.49600
C  41.11300 45.27900 24.96100
C  41.17900 45.25500 26.35600
C  41.64800 43.91600 26.72600
C  40.55200 46.27100 24.08100
C  40.91500 45.93400 27.62500
O  40.55800 47.10600 27.89900
C  41.18400 44.85500 28.83500
C  42.17400 45.51600 29.66000
O  43.36900 45.40700 29.53400
O  41.56700 46.08600 30.76400
C  42.48300 46.21600 31.94900
H  43.34700 38.34200 29.06300
H  43.39700 38.20700 22.59300
H  40.98300 44.09700 22.37100
H  42.86900 42.70400 30.57000
H  42.12200 39.97800 30.64600
H  44.81600 41.38600 30.56800
H  44.48800 39.65000 30.93200
H  43.95400 40.95200 32.04900
H  40.04100 41.54700 30.34200
H  40.41300 43.09800 31.11800
H  41.19600 40.45100 32.44800
H  39.61300 41.04700 32.63700
H  43.44000 35.33200 27.28500
H  43.54700 36.32600 28.64500
H  45.03900 35.97900 27.78600
H  44.83700 34.14200 24.04000
H  43.57700 34.39300 25.33200
H  45.35500 34.81100 25.53800
H  41.67000 39.66600 20.83800
H  42.10500 42.46400 20.70600
H  44.44300 40.64800 21.32400
H  43.82900 41.39400 19.96700
H  43.87800 39.64300 19.88200
H  40.08700 41.28000 19.73400
H  39.76100 42.71500 20.68300
H  38.51100 40.23300 21.08300
H  38.58500 41.46500 22.31500
H  39.71700 40.08800 22.31200
H  41.36800 46.77600 23.56600
H  39.97500 47.04200 24.59100
H  39.98400 45.69900 23.34700
H  40.23800 44.84000 29.37600
H  43.07000 45.30000 32.02200
H  41.87000 46.20000 32.85000
H  43.12100 47.08900 31.81100

