158

Mg 36.86500 50.17200 25.27400
C  37.00100 47.89700 27.89000
C  35.67600 52.60800 27.55000
C  35.96800 52.04000 22.77200
C  37.59700 47.57600 23.07700
N  36.31300 50.16500 27.42200
C  36.55600 49.20900 28.26300
C  36.37200 49.72200 29.67300
C  35.65600 51.09800 29.50500
C  35.80300 51.29700 28.08400
C  34.18100 51.24600 30.10600
C  37.75700 49.70400 30.54100
C  37.61500 48.91800 31.84100
H  36.29900 49.03000 32.58800
N  36.03500 52.12500 25.17700
C  35.57900 52.95100 26.18100
C  35.18100 54.18300 25.56900
C  35.24500 54.02500 24.13800
C  35.78800 52.75200 23.99000
C  34.77900 55.37300 26.37600
C  34.79700 55.03600 23.05600
O  34.69600 54.71400 21.88900
C  34.47200 56.49800 23.46500
N  36.71700 49.77500 23.15500
C  36.40500 50.76800 22.41000
C  36.76400 50.48000 20.91700
C  37.47900 49.03100 21.04100
C  37.22500 48.75300 22.52900
C  35.49000 50.55800 20.02900
C  38.94800 48.90900 20.53700
C  39.12900 47.65300 19.61000
N  37.24100 48.10600 25.38100
C  37.54000 47.22100 24.47000
C  37.65100 45.94600 25.06300
C  37.47500 46.18100 26.41600
C  37.18200 47.49600 26.57600
C  38.14900 44.73100 24.36300
C  37.46300 45.55500 27.66400
O  37.65600 44.42100 28.06000
C  37.23100 46.69200 28.76800
C  35.99900 46.45600 29.59000
O  34.85300 46.89200 29.34300
O  36.38700 45.61400 30.62200
C  35.35600 45.04300 31.39500
H  35.39400 53.33000 28.32000
H  36.01900 52.64000 21.86100
H  37.92800 46.83900 22.34300
H  35.67600 49.03700 30.15700
H  36.15100 51.86000 30.10700
H  34.05800 52.29200 30.38500
H  33.97100 50.80800 31.08100
H  33.38700 50.96900 29.41300
H  38.18100 50.67100 30.81000
H  38.53600 49.11800 30.05500
H  38.33000 49.36900 32.52900
H  37.79000 47.85700 31.66100
H  35.21300 56.30000 26.00300
H  34.98800 55.20900 27.43300
H  33.69000 55.38800 26.32400
H  33.68600 56.56800 24.21700
H  34.16600 56.90800 22.50200
H  35.31100 57.09800 23.81600
H  37.54800 51.14600 20.55800
H  36.71900 48.37200 20.62100
H  35.28200 51.62100 19.90800
H  34.72300 50.06500 20.62700
H  35.83100 50.12600 19.08900
H  39.71300 49.00200 21.30700
H  39.15600 49.73000 19.85200
H  40.05300 47.10900 19.80100
H  39.06800 48.01600 18.58400
H  38.36100 46.90100 19.79200
H  37.45000 44.32100 23.63400
H  38.44300 44.00400 25.12000
H  39.03100 44.97400 23.77000
H  38.10300 46.71600 29.42100
H  34.51700 45.71000 31.59400
H  35.67900 44.74800 32.39300
H  34.83700 44.18400 30.97000
Mg -11.74300 38.25600 42.33500
C  -9.53000 35.61900 41.78700
C  -9.23100 40.34600 41.41100
C  -14.02300 40.66700 42.21500
C  -14.25700 35.89100 42.86300
N  -9.61600 37.99200 41.71000
C  -8.91100 36.82200 41.50600
C  -7.48900 37.08800 40.94400
C  -7.28900 38.56900 41.19400
C  -8.78500 39.06000 41.50400
C  -6.27200 39.17200 42.24600
C  -7.27800 36.55900 39.42200
C  -6.32700 35.30400 39.24900
H  -6.54500 34.35600 38.09800
N  -11.67200 40.25800 41.82900
C  -10.53400 40.95600 41.62600
C  -10.89200 42.37900 41.53200
C  -12.29300 42.51500 41.64900
C  -12.73000 41.12800 41.84800
C  -9.87900 43.48600 41.23200
C  -13.11200 43.85700 41.54500
O  -12.55500 44.97200 41.34100
C  -14.55800 43.79600 41.59500
N  -13.80600 38.30600 42.48800
C  -14.47400 39.42400 42.48800
C  -16.06000 39.17700 42.60700
C  -16.00700 37.64700 42.98700
C  -14.63300 37.27500 42.74000
C  -16.61300 40.07600 43.77700
C  -17.14900 36.85800 42.32300
C  -16.81900 36.23700 40.92100
N  -11.94500 36.14500 42.42400
C  -13.02000 35.31200 42.53300
C  -12.61900 33.92200 42.57300
C  -11.22400 33.98300 42.27800
C  -10.89500 35.37200 42.17800
C  -13.57800 32.80700 42.75500
C  -9.98500 33.26200 41.93900
O  -9.89600 32.02500 41.75300
C  -8.86000 34.24200 41.73900
C  -7.71200 34.13800 42.71200
O  -7.70600 34.75000 43.79700
O  -6.72000 33.39000 42.19600
C  -5.46200 33.22300 42.92100
H  -8.40100 41.05300 41.35400
H  -14.80800 41.42300 42.27100
H  -14.97500 35.16300 43.24600
H  -6.82600 36.59700 41.65500
H  -6.94400 38.95900 40.23700
H  -5.74800 38.43600 42.85500
H  -6.80000 39.85500 42.91300
H  -5.51200 39.74300 41.71200
H  -6.81200 37.31100 38.78600
H  -8.21100 36.28500 38.93000
H  -6.15300 34.78400 40.19100
H  -5.35700 35.78000 39.11100
H  -9.98900 43.66800 40.16300
H  -8.92600 43.07100 41.56000
H  -10.04900 44.35900 41.86200
H  -15.02000 43.04500 40.95500
H  -14.92300 44.78300 41.31200
H  -14.88200 43.70800 42.63200
H  -16.49600 39.36200 41.62600
H  -16.10100 37.56800 44.07000
H  -15.81500 40.64400 44.25500
H  -17.12100 39.59100 44.61200
H  -17.39400 40.74800 43.42100
H  -18.03500 37.49200 42.30000
H  -17.28300 36.01700 43.00300
H  -17.65900 36.36900 40.23900
H  -16.68700 35.16200 41.04500
H  -16.01500 36.72100 40.36700
H  -13.92600 32.70900 43.78300
H  -13.05300 31.90000 42.45700
H  -14.39700 32.94400 42.04800
H  -8.51600 34.01000 40.73000
H  -4.70400 32.95700 42.18400
H  -5.41900 32.55200 43.77800
H  -5.13400 34.19400 43.29300

