158

Mg 45.51700 2.30600 47.74600
C  43.38400 5.23800 47.15300
C  42.81300 0.44900 46.83300
C  47.55800 -0.25300 47.62400
C  48.28900 4.57700 47.94100
N  43.19000 2.84200 47.19600
C  42.68200 4.02900 46.92100
C  41.21600 3.82100 46.39600
C  40.93700 2.24800 46.62800
C  42.40700 1.80300 46.96700
C  39.86300 2.04400 47.80600
C  41.02900 4.33100 44.94300
C  39.69600 5.14500 44.69500
H  39.09700 4.92400 43.28800
N  45.21200 0.30700 47.28700
C  44.04900 -0.29400 47.02000
C  44.26000 -1.71400 46.87800
C  45.61700 -1.97800 47.06200
C  46.21600 -0.62900 47.35400
C  43.19400 -2.73900 46.54400
C  46.40700 -3.24000 47.00200
O  45.77900 -4.25200 46.70600
C  47.94100 -3.48500 47.30600
N  47.64300 2.18100 47.58400
C  48.14700 0.97100 47.84500
C  49.66400 1.05800 48.11000
C  49.94500 2.64800 48.16400
C  48.51800 3.20200 47.92800
C  50.10800 0.30900 49.41800
C  51.07800 3.23100 47.29500
C  51.70500 4.45700 48.02700
N  45.84300 4.48500 47.63000
C  47.01800 5.22500 47.72900
C  46.65300 6.64900 47.60600
C  45.31200 6.66900 47.40300
C  44.80200 5.32800 47.39000
C  47.56200 7.78600 47.71400
C  44.08900 7.52600 47.26900
O  43.97300 8.76600 47.22600
C  42.82700 6.59000 47.08800
C  41.80600 6.68700 48.18300
O  41.81900 6.12000 49.26500
O  40.82600 7.58500 47.78900
C  39.75700 7.76400 48.78800
H  41.93500 -0.14600 46.57000
H  48.32500 -1.01700 47.76800
H  49.10800 5.25800 48.18100
H  40.59500 4.49100 46.99000
H  40.64200 1.68300 45.74400
H  39.00400 1.67800 47.24400
H  39.58600 2.96800 48.31300
H  40.23500 1.37600 48.58400
H  41.05300 3.52400 44.21000
H  41.84400 5.01000 44.69300
H  39.88100 6.21600 44.77700
H  39.02700 4.85000 45.50300
H  43.30500 -3.04700 45.50400
H  42.18700 -2.34600 46.68800
H  43.39600 -3.59200 47.19100
H  48.52200 -2.99100 46.52800
H  48.04100 -4.56700 47.22200
H  48.32800 -3.24200 48.29600
H  50.17100 0.54000 47.29600
H  50.18300 2.96000 49.18100
H  49.27100 -0.00600 50.04100
H  50.63300 1.08400 49.97700
H  50.83300 -0.50100 49.33900
H  50.53700 3.62400 46.43300
H  51.85700 2.56900 46.91700
H  52.77000 4.22400 47.99000
H  51.42500 4.58200 49.07300
H  51.48400 5.38800 47.50500
H  47.19400 8.66600 47.18800
H  48.55100 7.62900 47.28400
H  47.68200 7.97300 48.78100
H  42.28000 6.87800 46.19000
H  39.04500 6.96000 48.60500
H  39.26600 8.73400 48.71300
H  40.02900 7.69100 49.84100
Mg 25.82200 51.00000 26.57500
C  23.82700 52.33800 29.00500
C  28.15100 50.11000 29.12400
C  28.16500 50.37600 24.17700
C  23.74700 52.44300 24.21000
N  25.87900 51.23700 28.74500
C  24.94000 51.76000 29.53900
C  25.27800 51.45700 30.99400
C  26.78700 51.09900 31.02400
C  26.97500 50.77100 29.51500
C  27.86700 52.17500 31.36600
C  24.30600 50.48000 31.83100
C  23.93800 51.01100 33.16500
H  25.17300 51.02500 34.11200
N  27.78800 50.23200 26.66400
C  28.61100 49.89900 27.79000
C  29.84500 49.29000 27.35000
C  29.80500 49.37500 25.92200
C  28.53200 49.99800 25.54000
C  30.99300 48.85600 28.34700
C  30.86500 48.92200 24.91600
O  30.71300 49.13700 23.68200
C  31.95000 47.93800 25.32100
N  25.95700 51.42600 24.52700
C  26.94500 51.03500 23.71200
C  26.65200 51.50100 22.26900
C  25.21500 51.98500 22.29300
C  24.92200 51.99600 23.76700
C  27.88400 52.38600 21.73200
C  24.14900 51.09200 21.51400
C  23.94100 51.47900 20.10800
N  24.06700 52.09700 26.54800
C  23.32400 52.59100 25.54400
C  22.09100 53.35500 26.06100
C  22.24400 53.20900 27.45700
C  23.43400 52.48100 27.65200
C  21.02900 54.09600 25.21700
C  21.67300 53.49800 28.78300
O  20.60000 53.97100 29.07500
C  22.76900 53.00700 29.78700
C  23.24700 54.06900 30.67400
O  24.04300 54.89500 30.37700
O  22.49600 54.14700 31.80100
C  22.58100 55.35500 32.58900
H  28.80900 49.83500 29.95100
H  28.81000 50.19400 23.31500
H  23.10100 52.92200 23.47200
H  25.24200 52.42300 31.49900
H  26.96500 50.19600 31.60800
H  28.37500 52.51700 30.46500
H  28.59900 51.68000 32.00400
H  27.41200 53.04600 31.83900
H  24.75000 49.48700 31.89700
H  23.34800 50.42700 31.31400
H  23.15400 50.37500 33.57500
H  23.67100 52.06100 33.04500
H  31.94200 49.27300 28.00900
H  31.05600 47.76700 28.34800
H  30.86200 49.07000 29.40700
H  32.83400 48.34800 25.81000
H  32.26200 47.48500 24.38000
H  31.50000 47.24900 26.03500
H  26.70300 50.58500 21.68100
H  25.01400 53.01200 21.98600
H  28.05900 51.88100 20.78100
H  28.79700 52.53900 22.30700
H  27.50700 53.36100 21.42300
H  23.14700 51.00600 21.93400
H  24.53800 50.08200 21.63800
H  24.68600 50.94100 19.52200
H  24.00300 52.53300 19.83900
H  22.99900 51.03300 19.78600
H  20.61500 53.37200 24.51500
H  21.44800 54.89200 24.60200
H  20.28100 54.48300 25.91000
H  22.18600 52.32400 30.40400
H  22.51600 55.14100 33.65600
H  21.70800 55.94400 32.30700
H  23.40500 56.02900 32.35900

