158

Mg 49.57400 46.45100 43.76300
C  46.24600 46.92000 42.68200
C  49.07800 43.03600 42.80700
C  52.85600 45.94300 43.97400
C  49.88100 49.78100 44.35700
N  47.79400 45.15200 42.83600
C  46.58200 45.58400 42.53000
C  45.75700 44.51500 41.82600
C  46.61400 43.26400 42.09100
C  47.93000 43.82700 42.59600
C  46.00000 42.46000 43.26800
C  45.38600 44.85400 40.27100
C  46.45400 44.63700 39.17900
H  45.86500 44.20400 37.82600
N  50.78300 44.73800 43.63400
C  50.36000 43.43600 43.28100
C  51.49500 42.52900 43.27100
C  52.68200 43.37400 43.67000
C  52.11600 44.76700 43.80300
C  51.42800 41.04900 42.90200
C  54.03300 42.88700 43.90600
O  54.29500 41.67400 43.87000
C  55.10200 43.76000 44.39400
N  51.15900 47.70300 44.05200
C  52.46600 47.28200 44.13800
C  53.47300 48.44100 44.40400
C  52.47800 49.65300 44.54600
C  51.06800 49.02900 44.27200
C  54.35900 48.17800 45.70600
C  52.75400 50.81300 43.57300
C  53.33400 52.14100 44.09500
N  48.33500 48.16900 43.64900
C  48.58500 49.41100 43.95900
C  47.39700 50.19700 43.81300
C  46.42200 49.28600 43.32800
C  47.03500 48.02600 43.24100
C  47.07700 51.67800 44.25200
C  45.05300 49.09200 42.92600
O  44.12700 49.83300 43.00100
C  44.91600 47.56600 42.39900
C  43.87600 46.85200 43.13600
O  43.89400 46.67000 44.36400
O  42.90200 46.41300 42.27300
C  41.72000 45.84300 42.93800
H  49.10700 42.01000 42.43200
H  53.94400 45.85100 43.97800
H  50.12300 50.82800 44.55300
H  44.85000 44.58800 42.42600
H  46.65500 42.53600 41.28100
H  45.02200 42.85600 43.54400
H  46.59000 42.53900 44.18100
H  45.74300 41.44400 42.96800
H  45.07400 45.89700 40.20500
H  44.50000 44.23400 40.13300
H  47.23200 43.94300 39.49600
H  47.07900 45.53000 39.18200
H  51.01000 41.03200 41.89600
H  50.71200 40.59200 43.58600
H  52.34600 40.46500 42.83100
H  54.82300 44.31700 45.28900
H  55.65600 44.39500 43.70300
H  55.83200 43.05200 44.78600
H  53.98500 48.63300 43.46100
H  52.52300 50.04100 45.56400
H  54.39300 47.14600 46.05700
H  54.05500 48.83000 46.52400
H  55.37100 48.28100 45.31400
H  51.88000 51.07400 42.97700
H  53.46700 50.53000 42.79800
H  54.41800 52.09300 43.98900
H  53.10400 52.26200 45.15400
H  52.80000 52.95600 43.60700
H  47.18900 52.48000 43.52300
H  47.67500 51.93100 45.12800
H  46.04500 51.72100 44.59800
H  44.78200 47.78800 41.34000
H  41.28100 46.61200 43.57400
H  42.11600 44.96700 43.45100
H  41.03600 45.63800 42.11500
Mg 29.42100 57.92800 40.43100
C  26.48800 56.05400 39.41700
C  31.34900 55.42700 39.09300
C  31.94800 59.89500 41.00200
C  27.15400 60.59300 41.07000
N  28.87500 56.02700 39.22800
C  27.70500 55.39000 39.02800
C  27.88100 53.96300 38.62700
C  29.38900 53.81200 38.52500
C  29.95100 55.21900 39.02000
C  30.02200 52.57600 39.22500
C  27.15900 53.40700 37.21300
C  26.88400 54.41400 36.11600
H  27.77900 54.34900 34.83900
N  31.41700 57.71800 40.19500
C  32.03800 56.63700 39.51100
C  33.40500 56.88800 39.37200
C  33.64000 58.14000 39.89300
C  32.36700 58.67600 40.44800
C  34.43200 55.90700 38.73200
C  35.04100 58.80500 40.11300
O  36.03900 58.25500 39.63500
C  35.19900 60.12700 40.83400
N  29.51800 60.01600 41.03700
C  30.73900 60.59100 41.25700
C  30.62200 62.10300 41.64200
C  29.11400 62.18000 41.80000
C  28.55000 60.85600 41.22600
C  31.36200 62.59300 42.97600
C  28.48100 63.45300 41.22400
C  27.45600 64.19000 42.14400
N  27.28000 58.32700 40.27000
C  26.57400 59.40100 40.68200
C  25.14200 59.11600 40.76500
C  25.10100 57.73000 40.36500
C  26.41400 57.35700 39.98600
C  24.15300 60.03800 41.39700
C  24.21800 56.57700 40.17500
O  23.04800 56.45700 40.40300
C  25.10600 55.43300 39.54100
C  25.00300 54.29800 40.49200
O  25.45800 54.39800 41.66200
O  24.49000 53.16400 39.88500
C  24.70900 51.91700 40.66000
H  31.95600 54.57900 38.76800
H  32.72400 60.62600 41.24200
H  26.45300 61.39800 41.30000
H  27.48300 53.36200 39.44500
H  29.65800 53.66700 37.47800
H  30.71800 53.00100 39.94900
H  30.55900 51.89400 38.56600
H  29.21200 52.08200 39.76200
H  26.19400 52.93700 37.40300
H  27.89200 52.70700 36.81000
H  26.84800 55.45600 36.43400
H  25.92800 54.15000 35.66300
H  34.96400 56.37000 37.90100
H  33.85600 55.10600 38.26700
H  35.12000 55.48900 39.46700
H  34.80800 61.01900 40.34500
H  36.27500 60.28500 40.89300
H  34.94100 60.18100 41.89200
H  31.02600 62.59500 40.75700
H  28.88900 62.06600 42.86000
H  31.91500 61.77900 43.44300
H  30.67400 63.08300 43.66500
H  32.13100 63.26300 42.59100
H  27.88000 63.30800 40.32700
H  29.27200 64.15300 40.95300
H  26.48900 64.40800 41.69300
H  27.86200 65.13900 42.49500
H  27.23800 63.61800 43.04600
H  24.60100 60.74000 42.10000
H  23.44300 59.50900 42.03100
H  23.48700 60.56300 40.71200
H  24.78200 55.15200 38.53900
H  24.35100 52.02500 41.68300
H  25.78400 51.78400 40.78800
H  24.20400 51.15000 40.07300

