158

Mg -2.07500 17.44900 27.19400
C  -2.68700 15.15600 29.88900
C  -2.68700 20.03800 29.33200
C  -2.08700 19.41500 24.56600
C  -1.91600 14.57700 25.09300
N  -2.61300 17.58700 29.42000
C  -2.77900 16.50600 30.32100
C  -2.95100 17.07900 31.82000
C  -2.96000 18.65900 31.50300
C  -2.75700 18.83100 29.98400
C  -4.19600 19.39800 32.01600
C  -1.77700 16.60100 32.74700
C  -1.35500 17.55900 33.87000
H  -0.98400 16.73600 35.13300
N  -2.27700 19.46600 26.97200
C  -2.41000 20.37700 27.98800
C  -2.44100 21.73400 27.40700
C  -2.29800 21.62100 25.95300
C  -2.29600 20.10500 25.79200
C  -2.59800 22.99700 28.28900
C  -2.23400 22.55900 24.98500
O  -2.17100 22.25300 23.83100
C  -2.16000 23.93200 25.33400
N  -2.20400 17.00800 25.18800
C  -2.06600 18.04100 24.31700
C  -1.92100 17.49000 22.88300
C  -1.68700 15.98900 23.08400
C  -1.94800 15.81400 24.52600
C  -3.14500 17.81100 21.96700
C  -0.20800 15.57800 22.64000
C  1.02200 16.18300 23.31800
N  -2.13900 15.40000 27.41400
C  -1.99000 14.38200 26.43600
C  -2.02500 13.10500 27.06400
C  -2.45300 13.40000 28.38800
C  -2.34100 14.74500 28.53500
C  -1.97100 11.80600 26.47500
C  -2.74600 12.78000 29.67800
O  -2.92300 11.60100 29.99500
C  -2.74000 13.88300 30.69100
C  -1.50500 13.68900 31.39900
O  -0.36200 13.95200 31.03100
O  -1.78700 13.13500 32.62700
C  -0.64200 12.87100 33.54600
H  -2.91600 20.89100 29.97500
H  -1.80600 19.99500 23.68400
H  -1.80900 13.74800 24.39000
H  -3.82500 16.68300 32.33700
H  -2.10600 19.11400 32.00600
H  -3.95500 19.91900 32.94300
H  -4.80400 18.61500 32.46800
H  -4.70900 20.07500 31.33300
H  -0.86100 16.45000 32.17600
H  -2.07200 15.66700 33.22600
H  -2.12600 18.20900 34.28400
H  -0.48900 18.17700 33.63100
H  -1.69100 23.58500 28.15300
H  -2.72600 22.73400 29.33900
H  -3.41400 23.66200 28.00700
H  -1.19200 24.27200 25.70100
H  -2.99700 24.21100 25.97500
H  -2.18300 24.43800 24.36900
H  -1.12900 17.97900 22.31600
H  -2.40400 15.38200 22.53000
H  -2.93200 17.78200 20.89800
H  -3.42300 18.85500 22.11000
H  -4.08300 17.28800 22.15400
H  -0.08400 15.79300 21.57800
H  -0.06300 14.50200 22.73900
H  1.50300 16.78100 22.54500
H  1.69700 15.51600 23.85500
H  0.68700 16.97800 23.98400
H  -1.10200 11.85600 25.81900
H  -2.89800 11.49900 25.99100
H  -1.62100 11.03800 27.16400
H  -3.62000 13.86200 31.33400
H  -0.95800 13.27300 34.50800
H  0.32600 13.33800 33.36000
H  -0.54600 11.79300 33.67800
Mg 42.41300 41.62700 25.65300
C  41.41100 43.87600 28.15900
C  43.62700 39.56700 28.14200
C  43.60200 39.48000 23.27100
C  41.85400 44.10100 23.28700
N  42.36600 41.63600 27.91000
C  42.00400 42.69800 28.66300
C  42.16300 42.39500 30.15200
C  42.91300 41.05100 30.15800
C  43.02400 40.73400 28.64700
C  44.28100 40.87900 30.93300
C  40.79000 42.46800 31.02700
C  40.79100 42.95100 32.45500
H  40.07000 42.06600 33.56100
N  43.43000 39.78200 25.71100
C  43.82500 39.08000 26.84500
C  44.41800 37.81000 26.47800
C  44.36600 37.69600 25.04100
C  43.74400 38.96700 24.62100
C  44.94400 36.75400 27.43300
C  44.83300 36.57000 24.18000
O  44.75900 36.61200 22.96000
C  45.60800 35.49000 24.75700
N  42.76300 41.82500 23.59200
C  43.21300 40.76600 22.82800
C  43.06900 41.05400 21.32300
C  42.55300 42.65000 21.29800
C  42.43500 42.90400 22.79900
C  44.32400 40.79800 20.59300
C  41.08900 42.83600 20.71000
C  40.92700 44.11300 19.87100
N  41.57200 43.53800 25.64600
C  41.48000 44.43300 24.60200
C  40.85600 45.59900 25.10100
C  40.84800 45.44200 26.51200
C  41.39000 44.15500 26.77900
C  40.44800 46.79900 24.30400
C  40.47700 46.08500 27.68300
O  39.93300 47.20100 27.94300
C  40.85900 45.09200 28.83800
C  41.84400 45.72900 29.91200
O  43.01200 45.95300 29.69300
O  41.20700 45.98500 31.13200
C  41.99300 46.43200 32.32000
H  44.03800 38.95700 28.94900
H  43.93400 38.83600 22.45400
H  41.64700 44.87500 22.54500
H  42.82600 43.16700 30.54400
H  42.23000 40.32200 30.59400
H  44.32000 41.69700 31.65200
H  45.16100 40.90000 30.28900
H  44.20400 39.95700 31.50900
H  40.41800 41.44400 31.05400
H  39.98200 42.88000 30.42400
H  40.31400 43.93100 32.47900
H  41.80400 43.18300 32.78400
H  44.75900 37.10700 28.44700
H  46.01800 36.63400 27.29100
H  44.38800 35.82000 27.35000
H  46.54400 35.85100 25.18300
H  45.99900 34.84600 23.96900
H  44.96500 35.02600 25.50400
H  42.28400 40.43900 20.88200
H  43.31200 43.29100 20.84900
H  45.12400 41.16700 21.23400
H  44.36500 41.37000 19.66600
H  44.26300 39.72500 20.40900
H  40.38500 42.85900 21.54100
H  40.82500 41.95200 20.13000
H  41.60100 44.94200 20.08700
H  39.87000 44.33700 20.01400
H  41.15800 43.96800 18.81600
H  40.07700 47.56000 24.99000
H  39.63200 46.50500 23.64400
H  41.29800 47.27400 23.81400
H  39.88100 44.98800 29.31000
H  42.39000 45.57000 32.85600
H  41.38200 47.06400 32.96500
H  42.89800 47.00400 32.11600

