158

Mg 17.31100 -1.04700 27.46400
C  16.32600 0.65900 30.31200
C  19.51700 -2.82300 29.47200
C  18.88400 -2.36800 24.79700
C  15.79700 1.20600 25.53700
N  17.99000 -0.89300 29.71200
C  17.31700 -0.26500 30.69500
C  17.79100 -0.73500 32.03700
C  18.99000 -1.71800 31.76600
C  18.88800 -1.79700 30.20700
C  20.29500 -1.26000 32.40200
C  16.57900 -1.34500 32.87300
C  16.35100 -0.68300 34.23800
H  17.56500 -0.03000 34.96000
N  18.79700 -2.59800 27.17200
C  19.57700 -3.21300 28.11100
C  20.24800 -4.33900 27.56800
C  20.17100 -4.22900 26.18300
C  19.32400 -2.97400 25.97200
C  20.99200 -5.41200 28.37300
C  20.76200 -5.01200 25.04300
O  20.68800 -4.70900 23.84500
C  21.59600 -6.25700 25.44200
N  17.30900 -0.67900 25.51100
C  18.00800 -1.32300 24.54800
C  17.88400 -0.63700 23.15500
C  16.65700 0.21300 23.37100
C  16.59900 0.31100 24.87900
C  19.25100 0.17300 22.84000
C  15.32500 -0.04500 22.66700
C  14.19300 -0.63000 23.56200
N  16.18400 0.46800 27.82800
C  15.63700 1.34600 26.91200
C  14.78100 2.29600 27.54300
C  15.05800 2.02200 28.89700
C  15.95800 0.93900 29.01400
C  13.94400 3.43200 26.87500
C  14.77400 2.53400 30.18400
O  14.08800 3.48800 30.53900
C  15.56300 1.61000 31.18400
C  16.48600 2.42500 32.11300
O  17.67800 2.65900 32.01200
O  15.75200 2.84200 33.16800
C  16.42900 3.79700 33.95700
H  20.05100 -3.55700 30.07900
H  19.24000 -2.82900 23.87300
H  15.37600 2.00800 24.92700
H  18.08000 0.16600 32.57900
H  18.83900 -2.74500 32.09600
H  21.11200 -1.14900 31.69000
H  20.61500 -2.05500 33.07500
H  20.21300 -0.37400 33.03200
H  16.82600 -2.39300 33.04300
H  15.76200 -1.21700 32.16400
H  16.07800 -1.60300 34.75500
H  15.47400 -0.03500 34.25200
H  21.96500 -5.66000 27.94900
H  20.32500 -6.26800 28.26100
H  21.31500 -5.24500 29.40100
H  22.58500 -5.99500 25.81900
H  21.72100 -6.76900 24.48900
H  20.97300 -6.84500 26.11600
H  17.71800 -1.34100 22.33900
H  16.87300 1.21600 23.00200
H  19.50300 0.16000 21.77900
H  20.12900 -0.22500 23.35000
H  19.07200 1.20900 23.12500
H  15.49900 -0.79600 21.89700
H  15.01100 0.94700 22.34400
H  13.83400 0.12500 24.26100
H  14.61200 -1.48300 24.09500
H  13.28000 -0.78700 22.98700
H  13.55900 3.08600 25.91600
H  14.61600 4.23000 26.56100
H  13.09700 3.80400 27.45100
H  14.90600 1.09500 31.88600
H  16.97200 4.47800 33.30100
H  17.16100 3.38800 34.65200
H  15.80600 4.41100 34.60700
Mg 44.56000 5.00000 48.08000
C  42.52400 7.76600 47.49700
C  41.78100 2.99300 47.13500
C  46.64200 2.37600 47.79700
C  47.28700 7.19900 48.18500
N  42.49000 5.36000 47.27800
C  41.95800 6.57700 47.01400
C  40.50900 6.54300 46.49400
C  40.18800 5.03400 46.70700
C  41.49900 4.37400 47.12100
C  39.10200 4.67500 47.76400
C  40.30500 7.19200 45.06500
C  38.88000 7.70300 44.63500
H  38.48200 7.35000 43.17700
N  44.20800 2.94600 47.76700
C  43.01800 2.34000 47.35700
C  43.28100 0.91800 47.30500
C  44.66400 0.67400 47.48000
C  45.22300 2.01000 47.70900
C  42.14800 -0.06800 47.11300
C  45.34800 -0.68500 47.61700
O  44.70800 -1.68100 47.32900
C  46.78600 -0.90100 48.10100
N  46.63600 4.84600 47.85900
C  47.24600 3.63000 47.91600
C  48.75500 3.83500 48.07200
C  48.95100 5.35800 47.90100
C  47.51400 5.84700 47.92900
C  49.33900 3.19600 49.31000
C  49.80100 5.91100 46.65900
C  49.06400 6.08700 45.28300
N  44.87400 7.01500 48.07600
C  46.01400 7.74600 48.20200
C  45.62600 9.17000 48.32600
C  44.25800 9.21400 48.01700
C  43.83300 7.86600 47.89600
C  46.49000 10.39200 48.46000
C  43.12000 10.07000 47.80000
O  42.90400 11.29600 47.83500
C  41.96400 9.11400 47.48800
C  40.96000 9.34800 48.43400
O  40.97100 9.11800 49.59600
O  39.84100 9.95100 47.86000
C  38.70000 10.12900 48.73200
H  40.93500 2.37900 46.82000
H  47.41200 1.61700 47.95400
H  48.12700 7.88400 48.32100
H  39.85900 7.03400 47.21800
H  39.90000 4.71300 45.70600
H  38.18800 4.38400 47.24700
H  38.88800 5.58900 48.31700
H  39.39800 3.94100 48.51500
H  40.39400 6.27600 44.48100
H  41.09200 7.81500 44.63900
H  38.91800 8.78600 44.52600
H  38.13000 7.41300 45.37200
H  41.24000 0.38700 46.71800
H  42.03400 -0.68300 48.00600
H  42.52100 -0.71900 46.32200
H  47.12500 -0.28400 48.93300
H  47.45100 -0.65900 47.27200
H  46.82300 -1.98800 48.17000
H  49.13100 3.27800 47.21400
H  49.35300 5.72400 48.84600
H  49.27200 2.11000 49.36100
H  48.92200 3.76500 50.14000
H  50.39400 3.46200 49.37400
H  50.45400 5.07100 46.42200
H  50.39400 6.78600 46.92400
H  49.47500 5.40100 44.54300
H  49.20200 7.09300 44.88700
H  48.02700 5.79300 45.45000
H  46.32900 10.90400 49.40900
H  46.23200 11.06400 47.64100
H  47.49800 10.01000 48.29900
H  41.60600 9.37400 46.49200
H  39.06700 10.44900 49.70600
H  38.04400 9.25900 48.77800
H  38.04200 10.92900 48.39300

