158

Mg 48.14700 16.04600 28.71800
C  46.12400 16.08300 31.55700
C  50.40200 18.10500 30.53000
C  49.64200 17.01700 25.83100
C  45.54300 14.71200 26.98700
N  48.35000 16.83800 30.88700
C  47.35100 16.73200 31.80300
C  47.83800 17.29700 33.09900
C  48.94900 18.28600 32.59100
C  49.27600 17.72400 31.21600
C  48.64000 19.78500 32.62000
C  48.22800 16.07600 34.03300
C  47.74000 16.28300 35.45800
H  47.32700 17.65500 35.97600
N  49.81600 17.27200 28.31900
C  50.75000 17.82100 29.17800
C  51.87500 18.36900 28.45700
C  51.60700 18.18700 27.08200
C  50.25000 17.46000 27.02700
C  53.09800 19.02000 29.12000
C  52.40500 18.63400 25.81700
O  52.06500 18.35700 24.69300
C  53.66000 19.57600 25.95000
N  47.59300 16.05700 26.72100
C  48.40000 16.36600 25.72400
C  47.96800 15.90900 24.35800
C  46.81300 15.01100 24.71800
C  46.64800 15.19100 26.23300
C  47.49300 17.06300 23.45900
C  47.12200 13.46500 24.48900
C  45.95700 12.64700 23.94300
N  46.28700 15.19200 29.23200
C  45.34800 14.62900 28.39600
C  44.20700 14.15500 29.15500
C  44.45300 14.64400 30.46700
C  45.67500 15.40100 30.43500
C  42.93200 13.63300 28.52600
C  43.88500 14.90300 31.75600
O  42.86700 14.55300 32.30600
C  45.05000 15.72500 32.56200
C  44.39700 16.84500 33.33100
O  44.04900 17.93800 32.84300
O  44.25900 16.44900 34.61000
C  43.33700 17.34300 35.37900
H  51.14200 18.67500 31.09500
H  50.25600 17.16500 24.94000
H  44.71800 14.18700 26.50100
H  47.05100 17.92700 33.51300
H  49.84800 18.16200 33.19400
H  47.67800 20.07400 33.04200
H  48.77100 20.24800 31.64200
H  49.33800 20.29400 33.28500
H  49.31200 15.96000 34.01700
H  47.66500 15.23700 33.62300
H  48.54400 16.05400 36.15700
H  46.98200 15.51900 35.62900
H  53.21000 20.01000 28.67700
H  53.90300 18.32100 28.89000
H  52.85800 19.22100 30.16400
H  53.88400 19.86600 24.92300
H  54.49100 19.05500 26.42500
H  53.37300 20.50500 26.44300
H  48.80400 15.36000 23.92500
H  45.88600 15.12000 24.15500
H  46.53100 16.85400 22.99200
H  48.29600 17.11700 22.72400
H  47.39500 17.95200 24.08300
H  47.40700 13.11100 25.47900
H  47.97400 13.43300 23.80900
H  46.31100 12.07100 23.08800
H  45.01600 13.15900 23.74200
H  45.74100 12.00200 24.79400
H  42.09300 14.13500 29.00700
H  42.87700 12.56700 28.74800
H  42.86700 13.75400 27.44500
H  45.38400 15.05200 33.35200
H  42.56200 17.73900 34.72200
H  43.87900 18.10600 35.93700
H  42.82300 16.86900 36.21600
Mg -2.28200 34.36000 27.61300
C  -3.88900 32.54800 30.11900
C  -0.80200 36.27100 30.12300
C  -0.84800 36.26700 25.15300
C  -4.17300 32.60200 25.19500
N  -2.38000 34.37800 29.82200
C  -3.16800 33.63700 30.65000
C  -2.91700 33.91600 32.22900
C  -2.04900 35.21900 32.10400
C  -1.61800 35.27500 30.60700
C  -2.58700 36.63800 32.50100
C  -2.34500 32.67700 33.00000
C  -3.08800 32.14600 34.27600
H  -2.33200 32.14700 35.63500
N  -1.04600 36.07000 27.66700
C  -0.51600 36.66700 28.75900
C  0.38700 37.69800 28.34100
C  0.48500 37.67400 26.89500
C  -0.52200 36.66400 26.49900
C  1.15500 38.54800 29.29400
C  1.34900 38.54900 25.98900
O  1.34700 38.40600 24.75700
C  2.00400 39.74800 26.47600
N  -2.51800 34.48800 25.46900
C  -1.75700 35.28700 24.71000
C  -2.15000 35.12600 23.25400
C  -2.93000 33.78600 23.25800
C  -3.23100 33.60800 24.73700
C  -3.00700 36.36000 22.81600
C  -2.05600 32.68600 22.77500
C  -2.22400 32.27800 21.31600
N  -3.62000 32.84000 27.57500
C  -4.36800 32.26000 26.51200
C  -5.24400 31.26600 27.03500
C  -5.08100 31.31700 28.45300
C  -4.08900 32.29200 28.75100
C  -6.14000 30.39000 26.18700
C  -5.60500 30.79600 29.71800
O  -6.36600 29.89500 29.98500
C  -4.82000 31.58600 30.83800
C  -5.87400 32.19000 31.73500
O  -6.76600 32.95400 31.36800
O  -5.67100 31.73000 33.02800
C  -6.82600 31.76400 33.90900
H  -0.38900 36.90200 30.91200
H  -0.45100 36.83800 24.31000
H  -4.81200 32.21700 24.39700
H  -3.89700 34.23100 32.58600
H  -1.25900 35.08400 32.84300
H  -1.79400 37.14200 33.05400
H  -3.46000 36.61900 33.15300
H  -2.79000 37.12000 31.54400
H  -1.36600 32.91000 33.41800
H  -2.20200 31.79800 32.37100
H  -3.31000 31.10500 34.04400
H  -3.99300 32.73400 34.43200
H  0.53400 38.75800 30.16500
H  1.56700 39.50000 28.95800
H  1.97700 37.94600 29.68000
H  1.35400 40.38200 27.07900
H  2.38200 40.31200 25.62400
H  2.81100 39.34300 27.08700
H  -1.29700 35.11300 22.57600
H  -3.93100 33.87600 22.83700
H  -2.59100 36.93600 21.99000
H  -3.06500 37.01700 23.68500
H  -3.98800 35.99200 22.51500
H  -2.09200 31.87600 23.50400
H  -1.00400 32.96900 22.81800
H  -1.26700 32.56200 20.87900
H  -3.07800 32.81800 20.90700
H  -2.47500 31.22500 21.19000
H  -5.42400 29.75100 25.67100
H  -6.56700 30.94600 25.35200
H  -6.80600 29.86100 26.86900
H  -4.24200 30.78800 31.30400
H  -7.07800 30.85300 34.45200
H  -7.66900 31.98700 33.25500
H  -6.74300 32.60600 34.59600

