158

Mg 7.88200 3.45100 27.25700
C  9.34300 1.85200 30.02600
C  6.10100 5.45200 29.37300
C  6.68400 5.02600 24.46300
C  9.06000 0.80200 25.18600
N  7.81100 3.65300 29.46300
C  8.63200 3.02500 30.39500
C  8.44700 3.55300 31.89200
C  7.37300 4.73000 31.62100
C  7.09100 4.66900 30.04800
C  6.10000 4.42200 32.44300
C  9.78200 3.89800 32.54000
C  9.74400 4.83400 33.72500
H  10.56600 4.57400 34.96600
N  6.55600 5.03800 26.98300
C  5.98100 5.72300 27.97100
C  5.18300 6.78200 27.39400
C  5.57500 6.82200 25.97000
C  6.29000 5.58400 25.73200
C  4.35600 7.77400 28.12300
C  5.29600 7.85300 24.93000
O  5.76200 7.78500 23.79400
C  4.67400 9.14500 25.35800
N  7.95500 3.07700 25.13800
C  7.36200 3.82700 24.20800
C  7.39500 3.26900 22.81500
C  7.96600 1.89200 23.03800
C  8.39300 1.93100 24.52700
C  5.93900 3.21500 22.15600
C  9.19800 1.48700 22.13300
C  8.97900 0.16700 21.39600
N  8.94400 1.67300 27.51600
C  9.36200 0.74800 26.59000
C  10.15900 -0.19800 27.31300
C  10.19400 0.12800 28.63000
C  9.45100 1.33500 28.71200
C  10.93000 -1.29600 26.70600
C  10.73500 -0.16700 29.91100
O  11.37300 -1.15400 30.30700
C  10.23800 0.99500 30.84700
C  9.55100 0.29300 31.93300
O  8.50600 -0.33700 31.94000
O  10.39800 0.41400 33.02900
C  9.85600 -0.05900 34.28200
H  5.45200 6.07100 29.99600
H  6.19300 5.50200 23.61100
H  9.27200 -0.07500 24.57200
H  8.04800 2.73700 32.49500
H  7.79100 5.67000 31.98300
H  6.08800 3.43800 32.91300
H  5.22500 4.42400 31.79300
H  5.97100 5.27600 33.10800
H  10.40400 4.37300 31.78000
H  10.18100 2.95400 32.91000
H  8.73500 5.10100 34.04100
H  10.07400 5.75200 33.23900
H  4.10200 7.45400 29.13300
H  3.39500 8.00100 27.66100
H  4.85800 8.74000 28.17100
H  3.71700 9.03000 25.86800
H  4.51600 9.64000 24.40000
H  5.42000 9.69600 25.93200
H  7.95500 3.96500 22.19000
H  7.17300 1.14500 22.99100
H  5.70900 2.23300 21.74200
H  5.78800 4.05800 21.48200
H  5.27100 3.39600 22.99700
H  10.13600 1.49400 22.68900
H  9.22300 2.24700 21.35100
H  8.21500 -0.47400 21.83600
H  9.88700 -0.40100 21.59900
H  8.88700 0.38400 20.33200
H  11.85900 -1.43400 27.25900
H  11.19500 -1.19300 25.65300
H  10.31200 -2.18000 26.86300
H  11.12000 1.55400 31.16000
H  9.70900 0.84000 34.88000
H  10.53500 -0.67900 34.86700
H  8.90400 -0.58900 34.29600
Mg 29.82100 57.70200 39.40500
C  27.06600 55.56000 38.79100
C  31.93300 55.19800 38.48400
C  32.17900 60.11800 38.92200
C  27.38100 60.41800 39.87600
N  29.47900 55.62500 38.68200
C  28.26300 54.93100 38.47800
C  28.54400 53.54600 37.83200
C  30.05800 53.40200 38.14400
C  30.57500 54.82100 38.57700
C  30.51500 52.38400 39.13500
C  28.18700 53.21600 36.40700
C  28.35200 54.24000 35.37300
H  27.40000 54.27400 34.13800
N  31.90300 57.65500 38.91700
C  32.55500 56.50500 38.61800
C  33.90600 56.90400 38.20300
C  33.95700 58.34300 38.27800
C  32.65100 58.81800 38.78400
C  35.00400 55.84400 37.88100
C  35.13700 59.11300 37.78400
O  36.02000 58.54900 37.15000
C  35.24000 60.58400 38.03800
N  29.78000 59.94400 39.60700
C  30.91500 60.61200 39.22100
C  30.68100 62.15900 39.33700
C  29.13400 62.27400 39.68600
C  28.74300 60.81300 39.79300
C  31.59700 62.82600 40.37100
C  28.29400 63.05900 38.69800
C  27.85100 64.37000 39.19000
N  27.68500 57.98300 39.40000
C  26.87900 59.09200 39.58900
C  25.49900 58.68700 39.52100
C  25.52700 57.32100 39.20500
C  26.86600 56.97900 39.10800
C  24.29900 59.62400 39.89700
C  24.77200 56.16000 38.96200
O  23.57100 55.89300 38.93600
C  25.67100 55.03200 38.51900
C  25.28900 53.84000 39.37300
O  25.10900 53.82800 40.59200
O  25.06300 52.78200 38.51400
C  24.53600 51.49700 39.02200
H  32.52500 54.37400 38.08100
H  32.86000 60.93300 38.66500
H  26.60800 61.18900 39.91700
H  28.04900 52.84700 38.50600
H  30.56500 53.12400 37.22000
H  31.09100 52.73900 39.99000
H  31.00900 51.55600 38.62700
H  29.58300 52.01300 39.56000
H  27.20000 52.76600 36.30200
H  28.72700 52.34700 36.03200
H  29.33500 54.24500 34.90100
H  28.37000 55.22300 35.84500
H  35.43900 55.87300 36.88300
H  34.60600 54.84800 38.07400
H  35.72500 56.09800 38.65800
H  36.17500 61.07700 37.76800
H  34.94900 60.80700 39.06400
H  34.53500 60.96100 37.29700
H  30.89400 62.48400 38.31800
H  29.03800 62.68300 40.69100
H  32.63000 62.94900 40.04400
H  31.58700 62.28000 41.31400
H  31.20900 63.84200 40.44300
H  27.49500 62.49100 38.22100
H  28.83700 63.23500 37.77000
H  28.37900 64.96800 38.44700
H  28.21800 64.66100 40.17400
H  26.78400 64.57400 39.09600
H  24.14200 60.16700 38.96500
H  24.70900 60.32600 40.62300
H  23.43900 59.07200 40.27600
H  25.44900 54.81400 37.47500
H  23.57300 51.39700 38.52200
H  24.47300 51.49000 40.11000
H  25.05600 50.62000 38.63600

