158

Mg 0.74600 42.71400 25.95500
C  1.77200 42.70200 29.21000
C  -2.38900 41.38900 26.96100
C  0.04500 41.90500 22.78000
C  4.06300 43.77200 24.99400
N  -0.16300 42.06600 27.88700
C  0.42200 42.29600 29.10700
C  -0.53300 41.90000 30.25800
C  -1.71100 41.25400 29.50200
C  -1.43000 41.58200 27.97100
C  -1.97800 39.68000 29.74300
C  -0.88400 43.07700 31.18000
C  -0.98700 42.68900 32.67100
H  -1.65900 41.31600 33.11300
N  -1.00900 41.94300 24.98900
C  -2.20600 41.55700 25.56100
C  -3.21800 41.42800 24.55000
C  -2.50200 41.46500 23.27100
C  -1.04700 41.71700 23.61700
C  -4.63200 41.23800 24.85300
C  -2.99500 41.18100 21.87600
O  -2.19100 41.17700 20.90700
C  -4.40200 40.99200 21.56700
N  1.84600 42.77700 24.20200
C  1.36400 42.34500 23.02700
C  2.27500 42.79000 21.90800
C  3.44600 43.58200 22.52300
C  3.11000 43.44900 24.00600
C  2.74900 41.62200 21.08600
C  3.43500 45.08300 22.08900
C  3.60500 45.32500 20.59200
N  2.52400 43.19400 26.87600
C  3.76900 43.63300 26.40000
C  4.68400 43.80100 27.44500
C  3.95600 43.39300 28.57000
C  2.62300 43.11400 28.16600
C  6.14800 44.28000 27.32900
C  4.07100 43.23300 29.98400
O  4.98200 43.39700 30.71400
C  2.67000 42.82700 30.44300
C  2.84900 41.46900 31.03000
O  3.57600 40.55800 30.66000
O  2.15800 41.48400 32.19400
C  2.45300 40.25200 32.96900
H  -3.37000 41.08600 27.33200
H  -0.12300 41.92500 21.70200
H  5.02200 44.19000 24.68000
H  -0.07300 41.18600 30.94100
H  -2.60600 41.77700 29.83900
H  -1.29300 39.23300 30.46300
H  -1.92500 39.23100 28.75100
H  -3.02500 39.53900 30.01000
H  -1.84500 43.53300 30.94600
H  -0.20400 43.91600 31.02800
H  -1.58400 43.50000 33.08700
H  0.06000 42.69900 32.97300
H  -5.27000 42.09400 24.63200
H  -4.77700 40.98000 25.90200
H  -5.03100 40.40000 24.28300
H  -4.70900 39.94900 21.65300
H  -4.61400 41.33000 20.55300
H  -4.94500 41.67900 22.21600
H  1.77900 43.46300 21.21000
H  4.37600 43.05600 22.30600
H  1.94600 41.28600 20.42900
H  2.95400 40.79600 21.76600
H  3.62700 41.86000 20.48500
H  4.18300 45.58800 22.70000
H  2.43300 45.43700 22.33100
H  2.68400 45.51200 20.03900
H  4.12500 44.49500 20.11300
H  4.25300 46.19800 20.51500
H  6.37900 44.42500 26.27400
H  6.85000 43.55300 27.73900
H  6.09800 45.22000 27.87900
H  2.22000 43.50200 31.17100
H  3.49800 40.39600 33.24400
H  2.26100 39.31300 32.45100
H  1.87900 40.37400 33.88800
Mg -12.17200 16.99200 42.19500
C  -8.99500 15.71400 41.61800
C  -10.88800 20.16600 41.15500
C  -15.23800 18.06000 41.62800
C  -13.36900 13.78700 42.63900
N  -10.13200 17.86300 41.46200
C  -8.99700 17.07900 41.35200
C  -7.82700 18.00400 41.01100
C  -8.40600 19.49800 41.10100
C  -9.84600 19.20800 41.31900
C  -7.90700 20.52400 42.16900
C  -7.26200 17.64900 39.53200
C  -5.74000 17.36400 39.45100
H  -5.27700 16.09600 38.68500
N  -12.94300 18.86800 41.63100
C  -12.31900 19.99900 41.24700
C  -13.25600 21.02100 40.76200
C  -14.49100 20.43800 41.10200
C  -14.28800 19.06100 41.45300
C  -12.81100 22.36200 40.18200
C  -15.77800 21.33900 41.10500
O  -15.64400 22.51700 40.77000
C  -17.12800 20.82500 41.39400
N  -14.02100 15.99700 42.01900
C  -15.14000 16.67400 41.88100
C  -16.40200 15.88400 42.29800
C  -15.83600 14.55300 42.79400
C  -14.31600 14.74600 42.53100
C  -17.39600 16.57700 43.30600
C  -16.30700 13.26600 42.13600
C  -17.54000 12.52100 42.79900
N  -11.33200 15.11800 42.37500
C  -12.00800 13.89100 42.51800
C  -10.99600 12.83600 42.50800
C  -9.79500 13.53300 42.18600
C  -10.12400 14.91800 41.98500
C  -11.22200 11.44900 42.77700
C  -8.41000 13.24100 42.04600
O  -7.71900 12.25500 42.23900
C  -7.80500 14.73400 41.70100
C  -6.88500 15.07000 42.78500
O  -7.22300 15.56400 43.86700
O  -5.60600 14.62700 42.46000
C  -4.58300 15.03700 43.38700
H  -10.47400 21.16400 40.99400
H  -16.25900 18.43900 41.55800
H  -13.68800 12.78000 42.91800
H  -6.97700 17.94200 41.69000
H  -8.36400 20.02200 40.14600
H  -8.41800 20.55200 43.13200
H  -8.06100 21.45800 41.62800
H  -6.82400 20.42500 42.25300
H  -7.45200 18.39600 38.76100
H  -7.77700 16.75200 39.18700
H  -5.38700 17.26100 40.47600
H  -5.27000 18.25900 39.04200
H  -11.83100 22.33200 39.70600
H  -12.79500 23.09000 40.99300
H  -13.51100 22.73800 39.43600
H  -17.42000 20.23900 40.52300
H  -17.76200 21.71100 41.36800
H  -17.21800 20.08800 42.19200
H  -16.99600 15.73500 41.39700
H  -15.93500 14.48200 43.87700
H  -18.45400 16.55200 43.04500
H  -17.07500 17.61400 43.40000
H  -17.37600 16.07000 44.27000
H  -15.47500 12.57400 42.00300
H  -16.63500 13.47700 41.11800
H  -18.29900 12.55100 42.01700
H  -17.74600 13.06000 43.72400
H  -17.23800 11.49600 43.01200
H  -11.60400 10.93300 41.89700
H  -12.06100 11.14200 43.40200
H  -10.34700 11.00200 43.25000
H  -7.29900 14.73100 40.73500
H  -3.67600 15.12200 42.79000
H  -4.53000 14.30200 44.19100
H  -4.84100 16.02500 43.76800

