158

Mg -1.50300 18.03900 27.84800
C  -2.09800 15.52400 30.44000
C  -2.31300 20.39800 30.23600
C  -1.72700 20.27700 25.39800
C  -1.16700 15.45800 25.62600
N  -2.18200 17.92900 30.08900
C  -2.20500 16.84900 30.90600
C  -2.68600 17.24800 32.38400
C  -2.87500 18.85600 32.17700
C  -2.42000 19.12600 30.74400
C  -4.32900 19.31300 32.54400
C  -1.66800 16.69400 33.40900
C  -1.32900 17.64100 34.56600
H  -0.77800 17.07400 35.85000
N  -1.96200 20.05300 27.82800
C  -2.22900 20.81500 28.93300
C  -2.28300 22.17000 28.50900
C  -2.06200 22.23600 27.12100
C  -1.91500 20.83000 26.71400
C  -2.58100 23.35900 29.42900
C  -1.98500 23.43200 26.17000
O  -1.78800 23.37500 24.92000
C  -2.12800 24.77000 26.77100
N  -1.62900 17.89600 25.81500
C  -1.59700 18.97900 24.97300
C  -1.50600 18.49800 23.52600
C  -1.16000 16.98100 23.66300
C  -1.31900 16.76800 25.16400
C  -2.86300 18.77700 22.74000
C  0.25900 16.69800 22.99700
C  1.48200 17.38600 23.59300
N  -1.59500 15.93500 27.97300
C  -1.47800 15.01600 26.90500
C  -1.50800 13.65700 27.50200
C  -1.74900 13.79600 28.89700
C  -1.86100 15.17500 29.09700
C  -1.39600 12.37400 26.69700
C  -1.93800 13.04300 30.03100
O  -2.05600 11.85800 30.27800
C  -2.13500 14.13700 31.16400
C  -1.07100 13.92000 32.16300
O  0.06400 14.27500 32.02500
O  -1.57800 13.28900 33.22100
C  -0.71600 12.99100 34.29600
H  -2.38400 21.22100 30.95000
H  -1.82800 20.98900 24.57700
H  -0.99900 14.69700 24.86100
H  -3.61100 16.68800 32.52300
H  -2.16100 19.49900 32.69200
H  -4.32400 19.97900 33.40600
H  -4.95600 18.51200 32.93600
H  -4.76200 19.85700 31.70500
H  -0.71400 16.44000 32.94800
H  -2.07200 15.82400 33.92700
H  -2.21900 18.24800 34.72600
H  -0.43400 18.17900 34.25300
H  -1.82000 24.13000 29.31700
H  -2.44700 23.09900 30.47900
H  -3.61600 23.65500 29.25800
H  -3.07000 24.96800 27.28300
H  -2.02500 25.51200 25.97800
H  -1.30400 24.90700 27.47100
H  -0.63400 19.01200 23.12100
H  -1.99600 16.38200 23.30200
H  -2.60200 19.08400 21.72700
H  -3.36700 19.62300 23.20800
H  -3.45800 17.87000 22.84800
H  0.20400 17.07700 21.97700
H  0.31900 15.60900 22.97500
H  1.61500 18.25100 22.94300
H  2.43300 16.85800 23.52700
H  1.33900 17.70000 24.62700
H  -0.82900 12.53700 25.78100
H  -2.38400 12.01800 26.40500
H  -0.82900 11.58300 27.18800
H  -3.06000 14.05800 31.73500
H  -1.45200 12.47100 34.90900
H  -0.31900 13.85900 34.82200
H  0.07500 12.34800 33.90800
Mg 47.89100 15.43300 29.10100
C  45.92200 15.46300 31.99700
C  50.36200 17.03200 30.71800
C  49.55800 15.67500 26.08000
C  45.23300 13.86400 27.36600
N  48.08800 16.11800 31.16000
C  47.20900 15.96800 32.18500
C  47.88100 16.41100 33.46500
C  49.15700 17.21400 32.98200
C  49.25900 16.75800 31.51900
C  49.14500 18.79400 33.10400
C  48.12500 15.16500 34.47400
C  47.52000 15.26700 35.89000
H  47.78800 16.47700 36.68700
N  49.66900 16.28700 28.44300
C  50.56800 16.81900 29.31900
C  51.76800 17.06700 28.65000
C  51.61800 16.65300 27.28000
C  50.23600 16.20000 27.20800
C  53.04900 17.48100 29.35000
C  52.66000 16.62500 26.20800
O  52.40300 16.06200 25.12600
C  54.13300 17.03100 26.51500
N  47.47200 14.73400 27.04200
C  48.32600 15.02200 26.03200
C  47.73000 14.45500 24.69300
C  46.39200 13.73200 25.14800
C  46.33200 14.16100 26.64000
C  47.56000 15.40800 23.49900
C  46.42500 12.14400 25.13300
C  45.48200 11.37200 24.21500
N  45.87800 14.84800 29.49500
C  44.95400 14.10900 28.75100
C  43.75200 13.89000 29.52100
C  44.02800 14.44100 30.81400
C  45.33500 14.98300 30.72900
C  42.49500 13.11700 29.09400
C  43.55800 14.63300 32.17100
O  42.50600 14.39300 32.82700
C  44.75800 15.25700 32.96900
C  44.38100 16.43800 33.79300
O  44.49500 17.64500 33.42200
O  43.85700 16.13400 34.98400
C  43.35900 17.19600 35.84900
H  51.19100 17.42500 31.31000
H  50.09300 15.66400 25.12800
H  44.43600 13.46500 26.73500
H  47.19100 17.02300 34.04600
H  50.01800 16.77700 33.48700
H  48.29300 19.28700 33.57400
H  49.16400 19.16900 32.08100
H  50.01700 19.08000 33.69300
H  49.18700 14.94700 34.58000
H  47.68100 14.34200 33.91400
H  47.68600 14.34800 36.45200
H  46.43800 15.22800 35.76400
H  53.69400 16.60200 29.37800
H  52.82200 17.66700 30.40000
H  53.40000 18.40100 28.88200
H  54.57000 16.26100 27.15100
H  54.21100 17.99200 27.02400
H  54.67600 17.09400 25.57300
H  48.35800 13.68100 24.25100
H  45.55100 14.18200 24.62100
H  48.18700 16.29900 23.54200
H  46.54200 15.79200 23.44300
H  47.79400 14.76300 22.65200
H  46.18500 11.82200 26.14600
H  47.40700 11.86000 24.75300
H  46.10500 10.68600 23.64200
H  45.01400 12.09800 23.55000
H  44.78900 10.74000 24.77000
H  42.22600 12.45100 29.91400
H  42.89600 12.54200 28.26000
H  41.67200 13.76100 28.78300
H  45.19100 14.49700 33.61900
H  44.14000 17.65400 36.45500
H  42.71600 16.61400 36.50900
H  42.77800 17.89200 35.24400

