158

Mg 2.11600 -1.15400 44.62600
C  5.48400 -0.10200 44.33000
C  1.19100 1.85100 43.19200
C  -0.96500 -2.41000 44.24900
C  3.37900 -4.33700 45.44700
N  3.29300 0.67100 43.77100
C  4.63800 0.89500 43.92400
C  4.98800 2.26800 43.41700
C  3.57700 2.96400 43.25300
C  2.60500 1.82600 43.42900
C  3.31800 4.17800 44.21700
C  5.81500 2.33800 42.04600
C  5.58200 1.23300 40.92200
H  5.03800 1.70100 39.57000
N  0.32500 -0.38300 43.89600
C  0.14700 0.87500 43.42700
C  -1.25300 1.08200 43.11900
C  -1.95000 -0.12000 43.49300
C  -0.90600 -1.04100 43.91500
C  -1.67800 2.33200 42.48500
C  -3.42900 -0.33800 43.28500
O  -4.04400 0.52400 42.68000
C  -4.10000 -1.64800 43.74000
N  1.39700 -3.14500 44.58700
C  0.00600 -3.35200 44.60500
C  -0.35600 -4.80500 44.98400
C  1.02900 -5.30000 45.47100
C  2.04800 -4.21200 45.08300
C  -1.43300 -5.07100 45.96200
C  1.49900 -6.63600 44.86000
C  1.37400 -7.93800 45.72000
N  3.97500 -2.05300 45.01700
C  4.36600 -3.39100 45.28000
C  5.76500 -3.45000 45.52800
C  6.24000 -2.14400 45.24300
C  5.12700 -1.34300 44.82200
C  6.58000 -4.68700 46.00600
C  7.34300 -1.38000 45.23000
O  8.41000 -1.54700 45.82700
C  6.92200 0.04200 44.68900
C  7.17000 1.14700 45.64800
O  6.59000 1.33600 46.69400
O  8.17900 1.99100 45.17600
C  8.40000 3.22700 45.89300
H  0.95400 2.84400 42.80500
H  -1.96500 -2.84900 44.21700
H  3.73300 -5.26600 45.90000
H  5.56400 2.79800 44.17600
H  3.58400 3.29500 42.21400
H  3.11800 5.08000 43.63800
H  4.20900 4.34300 44.82300
H  2.41800 3.99900 44.80400
H  6.82900 2.17800 42.41500
H  5.82600 3.37600 41.71200
H  4.90400 0.48800 41.33800
H  6.42900 0.60400 40.64700
H  -1.13500 2.56700 41.57000
H  -1.39200 3.19100 43.09200
H  -2.73900 2.48700 42.28800
H  -4.00500 -2.54000 43.12100
H  -5.15000 -1.42400 43.92600
H  -3.73700 -1.77100 44.76100
H  -0.44300 -5.43700 44.10100
H  0.98000 -5.24100 46.55800
H  -2.17700 -4.32100 45.69400
H  -1.24600 -5.02100 47.03500
H  -1.95100 -5.97500 45.64300
H  2.57800 -6.65600 44.70900
H  1.08700 -6.90900 43.88900
H  0.50900 -7.77700 46.36400
H  2.31000 -8.07100 46.26200
H  1.25800 -8.83700 45.11400
H  6.35000 -5.56200 45.39900
H  6.33800 -5.00700 47.01900
H  7.64000 -4.43800 45.95900
H  7.52100 0.15900 43.78600
H  9.36800 3.07900 46.37100
H  7.73900 3.58000 46.68500
H  8.44500 3.93300 45.06300
Mg 41.32400 8.15000 29.59900
C  43.08000 9.70000 32.29600
C  39.25600 6.70500 31.78300
C  39.81800 6.49100 26.96500
C  43.99400 9.01000 27.48100
N  41.21600 8.14500 31.80500
C  41.92700 8.98800 32.74600
C  41.23200 9.00200 34.05700
C  40.06800 8.00500 33.88700
C  40.22300 7.52700 32.39900
C  40.19100 6.87200 34.92800
C  40.72300 10.40400 34.56400
C  40.12600 10.45900 36.06300
H  40.78200 11.43800 36.98600
N  39.69700 6.91600 29.38600
C  39.02000 6.37800 30.42300
C  37.95500 5.61200 29.94400
C  37.94600 5.69900 28.50200
C  39.16700 6.43800 28.19400
C  37.04200 4.78600 30.93700
C  36.86200 5.35700 27.53800
O  37.07900 5.55900 26.36600
C  35.59000 4.68300 28.04700
N  41.86400 7.72900 27.56500
C  41.07300 7.13600 26.63400
C  41.61800 7.25000 25.15100
C  42.90600 8.15400 25.41000
C  42.91900 8.30300 26.90300
C  41.89100 5.93900 24.52400
C  42.94800 9.45100 24.59700
C  42.03000 10.52200 25.08600
N  43.22600 9.02800 29.80400
C  44.12300 9.44700 28.85000
C  45.19000 10.24400 29.43700
C  44.78500 10.35400 30.81900
C  43.61500 9.63600 30.95400
C  46.33900 10.68200 28.72100
C  45.15100 10.95000 32.06300
O  46.04000 11.71400 32.42000
C  43.98700 10.57500 33.08000
C  44.66700 9.66900 34.11100
O  45.59300 8.91900 33.86400
O  44.10900 9.90700 35.35100
C  44.81600 9.21800 36.44000
H  38.61300 6.26900 32.55100
H  39.44800 6.03900 26.04200
H  44.76900 9.35700 26.79400
H  41.97000 8.53900 34.71300
H  39.13400 8.56500 33.82000
H  40.80400 7.05000 35.81200
H  40.65100 6.08300 34.33300
H  39.22100 6.46800 35.21600
H  40.05500 10.96100 33.90600
H  41.60000 11.05200 34.53900
H  39.94200 9.52300 36.59100
H  39.14400 10.88200 35.85100
H  36.73900 3.86300 30.44300
H  36.27500 5.47400 31.29300
H  37.60300 4.46300 31.81400
H  35.72500 3.68600 28.46400
H  34.72300 4.65900 27.38600
H  35.28000 5.28000 28.90500
H  40.86300 7.72600 24.52500
H  43.80900 7.57300 25.22200
H  41.80000 5.20400 25.32400
H  42.93800 5.88400 24.22500
H  41.33800 5.64200 23.63300
H  42.63400 9.17800 23.58900
H  43.95500 9.86400 24.55000
H  41.72000 10.24700 26.09400
H  41.17900 10.83200 24.47900
H  42.57600 11.45800 25.20400
H  46.02300 11.64600 28.32400
H  46.67200 9.92100 28.01500
H  47.11600 10.78600 29.47800
H  43.67600 11.52800 33.50800
H  45.90000 9.29900 36.36500
H  44.45300 8.19200 36.38300
H  44.61000 9.71600 37.38700

