158

Mg 50.12600 47.24700 43.40900
C  46.60600 47.19600 42.60200
C  50.24200 43.98500 42.53000
C  53.51200 47.37300 43.44800
C  49.82400 50.69700 43.56800
N  48.55900 45.86400 42.56600
C  47.26300 45.98400 42.38300
C  46.53700 44.70800 41.99700
C  47.64600 43.65700 42.32700
C  48.92200 44.58000 42.44700
C  47.44200 42.77200 43.58900
C  45.87500 44.57900 40.58000
C  46.68300 45.32600 39.47000
H  46.76200 44.58500 38.09600
N  51.72700 45.79200 43.15400
C  51.50300 44.48000 42.86500
C  52.73600 43.79200 42.79000
C  53.77400 44.72300 42.90900
C  53.05100 46.04000 43.27000
C  52.78800 42.34300 42.53600
C  55.29900 44.34500 42.85600
O  55.69400 43.21300 42.73100
C  56.26900 45.35000 43.32000
N  51.51400 48.79400 43.53900
C  52.83900 48.58800 43.60900
C  53.50700 49.97200 43.75400
C  52.36200 50.98800 43.91900
C  51.12600 50.09700 43.72500
C  54.71500 50.10700 44.80700
C  52.40600 52.16900 42.87700
C  52.03700 53.58500 43.39700
N  48.58300 48.75000 43.10600
C  48.58300 50.10800 43.30500
C  47.28000 50.64400 43.30000
C  46.44100 49.54900 42.98200
C  47.33000 48.41900 42.85900
C  46.84300 52.10600 43.51200
C  45.04000 49.13700 42.72600
O  43.97100 49.69300 42.73300
C  45.13600 47.58300 42.40400
C  44.19600 46.96600 43.34200
O  44.41700 46.65700 44.53600
O  42.99900 46.81200 42.68700
C  41.99100 45.91600 43.31100
H  50.08600 42.92800 42.30400
H  54.59500 47.39800 43.31300
H  49.76500 51.78200 43.68200
H  45.76500 44.57500 42.75500
H  47.66100 42.94200 41.50400
H  48.40700 42.72800 44.09300
H  47.20800 41.73600 43.34300
H  46.73700 43.15900 44.32600
H  44.81500 44.79800 40.71000
H  45.84800 43.52900 40.28900
H  47.67700 45.64200 39.78800
H  46.10200 46.22700 39.27300
H  52.04900 41.73800 43.06200
H  53.67100 41.84200 42.93400
H  52.70700 42.30100 41.45000
H  55.75400 45.60000 44.24800
H  56.38200 46.25900 42.73000
H  57.19400 44.84200 43.59300
H  54.10200 50.14600 42.85700
H  52.30900 51.44000 44.90900
H  55.09100 49.10700 45.02200
H  54.57600 50.57100 45.78400
H  55.54500 50.63400 44.33600
H  51.73100 52.03700 42.03100
H  53.39600 52.16300 42.42200
H  51.13100 53.90300 42.88100
H  52.81600 54.31900 43.19100
H  51.83000 53.60000 44.46700
H  47.34300 52.48200 44.40500
H  45.75600 52.09000 43.58800
H  47.20500 52.77800 42.73400
H  44.81400 47.35200 41.38800
H  42.21800 44.86400 43.13800
H  40.98200 46.07800 42.93000
H  41.90300 46.12200 44.37800
Mg -1.69000 33.89100 26.53900
C  -3.51500 32.39700 29.24000
C  -0.27400 35.95100 28.65500
C  -0.40000 35.37000 23.82300
C  -3.55500 31.74700 24.43100
N  -2.03800 34.27700 28.73100
C  -2.69800 33.51900 29.58700
C  -2.21800 33.80100 31.02000
C  -1.18800 35.02100 30.83100
C  -1.12400 35.06700 29.32000
C  -1.78000 36.36400 31.39400
C  -1.59100 32.55800 31.66000
C  -2.33100 31.86300 32.83500
H  -1.81500 32.09200 34.23500
N  -0.50600 35.44700 26.26400
C  0.01000 36.16600 27.29900
C  1.05100 37.11700 26.72500
C  0.91000 37.01500 25.27800
C  -0.01300 35.90100 25.07100
C  1.79200 37.98600 27.66600
C  1.63200 37.82600 24.24300
O  1.46400 37.68200 23.03100
C  2.89000 38.58500 24.70600
N  -2.00300 33.66600 24.44900
C  -1.29500 34.34100 23.49200
C  -1.60000 33.81600 22.01600
C  -2.48600 32.54500 22.28900
C  -2.71400 32.66200 23.81800
C  -2.34500 34.80500 21.07200
C  -1.75300 31.24100 21.98400
C  -2.69000 30.07900 21.60600
N  -3.28500 32.36200 26.77100
C  -3.91500 31.62700 25.77400
C  -4.85400 30.74900 26.35900
C  -4.74800 30.93700 27.78400
C  -3.77000 31.94100 27.93300
C  -5.71000 29.78000 25.64100
C  -5.20100 30.50600 29.06900
O  -5.88000 29.53400 29.33500
C  -4.34900 31.49200 30.12700
C  -5.42900 32.24100 30.87800
O  -5.97200 33.31200 30.57200
O  -5.75000 31.53500 32.02000
C  -6.58600 32.36900 32.96600
H  0.31100 36.52300 29.37800
H  0.15800 35.77600 22.97700
H  -4.04700 31.14400 23.66500
H  -3.08100 34.11900 31.60400
H  -0.25500 34.76800 31.33500
H  -2.83200 36.26700 31.66300
H  -1.87400 37.08200 30.57900
H  -1.18800 36.87400 32.15400
H  -0.54700 32.70900 31.93700
H  -1.33600 31.83900 30.88100
H  -2.36000 30.79400 32.62600
H  -3.32800 32.29100 32.72300
H  1.47000 37.85500 28.69900
H  1.37100 38.98300 27.53600
H  2.88100 38.00900 27.63100
H  2.83900 39.36600 25.46500
H  3.27900 39.06400 23.80700
H  3.58900 37.80500 25.00800
H  -0.64900 33.52000 21.57300
H  -3.47200 32.61400 21.83000
H  -2.31700 35.73700 21.63800
H  -3.37800 34.52500 20.86600
H  -1.67000 34.99200 20.23700
H  -1.32100 30.82700 22.89500
H  -0.99000 31.34300 21.21200
H  -2.90200 29.44500 22.46700
H  -2.08200 29.47700 20.93100
H  -3.63600 30.30000 21.11100
H  -5.23000 29.64300 24.67100
H  -6.71100 30.19800 25.54100
H  -5.74600 28.85600 26.21900
H  -3.86700 30.81400 30.83100
H  -5.91600 32.85000 33.67900
H  -7.27800 31.70000 33.47600
H  -7.18800 33.16500 32.52700

