158

Mg -2.96400 16.50400 26.85700
C  -3.47400 14.65100 29.83100
C  -3.78800 19.26200 28.64700
C  -3.25500 18.10000 23.93500
C  -2.93900 13.45300 25.12100
N  -3.55100 16.87100 29.16100
C  -3.63500 15.99900 30.17400
C  -4.03300 16.66500 31.49200
C  -4.18000 18.14700 31.04300
C  -3.86600 18.10300 29.49500
C  -5.48400 18.88100 31.34400
C  -3.14300 16.53700 32.75500
C  -3.87300 16.33500 34.01700
H  -2.96900 16.22000 35.29100
N  -3.33700 18.42200 26.39800
C  -3.53300 19.42300 27.25400
C  -3.58100 20.68300 26.50400
C  -3.28600 20.40300 25.12100
C  -3.33100 18.88900 25.07600
C  -3.68900 22.05500 27.20900
C  -3.16400 21.34100 23.94100
O  -3.14000 21.03200 22.74300
C  -3.21500 22.82600 24.21700
N  -3.07600 15.82400 24.86500
C  -3.21600 16.73400 23.75500
C  -3.11800 15.98400 22.42700
C  -2.60700 14.61500 22.89100
C  -2.86100 14.58600 24.40400
C  -4.34300 15.91900 21.49900
C  -1.11000 14.32800 22.63200
C  -0.05600 15.26200 23.17700
N  -3.17800 14.49200 27.33300
C  -3.25100 13.40700 26.47400
C  -3.60000 12.16800 27.30900
C  -3.60400 12.62500 28.65500
C  -3.33700 14.01500 28.57600
C  -3.80700 10.77900 26.77000
C  -3.82100 12.23400 30.03500
O  -4.19000 11.20200 30.53600
C  -3.76600 13.54500 30.89200
C  -2.72800 13.48000 31.83700
O  -1.58700 13.73800 31.61000
O  -3.19100 12.88800 33.01500
C  -2.22300 12.65400 34.07200
H  -3.88000 20.16200 29.25800
H  -2.95700 18.62200 23.02400
H  -2.75600 12.59700 24.46900
H  -5.00800 16.29400 31.80700
H  -3.39900 18.76400 31.48700
H  -5.91200 19.43700 30.50900
H  -5.14900 19.67100 32.01600
H  -6.10100 18.06800 31.72400
H  -2.62100 17.47000 32.97000
H  -2.37900 15.77000 32.62700
H  -4.28300 15.34300 33.82700
H  -4.74700 16.94900 34.23600
H  -2.71500 22.53700 27.29000
H  -3.96800 22.06400 28.26300
H  -4.55700 22.60500 26.84600
H  -2.51400 22.99300 25.03500
H  -4.13500 23.30500 24.55000
H  -2.70300 23.41700 23.45700
H  -2.32600 16.44000 21.83300
H  -3.17000 13.79000 22.45300
H  -4.94100 16.80700 21.70500
H  -4.93000 15.00400 21.56900
H  -3.94000 16.10200 20.50300
H  -1.04500 14.31800 21.54400
H  -0.77700 13.29700 22.75400
H  0.15500 16.07600 22.48300
H  0.90400 14.75400 23.07800
H  -0.24000 15.72800 24.14400
H  -2.83400 10.34600 26.53900
H  -4.43900 10.73200 25.88300
H  -4.24100 10.28500 27.63900
H  -4.65600 13.75400 31.48600
H  -1.56700 13.52100 34.14400
H  -1.66100 11.75800 33.80500
H  -2.67100 12.70500 35.06400
Mg 30.58700 58.06500 41.37800
C  27.98300 56.09300 40.01700
C  32.73300 55.82300 39.90300
C  33.08000 60.25400 41.94600
C  28.21500 60.42500 42.11100
N  30.32700 56.21200 40.07900
C  29.21400 55.56000 39.71800
C  29.48800 54.25900 39.03200
C  30.93000 54.02700 39.46300
C  31.42600 55.42000 39.84200
C  31.17500 52.96000 40.50100
C  29.18800 54.24800 37.49300
C  28.07200 53.38000 36.87500
H  27.04700 54.21700 36.02200
N  32.55000 58.00900 41.02600
C  33.27400 56.96600 40.45900
C  34.66600 57.28800 40.37100
C  34.74100 58.54200 40.89100
C  33.40700 58.99400 41.37700
C  35.74900 56.28200 39.91000
C  36.02400 59.28700 41.00900
O  37.14500 58.80800 40.70000
C  36.12600 60.69600 41.41900
N  30.67000 60.11900 41.96600
C  31.80900 60.82100 42.13900
C  31.57700 62.24500 42.71300
C  30.02000 62.28200 42.62600
C  29.58400 60.82400 42.15900
C  32.29200 62.61400 44.03800
C  29.49600 63.47000 41.74100
C  28.42200 64.40700 42.38300
N  28.46900 58.27600 41.28400
C  27.62700 59.21000 41.74500
C  26.22900 58.77400 41.51600
C  26.33900 57.53400 40.89200
C  27.72300 57.32000 40.74600
C  24.96400 59.49900 41.86500
C  25.54700 56.43500 40.30600
O  24.32800 56.28300 40.27400
C  26.61500 55.45000 39.78300
C  26.47400 54.16400 40.47200
O  26.95800 53.90000 41.55500
O  25.69100 53.33700 39.69800
C  25.14800 52.12800 40.27600
H  33.34800 54.98700 39.56300
H  33.86300 60.95900 42.23400
H  27.54200 61.26400 42.30100
H  28.96700 53.43500 39.51900
H  31.49100 53.69800 38.58800
H  30.24300 52.63300 40.96100
H  31.64900 53.39300 41.38300
H  31.79400 52.18700 40.04500
H  30.07000 53.87600 36.97200
H  29.10100 55.31900 37.31200
H  27.53200 52.84300 37.65500
H  28.51100 52.62300 36.22600
H  36.02200 56.43200 38.86500
H  35.50900 55.23700 40.10500
H  36.69500 56.46500 40.42000
H  35.46700 61.25500 40.75400
H  37.16500 61.01600 41.35000
H  35.79200 60.84800 42.44500
H  31.92200 62.80400 41.84300
H  29.66500 62.36500 43.65300
H  32.98600 61.79600 44.23100
H  31.53400 62.85200 44.78400
H  32.93000 63.46200 43.79200
H  29.11600 62.94200 40.86700
H  30.33200 64.07900 41.39600
H  28.48100 65.45600 42.09100
H  28.42600 64.21500 43.45500
H  27.40500 64.09700 42.14300
H  25.13700 60.57400 41.83500
H  24.76100 59.23600 42.90400
H  24.17500 59.16600 41.19000
H  26.34200 55.45200 38.72800
H  24.11800 52.39200 40.51500
H  25.73800 51.63900 41.05100
H  25.06100 51.33800 39.53000

