158

Mg 16.68600 -1.12200 27.40600
C  15.26900 0.70300 30.11500
C  18.63600 -2.71800 29.67800
C  18.18200 -2.57300 24.85400
C  15.00800 1.04900 25.17800
N  16.88300 -1.00900 29.70800
C  16.23000 -0.20200 30.56400
C  16.72900 -0.45000 31.98300
C  17.96000 -1.39400 31.80400
C  17.83200 -1.74100 30.35000
C  19.27700 -0.87900 32.27600
C  15.61500 -1.06400 32.79500
C  15.61800 -0.73800 34.29500
H  16.81700 0.13500 34.88900
N  18.05000 -2.56100 27.28800
C  18.66400 -3.19700 28.34300
C  19.40900 -4.33400 27.85400
C  19.31400 -4.33100 26.41400
C  18.49700 -3.10500 26.10000
C  20.13700 -5.18500 28.76400
C  19.97800 -5.23000 25.38900
O  19.78500 -5.15300 24.14100
C  20.87400 -6.41200 25.73800
N  16.87400 -0.52900 25.35800
C  17.52600 -1.45500 24.53400
C  17.30400 -1.14600 23.03000
C  16.27200 0.01400 23.06800
C  15.99900 0.20500 24.59200
C  18.58000 -0.77900 22.19200
C  15.03400 -0.03000 22.19400
C  14.81000 1.19200 21.29800
N  15.38600 0.46000 27.52600
C  14.75700 1.23600 26.54700
C  13.76000 2.11400 27.16900
C  14.00400 1.94300 28.55800
C  14.98700 0.95300 28.71700
C  12.91400 3.05200 26.41000
C  13.54600 2.43100 29.89200
O  12.66900 3.20700 30.18800
C  14.45400 1.66500 30.87700
C  15.15600 2.63900 31.78800
O  16.29300 3.03900 31.77000
O  14.26800 3.00900 32.78200
C  14.70700 4.02300 33.69400
H  19.19900 -3.20000 30.48000
H  18.52300 -3.22300 24.04500
H  14.40600 1.62800 24.47600
H  17.09900 0.49500 32.38100
H  17.88100 -2.23500 32.49400
H  19.70300 -0.31400 31.44800
H  19.91400 -1.69200 32.62700
H  19.20300 -0.23300 33.15100
H  15.49000 -2.13500 32.63700
H  14.63900 -0.65100 32.53700
H  15.86700 -1.65200 34.83400
H  14.62500 -0.35100 34.52500
H  19.71600 -6.18000 28.90300
H  20.35800 -4.70600 29.71800
H  21.11500 -5.47800 28.38400
H  20.63100 -6.98400 26.63300
H  21.78400 -5.85300 25.95900
H  20.86800 -7.03200 24.84200
H  16.76300 -1.98600 22.59300
H  16.90000 0.83800 22.73100
H  18.40500 0.13200 21.62000
H  18.87400 -1.60300 21.54300
H  19.38900 -0.51600 22.87400
H  14.14200 -0.09600 22.81700
H  15.15600 -0.96300 21.64300
H  15.69900 1.75200 21.00500
H  14.23700 1.93600 21.85100
H  14.28100 0.75600 20.45100
H  13.58800 3.84400 26.08300
H  12.20900 3.55100 27.07400
H  12.33100 2.57800 25.61900
H  13.82400 1.11600 31.57600
H  14.80100 4.88600 33.03500
H  15.70800 3.91300 34.11100
H  13.99900 4.25800 34.48900
Mg 1.39900 41.92900 25.19400
C  2.58400 41.64700 28.42800
C  -1.73000 40.52800 26.35200
C  0.37900 41.64100 22.09400
C  4.61300 43.02300 24.15700
N  0.57600 41.21300 27.21700
C  1.22400 41.31200 28.35500
C  0.34300 41.06200 29.58100
C  -1.11100 40.63900 28.90700
C  -0.79300 40.75000 27.38300
C  -1.63400 39.19100 29.21200
C  0.25500 42.28700 30.60800
C  -1.11500 42.66700 31.28700
H  -1.73200 41.51000 32.10700
N  -0.40100 41.19900 24.36800
C  -1.57400 40.70000 24.95700
C  -2.57600 40.52000 23.88800
C  -1.96300 40.78300 22.67300
C  -0.60700 41.24900 22.98100
C  -3.92900 40.09000 24.24100
C  -2.43400 40.36600 21.26700
O  -1.67800 40.54500 20.30000
C  -3.77100 39.74700 21.00800
N  2.43000 42.10400 23.34600
C  1.74700 42.01200 22.19300
C  2.64000 42.27400 20.99300
C  3.89300 42.96100 21.67400
C  3.64300 42.69400 23.20600
C  2.77800 41.04200 20.14300
C  4.21100 44.40400 21.25300
C  3.05000 45.42100 21.41600
N  3.28900 42.31100 26.07200
C  4.45400 42.84200 25.53400
C  5.46200 42.88800 26.60200
C  4.81700 42.40000 27.75100
C  3.45800 42.10300 27.35400
C  6.80800 43.55600 26.50300
C  4.95900 42.15400 29.07700
O  5.87600 42.28200 29.78700
C  3.55100 41.60200 29.60100
C  3.81900 40.23500 30.19400
O  4.59700 39.41400 29.75500
O  3.12900 40.09400 31.34200
C  2.98300 38.80400 31.93900
H  -2.71400 40.20100 26.69800
H  0.21700 41.64900 21.01400
H  5.58000 43.37700 23.79200
H  0.63200 40.20500 30.19000
H  -1.88600 41.37600 29.11600
H  -0.84400 38.63700 29.72000
H  -1.83200 38.64600 28.28900
H  -2.49800 39.34700 29.85800
H  0.65800 43.16500 30.10300
H  0.99700 42.06500 31.37500
H  -1.93800 42.94000 30.62600
H  -0.95500 43.43300 32.04600
H  -4.37000 40.89400 24.83000
H  -3.90400 39.27600 24.96500
H  -4.57000 39.97700 23.36600
H  -4.06300 38.95700 21.70100
H  -3.75500 39.34100 19.99700
H  -4.39300 40.63800 20.93000
H  2.24600 43.05600 20.34400
H  4.77000 42.34700 21.46900
H  2.31600 40.21700 20.68500
H  3.82600 40.87100 19.89400
H  2.22900 41.05200 19.20200
H  4.55400 44.27100 20.22700
H  5.11400 44.76300 21.74700
H  2.59200 45.36900 22.40300
H  2.35200 45.51800 20.58400
H  3.46500 46.42500 21.32500
H  6.93800 44.35700 27.23000
H  6.91200 43.92300 25.48200
H  7.54500 42.77500 26.68500
H  3.14500 42.26100 30.36800
H  1.90400 38.65300 31.97100
H  3.45300 38.94300 32.91300
H  3.59000 38.04000 31.45200

