158

Mg 48.76000 34.62400 25.76700
C  46.78100 33.24200 28.27300
C  48.96900 37.48600 27.63000
C  50.40300 36.01500 23.27600
C  48.15200 31.72900 23.90300
N  47.92100 35.29300 27.73400
C  47.25900 34.52500 28.59500
C  47.11100 35.22600 29.98000
C  47.54400 36.68100 29.59800
C  48.13800 36.55700 28.20100
C  46.41100 37.78300 29.67300
C  48.13800 34.60000 31.04400
C  47.70400 34.41100 32.42400
H  46.49600 35.24900 32.92000
N  49.75600 36.44900 25.56200
C  49.69400 37.54700 26.38000
C  50.61000 38.55900 25.90900
C  51.10100 38.08200 24.68900
C  50.36500 36.81300 24.44900
C  51.00200 39.74700 26.83400
C  52.28100 38.52200 23.88400
O  52.72000 37.85300 23.02800
C  52.81800 39.89200 24.18800
N  49.22200 33.98600 23.83500
C  49.80800 34.76200 22.95600
C  50.16400 33.96100 21.66200
C  49.51600 32.53700 21.91200
C  48.89300 32.74600 23.33200
C  49.92600 34.65700 20.24900
C  50.44100 31.35500 21.85900
C  51.70100 31.40700 22.74400
N  47.60000 32.87900 25.89200
C  47.54400 31.73800 25.12800
C  46.64400 30.76600 25.71800
C  46.33100 31.30700 26.96800
C  46.86000 32.62100 26.97200
C  46.31700 29.48000 25.18600
C  45.72600 31.03000 28.20700
O  45.16800 30.06500 28.59200
C  46.09600 32.25400 29.09800
C  46.65000 31.70200 30.32600
O  47.78300 31.31900 30.41100
O  45.65800 31.50800 31.27300
C  46.11300 30.60600 32.32300
H  49.05300 38.38300 28.24700
H  51.06100 36.46700 22.53100
H  48.04000 30.89400 23.20800
H  46.11000 35.19700 30.41000
H  48.33400 37.05900 30.24600
H  46.16200 38.41000 28.81700
H  46.79000 38.48400 30.41700
H  45.49400 37.27200 29.96800
H  49.01800 35.24200 31.07000
H  48.47100 33.63500 30.66100
H  48.56800 34.46600 33.08700
H  47.43700 33.37100 32.61400
H  50.54700 39.82100 27.82200
H  50.70000 40.61700 26.25000
H  52.07200 39.83700 27.02100
H  53.62300 39.71300 24.90000
H  52.17700 40.66900 24.60400
H  53.24400 40.33400 23.28700
H  51.23100 33.84700 21.85600
H  48.75200 32.32500 21.16500
H  49.26500 35.51800 20.34200
H  49.52200 33.98400 19.49300
H  50.90300 34.97600 19.88600
H  50.77200 31.26200 20.82500
H  49.98300 30.37200 21.97400
H  51.74100 32.40400 23.18300
H  52.59800 31.25400 22.14400
H  51.90000 30.65400 23.50600
H  46.71100 28.71900 25.86000
H  46.78900 29.36200 24.21100
H  45.23200 29.44500 25.08500
H  45.10900 32.67800 29.28200
H  45.36200 30.72900 33.10300
H  47.01000 30.96000 32.83100
H  46.16300 29.57700 31.96700
Mg 17.27000 52.56500 25.73500
C  19.01700 50.99400 28.42700
C  14.88600 53.44200 27.81700
C  15.37900 53.29500 23.00700
C  19.58200 50.88100 23.45100
N  17.05900 52.29900 27.90300
C  17.95700 51.80900 28.79700
C  17.40600 51.95700 30.22700
C  15.93300 52.51400 29.96800
C  16.00300 52.86900 28.52300
C  14.73800 51.59000 30.43200
C  18.30200 52.81300 31.05500
C  18.01200 52.89800 32.57800
H  16.92900 52.01000 33.29700
N  15.44500 53.50500 25.49100
C  14.60000 53.76700 26.48100
C  13.37500 54.46300 25.97900
C  13.55400 54.40000 24.50300
C  14.85700 53.74000 24.26300
C  12.22400 54.92500 26.83100
C  12.63500 54.88700 23.43900
O  12.88900 54.90300 22.27000
C  11.28100 55.46700 23.83100
N  17.52500 52.12300 23.56100
C  16.55000 52.59800 22.67800
C  16.95200 52.36400 21.22500
C  18.36200 51.80400 21.40200
C  18.52600 51.62100 22.93200
C  16.05400 51.51300 20.31100
C  19.45400 52.66400 20.86600
C  20.64900 52.03800 20.03000
N  18.99100 51.15100 25.86100
C  19.80600 50.57000 24.85600
C  20.85100 49.80300 25.52600
C  20.59600 49.92500 26.91500
C  19.41800 50.71900 27.06500
C  22.04700 49.13700 24.90700
C  21.04100 49.55000 28.26100
O  22.05900 48.98900 28.63200
C  19.92800 50.11200 29.20700
C  19.16300 49.00600 29.78400
O  18.15300 48.43900 29.37800
O  19.56700 48.83700 31.08500
C  18.69900 48.01900 31.94200
H  14.04700 53.65600 28.48300
H  14.77500 53.50200 22.12100
H  20.29800 50.38900 22.78900
H  17.43900 50.96900 30.68500
H  15.84500 53.42200 30.56500
H  14.12700 51.31200 29.57300
H  14.12400 52.18600 31.10700
H  15.12600 50.67400 30.87900
H  17.99500 53.81200 30.74700
H  19.37900 52.64300 31.04900
H  17.94400 53.94900 32.85700
H  18.96300 52.52100 32.95500
H  12.51800 54.79900 27.87400
H  11.33200 54.31800 26.68200
H  11.91800 55.96900 26.75600
H  11.40400 56.43400 24.31800
H  10.65400 54.77900 24.39900
H  10.67000 55.69300 22.95700
H  17.03200 53.26800 20.62100
H  18.40300 50.79000 21.00300
H  15.62500 50.65500 20.82700
H  16.65000 51.17200 19.46400
H  15.21100 52.08500 19.92200
H  19.83300 53.33400 21.63800
H  18.94600 53.24400 20.09600
H  21.47300 52.64500 20.40400
H  20.51600 52.30800 18.98300
H  20.67800 50.95800 20.17600
H  22.94600 49.75300 24.91900
H  21.89600 48.67100 23.93300
H  22.24800 48.30500 25.58200
H  20.34500 50.66000 30.05200
H  18.71100 48.41600 32.95700
H  19.17300 47.03800 31.98000
H  17.67900 47.90800 31.57500

