158

Mg 9.01800 4.81200 27.17100
C  10.43200 3.11600 29.90200
C  6.93800 6.45200 29.28000
C  7.50900 5.95400 24.45200
C  10.60200 2.33800 25.12400
N  8.70200 4.80300 29.31600
C  9.55200 4.19700 30.23800
C  9.20900 4.57600 31.65100
C  8.03500 5.67600 31.37900
C  7.81000 5.54200 29.89000
C  6.79900 5.35700 32.25500
C  10.42700 5.09400 32.52200
C  10.10300 5.83200 33.83600
H  10.82500 5.48100 35.14100
N  7.55800 6.19200 26.88700
C  6.76800 6.74800 27.90800
C  5.75600 7.52200 27.29100
C  6.01400 7.53700 25.82500
C  7.09100 6.53000 25.69000
C  4.58300 8.17600 28.09100
C  5.26300 8.26800 24.69300
O  5.49700 8.05500 23.50300
C  4.09000 9.21200 25.05000
N  9.09000 4.25700 25.05300
C  8.43600 5.04400 24.15600
C  8.88000 4.70300 22.71200
C  9.88000 3.50900 22.93400
C  9.79300 3.27400 24.46000
C  7.57700 4.38100 21.84600
C  11.45100 3.75200 22.43400
C  12.16300 2.76100 21.47000
N  10.18700 3.08400 27.45000
C  10.77300 2.26200 26.46400
C  11.68900 1.30900 27.14100
C  11.54000 1.60600 28.48300
C  10.63700 2.62000 28.62000
C  12.60400 0.30100 26.55600
C  11.82600 1.21300 29.87300
O  12.46200 0.28300 30.29700
C  11.24200 2.33300 30.79600
C  10.39800 1.73700 31.87500
O  9.31300 1.21400 31.59400
O  11.06000 1.72200 33.07600
C  10.36100 0.94500 34.08900
H  6.34100 6.95400 30.04400
H  7.09100 6.38600 23.54000
H  11.03800 1.59700 24.45000
H  8.79500 3.76900 32.25500
H  8.55100 6.60600 31.61800
H  5.90200 5.45100 31.64200
H  6.60400 6.12600 33.00200
H  6.80100 4.35700 32.68700
H  10.96200 5.77100 31.85600
H  11.00000 4.22300 32.84000
H  9.03400 5.63600 33.92800
H  10.40500 6.86500 33.66500
H  4.48600 7.78100 29.10300
H  3.66400 7.95500 27.54900
H  4.76500 9.24200 28.22200
H  3.22800 8.70700 25.48500
H  3.93200 9.83300 24.16900
H  4.44000 9.94500 25.77600
H  9.48700 5.47900 22.24700
H  9.53300 2.59900 22.44500
H  7.81800 3.64800 21.07500
H  7.27400 5.28600 21.32000
H  6.75500 4.12600 22.51500
H  12.08100 3.80900 23.32200
H  11.41900 4.70800 21.91100
H  11.47400 2.27800 20.77800
H  12.56000 1.93000 22.05200
H  12.92000 3.27500 20.87800
H  12.67200 0.25600 25.46900
H  12.20000 -0.67200 26.83600
H  13.61700 0.59500 26.82900
H  12.01800 2.93400 31.27100
H  10.01800 -0.04400 33.78700
H  9.67600 1.49600 34.73300
H  11.18000 0.61500 34.72800
Mg 42.08800 40.91300 26.78800
C  40.87000 43.15900 29.26300
C  43.17200 38.84700 29.27100
C  43.14000 38.90200 24.42000
C  41.32200 43.38800 24.35900
N  42.05200 41.05200 29.02100
C  41.46100 42.02200 29.80400
C  41.68800 41.83400 31.34200
C  42.51700 40.43600 31.30500
C  42.57600 40.04900 29.80400
C  43.95700 40.52300 31.84900
C  40.26900 41.67500 32.01700
C  40.08500 42.50100 33.24200
H  39.69500 41.72700 34.52600
N  42.94800 39.00100 26.84600
C  43.29000 38.31100 28.01200
C  43.87300 36.97100 27.64000
C  43.81700 37.00100 26.23500
C  43.31500 38.35800 25.78000
C  44.35900 35.94700 28.63600
C  44.17100 35.96500 25.27500
O  44.31700 36.21600 24.10200
C  44.40000 34.55200 25.70400
N  42.25200 41.10900 24.74200
C  42.72100 40.15000 23.93100
C  42.66900 40.50800 22.42100
C  42.03800 41.90000 22.42200
C  41.83800 42.13600 23.91700
C  44.01100 40.30000 21.68000
C  40.64200 41.96800 21.70300
C  40.36700 43.18700 20.83100
N  41.33200 42.84600 26.77100
C  41.05100 43.73800 25.71300
C  40.43100 44.87100 26.24300
C  40.29900 44.67100 27.60800
C  40.90100 43.47800 27.90900
C  39.91500 45.94600 25.34400
C  39.75100 45.30400 28.82800
O  39.08800 46.33300 28.98000
C  40.19100 44.34000 30.01200
C  41.01200 45.22100 30.80800
O  42.19000 45.41200 30.63200
O  40.35500 45.75600 31.88400
C  41.23100 46.45500 32.93600
H  43.32300 38.09300 30.04600
H  43.56400 38.24300 23.65900
H  41.17900 44.11900 23.56000
H  42.32600 42.61000 31.76500
H  41.98500 39.72700 31.93900
H  44.35900 41.44200 32.27600
H  44.68900 40.24700 31.08900
H  43.96600 39.82000 32.68200
H  40.13600 40.60300 32.16200
H  39.47400 41.87300 31.29900
H  39.22200 43.16000 33.14900
H  40.99800 43.05900 33.45000
H  43.96000 34.97200 28.35700
H  44.18700 36.16700 29.69000
H  45.44500 35.95600 28.55100
H  45.36700 34.42300 26.19000
H  44.45700 33.86800 24.85700
H  43.62900 34.13400 26.35200
H  41.95300 39.76100 22.07800
H  42.76500 42.69900 22.27000
H  44.43700 41.23800 21.32400
H  43.60700 39.67400 20.88500
H  44.67200 39.85800 22.42500
H  39.79400 41.71400 22.34000
H  40.70600 41.13700 21.00100
H  41.16700 43.90800 20.99600
H  39.45900 43.64600 21.22200
H  40.27200 42.88600 19.78800
H  39.60200 45.62200 24.35100
H  40.68700 46.70400 25.20500
H  38.99700 46.31400 25.80100
H  39.34700 44.11600 30.66500
H  40.52100 47.18100 33.33300
H  42.08700 47.02800 32.58000
H  41.62800 45.68400 33.59600

