158

Mg 47.23500 24.96700 29.00100
C  47.88100 27.24900 31.50900
C  46.56900 22.58300 31.55500
C  46.93200 22.43600 26.68400
C  48.11000 27.12800 26.62600
N  47.31900 24.89900 31.25300
C  47.43100 26.06900 31.99800
C  47.12300 25.79500 33.50000
C  46.88600 24.23500 33.53600
C  46.87000 23.85500 32.02700
C  48.00600 23.55800 34.28400
C  45.95400 26.59300 34.09300
C  46.25600 27.25500 35.52300
H  45.16100 27.19000 36.56700
N  46.63700 22.86100 29.12100
C  46.52600 22.08600 30.20800
C  46.20100 20.75400 29.88500
C  46.29500 20.63100 28.51000
C  46.67300 21.97200 28.02800
C  45.61000 19.71600 30.85800
C  46.04200 19.40500 27.59600
O  46.07400 19.47700 26.35400
C  45.83000 18.03500 28.28600
N  47.64500 24.74000 27.00300
C  47.23200 23.70400 26.23500
C  47.46800 23.94200 24.76600
C  47.50700 25.50400 24.76000
C  47.66500 25.86800 26.19100
C  48.83700 23.36900 24.29900
C  46.33300 26.18300 24.11900
C  45.35600 26.92000 25.05000
N  48.05000 26.77400 29.05400
C  48.30400 27.59800 27.97500
C  48.76700 28.82500 28.43700
C  48.52900 28.77800 29.85600
C  48.12300 27.51700 30.15500
C  49.16200 29.99200 27.60800
C  48.65900 29.56700 31.13700
O  49.11200 30.70200 31.38300
C  48.11200 28.61500 32.20500
C  49.00000 28.60000 33.35400
O  49.92600 27.84200 33.47900
O  48.62200 29.60000 34.22500
C  49.43300 29.71200 35.43200
H  46.22000 21.94100 32.36600
H  46.84800 21.66500 25.91400
H  48.14200 27.77300 25.74500
H  47.93600 26.05900 34.17700
H  45.96500 23.78100 33.90200
H  48.62700 22.95500 33.62200
H  47.52500 22.84400 34.95300
H  48.70200 24.19800 34.82700
H  45.20100 25.83300 34.30300
H  45.67300 27.42500 33.44700
H  46.25700 28.33000 35.34200
H  47.24500 27.05400 35.93400
H  44.63900 19.41400 30.46500
H  45.65200 19.90300 31.93100
H  46.28600 18.86400 30.78700
H  46.61800 17.75600 28.98500
H  45.84700 17.32200 27.46100
H  44.80600 18.10000 28.65500
H  46.64300 23.54500 24.17600
H  48.43300 25.89800 24.33900
H  49.31700 22.79800 25.09400
H  49.57200 24.13000 24.03500
H  48.68500 22.65700 23.48900
H  45.84300 25.44400 23.48600
H  46.79800 26.91200 23.45600
H  45.53700 27.98900 24.94400
H  45.22300 26.53300 26.06100
H  44.33300 26.90900 24.67700
H  48.39200 30.22600 26.87400
H  50.14900 29.81900 27.17900
H  49.33100 30.80600 28.31300
H  47.12200 29.03400 32.38800
H  49.23100 28.92900 36.16300
H  49.28100 30.62700 36.00500
H  50.51100 29.59800 35.31300
Mg 8.81000 47.51100 27.57000
C  6.82100 47.20500 30.44000
C  11.52700 47.93400 29.44600
C  10.44900 48.29100 24.72000
C  5.72900 47.59400 25.63700
N  9.10300 47.55700 29.62400
C  8.21300 47.34200 30.63700
C  8.85100 47.25600 32.02800
C  10.28700 47.70100 31.68200
C  10.33400 47.69500 30.14000
C  10.78900 49.10500 32.17600
C  8.82000 45.87600 32.76000
C  9.95600 45.42100 33.73600
H  9.51900 44.89300 35.11000
N  10.77400 48.01000 27.16600
C  11.80100 48.10600 28.08100
C  13.05600 48.20200 27.39900
C  12.71300 48.41100 26.00800
C  11.25600 48.29800 25.91600
C  14.37700 48.20900 28.14800
C  13.69600 48.46400 24.88400
O  13.34600 48.65400 23.70800
C  15.21000 48.43300 25.11000
N  8.10400 47.83200 25.50000
C  9.05100 48.07400 24.52800
C  8.44700 48.44200 23.13900
C  6.97000 47.92800 23.36300
C  6.90700 47.68400 24.92000
C  8.54900 49.97500 22.84500
C  6.63800 46.55900 22.54700
C  5.51300 46.75500 21.55100
N  6.73100 47.36600 27.95100
C  5.62600 47.51000 27.06700
C  4.35900 47.39300 27.80000
C  4.82900 47.25000 29.18300
C  6.24000 47.24600 29.17400
C  2.94400 47.64300 27.20700
C  4.45000 47.06100 30.56900
O  3.34900 46.95100 31.13500
C  5.70300 46.86700 31.42300
C  5.75200 45.48400 31.86000
O  6.07700 44.52000 31.13600
O  5.30600 45.35400 33.17600
C  5.48400 43.99900 33.75800
H  12.49100 48.02400 29.94900
H  11.07500 48.66900 23.91000
H  4.80200 47.54500 25.06100
H  8.43200 48.01600 32.68800
H  11.00300 46.89200 31.82100
H  10.12900 49.46900 32.96400
H  10.69000 49.92100 31.46100
H  11.78300 49.07600 32.62400
H  8.80900 45.10900 31.98500
H  7.97300 45.70100 33.42400
H  10.54400 46.31900 33.92200
H  10.58500 44.75600 33.14400
H  15.00400 47.51900 27.58300
H  14.31200 47.87400 29.18300
H  14.72600 49.24200 28.13600
H  15.53100 48.94600 26.01600
H  15.54700 48.93000 24.20000
H  15.57300 47.40600 25.06200
H  9.01000 47.93200 22.35700
H  6.25300 48.71800 23.14100
H  8.70800 50.43100 23.82300
H  7.62400 50.36600 22.41900
H  9.39400 50.14900 22.17900
H  6.34900 45.78700 23.26000
H  7.54000 46.14300 22.09900
H  5.04200 47.73300 21.45300
H  4.67500 46.13700 21.87400
H  5.92900 46.39500 20.61000
H  2.35000 46.82800 27.62100
H  2.86000 47.78100 26.12900
H  2.51000 48.48600 27.74400
H  5.68800 47.56400 32.26100
H  6.51000 43.70500 33.53600
H  4.69500 43.28100 33.53500
H  5.60100 44.05600 34.84000

