158

Mg 51.59300 46.06000 41.99200
C  48.72300 47.51200 40.73900
C  50.35500 42.95600 40.77400
C  54.58100 44.75400 42.21300
C  52.81700 49.33300 42.77800
N  49.75600 45.31800 40.82100
C  48.70800 46.06300 40.60600
C  47.55200 45.20800 39.97000
C  47.93100 43.74800 40.33600
C  49.47300 44.03500 40.65000
C  47.09500 43.22200 41.52600
C  47.13400 45.40100 38.46800
C  45.66200 45.31500 38.23000
H  45.30300 43.94100 37.55300
N  52.32900 44.08900 41.78300
C  51.68700 42.99000 41.22000
C  52.62500 41.89600 41.24200
C  53.91000 42.33100 41.68500
C  53.64600 43.79100 41.86400
C  52.19500 40.50800 40.91100
C  55.16700 41.50700 41.83600
O  55.11000 40.27600 41.70700
C  56.51100 41.99700 42.11700
N  53.46700 46.96700 42.57200
C  54.53600 46.16400 42.54600
C  55.75300 46.97200 42.86200
C  55.18700 48.40100 43.15100
C  53.77400 48.31700 42.82400
C  56.79200 46.28600 43.83300
C  55.79600 49.67100 42.53900
C  57.31700 49.89200 42.33100
N  50.90800 48.01000 41.87200
C  51.45800 49.21000 42.29800
C  50.53000 50.32100 42.08000
C  49.35800 49.67700 41.48900
C  49.71300 48.29300 41.40700
C  50.74200 51.78500 42.34200
C  48.08600 49.92200 40.90300
O  47.40400 50.95500 40.69400
C  47.66900 48.46800 40.44000
C  46.27800 48.04800 40.69600
O  45.41400 48.33100 39.84700
O  46.09500 47.47500 41.91400
C  44.68200 47.06900 42.22400
H  49.91400 41.98000 40.56100
H  55.61900 44.42300 42.13500
H  53.12000 50.34700 43.04800
H  46.76600 45.63100 40.59500
H  47.68500 43.12800 39.47400
H  47.71600 42.70000 42.25400
H  46.31000 42.61600 41.07400
H  46.56600 44.06100 41.97800
H  47.56500 44.60300 37.86400
H  47.66000 46.27600 38.08400
H  45.50100 46.11000 37.50100
H  44.99300 45.36200 39.08900
H  51.97000 39.87700 41.77100
H  53.03400 40.03800 40.39800
H  51.34200 40.42200 40.23800
H  56.50000 42.43700 43.11500
H  56.57100 42.76700 41.34800
H  57.27400 41.21900 42.09400
H  56.29600 47.04800 41.91900
H  55.20100 48.57900 44.22700
H  57.14400 47.03000 44.54800
H  57.67300 45.98100 43.26800
H  56.27800 45.42900 44.26700
H  55.44300 50.42100 43.24700
H  55.43000 49.87200 41.53200
H  57.40400 50.94200 42.61100
H  57.72900 49.78100 41.32800
H  57.73200 49.20300 43.06700
H  51.40200 52.19800 41.58000
H  51.18400 52.01700 43.31100
H  49.76700 52.25500 42.21700
H  47.55000 48.48700 39.35600
H  44.79000 46.33500 43.02300
H  44.18500 46.73900 41.31200
H  44.19800 48.01500 42.46800
Mg 8.94100 48.43100 25.88700
C  6.83600 49.11700 28.75600
C  11.53900 49.80500 27.77500
C  10.81400 48.14700 23.30200
C  5.91500 48.21400 24.03000
N  9.14900 49.24000 28.00100
C  8.17300 49.26300 28.99300
C  8.81100 49.62700 30.34900
C  10.14300 50.34700 29.91000
C  10.29900 49.73700 28.47800
C  9.98300 51.89400 29.82100
C  9.10800 48.41600 31.28600
C  9.38400 48.81800 32.80800
H  8.89200 47.90300 33.88200
N  10.91100 48.65800 25.66000
C  11.82300 49.24900 26.54000
C  13.10200 49.22700 26.00700
C  12.99000 48.66500 24.67700
C  11.51600 48.43700 24.49000
C  14.37500 49.49900 26.83900
C  14.00500 48.30700 23.62400
O  13.77600 47.70400 22.54700
C  15.45000 48.74800 23.83900
N  8.42300 48.35400 23.91000
C  9.42000 48.11600 23.11500
C  8.85700 47.80900 21.67100
C  7.33700 47.66400 21.92500
C  7.22000 48.14300 23.35600
C  9.18100 48.84800 20.58100
C  6.71000 46.21500 21.77800
C  5.51400 46.26900 20.81700
N  6.70200 48.57000 26.26600
C  5.64900 48.40100 25.39500
C  4.42600 48.71800 26.13800
C  4.89800 48.89100 27.49400
C  6.27100 48.81000 27.49300
C  3.03100 48.61200 25.58300
C  4.43300 49.17800 28.86200
O  3.28800 49.21600 29.28500
C  5.70600 49.45000 29.70500
C  5.65300 48.57100 30.83100
O  5.57100 47.36200 30.85300
O  5.56200 49.38300 31.94200
C  4.94200 48.74400 33.16700
H  12.26900 50.26800 28.44300
H  11.45800 48.22300 22.42400
H  5.12200 48.14800 23.28300
H  8.19000 50.33000 30.90400
H  11.01100 50.01100 30.47800
H  9.06000 52.24100 30.28400
H  10.08000 52.13300 28.76200
H  10.83800 52.29700 30.36400
H  9.95000 47.90000 30.82600
H  8.27600 47.71500 31.22300
H  8.78700 49.72500 32.90000
H  10.44200 48.90600 33.05500
H  14.21100 49.87800 27.84800
H  14.99000 50.12000 26.18700
H  14.91600 48.56100 26.96400
H  15.54500 49.71600 23.34700
H  16.20800 48.21000 23.27100
H  15.79500 48.87800 24.86500
H  9.22800 46.90500 21.19000
H  6.81500 48.40200 21.31600
H  9.52400 49.72300 21.13300
H  8.43100 49.04200 19.81300
H  10.07500 48.60200 20.00800
H  6.37500 45.92000 22.77200
H  7.52900 45.62700 21.36400
H  4.76200 45.72300 21.38600
H  5.78100 45.84000 19.85100
H  5.07800 47.25800 20.67500
H  2.90900 47.57800 25.26000
H  2.88600 49.39100 24.83500
H  2.35600 48.88800 26.39300
H  5.77000 50.46200 30.10300
H  4.40900 49.37000 33.88300
H  5.79900 48.22800 33.60000
H  4.19300 47.99400 32.91300

