158

Mg 36.44200 1.00500 29.69200
C  33.99100 2.04800 32.09800
C  38.71900 1.02400 32.18400
C  38.68000 0.45600 27.31200
C  33.95400 1.41000 27.13000
N  36.31800 1.47400 31.90500
C  35.22700 1.78000 32.64900
C  35.54400 1.74600 34.11400
C  37.11300 1.79000 34.19900
C  37.45400 1.37600 32.69300
C  37.68000 3.19200 34.61600
C  34.92900 0.56300 34.91200
C  34.28600 0.79300 36.31400
H  34.64200 2.16500 37.01300
N  38.46600 0.82000 29.68800
C  39.21600 0.76800 30.83800
C  40.57800 0.36200 30.50900
C  40.57500 0.18000 29.09100
C  39.19100 0.50200 28.65200
C  41.71300 0.33000 31.56900
C  41.60900 -0.30200 28.12900
O  41.44700 -0.49200 26.90200
C  42.88900 -0.81100 28.67600
N  36.22300 0.72500 27.54100
C  37.34700 0.60100 26.85600
C  37.13600 0.76700 25.36900
C  35.53800 0.80200 25.23300
C  35.20200 0.95600 26.69700
C  37.77700 2.16300 24.91500
C  34.78900 -0.36100 24.54000
C  34.39500 -1.54800 25.54200
N  34.37500 1.52900 29.61800
C  33.50100 1.58700 28.50700
C  32.19400 2.07900 28.96200
C  32.39300 2.26500 30.37800
C  33.67100 1.93100 30.73800
C  30.92100 2.37500 28.07800
C  31.61900 2.62200 31.54500
O  30.51000 3.01800 31.76500
C  32.70100 2.50700 32.72100
C  32.83400 3.85900 33.36000
O  33.49300 4.80700 32.96000
O  31.99000 3.82900 34.46600
C  31.56800 4.97200 35.18300
H  39.41800 0.78000 32.98700
H  39.41100 0.31500 26.51300
H  33.26700 1.64600 26.31500
H  35.17600 2.70700 34.47300
H  37.39000 1.08200 34.98000
H  37.51600 3.21300 35.69300
H  37.11200 3.93700 34.05900
H  38.72700 3.20000 34.31100
H  35.59700 -0.29000 35.03000
H  34.08400 0.22000 34.31500
H  34.52400 -0.09000 36.90700
H  33.21100 0.74100 36.14300
H  42.60400 0.78000 31.13200
H  41.84800 -0.70500 31.88200
H  41.56400 1.01800 32.40100
H  43.20600 -0.17600 29.50300
H  43.72500 -0.62400 28.00200
H  42.93800 -1.85100 28.99800
H  37.61600 -0.13800 24.99600
H  35.12100 1.69900 24.77700
H  37.07200 2.94200 25.20800
H  37.85100 2.11300 23.82900
H  38.78900 2.27200 25.30500
H  35.24200 -0.78100 23.64200
H  33.83300 0.05800 24.22500
H  34.56900 -2.55400 25.15900
H  33.34800 -1.58700 25.84000
H  35.01500 -1.55200 26.43900
H  30.89900 1.79300 27.15600
H  31.00700 3.40900 27.74500
H  30.06000 2.29300 28.74200
H  32.32500 1.79500 33.45500
H  30.50300 4.92200 35.40800
H  31.69900 5.88300 34.59900
H  32.10100 5.04100 36.13200
Mg 6.91100 56.87600 41.37800
C  6.45200 53.27900 41.27900
C  9.91100 56.34700 39.70300
C  6.83300 60.03600 40.55600
C  3.66800 57.13800 42.80300
N  8.08800 55.00300 40.53200
C  7.70500 53.67700 40.65200
C  8.80500 52.81600 40.03300
C  10.06300 53.73000 40.02700
C  9.37000 55.12600 40.13700
C  10.93800 53.56400 41.26700
C  8.41000 52.33200 38.62600
C  8.63100 50.77400 38.28300
H  7.45800 50.10800 37.49500
N  8.22800 58.05800 40.36000
C  9.41600 57.64100 39.75700
C  10.03100 58.86200 39.21000
C  9.27900 59.95100 39.48700
C  7.99100 59.37800 40.09200
C  11.36700 58.80800 38.58800
C  9.59200 61.39500 39.25300
O  10.65900 61.65000 38.67100
C  8.77800 62.63900 39.70200
N  5.42900 58.31500 41.55500
C  5.71900 59.58500 41.23300
C  4.60200 60.54500 41.61800
C  3.54900 59.63900 42.29800
C  4.28000 58.30600 42.25300
C  4.88600 61.81000 42.47000
C  2.12000 59.59200 41.67800
C  0.95700 60.17200 42.57200
N  5.40900 55.46400 42.08900
C  4.22900 55.80800 42.74300
C  3.67000 54.54800 43.24900
C  4.47900 53.51100 42.67700
C  5.43400 54.14200 41.90900
C  2.47100 54.38300 44.10800
C  4.69700 52.06200 42.55200
O  4.13400 51.12700 43.08100
C  5.91200 51.89800 41.57100
C  5.43700 51.28000 40.31100
O  5.16300 51.85900 39.24400
O  5.38200 49.98800 40.56900
C  4.49600 49.17600 39.63800
H  10.89000 56.17900 39.24700
H  6.79800 61.12400 40.46500
H  2.73800 57.17000 43.37500
H  9.04600 51.96100 40.66500
H  10.63400 53.57900 39.11100
H  10.75000 54.18200 42.14400
H  11.90400 53.93000 40.91800
H  10.96300 52.50900 41.53900
H  8.99300 52.91300 37.91100
H  7.36000 52.55400 38.43500
H  8.94800 50.26300 39.19200
H  9.50700 50.71800 37.63700
H  11.91100 57.86300 38.59600
H  12.04600 59.42000 39.18300
H  11.34700 59.13800 37.55000
H  8.57500 62.39000 40.74400
H  7.82900 62.67700 39.16700
H  9.38700 63.53200 39.56400
H  4.30600 60.73900 40.58700
H  3.51200 59.92700 43.34900
H  4.75400 62.67100 41.81500
H  5.91000 61.69500 42.82500
H  4.17700 61.93600 43.28800
H  1.95400 58.52900 41.50400
H  2.21900 60.14000 40.74000
H  0.33300 60.86200 42.00300
H  1.34300 60.68200 43.45500
H  0.39800 59.32900 42.97700
H  1.56100 54.50100 43.51900
H  2.46200 54.96700 45.02800
H  2.46300 53.40300 44.58500
H  6.77800 51.34800 41.94000
H  3.48100 49.06300 40.02000
H  4.82900 48.13900 39.68100
H  4.42400 49.67700 38.67200

