158

Mg 35.65600 2.18900 30.10400
C  32.95000 3.09600 32.24000
C  37.81800 2.59200 32.84700
C  38.15500 1.73400 28.01200
C  33.31800 2.22500 27.54400
N  35.42100 2.91100 32.34900
C  34.18500 2.95000 32.97800
C  34.44300 3.08200 34.51800
C  36.01400 3.42100 34.59700
C  36.46400 2.94600 33.22600
C  36.39100 4.90100 34.85000
C  34.07200 1.88600 35.32400
C  33.46700 2.09200 36.68600
H  34.17500 3.06400 37.62900
N  37.65300 1.99800 30.45500
C  38.38500 2.10800 31.58700
C  39.80200 1.86300 31.34600
C  39.93900 1.49900 29.94100
C  38.55900 1.74000 29.42900
C  40.85700 1.87400 32.46400
C  41.11700 1.07200 29.06800
O  41.13300 0.95200 27.88000
C  42.42400 0.76600 29.74300
N  35.68000 1.94200 28.06100
C  36.89900 1.80700 27.43500
C  36.71000 1.52200 25.93600
C  35.10900 1.26700 25.86400
C  34.61100 1.81900 27.22900
C  37.07600 2.75700 25.04200
C  34.63000 -0.19100 25.69500
C  33.60300 -0.39800 24.59500
N  33.62300 2.87000 29.82200
C  32.76300 2.77200 28.71000
C  31.31700 3.04400 29.07700
C  31.43500 3.27200 30.46300
C  32.81300 3.04900 30.82300
C  30.12600 3.01200 28.14800
C  30.62300 3.61600 31.64800
O  29.48700 3.83400 31.79900
C  31.57300 3.49200 32.85100
C  31.49200 4.78700 33.50700
O  31.93400 5.81900 33.07900
O  31.09500 4.56700 34.79200
C  31.35200 5.67700 35.69300
H  38.42300 2.70700 33.74900
H  38.95300 1.45900 27.32000
H  32.61100 1.97700 26.74900
H  33.83500 3.82900 35.02900
H  36.32100 2.84800 35.47200
H  35.47100 5.31500 35.26300
H  36.62800 5.52400 33.98700
H  37.10600 5.01300 35.66500
H  34.87100 1.14400 35.34700
H  33.34500 1.36100 34.70500
H  33.47300 1.12800 37.19300
H  32.48500 2.48300 36.41800
H  41.58100 1.06300 32.38900
H  40.41200 1.72900 33.44800
H  41.35300 2.84500 32.47000
H  42.24700 -0.18400 30.24800
H  42.60200 1.69000 30.29400
H  43.14200 0.73000 28.92400
H  37.15600 0.58000 25.61900
H  34.55300 1.92400 25.19500
H  37.20700 3.68000 25.60600
H  36.25100 2.91200 24.34700
H  38.02100 2.66300 24.50700
H  34.30600 -0.69000 26.60800
H  35.51400 -0.70700 25.32000
H  33.24400 0.52400 24.13900
H  32.64100 -0.79100 24.92100
H  33.98500 -1.04200 23.80200
H  29.41600 2.26800 28.51200
H  30.38800 2.63000 27.16200
H  29.78300 4.04500 28.10100
H  31.19800 2.73200 33.53600
H  32.22200 6.27700 35.42700
H  31.52900 5.30100 36.70000
H  30.47700 6.32300 35.61700
Mg 55.15800 23.79600 45.09600
C  52.36900 25.75400 43.95800
C  53.46300 21.04300 43.78600
C  57.91100 22.11000 45.23700
C  56.86800 26.78500 45.91700
N  53.16400 23.49500 43.82100
C  52.18800 24.45400 43.56800
C  50.96000 23.81700 42.95300
C  51.16700 22.32700 43.36500
C  52.70300 22.22100 43.66700
C  50.33700 21.80300 44.61000
C  50.95600 24.13900 41.37800
C  49.67100 24.11600 40.56600
H  49.80600 23.95100 39.00800
N  55.67900 21.79900 44.67800
C  54.81600 20.78900 44.20100
C  55.57300 19.47700 44.19100
C  56.90700 19.80200 44.49400
C  56.86900 21.24000 44.80600
C  54.92900 18.21200 43.74900
C  58.06600 18.85200 44.51800
O  57.96200 17.62500 44.32200
C  59.58000 19.24500 44.54100
N  57.08500 24.34300 45.58300
C  58.02500 23.43800 45.54700
C  59.41700 24.11900 45.86700
C  59.07200 25.58900 46.23300
C  57.61500 25.60200 45.88600
C  60.39000 23.36900 46.83700
C  59.92700 26.59300 45.34900
C  60.32300 27.87900 46.17100
N  54.68300 25.79600 45.15100
C  55.45500 26.87500 45.53000
C  54.58900 27.99800 45.67300
C  53.38000 27.60000 45.02400
C  53.50100 26.26600 44.65900
C  54.86400 29.25300 46.34800
C  52.04500 28.10500 44.68100
O  51.53800 29.22900 44.91300
C  51.35900 26.91200 43.81100
C  51.18400 27.43500 42.48200
O  52.07400 27.55800 41.56500
O  49.88200 27.89800 42.35400
C  49.29400 28.08700 41.00600
H  52.81800 20.21100 43.49500
H  58.85600 21.58500 45.39400
H  57.38600 27.68300 46.26000
H  50.04600 24.25700 43.35300
H  50.87200 21.66900 42.54700
H  49.87700 22.58500 45.21500
H  50.98800 21.22900 45.26800
H  49.60300 21.07500 44.26200
H  51.63300 23.35100 41.04900
H  51.42500 25.11500 41.25700
H  49.03900 24.98300 40.75700
H  49.16600 23.26400 41.02100
H  55.35900 17.99500 42.77200
H  53.83900 18.24500 43.76800
H  55.20800 17.32800 44.32200
H  59.59700 19.75700 43.57900
H  60.25300 18.40000 44.39400
H  59.96900 19.88400 45.33300
H  59.80800 24.10200 44.85000
H  59.20100 25.80300 47.29300
H  59.86100 22.54100 47.30900
H  60.75200 24.03200 47.62300
H  61.23900 22.96400 46.28600
H  59.37800 26.90300 44.46000
H  60.81700 26.06700 45.00300
H  60.40000 28.75200 45.52200
H  61.36600 27.72900 46.44800
H  59.69500 28.09300 47.03500
H  54.00700 29.84600 46.66900
H  55.58900 29.83300 45.77700
H  55.38300 29.02800 47.27900
H  50.37900 26.80400 44.27500
H  49.83500 27.63300 40.17600
H  49.24000 29.16700 40.87000
H  48.30000 27.65700 40.87600

