158

Mg 9.18700 4.64400 27.58000
C  10.59000 3.11200 30.22300
C  7.40900 6.63700 29.79800
C  7.48200 5.95600 24.94700
C  10.90400 2.52500 25.33400
N  9.05300 4.91900 29.84200
C  9.73600 4.16500 30.70500
C  9.38800 4.51100 32.18700
C  8.34100 5.68000 32.03200
C  8.29700 5.78900 30.47900
C  6.93800 5.42300 32.67400
C  10.74000 4.92800 32.95000
C  10.50600 5.58700 34.24500
H  11.19700 5.11200 35.53900
N  7.73200 6.12200 27.40100
C  7.10800 6.81800 28.36400
C  6.23900 7.89800 27.80400
C  6.24600 7.61100 26.42100
C  7.17100 6.53800 26.20400
C  5.43900 8.90400 28.62300
C  5.52600 8.34100 25.32100
O  5.66000 8.01800 24.14700
C  4.58100 9.38500 25.55200
N  9.20600 4.35400 25.47800
C  8.33000 4.89500 24.62700
C  8.59900 4.39400 23.19100
C  9.85300 3.46500 23.23300
C  10.03500 3.45100 24.81100
C  7.36700 3.84200 22.45400
C  11.05400 4.03700 22.39100
C  11.75100 3.04900 21.55600
N  10.53200 3.08100 27.64100
C  11.08100 2.31200 26.74500
C  11.94800 1.36300 27.39800
C  11.76900 1.56600 28.77300
C  10.89700 2.67100 28.84200
C  12.74700 0.36300 26.70200
C  12.13300 1.14400 30.16400
O  12.83400 0.26000 30.59400
C  11.37000 2.12900 31.10600
C  10.51300 1.35100 32.06800
O  9.37000 0.89200 31.82600
O  11.15500 1.26200 33.29600
C  10.29600 1.06100 34.44200
H  6.84700 7.31400 30.44400
H  7.14700 6.42300 24.01800
H  11.56000 1.86700 24.75900
H  8.79900 3.67100 32.55500
H  8.91800 6.52500 32.41000
H  6.76900 4.49600 33.22200
H  6.15100 5.47200 31.92100
H  6.69300 6.29100 33.28600
H  11.43000 5.53300 32.36200
H  11.23300 3.99500 33.22100
H  9.43100 5.51500 34.40800
H  10.76700 6.64000 34.13900
H  4.38900 8.64900 28.76700
H  5.57200 9.83600 28.07400
H  5.91100 9.04200 29.59500
H  3.64700 9.19600 26.08100
H  4.35200 9.71400 24.53800
H  5.11700 10.20300 26.03400
H  8.87400 5.26900 22.60300
H  9.68900 2.42800 22.93900
H  7.16900 4.40200 21.54000
H  6.54500 3.87600 23.16900
H  7.58700 2.81600 22.16100
H  11.66600 4.32600 23.24600
H  10.92400 5.03300 21.96800
H  12.55700 2.56900 22.11200
H  12.15900 3.62700 20.72700
H  11.11200 2.24400 21.19300
H  13.40800 0.71300 25.90900
H  12.07000 -0.18900 26.05000
H  13.27700 -0.32200 27.36300
H  12.07400 2.76300 31.64600
H  9.25100 1.21500 34.17100
H  10.61200 1.76400 35.21300
H  10.35300 0.03600 34.80800
Mg 45.20200 5.80800 48.52800
C  42.75100 8.28300 48.08400
C  42.58600 3.43500 47.75000
C  47.45600 3.22100 48.13900
C  47.71100 8.09800 48.12200
N  43.02900 5.84300 47.75200
C  42.26500 6.95600 47.88100
C  40.71500 6.62100 47.77200
C  40.71700 5.10200 47.48900
C  42.17500 4.77100 47.77900
C  39.64200 4.47700 48.46800
C  39.88400 7.49100 46.72900
C  40.52800 7.73600 45.32700
H  39.79800 7.05000 44.18000
N  45.01200 3.58800 48.18100
C  43.88100 2.86300 47.93400
C  44.23300 1.47000 47.69500
C  45.63200 1.38000 47.84500
C  46.11300 2.80200 48.06100
C  43.19900 0.39900 47.64300
C  46.44000 0.04900 47.78000
O  45.92100 -0.96400 47.37000
C  47.81600 -0.06600 48.27400
N  47.25100 5.68900 48.17000
C  47.92400 4.46600 48.09400
C  49.53400 4.78200 48.01800
C  49.48900 6.32300 48.19100
C  48.12900 6.72600 48.12000
C  50.43700 4.06100 49.03100
C  50.35400 7.11300 47.21500
C  51.14000 8.33200 47.81500
N  45.26300 7.74800 48.32800
C  46.33300 8.65200 48.18500
C  45.78400 9.98300 48.22100
C  44.38600 9.91400 48.19400
C  44.13000 8.49900 48.15300
C  46.70200 11.18700 48.32400
C  43.18600 10.71700 48.30000
O  43.00800 11.91900 48.39700
C  42.05900 9.65500 48.07600
C  41.11300 9.71000 49.22400
O  41.04500 9.01400 50.23900
O  40.25400 10.71400 48.96400
C  39.20400 11.07700 49.96400
H  41.88400 2.62000 47.56400
H  48.24100 2.54100 47.80000
H  48.59400 8.73500 48.03300
H  40.38300 6.92200 48.76500
H  40.41300 4.82700 46.47900
H  40.03500 4.35900 49.47800
H  39.18500 3.53600 48.16300
H  38.76300 5.11100 48.58100
H  39.57000 8.42800 47.18900
H  38.88900 7.05800 46.62600
H  41.46100 7.18200 45.42300
H  40.66200 8.81400 45.23900
H  42.16000 0.70400 47.76800
H  43.37900 -0.24200 48.50600
H  43.40300 -0.24200 46.78600
H  48.18400 -1.09200 48.29200
H  47.86300 0.45500 49.23000
H  48.37600 0.42400 47.47800
H  49.72800 4.53300 46.97500
H  49.89400 6.55000 49.17700
H  50.79600 3.10000 48.66200
H  49.92100 3.92800 49.98100
H  51.35800 4.62900 49.16000
H  49.80400 7.47700 46.34800
H  51.17100 6.43600 46.96300
H  52.21800 8.17700 47.78600
H  50.89100 8.61700 48.83700
H  50.83200 9.07900 47.08300
H  46.03500 11.99200 48.01600
H  47.59200 11.17200 47.69500
H  46.95400 11.24100 49.38300
H  41.45300 9.81600 47.18400
H  39.18400 10.41700 50.83200
H  38.23100 11.07600 49.47300
H  39.43200 12.07500 50.33700

