158

Mg 46.51100 25.57500 28.06300
C  47.71300 27.70200 30.69700
C  45.64900 23.22400 30.37800
C  45.75600 23.54400 25.49700
C  48.28100 27.78300 25.87500
N  46.66400 25.52100 30.26000
C  47.06400 26.49800 31.13200
C  46.78600 26.10200 32.55300
C  46.21200 24.70300 32.49000
C  46.19200 24.40700 30.91500
C  47.09500 23.66300 33.23800
C  45.89800 27.12600 33.38200
C  46.32900 27.25500 34.88600
H  45.25600 27.46700 35.90400
N  45.83700 23.63600 28.01900
C  45.50400 22.80600 29.07300
C  44.79700 21.60300 28.64100
C  44.85200 21.70800 27.22300
C  45.52300 23.01000 26.84200
C  44.12300 20.57200 29.53400
C  44.25800 20.75600 26.15200
O  44.32400 20.95900 24.91600
C  43.40800 19.67600 26.59400
N  46.93300 25.71300 26.00200
C  46.30600 24.80200 25.10400
C  46.59700 25.20300 23.63700
C  47.42800 26.56000 23.82500
C  47.58700 26.70800 25.33500
C  47.34800 24.08700 22.82500
C  46.70700 27.82600 23.21000
C  47.63000 28.80100 22.46000
N  47.68900 27.49100 28.22600
C  48.29100 28.18400 27.20400
C  48.85000 29.44000 27.80000
C  48.66000 29.30200 29.18700
C  47.93800 28.10800 29.39100
C  49.58800 30.49400 27.14800
C  48.88500 29.88800 30.45100
O  49.53100 30.93200 30.77500
C  48.27100 28.92200 31.56100
C  49.32200 28.47500 32.54900
O  50.13400 27.64200 32.30200
O  49.10500 28.99400 33.83600
C  50.01200 28.51200 34.88800
H  45.26700 22.51000 31.11000
H  45.56500 22.92700 24.61600
H  48.76000 28.50300 25.20800
H  47.69300 26.14500 33.15600
H  45.17900 24.61100 32.82600
H  46.47700 22.90500 33.71900
H  47.63500 24.21700 34.00600
H  47.79500 23.12500 32.59900
H  44.88900 26.72700 33.47700
H  45.74000 28.09600 32.90900
H  47.03400 28.08000 34.99100
H  46.73800 26.28800 35.17800
H  44.11400 20.73600 30.61200
H  44.54900 19.58500 29.35800
H  43.10200 20.61200 29.15300
H  43.83100 19.05500 27.38400
H  43.10200 18.95800 25.83400
H  42.53900 20.18000 27.01600
H  45.61200 25.41100 23.21700
H  48.41500 26.39200 23.39400
H  48.37300 24.32800 22.54100
H  46.86400 23.87300 21.87200
H  47.47400 23.17500 23.40800
H  46.23900 28.30300 24.07200
H  45.89600 27.51300 22.55200
H  47.59300 29.80100 22.89200
H  47.23400 28.85500 21.44600
H  48.67200 28.48400 22.43000
H  49.00700 30.83200 26.29000
H  50.62800 30.25800 26.92400
H  49.71400 31.25100 27.92300
H  47.56400 29.62800 31.99700
H  49.68000 27.48800 35.06000
H  49.68900 29.03500 35.78800
H  51.06800 28.64800 34.65800
Mg 50.89200 44.48600 42.57100
C  47.68400 45.43600 41.12400
C  50.36000 41.33600 41.28600
C  54.15500 43.94600 43.11900
C  51.38900 47.87500 43.15100
N  49.19400 43.57700 41.35100
C  48.02500 44.14600 40.86500
C  47.23700 43.10900 40.10100
C  48.04400 41.76100 40.29900
C  49.27100 42.22600 41.01600
C  47.15600 40.75900 41.05300
C  47.19700 43.63000 38.63600
C  45.81100 43.70500 38.00800
H  45.69200 42.98300 36.64000
N  52.07600 42.83200 42.34200
C  51.66500 41.57400 41.95100
C  52.74100 40.61700 42.14100
C  53.86800 41.34300 42.68200
C  53.44000 42.79300 42.75700
C  52.66200 39.17400 41.78800
C  55.18000 40.73600 43.13200
O  55.47900 39.53100 42.89300
C  56.17900 41.51400 43.96000
N  52.57100 45.76300 42.96500
C  53.83300 45.31800 43.17400
C  54.83100 46.47300 43.39700
C  53.91900 47.70400 43.30600
C  52.48700 47.06700 43.20400
C  55.62300 46.56200 44.78500
C  54.15600 48.81700 42.23300
C  54.41400 50.23000 42.78000
N  49.71500 46.29000 42.50800
C  49.98600 47.59800 42.87200
C  48.78100 48.44500 42.73300
C  47.80500 47.60100 42.11900
C  48.46200 46.31500 41.94700
C  48.67600 49.89000 43.05800
C  46.49700 47.60500 41.49100
O  45.65400 48.45800 41.36800
C  46.38800 46.18000 40.74500
C  45.03900 45.59000 41.11200
O  44.05900 45.52000 40.43700
O  45.07500 45.17500 42.44400
C  43.84400 44.79800 43.11600
H  50.20900 40.34800 40.84600
H  55.20700 43.78700 43.36100
H  51.46800 48.95700 43.27900
H  46.21100 43.07600 40.46700
H  48.22500 41.33200 39.31300
H  46.12700 41.12000 41.02900
H  47.50700 40.75700 42.08500
H  47.06000 39.77100 40.60400
H  47.91500 43.04800 38.05900
H  47.51900 44.66300 38.50600
H  45.57500 44.73900 37.75500
H  44.99500 43.30300 38.60900
H  53.07900 39.08700 40.78500
H  51.65900 38.77500 41.63900
H  53.14600 38.49000 42.48500
H  55.69800 42.21800 44.64000
H  56.84800 41.92700 43.20500
H  56.74700 40.86200 44.62400
H  55.59300 46.56900 42.62400
H  53.74500 48.23200 44.24400
H  55.60700 45.56900 45.23300
H  55.26100 47.36100 45.43200
H  56.67500 46.76600 44.58400
H  53.40900 48.76400 41.44000
H  55.12300 48.49800 41.84400
H  54.12400 50.36800 43.82200
H  54.02500 50.95400 42.06500
H  55.48800 50.41400 42.74900
H  48.78900 50.51900 42.17500
H  49.55400 50.03000 43.68900
H  47.79700 49.99500 43.69500
H  46.41200 46.36800 39.67200
H  43.92700 43.71800 42.99100
H  42.98900 45.16900 42.55100
H  43.76300 45.17800 44.13400

