158

Mg 36.13200 2.92800 30.52500
C  33.46400 3.85500 32.57600
C  38.24200 3.33300 33.19900
C  38.75600 2.28400 28.38800
C  34.01500 2.95700 27.68800
N  35.89600 3.72300 32.51100
C  34.67600 3.82300 33.20400
C  34.87700 3.81900 34.70200
C  36.37600 4.20000 34.79000
C  36.91700 3.79300 33.44500
C  36.52700 5.63100 35.10700
C  34.56900 2.40200 35.33000
C  34.09200 2.35200 36.79800
H  34.90500 3.28600 37.77900
N  38.14400 2.50000 30.81600
C  38.82500 2.76000 31.99300
C  40.13000 2.17500 31.75500
C  40.24100 1.81600 30.39400
C  39.02000 2.25100 29.78900
C  41.20500 2.17100 32.76000
C  41.42700 1.00700 29.63000
O  41.39400 0.78000 28.41600
C  42.73200 0.64200 30.33700
N  36.40500 2.82700 28.38700
C  37.56200 2.58800 27.72100
C  37.41500 2.32900 26.23000
C  35.88200 2.35500 26.03800
C  35.37600 2.68000 27.50000
C  38.17600 3.42100 25.44000
C  35.37500 0.95600 25.58700
C  33.96600 1.00700 24.96500
N  34.20200 3.40400 30.16600
C  33.43000 3.20100 28.97700
C  32.03400 3.45700 29.33500
C  32.05400 3.75100 30.72100
C  33.33100 3.62800 31.17700
C  30.83500 3.38400 28.45500
C  31.22400 4.18700 31.86500
O  30.03200 4.39100 31.88000
C  32.11000 4.22000 33.12000
C  32.03200 5.55600 33.80200
O  32.27900 6.66500 33.32500
O  31.73200 5.35900 35.12500
C  31.84500 6.57600 35.90400
H  38.95500 3.30800 34.02600
H  39.58000 1.94500 27.75600
H  33.27800 2.95000 26.88300
H  34.28800 4.59000 35.19800
H  36.95200 3.67200 35.55000
H  36.93900 6.29000 34.34200
H  37.14300 5.74100 36.00000
H  35.56800 6.08900 35.34800
H  35.41500 1.74300 35.13000
H  33.68800 2.01100 34.82100
H  34.23500 1.31700 37.10800
H  33.06800 2.69900 36.93800
H  41.59700 1.16100 32.88300
H  40.77800 2.43500 33.72800
H  42.04400 2.81800 32.50400
H  43.35000 1.54000 30.33700
H  43.35700 -0.02300 29.74000
H  42.73100 0.13700 31.30300
H  37.68500 1.30000 25.99300
H  35.55900 3.15700 25.37400
H  39.19900 3.06000 25.33500
H  38.16200 4.39400 25.93200
H  37.75500 3.33400 24.43900
H  35.37500 0.21400 26.38500
H  35.98400 0.47900 24.81900
H  33.59700 2.02000 24.80200
H  33.13200 0.55200 25.49900
H  33.95500 0.43700 24.03600
H  31.17100 2.75200 27.63200
H  30.45700 4.31900 28.04200
H  30.01400 2.89900 28.98300
H  31.63600 3.47400 33.75800
H  30.90000 7.11000 35.80300
H  32.74300 7.19100 35.84600
H  31.81100 6.22400 36.93500
Mg 25.92800 49.69600 26.46900
C  24.21000 51.08900 29.09200
C  28.37700 48.74100 28.88000
C  27.93100 48.60700 23.99400
C  24.08900 51.56600 24.13600
N  26.35700 50.02800 28.77600
C  25.27600 50.41200 29.61200
C  25.67100 50.18300 31.09900
C  27.15500 49.60200 30.97000
C  27.37100 49.48100 29.48000
C  28.27200 50.38100 31.75600
C  24.63300 49.20800 31.82500
C  23.99700 49.69400 33.22400
H  24.96900 50.04500 34.35600
N  27.79300 48.59700 26.51100
C  28.60900 48.26900 27.56200
C  29.64900 47.46600 27.07800
C  29.56300 47.47500 25.60600
C  28.34200 48.22300 25.27600
C  30.72100 46.78600 27.94400
C  30.49300 46.82500 24.63400
O  30.45100 46.98200 23.40700
C  31.69100 45.96900 25.04500
N  26.00000 50.02900 24.33600
C  26.93000 49.42900 23.56900
C  26.70400 49.66000 22.03500
C  25.18300 50.35400 22.09100
C  25.12200 50.77100 23.57400
C  27.79200 50.58400 21.39200
C  23.95100 49.46900 21.60200
C  23.43900 49.81800 20.19200
N  24.48000 51.02800 26.54600
C  23.74400 51.60500 25.51600
C  22.65600 52.30000 26.00500
C  22.74500 52.10700 27.40300
C  23.94500 51.38400 27.71000
C  21.60000 53.18400 25.29400
C  22.18100 52.39700 28.66800
O  21.19800 53.12100 28.91000
C  23.01100 51.70700 29.82800
C  23.35400 52.77000 30.84100
O  24.11800 53.67500 30.60500
O  22.61200 52.54100 31.98700
C  23.15600 53.40400 33.08900
H  29.19500 48.33700 29.48100
H  28.43000 48.00500 23.23100
H  23.35000 52.06300 23.50500
H  25.73600 51.15600 31.58700
H  27.21700 48.62500 31.44900
H  28.56600 49.92200 32.70000
H  27.91400 51.35500 32.08900
H  29.15400 50.68300 31.19100
H  25.01100 48.18800 31.89800
H  23.77900 49.22000 31.14800
H  23.37400 48.91500 33.66300
H  23.44700 50.63300 33.15800
H  30.80700 45.71800 27.74300
H  30.60200 46.97300 29.01100
H  31.59800 47.31200 27.56700
H  32.27200 46.61600 25.70300
H  32.23500 45.60700 24.17300
H  31.38100 45.04200 25.52700
H  26.72800 48.63700 21.65900
H  25.30500 51.27800 21.52700
H  27.37100 51.36500 20.75900
H  28.38200 50.00900 20.67800
H  28.37300 51.04200 22.19200
H  23.14000 49.67600 22.29900
H  24.19500 48.40700 21.56000
H  23.43600 48.90400 19.59900
H  24.17500 50.48600 19.74500
H  22.42400 50.18900 20.33200
H  21.10900 52.71100 24.44300
H  22.04300 54.13200 24.99000
H  20.77700 53.39400 25.97700
H  22.44800 50.87000 30.24100
H  24.21400 53.22800 33.28500
H  22.63500 53.41400 34.04600
H  23.02600 54.44800 32.80400

