158

Mg 1.69200 -1.82200 44.17300
C  4.98500 -0.62700 43.62800
C  0.50500 0.93500 42.34500
C  -1.33000 -3.06200 44.36200
C  3.12700 -4.80600 45.28000
N  2.63500 -0.21800 42.92100
C  3.99500 0.09300 42.86800
C  4.28700 1.26400 41.94800
C  2.83600 1.95600 41.78800
C  1.92400 0.88800 42.40900
C  2.77300 3.21000 42.66500
C  4.87000 0.75500 40.61700
C  5.99100 1.67100 40.02200
H  5.73500 2.25200 38.65700
N  -0.18600 -1.11900 43.43600
C  -0.47600 -0.01900 42.75700
C  -1.88400 0.12200 42.58500
C  -2.46100 -1.06200 43.10000
C  -1.33200 -1.81000 43.71200
C  -2.59000 1.21700 41.89600
C  -3.93200 -1.34400 43.02900
O  -4.74200 -0.54700 42.49800
C  -4.48000 -2.63600 43.58300
N  1.02200 -3.78600 44.47600
C  -0.30000 -3.96600 44.80900
C  -0.60600 -5.18700 45.47400
C  0.81500 -5.82500 45.74500
C  1.79900 -4.78400 45.05100
C  -1.41400 -5.05100 46.80500
C  1.01000 -7.23900 45.21400
C  0.97800 -7.32700 43.69000
N  3.71000 -2.59700 44.42200
C  4.05800 -3.83800 44.86200
C  5.46400 -3.87000 45.09000
C  5.95300 -2.59500 44.63900
C  4.80100 -1.93100 44.21400
C  6.22600 -5.03400 45.71400
C  7.08800 -1.71300 44.39500
O  8.28800 -1.84500 44.51000
C  6.46500 -0.37800 43.79000
C  6.78600 0.81300 44.57400
O  6.12000 1.20800 45.50800
O  7.92200 1.34900 44.06300
C  8.36200 2.69700 44.55700
H  0.16400 1.89700 41.95600
H  -2.28900 -3.54400 44.56300
H  3.71900 -5.62300 45.69900
H  4.94500 1.87300 42.56800
H  2.57900 2.13700 40.74500
H  3.75100 3.68800 42.72400
H  2.47400 3.13900 43.71100
H  2.08900 3.95500 42.26000
H  4.11400 0.44500 39.89600
H  5.48900 -0.07000 40.97100
H  6.93200 1.12100 40.04400
H  6.18800 2.53200 40.66000
H  -3.23200 0.77800 41.13200
H  -1.95700 1.92600 41.36200
H  -3.21300 1.75300 42.61200
H  -4.10100 -3.48100 43.00900
H  -5.56100 -2.67200 43.44700
H  -4.29800 -2.86000 44.63400
H  -1.13700 -5.72400 44.68700
H  1.04700 -5.96800 46.80000
H  -1.36300 -4.00200 47.09500
H  -0.93700 -5.67100 47.56400
H  -2.44500 -5.40400 46.76200
H  0.31800 -8.01900 45.53100
H  1.96400 -7.66100 45.52900
H  0.31900 -8.04500 43.20300
H  1.99700 -7.52700 43.35800
H  0.66400 -6.43500 43.14800
H  5.78500 -5.25300 46.68700
H  7.28700 -4.78100 45.72400
H  6.09300 -5.83400 44.98600
H  6.93700 -0.23400 42.81800
H  7.68200 3.35900 44.01900
H  9.41800 2.83500 44.32500
H  8.21500 2.75400 45.63500
Mg 0.41000 7.88200 26.02000
C  0.90700 9.82500 28.99400
C  0.30000 5.10400 27.98900
C  0.14700 6.27100 23.24200
C  0.29700 11.00500 24.26800
N  0.51000 7.53800 28.30300
C  0.76700 8.46400 29.30300
C  0.76400 7.75100 30.65400
C  0.66600 6.24600 30.28500
C  0.48400 6.28200 28.77300
C  1.76500 5.30700 30.85000
C  -0.34400 8.24300 31.68200
C  0.16800 8.65600 33.13500
H  -0.55600 8.09200 34.42500
N  0.42900 6.01800 25.67700
C  0.30400 4.96800 26.57500
C  0.20600 3.69200 25.90200
C  0.11000 4.06700 24.48400
C  0.23700 5.49000 24.40300
C  0.10100 2.39100 26.60600
C  0.08200 3.08500 23.24000
O  0.24600 3.42000 22.09800
C  0.12400 1.60300 23.55200
N  0.50400 8.66600 23.96300
C  0.19500 7.68900 23.01400
C  0.04300 8.30200 21.58800
C  -0.21200 9.82600 21.95900
C  0.18200 9.85800 23.50300
C  1.34200 8.03000 20.78800
C  -1.66800 10.32400 21.75600
C  -1.77200 11.57600 20.87000
N  0.60800 9.94800 26.46600
C  0.58700 11.12300 25.65800
C  0.84000 12.32400 26.42300
C  1.01400 11.82100 27.68100
C  0.83400 10.41300 27.68900
C  0.90500 13.63100 25.85200
C  1.31300 12.19100 29.04500
O  1.56800 13.28000 29.55500
C  1.16000 10.94800 29.86100
C  2.27900 10.76600 30.74400
O  3.35300 10.17900 30.54000
O  1.92600 11.34000 31.97300
C  2.84800 10.97600 33.06800
H  0.16400 4.25200 28.65800
H  -0.08700 5.65000 22.37400
H  0.11100 11.90200 23.67300
H  1.75300 7.84700 31.10100
H  -0.16700 5.71500 30.74500
H  2.34000 5.81300 31.62600
H  2.51600 5.27400 30.06100
H  1.46400 4.30700 31.16300
H  -1.05600 7.42200 31.76300
H  -1.02200 8.96900 31.23400
H  0.04800 9.71900 32.92600
H  1.23200 8.46500 33.27900
H  -0.92500 2.06200 26.43500
H  0.37100 2.44800 27.66000
H  0.71800 1.65400 26.09200
H  0.22600 1.09900 22.59200
H  -0.72800 1.32700 24.17400
H  1.12000 1.45900 23.97300
H  -0.81200 7.85300 21.08300
H  0.50800 10.53500 21.55000
H  1.80800 8.96800 20.48700
H  0.96300 7.43000 19.96100
H  2.07400 7.55700 21.44400
H  -2.26600 10.51500 22.64600
H  -2.29700 9.58300 21.26200
H  -0.89000 11.62900 20.23200
H  -1.78700 12.45300 21.51700
H  -2.63300 11.39600 20.22600
H  0.58200 13.68100 24.81200
H  1.93200 13.98800 25.93700
H  0.17500 14.29300 26.31700
H  0.25700 11.17200 30.42900
H  2.23400 10.82500 33.95500
H  3.67300 11.68600 33.13600
H  3.26800 9.97400 32.98200

