158

Mg 17.77400 -1.90000 26.11200
C  16.81400 -0.08100 29.04200
C  19.50000 -4.00600 28.28500
C  18.72500 -3.47800 23.37700
C  16.31200 0.62400 24.19400
N  18.24600 -1.82500 28.39500
C  17.61800 -1.16700 29.36000
C  17.96500 -1.68000 30.78400
C  19.09100 -2.76300 30.43900
C  18.89000 -2.89900 28.94800
C  20.56100 -2.41300 30.85300
C  16.75700 -2.28500 31.60300
C  16.76100 -1.95500 33.14800
H  18.10400 -1.98200 33.84600
N  18.83900 -3.64000 25.87300
C  19.46900 -4.40200 26.84200
C  20.09300 -5.55800 26.14700
C  19.88000 -5.41000 24.66000
C  19.20300 -4.15300 24.60900
C  20.85100 -6.66600 26.86000
C  20.31100 -6.33900 23.53000
O  19.97000 -6.09600 22.38100
C  21.09900 -7.60900 23.92700
N  17.72500 -1.36700 24.07300
C  18.08800 -2.22400 23.08500
C  18.00500 -1.52700 21.70400
C  17.00200 -0.32400 21.99000
C  17.02300 -0.32800 23.52200
C  19.37100 -1.16800 21.10600
C  15.59400 -0.42300 21.39400
C  15.19300 0.74700 20.43100
N  16.74600 -0.20800 26.48100
C  16.07600 0.63100 25.58900
C  15.29200 1.54700 26.27100
C  15.56700 1.35600 27.63100
C  16.45700 0.22200 27.67900
C  14.38600 2.55700 25.61500
C  15.38200 1.86200 28.99300
O  14.83500 2.90400 29.40100
C  16.12500 0.87700 29.94400
C  17.11500 1.65800 30.73300
O  17.97600 2.40100 30.25700
O  17.06300 1.43900 32.12200
C  17.90200 2.18800 33.03300
H  20.05100 -4.65500 28.96900
H  19.04600 -3.93800 22.44000
H  15.83500 1.40500 23.59800
H  18.46500 -0.87100 31.31600
H  18.89600 -3.72400 30.91400
H  20.61500 -1.36400 31.14700
H  21.26300 -2.39400 30.01900
H  20.94500 -3.04300 31.65500
H  16.81200 -3.37300 31.59800
H  15.76000 -2.04100 31.23700
H  16.19100 -2.76400 33.60600
H  16.36000 -0.97600 33.41300
H  20.99300 -6.62700 27.94000
H  21.84700 -6.62400 26.42000
H  20.48700 -7.64800 26.55900
H  20.51600 -8.18700 24.64400
H  22.05800 -7.25100 24.29900
H  21.18700 -8.19500 23.01100
H  17.46800 -2.25300 21.09300
H  17.40800 0.63600 21.67100
H  19.67900 -0.14000 21.29800
H  19.18700 -1.32300 20.04300
H  20.20900 -1.74300 21.49900
H  14.83200 -0.53400 22.16500
H  15.46500 -1.38700 20.90200
H  14.28600 1.22700 20.79800
H  15.06800 0.31700 19.43700
H  15.97000 1.49100 20.25600
H  13.46600 2.02200 25.38300
H  14.91500 3.04800 24.79800
H  14.09400 3.31300 26.34500
H  15.48200 0.32600 30.63100
H  17.26600 2.90200 33.55800
H  18.69500 2.83200 32.65400
H  18.42200 1.39900 33.57500
Mg -5.91300 24.55200 26.69700
C  -4.16500 26.11500 29.38700
C  -7.05300 22.28300 29.08000
C  -7.64800 23.18800 24.29300
C  -4.14000 26.55100 24.49600
N  -5.53200 24.19200 28.97600
C  -4.93800 25.03900 29.80800
C  -5.19400 24.68800 31.24900
C  -5.78500 23.22200 31.16400
C  -6.23100 23.22200 29.64800
C  -4.69000 22.20700 31.41200
C  -6.20700 25.63100 31.94200
C  -5.93600 26.02100 33.46500
H  -5.94200 24.76400 34.43000
N  -7.16500 23.00700 26.73300
C  -7.49400 22.21900 27.78300
C  -8.40300 21.14600 27.27700
C  -8.56600 21.38800 25.91500
C  -7.76300 22.58300 25.55400
C  -8.75000 19.93500 28.10200
C  -9.45600 20.62600 24.90600
O  -9.46700 20.86200 23.70500
C  -10.42200 19.59000 25.35400
N  -5.89700 24.79500 24.66600
C  -6.73300 24.21300 23.86400
C  -6.54800 24.53800 22.39400
C  -5.37300 25.60100 22.37700
C  -5.12300 25.71100 23.93200
C  -6.25600 23.24000 21.49100
C  -5.71500 27.01700 21.77600
C  -6.76900 27.05600 20.62600
N  -4.45500 25.92700 26.84800
C  -3.87900 26.67600 25.83100
C  -2.96000 27.58500 26.44700
C  -3.01000 27.37500 27.77900
C  -3.95400 26.38200 28.00000
C  -2.12200 28.62900 25.67400
C  -2.50300 27.87500 29.12000
O  -1.70900 28.73300 29.49000
C  -3.25700 27.03500 30.16500
C  -2.32200 26.38800 31.02000
O  -1.81600 25.34000 30.80200
O  -2.12200 27.07700 32.23300
C  -1.34700 26.40100 33.32500
H  -7.49700 21.55700 29.76400
H  -8.40100 22.84300 23.58200
H  -3.61100 27.28100 23.87900
H  -4.31300 24.59700 31.88500
H  -6.48800 23.13700 31.99300
H  -4.77900 21.93800 32.46500
H  -3.71300 22.65500 31.22800
H  -4.83600 21.32400 30.79000
H  -7.15600 25.09700 31.98400
H  -6.46400 26.55500 31.42400
H  -6.67400 26.77200 33.74700
H  -5.00500 26.55800 33.64900
H  -9.82500 19.95300 28.27800
H  -8.23400 19.79800 29.05200
H  -8.44700 19.02100 27.59000
H  -10.85900 19.93900 26.28900
H  -9.82900 18.68200 25.46800
H  -11.28800 19.41500 24.71600
H  -7.53500 24.92400 22.13700
H  -4.48000 25.20000 21.89900
H  -7.05500 23.23800 20.75000
H  -6.43600 22.35500 22.10300
H  -5.26600 23.24700 21.03300
H  -4.72900 27.39200 21.50000
H  -6.05700 27.67600 22.57300
H  -7.61500 27.44900 21.19000
H  -6.97400 26.13300 20.08200
H  -6.38000 27.77200 19.90200
H  -1.17200 28.25300 25.29300
H  -1.88700 29.40700 26.40100
H  -2.66300 28.94300 24.78200
H  -3.93600 27.68900 30.71300
H  -0.75600 27.13700 33.86900
H  -0.62700 25.63600 33.03600
H  -2.07300 26.03900 34.05300

