158

Mg 1.95000 -1.47200 43.93400
C  5.48300 -1.16000 43.47600
C  1.57000 1.38900 42.02300
C  -1.25300 -2.10100 43.57100
C  2.55700 -4.60300 45.31800
N  3.37600 -0.25800 42.62000
C  4.76400 -0.21700 42.72600
C  5.25500 0.94600 41.85000
C  3.97200 1.84000 41.68900
C  2.86500 0.91200 42.11900
C  4.06900 3.11900 42.43900
C  5.80300 0.37100 40.51300
C  7.00200 1.14900 39.93400
H  6.76800 1.70700 38.53700
N  0.30700 -0.41200 43.11300
C  0.33200 0.76600 42.39800
C  -1.03500 1.35400 42.31100
C  -1.88200 0.31900 42.80300
C  -0.92600 -0.77700 43.16900
C  -1.31000 2.72200 41.73100
C  -3.35400 0.37000 42.75600
O  -4.07300 1.23000 42.21600
C  -4.08300 -0.74100 43.56200
N  0.90600 -3.23600 44.06100
C  -0.43100 -3.16700 43.98600
C  -1.00100 -4.44800 44.59200
C  0.17200 -5.10900 45.26800
C  1.31700 -4.28200 44.86700
C  -2.21400 -4.28500 45.49600
C  0.39800 -6.61300 44.89600
C  0.72500 -7.63100 46.02900
N  3.60100 -2.68600 44.44800
C  3.71400 -3.93000 44.99600
C  5.13700 -4.17800 45.37500
C  5.81900 -3.11100 44.80800
C  4.88500 -2.24300 44.23300
C  5.60000 -5.30000 46.28700
C  7.12600 -2.46100 44.71300
O  8.24400 -2.88500 45.11900
C  6.99900 -1.21300 43.79100
C  7.31200 0.04200 44.59700
O  6.93800 0.12200 45.74300
O  8.07600 0.90700 43.88200
C  8.38600 2.13600 44.56900
H  1.44300 2.37000 41.56100
H  -2.30100 -2.40800 43.55400
H  2.71100 -5.44600 45.99500
H  6.00700 1.50700 42.40400
H  3.77900 2.24500 40.69600
H  3.85100 2.92600 43.48900
H  3.59000 3.92900 41.88900
H  5.13100 3.35100 42.35700
H  5.06900 0.35000 39.70800
H  6.13400 -0.66700 40.51800
H  7.98700 0.70000 40.05800
H  7.04100 2.10000 40.46500
H  -2.39400 2.81500 41.66400
H  -0.83600 2.91400 40.76900
H  -0.95600 3.48100 42.42900
H  -5.09100 -0.40900 43.81100
H  -3.50500 -0.78400 44.48600
H  -4.09500 -1.64100 42.94800
H  -1.45700 -5.08400 43.83400
H  -0.01200 -5.10800 46.34200
H  -2.00200 -4.84600 46.40600
H  -3.16100 -4.61500 45.06900
H  -2.30900 -3.24400 45.80600
H  1.00100 -6.72200 43.99400
H  -0.59000 -7.00200 44.64900
H  -0.13600 -8.23800 46.30800
H  1.09000 -7.04000 46.86800
H  1.64500 -8.16300 45.78500
H  4.87500 -5.26200 47.10100
H  6.59200 -5.04300 46.65800
H  5.70800 -6.22000 45.71300
H  7.63400 -1.29500 42.90900
H  7.49300 2.74300 44.42100
H  9.18600 2.67900 44.06500
H  8.63400 2.05800 45.62800
Mg -5.09600 25.64900 25.91700
C  -3.87200 26.93300 28.91200
C  -6.98100 23.63800 27.73500
C  -5.49000 23.81200 23.10800
C  -2.78300 27.66700 24.20800
N  -5.28100 25.20800 28.11500
C  -4.85400 25.99500 29.14400
C  -5.39800 25.50900 30.52500
C  -6.36800 24.33500 30.14000
C  -6.18000 24.37800 28.55900
C  -6.03500 22.93700 30.73500
C  -6.15500 26.58200 31.30100
C  -5.87400 26.76900 32.78400
H  -5.43800 25.61100 33.65100
N  -6.14800 23.94400 25.48500
C  -6.94400 23.40300 26.39000
C  -7.77900 22.41500 25.72100
C  -7.19300 22.22600 24.41900
C  -6.23300 23.34300 24.27500
C  -8.99100 21.76400 26.41600
C  -7.50900 21.19700 23.31100
O  -6.93600 21.20900 22.27600
C  -8.47200 20.11600 23.75500
N  -4.23100 25.69700 23.99400
C  -4.66800 24.88100 23.00800
C  -3.94000 25.23600 21.71100
C  -3.26800 26.59400 22.02700
C  -3.50600 26.72200 23.47800
C  -2.94000 24.04900 21.26200
C  -3.92600 27.81200 21.36200
C  -3.03800 28.90400 20.76000
N  -3.63700 27.07500 26.33000
C  -2.84700 27.86900 25.55900
C  -2.02600 28.73100 26.43200
C  -2.38000 28.38500 27.74300
C  -3.37300 27.43200 27.62000
C  -0.99300 29.74300 26.01900
C  -2.19000 28.68500 29.08200
O  -1.43800 29.48800 29.65900
C  -3.09000 27.74300 29.94700
C  -2.16000 26.95200 30.86700
O  -1.27100 26.18600 30.55900
O  -2.29800 27.45900 32.15300
C  -1.39200 26.93500 33.15800
H  -7.66600 23.03500 28.33400
H  -5.75200 23.27800 22.19200
H  -2.15200 28.38300 23.67700
H  -4.58000 25.27300 31.20500
H  -7.40900 24.51300 30.40700
H  -6.96200 22.37900 30.86400
H  -5.57200 23.03000 31.71800
H  -5.34600 22.33600 30.14200
H  -7.22900 26.39700 31.26400
H  -5.86900 27.53500 30.85500
H  -6.80500 27.08000 33.25900
H  -5.25100 27.65000 32.93700
H  -9.84700 22.10100 25.83200
H  -9.15500 22.16500 27.41700
H  -8.89200 20.67900 26.41200
H  -8.51800 19.40200 22.93300
H  -9.46500 20.54500 23.88600
H  -8.03000 19.59700 24.60500
H  -4.77000 25.36400 21.01600
H  -2.20300 26.56000 21.79600
H  -2.92000 23.39600 22.13400
H  -1.94800 24.37500 20.94800
H  -3.34100 23.55700 20.37600
H  -4.49400 28.29400 22.15700
H  -4.68100 27.46800 20.65500
H  -2.98000 28.89600 19.67200
H  -1.99600 28.71900 21.02200
H  -3.31000 29.92900 21.01200
H  -0.49600 29.35900 25.12800
H  -0.21200 29.86200 26.77000
H  -1.44700 30.68500 25.71000
H  -3.75700 28.42400 30.47600
H  -1.68000 25.94700 33.51700
H  -1.16700 27.51400 34.05300
H  -0.38100 26.95400 32.75000

