158

Mg 47.21900 25.09500 29.00800
C  47.98500 27.43600 31.48900
C  46.05800 22.90900 31.47900
C  46.45900 22.87700 26.57800
C  48.64500 27.15800 26.68100
N  47.14900 25.16800 31.25200
C  47.26700 26.32900 31.99700
C  46.71200 26.18600 33.42700
C  46.25300 24.64100 33.42400
C  46.46900 24.20600 31.93100
C  47.04100 23.73100 34.46800
C  45.51500 27.23000 33.68100
C  45.47800 27.99600 35.01600
H  45.05700 27.07200 36.20800
N  46.26500 23.23600 29.01500
C  45.95500 22.45700 30.12700
C  45.43400 21.16400 29.69100
C  45.50100 21.17900 28.26400
C  46.02600 22.49800 27.85000
C  44.79000 20.16900 30.63100
C  45.02400 20.14200 27.26700
O  45.04400 20.37900 26.04100
C  44.59900 18.81300 27.72000
N  47.53600 25.02300 26.91600
C  47.08800 24.02000 26.12200
C  47.56300 24.17700 24.73000
C  47.92400 25.70200 24.68300
C  48.07900 25.99100 26.16800
C  48.58200 23.14900 24.16900
C  46.81000 26.57700 23.96900
C  47.31800 27.96200 23.68500
N  48.26700 26.77400 29.08200
C  48.80500 27.52900 28.00800
C  49.37400 28.70600 28.50600
C  49.03700 28.74500 29.88600
C  48.39700 27.53800 30.17000
C  49.93700 29.81500 27.76300
C  49.05400 29.55200 31.12400
O  49.46800 30.70300 31.26100
C  48.47200 28.63000 32.24100
C  49.52700 28.58000 33.29800
O  50.25100 27.65900 33.61400
O  49.50300 29.73700 34.04000
C  50.15800 29.53100 35.34900
H  45.66900 22.24900 32.25700
H  46.51900 22.07400 25.84100
H  49.17600 27.83500 26.00900
H  47.48800 26.27900 34.18600
H  45.18400 24.55000 33.61600
H  47.95800 23.34200 34.02700
H  46.48200 22.82600 34.70800
H  47.26400 24.27800 35.38400
H  44.61300 26.62200 33.60800
H  45.54500 27.97300 32.88400
H  44.73900 28.79200 34.92900
H  46.48700 28.37700 35.17400
H  43.71000 20.05100 30.53900
H  44.91800 20.46500 31.67200
H  45.36100 19.27900 30.36800
H  45.17400 18.32000 28.50300
H  44.64500 18.18600 26.83000
H  43.60400 19.03000 28.10800
H  46.65600 24.06400 24.13600
H  48.88500 25.84800 24.18900
H  49.00500 22.46700 24.90500
H  49.38700 23.70800 23.69000
H  48.17700 22.47600 23.41300
H  45.90100 26.66900 24.56300
H  46.49800 26.09100 23.04400
H  46.64600 28.27500 22.88500
H  48.33500 27.91800 23.29700
H  47.30000 28.65500 24.52600
H  50.77700 29.57100 27.11300
H  50.26600 30.61700 28.42400
H  49.10800 30.05600 27.09700
H  47.70800 29.25000 32.70900
H  50.12800 30.42700 35.96800
H  51.23600 29.48200 35.19500
H  49.82700 28.75700 36.04100
Mg -1.98400 35.09900 26.97700
C  -3.41200 33.09000 29.34700
C  -0.29600 36.94300 29.26300
C  -0.69900 37.00800 24.38700
C  -3.98900 33.45900 24.52600
N  -1.83200 34.97500 29.07100
C  -2.53300 34.08100 29.86100
C  -2.26600 34.43300 31.35000
C  -1.33800 35.71500 31.31400
C  -1.20300 35.91800 29.77000
C  -1.83700 37.01000 32.07400
C  -1.63800 33.20100 32.03100
C  -2.28400 32.73900 33.33600
H  -1.37500 32.37900 34.54700
N  -0.66100 36.67100 26.86600
C  0.02700 37.21600 27.88500
C  0.91300 38.20500 27.44400
C  0.78000 38.27800 26.01300
C  -0.23900 37.32600 25.69500
C  1.73600 39.02400 28.45200
C  1.39700 39.29800 25.01100
O  1.21000 39.15000 23.84000
C  2.20900 40.33700 25.52500
N  -2.48900 35.34300 24.83700
C  -1.74500 36.19000 23.94800
C  -2.04800 35.90400 22.38100
C  -3.06900 34.73200 22.55900
C  -3.19700 34.52300 24.05700
C  -2.56900 37.07600 21.55400
C  -2.65100 33.36600 21.83900
C  -2.09200 32.19900 22.69300
N  -3.36200 33.55800 26.84300
C  -4.18700 33.08900 25.86300
C  -5.01500 32.05500 26.41400
C  -4.76800 32.04800 27.76100
C  -3.77200 33.00600 27.95400
C  -5.88500 31.23100 25.63800
C  -5.16500 31.31600 28.98500
O  -6.02400 30.43700 29.15200
C  -4.27400 31.98300 30.13100
C  -5.21300 32.68400 30.99600
O  -5.79800 33.73400 30.74100
O  -5.18800 31.99200 32.23000
C  -6.06900 32.53500 33.30600
H  0.11000 37.51900 30.09700
H  -0.32800 37.54400 23.51200
H  -4.52600 32.89900 23.75700
H  -3.16900 34.75700 31.86600
H  -0.40200 35.41400 31.78600
H  -2.82400 36.89700 32.52100
H  -1.82900 37.83000 31.35600
H  -1.16300 37.14600 32.92000
H  -0.60400 33.37600 32.32900
H  -1.74200 32.27800 31.46100
H  -2.73700 31.76900 33.12700
H  -2.98900 33.46800 33.73600
H  2.77000 39.09600 28.11400
H  1.75200 38.60300 29.45800
H  1.29000 40.01600 28.38800
H  2.40000 41.10800 24.77900
H  3.09000 39.99700 26.07000
H  1.70800 40.86500 26.33600
H  -1.11100 35.53400 21.96500
H  -3.99800 34.99400 22.05300
H  -2.20900 36.98100 20.52900
H  -2.31500 38.02200 22.03200
H  -3.65700 37.02400 21.50300
H  -1.96900 33.58700 21.01800
H  -3.46200 32.95900 21.23600
H  -1.73900 32.54900 23.66300
H  -1.24400 31.67300 22.25400
H  -2.90700 31.48200 22.78400
H  -5.62400 31.35500 24.58700
H  -6.91300 31.53600 25.83200
H  -5.71400 30.19200 25.91900
H  -3.60400 31.23700 30.55800
H  -5.72100 33.50300 33.66600
H  -5.96800 31.92600 34.20500
H  -7.12000 32.57300 33.02200

