158

Mg 16.43300 -1.36000 28.53800
C  15.76400 0.93600 31.08300
C  18.39800 -3.12600 30.51900
C  17.50400 -3.02900 25.79300
C  14.94600 1.10600 26.25700
N  16.86800 -1.16200 30.55100
C  16.57000 -0.10000 31.46200
C  17.04600 -0.43600 32.86600
C  18.18000 -1.49900 32.55500
C  17.78200 -1.99700 31.12500
C  19.71500 -1.04800 32.63800
C  15.94400 -0.99900 33.81200
C  15.68800 -0.34200 35.14300
H  16.92700 0.35600 35.82800
N  17.61900 -2.99900 28.26200
C  18.28800 -3.67300 29.22400
C  18.89200 -4.90100 28.68000
C  18.72100 -4.79000 27.27800
C  17.87700 -3.56300 27.00800
C  19.80600 -5.77300 29.52500
C  19.37500 -5.64800 26.18200
O  19.26900 -5.47500 24.98600
C  20.20700 -6.81100 26.56700
N  16.15000 -1.11600 26.42000
C  16.81400 -1.84000 25.50900
C  16.54400 -1.35300 24.06900
C  15.46400 -0.26200 24.22500
C  15.48300 -0.05200 25.73700
C  17.82700 -0.84800 23.38000
C  14.13400 -0.65900 23.55200
C  13.50600 0.55900 22.79600
N  15.27900 0.53700 28.58200
C  14.80700 1.43300 27.68900
C  14.08700 2.42200 28.32900
C  14.44400 2.29300 29.66400
C  15.23900 1.11500 29.79000
C  13.18300 3.44500 27.58700
C  14.17000 2.82200 30.96000
O  13.46900 3.74800 31.31700
C  15.14200 2.05700 31.90300
C  16.14100 3.10300 32.37000
O  17.31100 3.16100 32.03200
O  15.52000 3.96500 33.32800
C  16.34100 5.04200 33.86400
H  19.00900 -3.67700 31.23700
H  17.83900 -3.59300 24.92000
H  14.53000 1.80900 25.53200
H  17.43800 0.53400 33.17100
H  18.01000 -2.30000 33.27400
H  19.97700 -0.90200 31.59000
H  20.24300 -1.82000 33.19800
H  19.79500 -0.01700 32.98300
H  16.01500 -2.07000 34.00300
H  15.09100 -0.81600 33.15900
H  15.09300 -0.96900 35.80700
H  15.02300 0.47600 34.86700
H  19.67300 -5.57800 30.59000
H  20.83000 -5.55800 29.22000
H  19.63400 -6.79600 29.19300
H  20.75000 -7.10300 25.66800
H  19.56200 -7.60400 26.94400
H  20.99400 -6.44700 27.22800
H  16.20900 -2.18600 23.45200
H  15.74100 0.68900 23.77100
H  17.84600 0.22100 23.16700
H  18.01100 -1.39300 22.45400
H  18.66400 -1.10700 24.02900
H  13.49800 -0.80500 24.42500
H  14.23700 -1.52600 22.89900
H  14.15700 1.31700 22.36000
H  12.84500 1.01600 23.53200
H  12.90600 0.21000 21.95600
H  13.36000 4.47800 27.88500
H  12.20100 3.26200 28.02400
H  13.23400 3.27100 26.51300
H  14.58200 1.72300 32.77600
H  16.46500 5.81500 33.10600
H  17.32400 4.62400 34.08400
H  16.05900 5.36200 34.86700
Mg 43.76700 5.28700 46.65400
C  41.87600 8.30300 46.46500
C  40.81100 3.62500 46.23100
C  45.51100 2.49900 46.31400
C  46.64800 7.16600 46.66600
N  41.55500 5.91400 46.45000
C  41.01200 7.19600 46.41100
C  39.51800 7.12800 46.21300
C  39.20800 5.56500 46.31500
C  40.62000 4.96000 46.40900
C  38.23000 5.20400 47.53300
C  39.06100 7.71600 44.83400
C  40.14400 7.64300 43.70400
H  39.70000 7.07800 42.30700
N  43.17700 3.26200 46.43600
C  41.97000 2.84000 46.16600
C  42.04600 1.47900 45.88200
C  43.39900 1.06700 45.93400
C  44.08500 2.25800 46.30100
C  40.88200 0.60900 45.64800
C  43.97400 -0.36900 45.64700
O  43.28200 -1.31900 45.36600
C  45.39000 -0.63300 45.70200
N  45.80200 4.84700 46.34000
C  46.31200 3.61800 46.38500
C  47.89000 3.58200 46.35400
C  48.19200 5.13200 46.51800
C  46.85400 5.77500 46.48400
C  48.51600 2.59900 47.42300
C  49.16800 5.63700 45.40700
C  50.53100 6.10800 45.87700
N  44.20200 7.33000 46.59200
C  45.43400 7.93900 46.62000
C  45.25000 9.41900 46.51600
C  43.83200 9.55800 46.56700
C  43.24300 8.28500 46.54800
C  46.24500 10.43100 46.49400
C  42.76400 10.57300 46.58700
O  42.85000 11.80900 46.72600
C  41.42500 9.77100 46.50300
C  40.59700 10.04500 47.74000
O  40.67400 9.41200 48.78200
O  39.53500 10.89400 47.42200
C  38.48100 10.89400 48.42900
H  39.85600 3.13900 46.01800
H  46.17700 1.63900 46.21900
H  47.61500 7.64500 46.83700
H  38.98200 7.62200 47.02400
H  38.78800 5.16100 45.39400
H  38.27000 5.98400 48.29200
H  38.65700 4.30500 47.97800
H  37.22600 4.92000 47.21700
H  38.87400 8.78600 44.91600
H  38.14000 7.18200 44.59900
H  41.05500 7.14200 44.03200
H  40.48700 8.67200 43.58800
H  41.13600 0.12600 44.70300
H  40.01000 1.15600 45.29100
H  40.58800 -0.10900 46.41300
H  45.68500 -1.67600 45.59700
H  45.69800 -0.40900 46.72400
H  45.92300 -0.10000 44.91500
H  48.12500 3.24000 45.34700
H  48.61800 5.34500 47.49800
H  48.96900 1.75100 46.90800
H  47.78400 2.19700 48.12300
H  49.29100 3.13800 47.96700
H  48.69700 6.54200 45.02300
H  49.23200 4.90600 44.60100
H  50.70100 7.18200 45.81300
H  51.38100 5.67200 45.35200
H  50.65300 5.73200 46.89400
H  47.02800 10.04500 45.84100
H  46.66000 10.53300 47.49700
H  45.75400 11.33300 46.12800
H  40.87600 10.16700 45.64800
H  38.68400 10.75400 49.49000
H  37.82500 10.05600 48.19300
H  37.80100 11.73000 48.26400

