158

Mg 35.79800 2.45600 29.76900
C  33.48400 3.40700 32.27100
C  38.24500 2.54300 32.18400
C  38.00900 1.73900 27.44900
C  33.26400 2.87000 27.43500
N  35.80900 2.96500 31.95500
C  34.76800 3.12700 32.80200
C  35.19100 3.13600 34.26500
C  36.71100 3.16800 34.14800
C  36.92900 2.75300 32.66600
C  37.31200 4.47300 34.59600
C  34.52700 1.92100 35.00100
C  33.81300 2.26400 36.37600
H  34.40200 3.30100 37.29600
N  37.89400 2.13800 29.84300
C  38.75600 2.21400 30.92600
C  40.07700 1.79400 30.51800
C  40.02600 1.46400 29.11000
C  38.67200 1.81800 28.71500
C  41.28300 1.80200 31.40500
C  41.19700 0.97900 28.22300
O  41.11500 0.81600 27.01900
C  42.58400 0.61000 28.76400
N  35.65800 2.43200 27.75800
C  36.69100 1.96800 26.96300
C  36.23300 1.62400 25.54200
C  34.77100 2.07300 25.48800
C  34.50700 2.46800 27.00800
C  37.12600 2.36700 24.52100
C  33.85000 1.01200 24.95500
C  32.54400 1.49500 24.22400
N  33.75700 3.05200 29.78100
C  32.87600 3.21100 28.71600
C  31.55800 3.67600 29.27300
C  31.73300 3.68900 30.69200
C  33.15200 3.41600 30.90800
C  30.34900 3.95700 28.42600
C  31.10200 3.88000 31.92300
O  29.93100 4.19500 32.14400
C  32.22200 3.70600 33.00900
C  32.30500 4.99300 33.80700
O  33.10300 5.87600 33.70700
O  31.32200 4.99200 34.80800
C  31.11900 6.01700 35.77900
H  38.98600 2.59700 32.98500
H  38.79600 1.47400 26.73900
H  32.48900 3.09100 26.69800
H  34.74500 4.03900 34.68000
H  37.14600 2.37400 34.75500
H  37.69000 4.35300 35.61100
H  36.54000 5.21000 34.37500
H  38.08200 4.73800 33.87300
H  35.30100 1.15400 35.02800
H  33.73500 1.56900 34.34100
H  33.61100 1.32900 36.89900
H  32.79500 2.48600 36.05600
H  42.22600 2.23200 31.06700
H  41.56400 0.75700 31.53700
H  41.01300 2.17800 32.39200
H  43.18000 0.14700 27.97700
H  42.56500 -0.05100 29.63100
H  43.16200 1.47500 29.08900
H  36.42000 0.58200 25.28500
H  34.70800 3.01000 24.93400
H  37.78900 1.64700 24.04200
H  37.79300 3.12500 24.93300
H  36.51400 2.71400 23.68900
H  33.56100 0.30700 25.73500
H  34.39600 0.36300 24.27000
H  32.44600 2.57700 24.31200
H  31.61100 0.94800 24.36600
H  32.74200 1.22600 23.18700
H  30.74100 4.62200 27.65700
H  29.54500 4.47600 28.94800
H  29.96500 3.11000 27.85800
H  31.95900 2.88000 33.67100
H  30.66400 5.62400 36.68800
H  30.45300 6.80400 35.42200
H  32.00100 6.49600 36.20400
Mg 48.04300 35.72100 27.70200
C  46.31800 33.89800 30.22500
C  48.12400 38.41300 29.66500
C  49.25100 37.51900 25.03800
C  47.81900 33.02300 25.65700
N  47.31000 36.02800 29.69300
C  46.78800 35.13700 30.56300
C  46.65300 35.76700 31.94400
C  46.93000 37.31600 31.71300
C  47.41900 37.29100 30.21100
C  45.81000 38.34000 31.78700
C  47.69200 35.11900 32.94800
C  48.74500 35.96200 33.73600
H  48.30700 36.96100 34.86300
N  48.86000 37.69700 27.44300
C  48.75300 38.61700 28.38300
C  49.36400 39.86600 27.89900
C  49.67400 39.65700 26.50900
C  49.29400 38.22000 26.30600
C  49.48100 41.12700 28.73100
C  50.19800 40.65200 25.44400
O  50.44900 40.22900 24.29800
C  50.54900 42.13300 25.82500
N  48.45600 35.35300 25.60700
C  48.89600 36.24200 24.72800
C  48.91800 35.57800 23.28600
C  48.71900 34.07400 23.52900
C  48.33100 34.13400 25.01500
C  47.95600 36.35600 22.36100
C  50.00400 33.14900 23.29900
C  51.17700 33.22800 24.35100
N  47.20500 33.88800 27.83700
C  47.22500 32.87500 26.93500
C  46.48900 31.77400 27.43500
C  46.23700 32.12700 28.77800
C  46.55800 33.41700 28.89500
C  46.22400 30.46400 26.81100
C  45.65900 31.67000 29.99500
O  45.31600 30.51700 30.25600
C  45.46300 32.92000 30.90200
C  45.76900 32.53800 32.28800
O  46.82000 32.01600 32.63900
O  44.63000 32.76300 33.03800
C  44.57700 32.19200 34.34500
H  48.19500 39.17700 30.44200
H  49.51500 38.12100 24.16600
H  47.57100 32.15900 25.03600
H  45.59400 35.73200 32.19800
H  47.75400 37.68200 32.32600
H  46.11800 39.10700 32.49800
H  44.92900 37.83500 32.18500
H  45.49600 38.74600 30.82500
H  48.35500 34.42800 32.42600
H  47.05500 34.55700 33.63000
H  49.38400 36.55700 33.08300
H  49.46300 35.26700 34.17200
H  48.53000 41.61800 28.52400
H  50.23700 41.87900 28.50700
H  49.72100 40.94800 29.77900
H  49.92100 42.47700 26.64700
H  50.47700 42.63800 24.86100
H  51.59700 42.10700 26.12400
H  49.91500 35.81600 22.91500
H  47.85900 33.58600 23.07000
H  47.34400 37.14200 22.80300
H  47.35000 35.58400 21.88700
H  48.54200 36.72400 21.51900
H  50.55300 33.47200 22.41400
H  49.79300 32.13000 22.97500
H  51.09500 34.22000 24.79500
H  52.13900 33.04000 23.87500
H  50.98400 32.45800 25.09900
H  46.35200 29.65300 27.52800
H  46.88200 30.28900 25.96000
H  45.23700 30.63400 26.38100
H  44.42700 33.25300 30.84700
H  44.10800 32.94800 34.97500
H  45.55400 31.92500 34.74700
H  43.91400 31.32700 34.33300

