158

Mg 6.19100 53.92600 41.15900
C  4.71700 50.90400 41.18400
C  8.81700 52.59800 39.55900
C  7.39900 57.18100 40.85300
C  3.23100 55.38900 42.64700
N  6.65600 51.99700 40.30700
C  5.94600 50.86900 40.53800
C  6.66000 49.64700 39.96300
C  8.11700 50.18800 39.84800
C  7.84000 51.67700 39.79100
C  9.07300 49.86300 41.03400
C  6.24200 49.04400 38.61700
C  5.51600 49.92500 37.58600
H  6.12900 50.08800 36.15200
N  7.88300 54.72900 40.39300
C  8.89200 54.04600 39.78000
C  9.98100 54.88500 39.37100
C  9.66800 56.18700 39.78800
C  8.23100 56.09800 40.39600
C  11.22100 54.33700 38.69300
C  10.62100 57.36000 39.66200
O  11.69400 57.15800 39.14600
C  10.32100 58.65200 40.41300
N  5.40500 55.97100 41.60700
C  6.11300 57.19300 41.43800
C  5.42000 58.49900 41.96600
C  4.05500 57.78700 42.44100
C  4.25400 56.28000 42.31000
C  6.10900 59.32400 43.03100
C  2.81900 58.37500 41.81400
C  2.27600 57.70500 40.54900
N  4.31400 53.37100 41.80300
C  3.28400 54.03000 42.39900
C  2.28700 53.07900 42.67300
C  2.81600 51.84100 42.29100
C  4.03600 52.09700 41.68800
C  0.85300 53.35200 43.21700
C  2.50900 50.43200 42.30600
O  1.59300 49.83500 42.84200
C  3.80100 49.71800 41.61200
C  3.30200 48.87400 40.51800
O  2.69100 49.20600 39.53700
O  3.79700 47.57200 40.69600
C  3.45500 46.59200 39.71900
H  9.68800 52.07500 39.15800
H  7.76100 58.20600 40.75400
H  2.32500 55.66400 43.19200
H  6.56400 48.94300 40.78900
H  8.67900 50.03600 38.92700
H  9.42200 50.68400 41.66000
H  9.92800 49.27100 40.70800
H  8.62400 49.10700 41.67900
H  5.68700 48.11100 38.71600
H  7.17200 48.71400 38.15300
H  5.36400 50.95900 37.89400
H  4.52300 49.47700 37.56000
H  11.16900 53.31100 38.32800
H  12.02600 54.32200 39.42900
H  11.54400 54.99400 37.88600
H  11.12300 59.37700 40.27400
H  10.07400 58.36200 41.43400
H  9.40800 58.94300 39.89400
H  5.24500 59.08500 41.06400
H  3.86800 57.84100 43.51400
H  6.34500 60.30100 42.60900
H  7.00100 58.92200 43.51100
H  5.44200 59.44000 43.88500
H  2.93800 59.45400 41.71600
H  2.11000 58.14500 42.60900
H  1.27300 57.30200 40.69400
H  2.93800 56.89800 40.23500
H  2.09200 58.51300 39.84100
H  0.45000 54.33700 42.98400
H  0.95600 53.27000 44.29900
H  0.23500 52.54200 42.83000
H  4.22000 48.98400 42.30100
H  2.37800 46.47000 39.83700
H  3.94500 45.63400 39.89300
H  3.66000 46.88100 38.68800
Mg -5.29800 24.61500 26.26000
C  -3.71000 26.23200 29.00300
C  -7.35300 22.92400 28.36100
C  -6.52100 23.12600 23.55500
C  -3.17400 26.54700 24.17500
N  -5.53700 24.59800 28.34700
C  -4.80000 25.31800 29.30300
C  -5.26300 24.88300 30.67400
C  -6.23900 23.73300 30.48500
C  -6.40000 23.75500 28.97300
C  -5.90000 22.39000 31.15800
C  -5.89400 26.08700 31.44500
C  -5.66300 26.19800 32.98000
H  -5.05100 25.05900 33.70000
N  -6.68600 23.11300 26.06300
C  -7.53600 22.60700 27.03200
C  -8.54300 21.75700 26.36500
C  -8.24600 21.70900 24.99600
C  -7.08400 22.62900 24.78800
C  -9.62100 21.01900 27.18100
C  -8.87000 20.85200 23.83200
O  -8.59300 20.91300 22.65200
C  -9.77200 19.79200 24.26000
N  -4.72600 24.60800 24.17600
C  -5.46100 24.07300 23.23400
C  -5.10000 24.44800 21.82500
C  -4.16500 25.65900 22.09400
C  -3.93200 25.58600 23.56700
C  -4.57200 23.23400 21.01700
C  -4.81600 26.98300 21.61200
C  -4.15700 27.63300 20.48400
N  -3.82000 26.20600 26.46300
C  -3.05000 26.87300 25.53100
C  -2.22200 27.85500 26.17700
C  -2.43800 27.63300 27.56700
C  -3.36100 26.55700 27.64600
C  -1.29600 28.91600 25.52300
C  -2.17000 28.08300 28.92100
O  -1.62000 29.10600 29.34600
C  -2.85400 27.12900 29.85700
C  -1.73900 26.48400 30.68400
O  -0.81000 25.79500 30.25300
O  -1.82600 26.79300 32.00800
C  -0.92100 26.25500 32.95900
H  -8.10400 22.52800 29.04800
H  -7.06700 22.86300 22.64600
H  -2.70600 27.29300 23.53000
H  -4.38700 24.57400 31.24400
H  -7.24000 24.04900 30.78100
H  -5.70800 21.59000 30.44400
H  -6.69400 22.12600 31.85700
H  -4.94300 22.40200 31.67800
H  -6.95400 26.09200 31.19200
H  -5.53000 27.00900 30.99200
H  -6.59700 26.54000 33.42800
H  -4.95500 27.01500 33.11300
H  -9.35100 19.98700 27.40500
H  -10.57800 21.23300 26.70500
H  -9.79400 21.40700 28.18500
H  -9.79400 19.04300 23.46900
H  -10.73900 20.16500 24.60000
H  -9.33100 19.27300 25.11100
H  -6.04300 24.77500 21.38700
H  -3.21700 25.44700 21.60100
H  -5.16300 23.16400 20.10400
H  -4.58400 22.34800 21.65100
H  -3.53400 23.44700 20.76100
H  -4.84000 27.65000 22.47400
H  -5.82300 26.87100 21.20800
H  -4.85000 27.52400 19.65000
H  -3.21200 27.17400 20.19300
H  -3.85900 28.67100 20.63000
H  -1.77500 29.84200 25.84000
H  -1.06800 28.85600 24.45900
H  -0.38300 29.01100 26.11200
H  -3.42100 27.77700 30.52500
H  0.07200 26.07700 32.54400
H  -1.24300 25.34800 33.47100
H  -0.85700 26.88500 33.84600

