158

Mg 17.02600 -1.60400 28.49600
C  15.93000 0.36400 31.20400
C  19.06300 -3.20400 30.67000
C  17.87100 -3.53200 25.89900
C  14.87900 0.28800 26.43100
N  17.54900 -1.40000 30.70000
C  16.95200 -0.53900 31.59400
C  17.59800 -0.78300 32.97200
C  18.78600 -1.75500 32.70200
C  18.47000 -2.09700 31.23500
C  20.20900 -1.17200 32.81900
C  16.41100 -1.22000 34.00400
C  16.44700 -0.50200 35.36500
H  17.72100 0.12900 35.89300
N  18.21300 -3.17300 28.29500
C  19.00900 -3.74400 29.34900
C  19.59200 -4.93100 28.81800
C  19.21000 -5.06300 27.42100
C  18.38800 -3.87200 27.12500
C  20.45800 -5.81400 29.65300
C  19.61600 -6.19200 26.43300
O  19.27700 -6.11800 25.25200
C  20.33700 -7.42200 26.92800
N  16.47500 -1.63500 26.38400
C  17.03300 -2.40600 25.51400
C  16.53200 -2.13000 24.08900
C  15.45900 -1.02300 24.34000
C  15.68700 -0.69900 25.78400
C  17.74800 -1.83400 23.08600
C  13.99400 -1.45300 24.14500
C  13.17100 -0.51900 23.28000
N  15.61900 -0.09900 28.71500
C  14.78100 0.52100 27.77500
C  13.95400 1.51000 28.40300
C  14.41900 1.59100 29.69000
C  15.42400 0.54300 29.87600
C  13.00500 2.41100 27.71300
C  14.19400 2.26900 31.03800
O  13.40800 3.21400 31.34800
C  15.17900 1.45500 32.01200
C  16.04700 2.45400 32.70200
O  16.58900 3.33400 32.10600
O  15.85000 2.33600 34.11200
C  16.34700 3.54800 34.77700
H  19.76500 -3.76600 31.28900
H  18.09600 -4.21700 25.08000
H  14.10300 0.78600 25.84600
H  18.07300 0.14900 33.27900
H  18.65700 -2.59600 33.38300
H  20.80600 -1.89900 33.37100
H  20.22700 -0.26700 33.42600
H  20.68700 -0.89800 31.87800
H  16.53200 -2.26400 34.29300
H  15.39200 -0.97600 33.70300
H  16.12700 -1.20100 36.13800
H  15.61900 0.20400 35.41600
H  20.42400 -6.88400 29.44400
H  20.30400 -5.69100 30.72500
H  21.47700 -5.45900 29.49900
H  19.73300 -8.03400 27.59800
H  21.30500 -7.16900 27.36100
H  20.59000 -7.93900 26.00300
H  16.10800 -3.02200 23.62700
H  15.73200 -0.22600 23.64800
H  17.60500 -0.89800 22.54500
H  18.00200 -2.63700 22.39400
H  18.62200 -1.53000 23.66100
H  13.51200 -1.47300 25.12300
H  13.85300 -2.47900 23.80700
H  12.55600 0.02500 23.99700
H  12.41000 -1.06800 22.72500
H  13.62800 0.11300 22.51900
H  12.40800 1.90600 26.95400
H  13.64700 3.11100 27.17800
H  12.29400 2.95700 28.33300
H  14.48800 0.93700 32.67800
H  17.42200 3.69300 34.66700
H  16.08600 3.53300 35.83500
H  15.87700 4.44400 34.37100
Mg 42.23600 41.63000 27.14000
C  41.66700 44.13000 29.42400
C  43.28000 39.49300 29.53500
C  43.33800 39.61200 24.66100
C  41.56800 44.09800 24.53400
N  42.52700 41.85500 29.27300
C  42.08800 42.91700 30.01600
C  42.02600 42.59400 31.50500
C  42.80300 41.18200 31.47700
C  42.88900 40.79000 30.01400
C  44.15600 41.16900 32.21400
C  40.59500 42.60600 32.06100
C  40.35300 42.99000 33.54400
H  39.93200 41.89300 34.49900
N  43.09600 39.76100 27.10400
C  43.44300 39.03500 28.24500
C  43.99300 37.79800 27.87200
C  43.97000 37.70100 26.39600
C  43.53100 39.07300 25.99100
C  44.37300 36.80100 28.87600
C  44.35300 36.59800 25.43400
O  44.28200 36.76200 24.23500
C  44.75200 35.22000 26.02500
N  42.52900 41.87700 24.89000
C  42.82200 40.82600 24.15600
C  42.67200 41.11400 22.63000
C  41.73900 42.38800 22.65400
C  41.98400 42.80500 24.14500
C  43.90600 41.24500 21.70400
C  40.28400 42.10700 22.25000
C  39.34100 41.58700 23.22900
N  41.69300 43.71600 26.98200
C  41.48800 44.55200 25.87800
C  41.07900 45.83800 26.35200
C  41.05500 45.69500 27.72800
C  41.50600 44.38300 28.04700
C  40.59900 47.04000 25.55700
C  40.76700 46.34800 29.03500
O  40.37400 47.47800 29.24800
C  41.19000 45.35200 30.14300
C  42.17000 46.04700 31.07700
O  43.36200 46.25400 30.87500
O  41.61000 46.33900 32.31400
C  42.61300 46.68500 33.30700
H  43.47100 38.88500 30.42200
H  43.53100 38.89300 23.86200
H  41.21300 44.76900 23.74900
H  42.58200 43.38900 32.00200
H  42.16200 40.42200 31.92400
H  44.18400 40.30400 32.87800
H  44.29900 42.13000 32.70800
H  45.05900 41.06600 31.61100
H  40.22400 41.58400 31.97900
H  39.85700 43.04700 31.39100
H  39.57400 43.74500 33.43900
H  41.22800 43.47200 33.97900
H  45.29800 36.31900 28.56200
H  43.66400 35.97600 28.80700
H  44.47600 37.16300 29.89900
H  44.02400 34.76400 26.69700
H  45.73200 35.30600 26.49400
H  44.90900 34.63100 25.12200
H  42.17300 40.22200 22.25100
H  42.21400 43.18000 22.07500
H  43.90400 40.55300 20.86100
H  44.81100 41.14500 22.30300
H  43.94900 42.25200 21.29000
H  40.19000 41.55500 21.31400
H  39.94300 43.03000 21.78200
H  38.27900 41.64100 22.98800
H  39.29900 42.11900 24.17900
H  39.44200 40.51900 23.42600
H  40.35600 47.92000 26.15200
H  39.67700 46.75400 25.05100
H  41.24400 47.43100 24.77100
H  40.34100 45.15200 30.79700
H  43.35200 45.89100 33.41200
H  42.12100 46.70900 34.27900
H  43.12700 47.62500 33.10600

