158

Mg 35.45100 2.17500 29.17800
C  33.56500 3.40000 31.96400
C  38.10100 1.83100 31.28400
C  37.26700 1.20700 26.61900
C  32.85400 3.22000 27.09000
N  35.76800 2.56600 31.39200
C  34.87300 3.06500 32.30100
C  35.51100 3.03100 33.69200
C  37.05300 2.99800 33.27300
C  36.99900 2.46700 31.88200
C  37.62000 4.40400 33.34900
C  35.10600 1.79600 34.61800
C  34.66000 2.09500 36.07400
H  35.22400 3.34500 36.69900
N  37.37100 1.38300 28.96800
C  38.25900 1.34000 30.01300
C  39.52100 0.73100 29.48200
C  39.35100 0.58300 28.07900
C  37.96000 1.04500 27.78500
C  40.74700 0.42000 30.36600
C  40.28400 -0.07200 27.13000
O  39.92900 -0.31800 25.96800
C  41.62600 -0.63900 27.47000
N  35.08400 2.22800 27.14000
C  35.97600 1.66500 26.26000
C  35.54700 1.76000 24.81100
C  34.02200 2.21500 24.99000
C  33.93300 2.48800 26.51000
C  36.44300 2.51600 23.77200
C  32.90700 1.36500 24.43300
C  32.69300 -0.12700 24.88500
N  33.64500 3.05900 29.42900
C  32.69300 3.43900 28.44700
C  31.51500 3.94200 29.09400
C  31.74100 3.95000 30.45600
C  33.09000 3.44300 30.60700
C  30.20700 4.36700 28.58400
C  31.26200 4.17600 31.79600
O  30.18100 4.57800 32.19000
C  32.45800 3.92800 32.85600
C  32.78900 5.23700 33.56200
O  33.64000 5.98600 33.17900
O  31.86900 5.44000 34.59800
C  31.98200 6.74100 35.21200
H  38.91000 1.85100 32.01800
H  37.86800 0.87800 25.76900
H  32.00800 3.44200 26.43700
H  35.14200 3.88800 34.25500
H  37.57600 2.42200 34.03700
H  38.15000 4.65000 32.42900
H  38.34800 4.44400 34.15900
H  36.86000 5.14700 33.59000
H  35.86800 1.02200 34.70900
H  34.19000 1.38400 34.19700
H  35.14700 1.27200 36.59600
H  33.57300 2.10100 36.15500
H  40.81100 0.84200 31.36900
H  41.64300 0.75100 29.84100
H  40.92100 -0.65200 30.45300
H  41.61700 -1.45000 28.19800
H  42.11600 0.26800 27.82500
H  42.13000 -1.01300 26.57900
H  35.44300 0.75700 24.39500
H  33.90500 3.25100 24.67100
H  37.40300 2.82200 24.18800
H  35.95400 3.43700 23.45700
H  36.63200 1.91000 22.88600
H  32.87000 1.44300 23.34600
H  31.94500 1.76900 24.74600
H  32.46900 -0.70300 23.98700
H  31.82400 -0.18800 25.54000
H  33.64500 -0.46200 25.29600
H  29.97800 5.43000 28.51100
H  29.40100 3.83400 29.08800
H  30.13600 4.03500 27.54800
H  32.08500 3.12600 33.49400
H  31.76800 7.39200 34.36400
H  32.97200 6.85200 35.65200
H  31.17900 6.88700 35.93500
Mg 55.10800 24.96600 45.07200
C  52.43900 27.13900 43.99300
C  53.40300 22.34400 43.85100
C  58.01900 23.32600 45.13700
C  56.66400 27.89000 46.44300
N  53.29100 24.84200 43.84800
C  52.37300 25.84300 43.51800
C  51.08600 25.29200 42.84600
C  51.33100 23.72200 43.26100
C  52.79100 23.62300 43.70200
C  50.31300 23.22300 44.30300
C  51.07300 25.57100 41.25200
C  49.73800 25.12200 40.64200
H  49.68400 24.23400 39.37300
N  55.64400 23.04000 44.59200
C  54.77800 22.10100 44.09900
C  55.54500 20.85600 43.92700
C  56.87600 21.14200 44.18300
C  56.92300 22.54200 44.61600
C  54.89700 19.58200 43.56300
C  58.04700 20.23700 44.14500
O  57.86700 19.07500 43.82100
C  59.45500 20.72800 44.42300
N  57.11000 25.59300 45.53500
C  58.06700 24.63900 45.66000
C  59.28600 25.25000 46.35600
C  58.83000 26.72000 46.81800
C  57.42000 26.70200 46.30300
C  60.03400 24.31100 47.38300
C  59.69000 27.91300 46.27000
C  61.14800 27.65900 45.93200
N  54.74800 27.12500 45.20900
C  55.39800 28.12100 45.87800
C  54.57900 29.30600 45.82600
C  53.42900 29.04600 45.06700
C  53.56400 27.69600 44.74600
C  54.96800 30.55300 46.51200
C  52.19200 29.51700 44.61200
O  51.78100 30.66900 44.73400
C  51.47000 28.32000 43.82200
C  51.34600 28.89500 42.43200
O  52.22700 29.44700 41.75000
O  50.08300 28.64400 41.93000
C  49.76000 29.05000 40.53600
H  52.81900 21.50400 43.46900
H  59.00100 22.86900 45.27500
H  57.28200 28.64300 46.93900
H  50.24800 25.71000 43.40400
H  51.19900 23.12000 42.36200
H  49.37900 23.78200 44.36800
H  50.85200 23.29700 45.24800
H  49.97300 22.19400 44.18400
H  51.81000 24.93100 40.76800
H  51.33200 26.59600 40.98500
H  49.24200 26.07200 40.44400
H  49.27500 24.59400 41.47600
H  55.19900 19.35500 42.54100
H  53.84800 19.74000 43.31100
H  55.09700 18.78500 44.28000
H  59.65900 21.63000 43.84600
H  60.12900 20.06700 43.87800
H  59.68600 20.80000 45.48500
H  59.92600 25.51300 45.51300
H  58.69000 26.68200 47.89800
H  59.58700 23.32200 47.48700
H  60.03600 24.74200 48.38400
H  61.07800 24.14500 47.11400
H  59.83400 28.67400 47.03700
H  59.18300 28.29600 45.38400
H  61.46800 26.65400 46.20900
H  61.79900 28.40900 46.37900
H  61.21200 27.80300 44.85400
H  55.38600 31.13300 45.68900
H  55.74000 30.50000 47.27900
H  54.14100 31.13300 46.92100
H  50.55100 28.15500 44.38300
H  49.03000 28.35400 40.12100
H  50.63200 28.95700 39.88900
H  49.41700 30.08300 40.47800

