158

Mg 35.07400 2.44700 29.16600
C  32.69000 3.44600 31.58200
C  37.56600 2.71900 31.61300
C  37.35800 1.91400 26.77000
C  32.47600 2.36300 26.70100
N  35.08400 2.99500 31.25300
C  34.04200 3.26800 32.01200
C  34.42700 3.29500 33.53100
C  35.99500 3.49800 33.49200
C  36.26300 3.09200 32.01500
C  36.47700 4.92800 33.81600
C  33.96400 2.02600 34.34200
C  34.20600 1.85100 35.84400
H  34.70500 3.03300 36.72100
N  37.20900 2.24500 29.21300
C  37.98000 2.38000 30.32700
C  39.35300 2.21000 29.89200
C  39.31500 1.90800 28.50800
C  37.93400 1.97800 28.10500
C  40.59800 2.48300 30.72800
C  40.45300 1.46500 27.48500
O  40.31800 1.38000 26.25900
C  41.81900 1.24900 27.94400
N  34.95900 2.39800 27.01100
C  36.08800 2.17100 26.23500
C  35.76100 2.02700 24.73500
C  34.18500 2.11900 24.70100
C  33.83100 2.27700 26.25800
C  36.56500 3.00700 23.74700
C  33.63900 0.76300 24.06500
C  33.21400 -0.34000 25.08300
N  32.95800 2.83700 29.03800
C  32.06200 2.78100 27.99300
C  30.78800 3.18900 28.49100
C  30.96000 3.42400 29.88000
C  32.29000 3.21400 30.20600
C  29.66600 3.40300 27.61200
C  30.27700 3.83900 31.09300
O  29.14300 4.22400 31.28200
C  31.36600 3.71600 32.24200
C  31.43100 4.97000 33.02900
O  31.74600 6.07300 32.54500
O  31.20900 4.78600 34.36600
C  31.52100 5.94700 35.22000
H  38.37500 2.84000 32.33600
H  38.04700 1.75500 25.93900
H  31.75800 2.23000 25.88900
H  33.92300 4.13900 34.00300
H  36.63200 2.86400 34.10800
H  37.38300 5.22600 33.28900
H  36.81200 4.85200 34.85000
H  35.63100 5.61600 33.82200
H  34.39900 1.15500 33.85200
H  32.89800 1.82100 34.24800
H  34.87800 0.99500 35.90700
H  33.34200 1.52300 36.42300
H  40.41800 3.36600 31.34000
H  41.38200 2.71400 30.00700
H  40.80500 1.62500 31.36700
H  42.17400 2.27100 27.81100
H  42.34500 0.50500 27.34700
H  41.87400 0.89700 28.97400
H  36.12200 1.00700 24.60500
H  33.82900 2.98000 24.13600
H  37.24300 2.32500 23.23500
H  37.15900 3.72500 24.31100
H  35.93900 3.58000 23.06200
H  34.26500 0.24900 23.33600
H  32.79900 1.13100 23.47600
H  33.86500 -0.39700 25.95600
H  33.45900 -1.33300 24.70500
H  32.16600 -0.45700 25.35700
H  28.82800 2.70700 27.56200
H  29.97000 3.73800 26.62000
H  29.29300 4.33200 28.04400
H  31.15100 2.89900 32.93000
H  30.67900 5.96300 35.91300
H  31.58700 6.96000 34.82300
H  32.38400 5.70100 35.83800
Mg 47.94900 15.38700 28.51000
C  45.71500 14.99000 31.01400
C  50.05300 17.13200 30.56800
C  49.88800 15.94700 25.76600
C  45.44000 14.09600 26.26100
N  47.92800 15.97300 30.47000
C  46.96400 15.54600 31.40400
C  47.28700 16.16500 32.78500
C  48.59000 17.00000 32.58300
C  48.87000 16.68900 31.14400
C  48.48400 18.54100 32.96800
C  47.27900 15.03900 33.90400
C  46.46900 15.42200 35.21800
H  46.50500 16.89800 35.68100
N  49.82400 16.30000 28.27800
C  50.59000 16.92100 29.24900
C  51.83800 17.34600 28.67200
C  51.75900 17.06500 27.26100
C  50.41800 16.43600 27.03400
C  52.98400 17.92500 29.49200
C  52.75400 17.17400 26.05400
O  52.54000 16.78300 24.94300
C  54.03400 17.88900 26.41300
N  47.67700 15.03200 26.30800
C  48.67700 15.38400 25.39800
C  48.32700 15.09000 23.92600
C  46.97100 14.40400 24.11000
C  46.62500 14.51500 25.62800
C  48.29300 16.32600 22.94200
C  46.77900 12.90200 23.76100
C  47.21500 11.82800 24.76800
N  45.97200 14.63300 28.58600
C  45.05600 14.17700 27.65500
C  43.84600 13.75700 28.30800
C  43.98800 14.05000 29.63800
C  45.28500 14.63200 29.76400
C  42.66500 13.21400 27.60100
C  43.37800 14.22200 30.94900
O  42.26600 13.90400 31.27500
C  44.43800 14.81600 31.86400
C  43.91400 16.08500 32.58300
O  43.87500 17.19400 32.08000
O  43.28800 15.62700 33.76900
C  42.31500 16.57700 34.36900
H  50.80400 17.50300 31.26900
H  50.44600 16.15000 24.84900
H  44.67500 13.66100 25.61400
H  46.48600 16.82900 33.11200
H  49.51400 16.50800 32.88800
H  47.44800 18.87600 32.93200
H  49.10600 18.96700 32.18100
H  48.90100 18.73800 33.95600
H  48.30300 14.91600 34.25500
H  46.92500 14.07700 33.53400
H  46.82600 14.80000 36.03900
H  45.42900 15.17800 35.00500
H  53.80900 17.22300 29.36900
H  52.83500 17.94400 30.57100
H  53.36000 18.89000 29.15000
H  54.55000 17.21900 27.10100
H  53.80400 18.83300 26.90600
H  54.73500 18.00800 25.58700
H  49.10600 14.42200 23.56000
H  46.27800 15.04100 23.56000
H  47.26500 16.53700 22.64700
H  48.88600 16.22000 22.03400
H  48.60700 17.16700 23.56000
H  47.31100 12.79700 22.81500
H  45.74100 12.69200 23.50300
H  47.90400 11.12000 24.30800
H  46.41600 11.21600 25.18500
H  47.84300 12.21800 25.56900
H  42.74300 13.45500 26.54100
H  41.78100 13.73900 27.96100
H  42.61300 12.14700 27.81600
H  44.62100 14.17000 32.72300
H  41.36100 16.60400 33.84400
H  42.67500 17.60200 34.46300
H  41.92800 16.15900 35.29800

