158

Mg 24.12900 -6.35100 46.16600
C  26.66300 -4.29900 44.51600
C  21.99200 -5.14800 43.85400
C  22.47300 -8.97700 46.59200
C  26.90200 -7.70300 48.01600
N  24.36900 -4.86900 44.33500
C  25.44600 -4.18300 43.90800
C  25.04200 -3.13000 42.96000
C  23.46900 -3.27600 42.79300
C  23.22400 -4.42600 43.79100
C  22.64400 -1.98100 43.12600
C  25.85100 -3.14600 41.58600
C  26.11600 -1.77500 41.00000
H  25.53700 -1.56300 39.68200
N  22.32100 -6.88800 45.47100
C  21.60100 -6.28200 44.53100
C  20.28700 -6.87500 44.37200
C  20.39800 -8.08300 45.24000
C  21.76500 -8.03600 45.81000
C  19.19400 -6.30500 43.45100
C  19.23500 -9.08800 45.37400
O  18.21300 -8.88500 44.76500
C  19.34900 -10.18600 46.41000
N  24.63700 -8.04900 47.20600
C  23.71700 -9.00500 47.20900
C  24.29000 -10.27400 48.06000
C  25.68500 -9.83600 48.60400
C  25.73300 -8.46400 47.98000
C  23.26600 -10.89900 49.13200
C  26.86200 -10.80600 48.22000
C  27.71700 -11.21900 49.39900
N  26.26500 -5.92500 46.44800
C  27.21600 -6.57300 47.25400
C  28.54500 -5.96400 47.15000
C  28.33900 -5.09800 46.07400
C  26.94800 -5.05900 45.70100
C  29.86100 -6.26300 47.95500
C  28.98600 -4.14600 45.25300
O  30.16800 -3.91800 45.21200
C  27.96600 -3.54600 44.29100
C  27.76100 -2.12100 44.57000
O  27.19400 -1.74400 45.55700
O  28.10300 -1.30900 43.53800
C  27.74800 0.06400 43.54500
H  21.28200 -4.72200 43.14300
H  21.98500 -9.95200 46.64500
H  27.71700 -8.20500 48.54200
H  25.30500 -2.19100 43.44600
H  23.25700 -3.78100 41.85000
H  22.40700 -1.47800 42.18800
H  23.21300 -1.32500 43.78600
H  21.74400 -2.39900 43.57600
H  25.37000 -3.78400 40.84500
H  26.84800 -3.58500 41.63800
H  27.19800 -1.65900 40.94300
H  25.68700 -0.93700 41.55000
H  18.43400 -7.05200 43.22500
H  19.71600 -6.09600 42.51700
H  18.70900 -5.39900 43.81400
H  18.38700 -10.45800 46.84600
H  19.93800 -9.78800 47.23700
H  19.87200 -10.98000 45.87800
H  24.53900 -10.91600 47.21600
H  25.65700 -9.77800 49.69200
H  23.32000 -11.98100 49.00800
H  22.29600 -10.40900 49.03700
H  23.65700 -10.70300 50.13000
H  27.60400 -10.30500 47.59800
H  26.38400 -11.70800 47.83600
H  28.75500 -11.06800 49.10200
H  27.56200 -12.25900 49.68500
H  27.45200 -10.63200 50.27700
H  30.35600 -7.21400 47.75500
H  29.56200 -6.32700 49.00100
H  30.37800 -5.30900 47.85400
H  28.36800 -3.56600 43.27800
H  27.24100 0.37600 44.45800
H  27.11500 0.19000 42.66600
H  28.64600 0.67600 43.45600
Mg 26.30300 49.97300 25.54000
C  24.48800 51.30300 28.25800
C  28.70900 48.78500 27.74700
C  27.93900 48.68200 22.93300
C  24.04800 51.63700 23.38100
N  26.56400 50.02900 27.78000
C  25.65600 50.61800 28.63700
C  26.19500 50.44400 30.01300
C  27.67000 49.95800 29.87600
C  27.66800 49.55500 28.40300
C  28.67900 51.10600 30.09500
C  25.26200 49.46800 30.83200
C  24.63400 50.14000 32.08900
H  25.52900 50.44800 33.35200
N  27.98500 48.78500 25.36700
C  28.76600 48.40900 26.34500
C  29.93500 47.76500 25.69700
C  29.60900 47.51300 24.38000
C  28.41900 48.32300 24.16000
C  31.27800 47.36000 26.40600
C  30.41400 46.76100 23.30000
O  30.04300 46.51200 22.18200
C  31.79800 46.13100 23.62800
N  26.05400 50.25200 23.42800
C  26.87000 49.56500 22.53900
C  26.52600 49.88600 21.09300
C  25.22700 50.77700 21.25500
C  25.08100 50.92700 22.79300
C  27.63500 50.50300 20.27600
C  23.90900 50.18400 20.61300
C  23.24800 48.92200 21.17800
N  24.55200 51.20100 25.74800
C  23.80100 51.83500 24.78300
C  22.67000 52.47600 25.45600
C  22.91800 52.36700 26.81400
C  24.06400 51.56200 26.96700
C  21.56800 53.19100 24.75300
C  22.44200 52.78300 28.11100
O  21.49600 53.45300 28.44700
C  23.48800 52.14900 29.06000
C  24.07400 53.27500 29.90900
O  25.07300 53.89100 29.67200
O  23.31600 53.53700 31.02700
C  23.80700 54.54300 32.03000
H  29.52000 48.34700 28.33300
H  28.44900 48.29600 22.04800
H  23.37400 52.11300 22.66600
H  26.21100 51.38400 30.56500
H  27.92800 49.12900 30.53400
H  29.33500 50.78200 30.90300
H  28.22100 52.02800 30.45400
H  29.23200 51.29400 29.17500
H  25.91000 48.68000 31.21500
H  24.54000 48.87300 30.27300
H  23.79500 49.53700 32.43700
H  24.12800 51.03400 31.72300
H  31.35700 47.93900 27.32700
H  32.17100 47.48900 25.79500
H  31.44700 46.31600 26.67000
H  31.99100 45.47200 22.78200
H  31.73900 45.49600 24.51200
H  32.65700 46.79800 23.69800
H  25.98000 49.05500 20.64800
H  25.45800 51.78800 20.92000
H  28.60300 50.43100 20.77200
H  27.34900 51.52600 20.03300
H  27.68700 50.08200 19.27200
H  24.22900 50.03800 19.58200
H  23.25300 51.05200 20.55300
H  23.91500 48.35400 21.82600
H  22.99300 48.28700 20.33000
H  22.29500 49.15300 21.65300
H  21.17800 52.61200 23.91600
H  21.80400 54.16800 24.33100
H  20.76300 53.32500 25.47500
H  22.89600 51.57300 29.77200
H  23.02500 54.83300 32.73200
H  24.12600 55.44300 31.50300
H  24.53600 54.08200 32.69600

