158

Mg 2.43000 0.48500 44.26800
C  5.59900 2.09100 43.97500
C  0.85700 3.14200 43.00300
C  -0.17000 -1.50400 43.79800
C  4.35800 -2.39300 45.33600
N  3.17300 2.33200 43.55200
C  4.41000 2.84600 43.55600
C  4.48100 4.32700 43.17100
C  2.95900 4.74000 43.00100
C  2.27200 3.33100 43.18300
C  2.37000 5.83800 43.87400
C  5.35700 4.46000 41.83200
C  5.18300 3.32100 40.80400
H  5.52900 3.59700 39.31400
N  0.60800 0.77300 43.43500
C  0.07000 1.98000 43.05500
C  -1.40700 1.88700 42.96800
C  -1.70600 0.53000 43.17400
C  -0.45600 -0.15500 43.39900
C  -2.26700 2.96400 42.51600
C  -3.08100 -0.00600 42.90600
O  -3.93800 0.84300 42.55600
C  -3.35800 -1.52800 43.01500
N  2.20200 -1.57800 44.41200
C  0.95000 -2.05500 44.32700
C  0.89400 -3.55100 44.88600
C  2.32200 -3.86300 45.30100
C  2.98300 -2.52000 45.12800
C  -0.21800 -3.91800 45.96800
C  2.95900 -5.06300 44.47800
C  3.93800 -5.96800 45.27300
N  4.59300 -0.12600 44.56000
C  5.10900 -1.25900 44.97100
C  6.51300 -1.07000 45.38000
C  6.72000 0.23700 44.93200
C  5.54000 0.80700 44.44900
C  7.29200 -2.03800 46.22100
C  7.69800 1.35100 44.85800
O  8.83200 1.35700 45.18700
C  7.04900 2.56400 44.15300
C  7.29100 3.62800 45.09200
O  8.33600 4.24600 45.25800
O  6.19500 3.86300 45.86500
C  6.23100 4.84700 46.97200
H  0.21100 3.97100 42.70600
H  -1.07100 -2.12000 43.78700
H  4.90100 -3.17100 45.87700
H  4.86200 4.94100 43.98800
H  2.80200 4.92500 41.93800
H  1.94600 6.52900 43.14500
H  3.08500 6.27500 44.57000
H  1.65100 5.33100 44.51800
H  6.42200 4.49500 42.06200
H  5.18000 5.41200 41.33100
H  4.23300 2.79700 40.91400
H  6.02100 2.69200 41.10400
H  -2.35400 2.93500 41.42900
H  -1.88600 3.95600 42.75600
H  -3.22100 2.96800 43.04200
H  -4.40500 -1.81300 42.90700
H  -3.10600 -1.62000 44.07100
H  -2.77700 -2.16600 42.34800
H  0.61700 -4.13000 44.00600
H  2.46900 -4.03000 46.36800
H  -0.52100 -2.94800 46.36100
H  0.23400 -4.56900 46.71600
H  -1.14300 -4.28300 45.52300
H  3.50300 -4.58700 43.66200
H  2.08300 -5.58900 44.09700
H  4.87400 -5.90400 44.71700
H  3.56200 -6.97900 45.11600
H  3.94700 -5.71600 46.33300
H  6.83200 -2.13000 47.20500
H  8.25100 -1.54500 46.38300
H  7.33000 -3.00100 45.71100
H  7.64100 2.69400 43.24700
H  5.46600 4.66100 47.72500
H  6.00400 5.86300 46.64700
H  7.20100 4.78300 47.46600
Mg 40.42500 41.25200 27.27600
C  39.81900 43.64500 30.00100
C  41.45100 39.05800 29.79200
C  41.16100 39.30200 24.91500
C  39.49400 43.87300 25.01500
N  40.53400 41.34700 29.58100
C  40.22700 42.37100 30.42400
C  40.28800 41.96100 31.92900
C  41.04900 40.64700 31.76700
C  41.06200 40.31100 30.26600
C  42.47200 40.61000 32.45000
C  38.91100 41.88600 32.61300
C  38.80500 41.37900 34.09500
H  38.15900 42.28700 35.09700
N  41.10700 39.37400 27.34000
C  41.52800 38.61800 28.40800
C  42.03600 37.34700 27.91800
C  42.02100 37.39400 26.50600
C  41.42700 38.71100 26.13200
C  42.57600 36.29900 28.91400
C  42.52100 36.31600 25.46100
O  42.55200 36.40700 24.25500
C  43.03000 35.07800 26.07100
N  40.48100 41.61500 25.24400
C  40.81000 40.58500 24.40400
C  40.57300 40.93200 22.91500
C  39.95400 42.32300 22.97500
C  39.83300 42.64000 24.50700
C  41.88700 40.92200 22.01800
C  38.55500 42.36300 22.39700
C  37.44800 41.55500 23.11600
N  39.73800 43.31700 27.42800
C  39.52500 44.23900 26.42400
C  39.24800 45.53400 27.02100
C  39.33500 45.30200 28.39100
C  39.69000 44.00600 28.61500
C  38.93500 46.78300 26.29100
C  39.17200 46.02900 29.60000
O  38.90700 47.17700 29.80300
C  39.44900 44.92300 30.73800
C  40.46100 45.37400 31.71100
O  41.62700 45.72700 31.39000
O  39.89200 45.55300 32.99700
C  40.89400 45.97100 34.00100
H  41.70800 38.38400 30.61100
H  41.38500 38.53100 24.17500
H  39.27000 44.67600 24.30900
H  40.73400 42.75900 32.52300
H  40.53400 39.83900 32.28600
H  42.85100 41.62500 32.56400
H  43.28700 40.16500 31.87800
H  42.43700 40.06300 33.39300
H  38.16900 41.28700 32.08500
H  38.40200 42.84800 32.56900
H  39.77300 41.01000 34.43500
H  38.16400 40.49800 34.11600
H  43.52400 35.86500 28.59600
H  41.81800 35.52500 29.03600
H  42.76800 36.79500 29.86500
H  43.97100 35.38300 26.53000
H  43.31000 34.38400 25.27900
H  42.25700 34.59700 26.67000
H  39.79100 40.25200 22.57500
H  40.63200 43.07500 22.57000
H  41.57500 40.59300 21.02700
H  42.63000 40.26100 22.46600
H  42.36100 41.89800 21.91700
H  38.66500 42.03600 21.36300
H  38.24900 43.40700 22.33200
H  37.80200 41.04100 24.00900
H  37.01100 40.87800 22.38200
H  36.58100 42.14900 23.40500
H  38.71300 46.57300 25.24500
H  39.77700 47.47100 26.37100
H  38.14100 47.27600 26.85300
H  38.54000 44.66300 31.28200
H  41.76600 46.48000 33.59100
H  41.27900 45.10100 34.53200
H  40.36500 46.65300 34.66700

