158

Mg 48.64500 14.93300 28.02100
C  46.91000 15.24200 31.13900
C  51.12900 16.75200 29.41100
C  50.01500 15.20300 25.08000
C  45.60400 13.80900 26.60300
N  48.92300 15.96100 30.10500
C  48.12500 15.93100 31.18700
C  48.78800 16.51600 32.41800
C  50.16800 17.06200 31.80200
C  50.06300 16.59100 30.39000
C  50.35000 18.60300 32.00000
C  48.95400 15.45300 33.56700
C  48.42400 15.85200 34.97500
H  48.36700 17.37200 35.39200
N  50.43900 15.75100 27.34300
C  51.36000 16.41600 28.06700
C  52.51500 16.82400 27.24700
C  52.23000 16.31400 25.95300
C  50.86300 15.70300 26.10900
C  53.70300 17.52800 27.87300
C  53.08900 16.36900 24.64500
O  52.70400 15.99500 23.56500
C  54.40000 17.11600 24.72200
N  47.89800 14.61200 26.11000
C  48.72000 14.72500 25.03500
C  47.93600 14.46800 23.76900
C  46.54700 14.02200 24.22700
C  46.66500 14.11500 25.74800
C  48.02100 15.68200 22.87200
C  46.04100 12.72000 23.65800
C  46.63800 11.47500 24.31500
N  46.66400 14.62800 28.63200
C  45.63200 14.13500 27.93700
C  44.45000 13.97100 28.81500
C  44.96500 14.30500 30.04900
C  46.27000 14.76500 29.92300
C  43.07200 13.63900 28.45900
C  44.56400 14.36600 31.41700
O  43.50600 14.05800 31.94600
C  45.81700 14.96400 32.24500
C  45.38400 16.21000 32.90500
O  45.42200 17.33200 32.38700
O  44.71400 15.91900 34.01100
C  44.05300 17.02900 34.68900
H  51.91300 17.39600 29.81400
H  50.57800 15.16500 24.14600
H  44.58200 13.63000 26.26500
H  48.11100 17.29800 32.76200
H  50.94700 16.51000 32.32800
H  49.38000 19.08000 32.14200
H  50.94300 19.04500 31.19900
H  50.93000 18.69400 32.91900
H  49.95200 15.22200 33.94100
H  48.51500 14.50600 33.25200
H  49.02100 15.33900 35.72900
H  47.43400 15.40000 34.91600
H  54.12100 18.24700 27.16800
H  54.43000 16.76600 28.15200
H  53.46900 17.96400 28.84400
H  54.27700 18.16700 24.98200
H  54.88500 16.90600 23.76800
H  54.96400 16.56400 25.47400
H  48.48700 13.70300 23.22300
H  45.73600 14.69900 23.96000
H  49.05900 15.81400 22.56800
H  47.65500 16.57900 23.37300
H  47.44000 15.48200 21.97100
H  46.22700 12.67400 22.58500
H  44.96200 12.82000 23.78000
H  47.59500 11.73400 24.76700
H  46.72900 10.69400 23.55900
H  46.03900 11.10400 25.14700
H  43.08800 12.62800 28.05300
H  42.76700 14.25600 27.61400
H  42.38000 13.88300 29.26600
H  46.10500 14.29800 33.05800
H  44.79000 17.56400 35.28800
H  43.20400 16.63800 35.25100
H  43.47500 17.73300 34.09100
Mg 47.46300 24.32100 28.09600
C  48.54000 26.68500 30.44000
C  47.12400 21.99200 30.45300
C  46.86500 22.24700 25.64800
C  48.49000 26.70300 25.50800
N  47.71500 24.36500 30.27800
C  48.01500 25.48300 31.08700
C  47.95400 25.03300 32.55800
C  47.52000 23.54000 32.51700
C  47.52100 23.24800 30.98600
C  48.30500 22.55700 33.44300
C  47.11800 26.00000 33.29800
C  46.50600 25.52700 34.58000
H  46.33600 26.58800 35.66400
N  46.93900 22.39700 28.08400
C  46.84600 21.54800 29.14800
C  46.53000 20.19300 28.68400
C  46.43900 20.28600 27.34500
C  46.75600 21.73100 26.98300
C  46.49600 19.03600 29.63000
C  46.29300 19.07800 26.35300
O  46.38900 19.19200 25.13100
C  45.87900 17.63200 26.86400
N  47.78000 24.48900 25.90200
C  47.28300 23.49800 25.16600
C  47.42300 23.68800 23.57800
C  47.85900 25.18900 23.56500
C  48.07800 25.41400 25.03700
C  48.55500 22.68100 22.94400
C  46.87500 26.15400 22.87500
C  47.54300 27.32900 22.12600
N  48.38500 26.29400 27.95200
C  48.58300 27.10100 26.85800
C  49.06200 28.33700 27.42600
C  49.15200 28.25300 28.82500
C  48.68400 26.95400 29.09300
C  49.57200 29.51400 26.56200
C  49.44600 28.95700 30.10400
O  49.91500 30.11600 30.33200
C  48.97200 27.92300 31.14200
C  49.94800 27.77600 32.37100
O  50.87900 27.03000 32.52400
O  49.71700 28.80700 33.30000
C  49.98000 28.51300 34.69500
H  46.95700 21.21800 31.20500
H  46.66800 21.59200 24.79700
H  48.61700 27.56000 24.84300
H  48.96400 25.08100 32.96300
H  46.52300 23.40800 32.93700
H  47.69900 21.72900 33.81100
H  48.73100 23.08400 34.29700
H  49.15300 22.17700 32.87400
H  46.29900 26.31100 32.64800
H  47.77500 26.85500 33.45700
H  47.18800 24.80500 35.03000
H  45.53900 25.13600 34.26500
H  47.44100 18.49300 29.65100
H  45.61100 18.41500 29.49000
H  46.49700 19.47300 30.62900
H  45.97500 16.90300 26.05900
H  44.85800 17.61700 27.24600
H  46.58300 17.29400 27.62400
H  46.41600 23.49500 23.20500
H  48.84600 25.38900 23.14700
H  48.84500 21.97600 23.72300
H  49.40300 23.19500 22.49100
H  48.00500 22.29800 22.08400
H  46.09400 26.50300 23.55100
H  46.43200 25.54900 22.08400
H  47.46500 27.10800 21.06200
H  48.58400 27.61700 22.27500
H  46.94800 28.20100 22.40000
H  49.02800 29.57500 25.62000
H  50.63100 29.34300 26.36600
H  49.55600 30.47800 27.07100
H  48.06400 28.35700 31.56100
H  49.10100 28.71800 35.30400
H  50.70300 29.27500 34.98600
H  50.36400 27.51800 34.91800

