158

Mg 54.00600 24.32500 44.82500
C  51.48600 26.39800 43.59400
C  52.70100 21.61400 42.92000
C  56.89100 22.49500 45.11200
C  55.46900 27.09800 46.27000
N  52.41200 24.03400 43.25400
C  51.53100 25.11900 42.91800
C  50.47100 24.52700 41.81600
C  50.65900 22.97000 41.98000
C  52.04000 22.81100 42.72300
C  49.52300 22.25800 42.74300
C  50.63000 25.23600 40.40700
C  50.67500 24.46400 39.08000
H  52.03700 24.44200 38.26700
N  54.62500 22.24900 44.38400
C  53.91900 21.31000 43.59800
C  54.66200 20.06300 43.62600
C  55.87900 20.26600 44.37500
C  55.84000 21.67700 44.66700
C  54.09400 18.76700 42.98400
C  56.88900 19.21000 44.81800
O  56.79300 18.02700 44.45000
C  57.95000 19.67600 45.74700
N  55.88100 24.67600 45.76300
C  56.96700 23.83600 45.57800
C  58.23400 24.45000 46.17100
C  57.75200 25.95500 46.41200
C  56.27600 25.92900 46.15500
C  58.93600 23.73900 47.38100
C  58.56600 26.98200 45.53800
C  58.14800 27.11500 43.98700
N  53.53900 26.28100 45.03300
C  54.13800 27.27600 45.80400
C  53.29100 28.41500 46.00900
C  52.19900 28.13400 45.15700
C  52.49100 26.86000 44.50600
C  53.45000 29.60600 46.85000
C  50.98300 28.64500 44.64800
O  50.40400 29.69300 44.78200
C  50.45000 27.55200 43.58000
C  50.18100 28.14400 42.22800
O  51.04700 28.65200 41.48800
O  48.85800 28.06100 41.93000
C  48.33100 28.65400 40.73700
H  52.20300 20.73500 42.50500
H  57.92200 22.13800 45.09700
H  55.78300 27.84900 46.99700
H  49.48300 24.74800 42.22100
H  50.64300 22.50000 40.99700
H  48.73600 22.92300 43.10000
H  49.96200 21.68400 43.55900
H  49.06800 21.47900 42.13200
H  51.48400 25.90500 40.50900
H  49.75100 25.87200 40.30400
H  49.86300 24.88900 38.49000
H  50.32400 23.43600 39.17100
H  54.48800 18.48000 42.00900
H  53.01000 18.83700 42.89700
H  54.07600 17.93400 43.68600
H  57.57700 20.39100 46.48100
H  58.86700 20.10500 45.34400
H  58.34900 18.83100 46.30800
H  59.01400 24.55000 45.41600
H  57.90900 26.24700 47.45100
H  59.01800 24.43600 48.21500
H  59.92400 23.38200 47.09100
H  58.26600 22.99400 47.81000
H  59.58800 26.62700 45.67200
H  58.52000 27.99300 45.94300
H  59.08700 27.02100 43.44200
H  57.62300 28.02900 43.70900
H  57.55500 26.26800 43.64200
H  53.87800 29.14700 47.74100
H  52.50700 30.08700 47.11300
H  54.21700 30.18200 46.33300
H  49.54100 27.11400 43.99200
H  49.00800 28.73700 39.88700
H  47.84200 29.61700 40.88800
H  47.52500 28.09300 40.26600
Mg -10.61300 16.87600 41.09300
C  -7.97600 14.55400 40.97700
C  -8.77700 18.95500 39.09600
C  -13.33000 18.62200 40.50000
C  -12.60400 14.23000 42.40600
N  -8.62000 16.76600 40.29200
C  -7.69400 15.78700 40.39500
C  -6.44900 16.16400 39.50100
C  -6.64000 17.63000 39.28600
C  -8.09200 17.85300 39.61900
C  -5.71700 18.52100 40.18400
C  -6.34900 15.42700 38.16600
C  -5.34600 14.22800 38.11800
H  -4.19500 14.09400 37.00300
N  -10.93500 18.62400 40.07100
C  -10.05200 19.35500 39.36800
C  -10.70500 20.54000 38.88800
C  -12.07900 20.47300 39.33500
C  -12.14800 19.20800 40.05000
C  -9.99100 21.67900 38.22000
C  -13.18600 21.63900 39.03600
O  -12.86100 22.62800 38.36700
C  -14.62600 21.46800 39.47900
N  -12.67300 16.52100 41.47300
C  -13.61000 17.43100 41.17600
C  -15.11600 16.93800 41.61900
C  -14.77100 15.56900 42.37500
C  -13.30200 15.39400 41.99400
C  -15.89700 17.93400 42.59900
C  -15.67700 14.40100 41.99200
C  -16.80100 13.92900 43.01500
N  -10.38900 14.87400 41.85300
C  -11.23100 13.91900 42.31400
C  -10.56600 12.76300 42.64600
C  -9.27400 12.98800 42.20100
C  -9.23600 14.30300 41.63300
C  -11.03900 11.52300 43.24000
C  -7.90500 12.41000 42.11000
O  -7.42900 11.30300 42.44800
C  -7.04300 13.35900 41.32600
C  -5.84000 13.74300 42.16500
O  -5.89300 13.91400 43.37800
O  -4.66000 13.94300 41.39700
C  -3.61400 14.71900 42.13000
H  -8.08700 19.63100 38.58600
H  -14.27600 19.08300 40.20800
H  -13.20300 13.48100 42.92800
H  -5.63900 15.84100 40.15600
H  -6.40500 17.87700 38.25100
H  -6.36300 19.02200 40.90400
H  -5.13600 19.18800 39.54600
H  -5.03200 17.93400 40.79600
H  -6.14000 16.05800 37.30200
H  -7.33200 15.02900 37.91900
H  -5.91200 13.29800 38.06400
H  -4.84700 14.17200 39.08500
H  -9.60400 21.36700 37.25100
H  -9.15600 21.97000 38.85700
H  -10.61100 22.57500 38.18300
H  -15.10200 22.44700 39.53000
H  -14.59500 21.13900 40.51700
H  -15.20800 20.85500 38.79100
H  -15.72100 16.85800 40.71600
H  -14.75900 15.65600 43.46100
H  -16.41700 17.32400 43.33800
H  -16.69300 18.35600 41.98500
H  -15.28200 18.76500 42.94400
H  -15.07900 13.53100 41.72000
H  -16.28500 14.64600 41.12200
H  -16.91400 14.59900 43.86700
H  -16.59900 12.89700 43.30000
H  -17.75800 13.89500 42.49300
H  -10.18000 10.97600 43.63000
H  -11.51000 10.91400 42.46800
H  -11.75700 11.88000 43.97800
H  -6.79800 12.70600 40.48900
H  -3.32000 14.21200 43.04900
H  -3.99000 15.74100 42.09200
H  -2.80600 14.66600 41.40000

