158

Mg 49.31900 44.55800 42.77400
C  45.72300 44.95800 41.91700
C  48.93000 41.27400 41.96400
C  52.57600 44.44400 42.95400
C  49.38900 48.00300 43.29300
N  47.47800 43.39300 41.89300
C  46.14700 43.65400 41.84500
C  45.33900 42.45400 41.28900
C  46.39300 41.33200 41.34200
C  47.72600 42.00500 41.82800
C  46.03800 40.21900 42.37800
C  44.72200 42.66900 39.87100
C  45.60100 43.07500 38.64600
H  45.51300 42.14300 37.47500
N  50.58000 43.04700 42.61600
C  50.28500 41.73500 42.31800
C  51.52300 40.92800 42.29800
C  52.55700 41.79700 42.64500
C  51.92100 43.13900 42.78000
C  51.55500 39.48700 42.10800
C  54.01900 41.39800 42.86600
O  54.37300 40.28300 42.44800
C  55.07900 42.30800 43.42700
N  50.76700 45.99300 42.93500
C  52.02500 45.69900 43.02300
C  52.98200 46.96000 43.13500
C  51.87800 48.07300 43.49400
C  50.54800 47.33700 43.25800
C  54.23000 46.81900 44.05500
C  52.10300 49.40300 42.68300
C  53.42500 50.17200 42.85200
N  47.94100 46.18800 42.66900
C  48.11700 47.57600 42.96000
C  46.80300 48.24600 42.79300
C  45.96100 47.24600 42.28100
C  46.64500 46.03200 42.29700
C  46.53600 49.71200 43.01200
C  44.60600 47.08700 41.78400
O  43.74000 47.91300 41.54100
C  44.37800 45.65500 41.62600
C  43.27200 45.17800 42.43500
O  42.46700 44.36000 42.01200
O  43.32600 45.65300 43.72300
C  42.34000 44.92600 44.55500
H  48.74900 40.22000 41.74400
H  53.66800 44.42900 42.93200
H  49.52900 49.02900 43.64000
H  44.54800 42.21100 41.99800
H  46.40300 40.89500 40.34300
H  46.37400 40.46000 43.38700
H  46.61000 39.31700 42.16100
H  44.99000 39.93200 42.46000
H  43.86200 43.33800 39.84000
H  44.28100 41.68700 39.70000
H  46.64700 43.21700 38.91700
H  45.32500 44.05000 38.24700
H  52.20300 39.01600 42.84700
H  51.91100 39.13100 41.14100
H  50.51700 39.16700 42.19500
H  55.68800 41.60600 43.99600
H  54.64300 43.02900 44.11800
H  55.62400 42.88400 42.67900
H  53.41700 47.10000 42.14600
H  51.78500 48.23600 44.56800
H  55.20200 47.03400 43.61000
H  54.21900 45.82800 44.50700
H  54.02300 47.52600 44.85900
H  51.32900 50.02000 43.14000
H  51.93000 49.13400 41.64200
H  53.61600 50.26900 43.92000
H  53.19900 51.06600 42.27000
H  54.26600 49.65900 42.38700
H  45.50300 50.01600 42.84300
H  47.16000 50.36000 42.39600
H  46.86800 49.86900 44.03800
H  44.13400 45.57800 40.56700
H  41.35700 45.09900 44.11700
H  42.24300 45.41500 45.52400
H  42.49300 43.85400 44.68500
Mg -1.54100 34.59900 25.88700
C  -3.17500 32.61800 28.44800
C  -0.18400 36.52000 28.26900
C  -0.21500 36.20800 23.40500
C  -3.49500 32.77900 23.47200
N  -1.57900 34.58500 28.13100
C  -2.34500 33.72900 28.91000
C  -2.12200 34.04300 30.42200
C  -1.36600 35.38600 30.34600
C  -0.98400 35.53700 28.89800
C  -2.18000 36.55300 30.77600
C  -1.28100 32.92600 31.19400
C  -1.98100 32.13100 32.29300
H  -1.23100 32.14000 33.64000
N  -0.26900 36.07800 25.81100
C  0.18200 36.79500 26.89500
C  1.07300 37.79700 26.42400
C  1.21800 37.61800 25.02100
C  0.18900 36.63700 24.68500
C  1.83700 38.69900 27.38200
C  2.21700 38.11700 23.99200
O  2.21600 37.93300 22.73400
C  3.21200 39.01200 24.56000
N  -1.88900 34.60600 23.79100
C  -1.21500 35.42200 22.96600
C  -1.63100 35.33900 21.52800
C  -2.49000 34.07500 21.54700
C  -2.67100 33.78800 23.05000
C  -2.42900 36.60400 21.03800
C  -1.87400 32.86600 20.83700
C  -0.53900 32.46200 21.40200
N  -3.06600 33.08900 25.92400
C  -3.79300 32.46500 24.83800
C  -4.58800 31.41800 25.39300
C  -4.33000 31.38900 26.77300
C  -3.46200 32.44500 27.02200
C  -5.17600 30.33200 24.61300
C  -4.62800 30.71800 28.07200
O  -5.34000 29.76700 28.21900
C  -3.86100 31.43500 29.17600
C  -4.90700 31.73500 30.21700
O  -5.47800 32.77500 30.25300
O  -4.92400 30.80300 31.18300
C  -5.54400 30.99000 32.49400
H  0.27700 37.13600 29.04400
H  -0.15600 36.91600 22.57600
H  -4.09400 32.26900 22.71500
H  -3.14400 34.16500 30.78000
H  -0.41200 35.39600 30.87200
H  -3.04000 36.61000 30.10900
H  -1.57000 37.45200 30.68800
H  -2.47400 36.32900 31.80100
H  -0.37400 33.36900 31.60400
H  -0.99900 32.23600 30.39800
H  -2.14100 31.12200 31.91300
H  -2.92000 32.62000 32.54900
H  2.92400 38.64800 27.32300
H  1.59600 38.67200 28.44400
H  1.77400 39.76600 27.17200
H  3.68100 38.49000 25.39500
H  2.69900 39.91000 24.90300
H  4.06700 39.19700 23.91000
H  -0.75000 35.31200 20.88600
H  -3.47200 34.23000 21.09900
H  -1.75500 37.42100 20.78000
H  -3.12500 36.97300 21.79100
H  -2.95500 36.33600 20.12100
H  -1.68200 33.17500 19.80900
H  -2.53400 32.00700 20.95400
H  0.18000 32.37700 20.58700
H  -0.64000 31.47500 21.85400
H  -0.15800 33.16300 22.14400
H  -4.66500 30.03700 23.69600
H  -6.16000 30.61800 24.24000
H  -5.45500 29.49300 25.25100
H  -3.04800 30.89000 29.65700
H  -4.90200 31.70700 33.00600
H  -5.72400 30.06100 33.03500
H  -6.53800 31.43500 32.53000

