158

Mg 35.50000 2.50100 29.61500
C  33.34200 3.87100 32.13000
C  37.90800 2.39500 31.95900
C  37.67500 1.76400 27.22500
C  33.08700 3.44300 27.28700
N  35.61400 3.11700 31.79700
C  34.59200 3.51300 32.61400
C  35.03400 3.58100 34.06000
C  36.51400 3.36400 33.96900
C  36.71000 2.87900 32.47600
C  37.37600 4.64000 34.19900
C  34.15400 2.53100 34.81600
C  33.66100 2.93100 36.18600
H  34.26800 4.16200 36.90900
N  37.46400 1.99700 29.67700
C  38.27000 1.89200 30.73800
C  39.54900 1.37800 30.33200
C  39.53600 1.27100 28.88800
C  38.15000 1.70600 28.53100
C  40.71900 1.05700 31.30600
C  40.54300 0.72500 27.87500
O  40.33100 0.78500 26.68100
C  41.74400 0.10200 28.38700
N  35.38700 2.55000 27.58400
C  36.38700 2.18300 26.78300
C  35.90500 2.07700 25.30100
C  34.46700 2.60600 25.33100
C  34.26400 2.85700 26.80400
C  36.80700 2.84700 24.38900
C  33.39200 1.49400 25.00700
C  32.06600 1.93600 24.24700
N  33.61900 3.42800 29.58800
C  32.70800 3.69100 28.62600
C  31.50700 4.13300 29.12700
C  31.75100 4.31200 30.49800
C  33.01800 3.85400 30.74100
C  30.30200 4.40400 28.33200
C  31.05800 4.69700 31.69400
O  29.91700 5.10900 31.91100
C  32.08500 4.35900 32.87600
C  32.31000 5.54400 33.71400
O  33.04800 6.44100 33.31500
O  31.52300 5.54500 34.80900
C  31.32600 6.79200 35.51500
H  38.78600 2.31300 32.60300
H  38.27600 1.45700 26.36700
H  32.43000 3.80000 26.49100
H  34.84900 4.56800 34.48400
H  36.77500 2.63100 34.73300
H  36.77800 5.54300 34.32000
H  38.08200 4.82300 33.38900
H  37.87100 4.58700 35.16900
H  34.74600 1.62300 34.92800
H  33.39200 2.06700 34.19100
H  33.77200 2.03900 36.80200
H  32.57200 2.91200 36.23400
H  41.50600 1.76500 31.04700
H  41.15600 0.06400 31.19700
H  40.37500 1.24900 32.32200
H  41.47400 -0.83200 28.87900
H  42.25200 0.72000 29.12700
H  42.47600 -0.10300 27.60500
H  35.90600 1.07000 24.88300
H  34.36900 3.53900 24.77600
H  36.39700 3.84600 24.23800
H  36.84400 2.29200 23.45200
H  37.82600 2.92300 24.76900
H  33.15500 0.90100 25.89000
H  33.90900 0.78200 24.36400
H  31.98100 3.02200 24.28000
H  31.23900 1.59300 24.86900
H  31.94400 1.55700 23.23200
H  30.55500 5.14500 27.57400
H  29.56500 4.96600 28.90600
H  29.92200 3.52200 27.81600
H  31.50000 3.59900 33.39500
H  31.15200 7.59900 34.80300
H  32.20000 7.09300 36.09400
H  30.48200 6.80200 36.20500
Mg 48.52600 16.24000 28.43700
C  46.36300 16.13500 31.31500
C  50.59700 18.27900 30.11400
C  50.26900 16.49600 25.66500
C  45.82900 14.62300 26.69300
N  48.46700 16.96600 30.58200
C  47.54800 16.78900 31.54200
C  48.05400 17.44300 32.83100
C  49.19600 18.43400 32.34700
C  49.47300 17.86100 30.94700
C  48.86500 19.98800 32.34100
C  48.45100 16.41100 33.84400
C  47.66600 16.54600 35.18500
H  47.91900 17.79100 35.99500
N  50.19000 17.22200 27.98700
C  50.92500 17.96300 28.80400
C  52.11600 18.38600 28.10900
C  52.09400 17.84000 26.78600
C  50.82700 17.16300 26.74800
C  53.17000 19.26600 28.85400
C  53.21600 17.91400 25.73500
O  53.03600 17.49100 24.55000
C  54.57400 18.43300 26.18300
N  48.07200 15.76000 26.43700
C  48.98100 15.92900 25.48400
C  48.30200 15.66000 24.09500
C  46.95000 14.99300 24.41600
C  46.96400 15.03800 25.96200
C  48.14100 16.91500 23.25100
C  46.84000 13.56600 23.92900
C  45.61400 13.27800 22.98900
N  46.58000 15.49800 28.85000
C  45.61000 14.78800 28.09000
C  44.41900 14.50100 28.87900
C  44.68200 15.04400 30.13000
C  45.98400 15.54400 30.07600
C  43.26300 13.76600 28.43800
C  44.15200 15.17700 31.49400
O  43.04700 14.78900 31.93200
C  45.27100 15.89400 32.32100
C  44.69700 17.13700 32.88200
O  44.55500 18.16700 32.27900
O  44.19600 16.85600 34.16300
C  43.34200 17.86000 34.86500
H  51.30300 18.90600 30.66300
H  50.83200 16.52200 24.73000
H  45.10300 14.09100 26.07400
H  47.18200 17.99000 33.19000
H  50.13400 18.30900 32.88900
H  47.80400 20.05400 32.58400
H  49.17500 20.35900 31.36400
H  49.31000 20.59900 33.12600
H  49.49900 16.47500 34.14000
H  48.41500 15.37800 33.49700
H  47.84200 15.68700 35.83200
H  46.59100 16.61100 35.02000
H  53.74500 19.95000 28.23100
H  53.83700 18.65000 29.45900
H  52.64000 19.88900 29.57400
H  54.90400 18.02800 27.14000
H  54.52700 19.51900 26.26800
H  55.34200 18.18500 25.45000
H  49.00100 14.95600 23.64400
H  46.03500 15.52700 24.16000
H  47.11400 17.27800 23.20800
H  48.30800 16.66200 22.20400
H  48.82500 17.70400 23.56300
H  46.78600 12.95900 24.83200
H  47.72300 13.19700 23.40600
H  44.95000 14.13300 22.86800
H  45.02700 12.45800 23.40400
H  45.94000 12.91700 22.01400
H  42.49200 13.88500 29.19900
H  43.54400 12.71400 28.38200
H  42.88400 14.21900 27.52200
H  45.68500 15.31000 33.14300
H  43.84300 18.21200 35.76600
H  42.39300 17.37000 35.08300
H  43.15900 18.74300 34.25200

