158

Mg 49.75100 35.58700 26.52700
C  47.68800 34.34500 29.27500
C  50.39600 38.39100 28.34800
C  51.62100 36.55000 23.93100
C  48.66000 32.74100 24.68400
N  49.02500 36.31300 28.60600
C  48.30600 35.60900 29.59200
C  48.40900 36.29100 30.92400
C  48.86700 37.79300 30.44400
C  49.46100 37.48500 29.06000
C  47.78800 38.84100 30.33200
C  49.44900 35.64700 31.77800
C  49.07300 35.49000 33.24000
H  48.02500 36.36300 33.87300
N  50.90000 37.25200 26.18000
C  51.08700 38.33500 27.04900
C  52.03600 39.23600 26.42800
C  52.49000 38.64500 25.18500
C  51.65700 37.42200 25.05100
C  52.37000 40.59900 27.08400
C  53.42200 39.34600 24.19900
O  53.68200 38.81400 23.09500
C  54.18800 40.64500 24.54200
N  50.00900 34.82100 24.54700
C  50.86200 35.37900 23.75100
C  51.07500 34.51900 22.44800
C  50.31400 33.28900 22.78200
C  49.60100 33.62700 24.05800
C  50.88700 35.13900 21.04900
C  51.22500 32.07200 23.08800
C  50.68800 30.68200 22.92900
N  48.37800 33.96100 26.81200
C  48.12300 32.86300 25.99900
C  47.33100 31.88400 26.72400
C  47.06900 32.47400 27.96000
C  47.79400 33.70800 28.01900
C  46.69700 30.68800 26.12000
C  46.37300 32.21100 29.19500
O  45.70400 31.28400 29.56900
C  46.64600 33.47800 30.07100
C  47.01100 32.98900 31.48700
O  48.13500 32.57000 31.78300
O  45.92200 32.84200 32.27900
C  46.20500 32.19700 33.60800
H  50.64400 39.16600 29.07600
H  52.28100 36.88400 23.12800
H  48.40500 31.84800 24.11000
H  47.40300 36.27500 31.34300
H  49.55000 38.28500 31.13600
H  48.14600 39.72000 30.86900
H  46.95400 38.41300 30.88800
H  47.52300 39.13100 29.31600
H  50.35000 36.25300 31.68400
H  49.53900 34.60400 31.47500
H  49.92500 35.38900 33.91200
H  48.70300 34.46500 33.24200
H  51.50800 40.84300 27.70600
H  52.37700 41.42500 26.37300
H  53.34900 40.62700 27.56200
H  53.76500 41.63200 24.35900
H  55.01200 40.60700 23.83000
H  54.44400 40.50800 25.59300
H  52.14500 34.31700 22.48600
H  49.55700 32.99400 22.05600
H  50.13200 34.58800 20.48800
H  51.81900 35.17900 20.48700
H  50.56700 36.16900 21.21000
H  51.74800 32.12100 24.04400
H  51.95300 32.06400 22.27700
H  51.14900 30.04700 23.68600
H  51.02700 30.30900 21.96200
H  49.61100 30.52000 22.95700
H  47.28700 30.19800 25.34600
H  45.71300 30.95500 25.73400
H  46.69900 29.97300 26.94300
H  45.65700 33.93600 30.06600
H  47.11200 31.59600 33.67800
H  45.36600 31.50500 33.68900
H  46.06900 32.86400 34.45900
Mg -6.31300 24.61200 26.53700
C  -4.68500 25.90200 29.41000
C  -7.97000 22.42500 28.48900
C  -7.37400 22.97600 23.73600
C  -3.75300 26.20200 24.53900
N  -6.21800 24.12000 28.68300
C  -5.71500 24.93800 29.69400
C  -6.35700 24.70600 31.08500
C  -7.07100 23.38200 30.80300
C  -7.01800 23.21700 29.20100
C  -6.58900 22.10400 31.57900
C  -7.32400 25.96100 31.43000
C  -7.76800 25.98800 32.89900
H  -7.38900 24.78400 33.84800
N  -7.78500 23.10200 26.13900
C  -8.31500 22.32100 27.10800
C  -9.27900 21.45000 26.51100
C  -9.14200 21.67900 25.11800
C  -8.09400 22.63700 24.90700
C  -10.24100 20.54900 27.24500
C  -9.99700 21.11700 23.97200
O  -9.85000 21.36500 22.78000
C  -10.97700 20.08300 24.19500
N  -5.57400 24.44700 24.51900
C  -6.27500 23.79900 23.56300
C  -5.74600 24.07200 22.09800
C  -4.63500 25.14800 22.37600
C  -4.63900 25.26600 23.91400
C  -5.29600 22.80500 21.28600
C  -4.80100 26.53700 21.60700
C  -3.50900 27.26800 21.13100
N  -4.51100 25.74000 26.88300
C  -3.65600 26.42900 25.94800
C  -2.80600 27.30300 26.78900
C  -3.14900 27.04800 28.06700
C  -4.15300 26.15600 28.15300
C  -1.76300 28.30400 26.42300
C  -2.97300 27.57200 29.44700
O  -2.11600 28.36900 29.90800
C  -3.89000 26.80600 30.40400
C  -3.01100 26.07800 31.37800
O  -2.57700 24.97700 31.17900
O  -2.57400 27.00800 32.36600
C  -1.66200 26.42900 33.37200
H  -8.51900 21.74300 29.14100
H  -7.64000 22.48800 22.79600
H  -3.02500 26.69400 23.89000
H  -5.60300 24.64600 31.87000
H  -8.12100 23.46200 31.08200
H  -6.27100 21.34300 30.86700
H  -7.41800 21.78200 32.20900
H  -5.67600 22.29900 32.14100
H  -8.17900 25.83800 30.76500
H  -6.79200 26.89100 31.22900
H  -8.85800 25.96800 32.92400
H  -7.46100 26.92800 33.35700
H  -9.78300 19.57300 27.40800
H  -11.26200 20.61700 26.87200
H  -10.32500 21.00900 28.23000
H  -10.54900 19.36700 24.89700
H  -11.24300 19.50400 23.31000
H  -11.89300 20.39300 24.69700
H  -6.63300 24.41900 21.56700
H  -3.67000 24.70300 22.13400
H  -5.57300 21.91000 21.84300
H  -4.23100 22.82700 21.05200
H  -5.85600 22.60400 20.37300
H  -5.31400 27.21400 22.29000
H  -5.51900 26.40200 20.79800
H  -3.52200 27.37600 20.04600
H  -2.55600 26.75100 21.24900
H  -3.39500 28.27800 21.52300
H  -1.80400 28.60800 25.37700
H  -0.80400 27.88300 26.72600
H  -1.97000 29.21900 26.97900
H  -4.55900 27.43300 30.99300
H  -1.74700 25.36000 33.57100
H  -1.90300 26.84500 34.35000
H  -0.59800 26.55600 33.17300

