158

Mg 47.36100 16.86100 27.83000
C  45.43000 16.83000 30.80400
C  49.85300 18.58400 29.61600
C  48.98800 17.20300 25.08100
C  44.57300 15.54900 26.12700
N  47.55900 17.67300 29.95100
C  46.62700 17.54500 30.95700
C  47.22100 18.14800 32.26700
C  48.46100 18.93700 31.71100
C  48.62500 18.35000 30.33400
C  48.29400 20.47800 31.75300
C  47.58200 16.94200 33.21200
C  47.16800 17.14400 34.65900
H  46.69900 18.54600 35.08000
N  49.16000 17.65100 27.39500
C  50.04700 18.22700 28.27200
C  51.25000 18.51200 27.55100
C  51.02700 18.24400 26.18500
C  49.73400 17.62100 26.17200
C  52.53200 19.04400 28.19500
C  51.93300 18.43100 24.96400
O  51.53000 18.10000 23.84900
C  53.30100 19.15800 24.99300
N  46.85200 16.34200 25.92800
C  47.75200 16.56000 24.94800
C  47.16000 16.21300 23.57600
C  45.78200 15.53400 24.02000
C  45.75100 15.74400 25.47100
C  47.04700 17.40000 22.53300
C  45.76800 13.96400 23.64200
C  44.79000 13.66200 22.47500
N  45.46600 16.22700 28.31200
C  44.41800 15.75100 27.50700
C  43.20100 15.60000 28.30600
C  43.58100 15.94800 29.59900
C  44.89900 16.34900 29.55900
C  41.79400 15.21900 27.79800
C  43.04900 16.14200 30.91400
O  41.91500 15.94200 31.29500
C  44.22100 16.75600 31.72200
C  43.80600 18.12100 32.21300
O  44.01000 19.17500 31.66900
O  43.19700 17.97900 33.37700
C  42.48600 19.13100 33.95300
H  50.62400 19.13600 30.15700
H  49.38900 17.20900 24.06600
H  43.75600 14.97600 25.68300
H  46.39100 18.73200 32.66300
H  49.33600 18.69600 32.31400
H  47.45300 20.78600 32.37400
H  48.26700 20.75600 30.70000
H  49.10400 21.08400 32.15900
H  48.65900 16.79300 33.13000
H  46.94600 16.14200 32.83300
H  47.90300 16.76500 35.36900
H  46.27200 16.56500 34.88500
H  53.44000 18.51900 27.89800
H  52.50100 18.89600 29.27400
H  52.62100 20.10400 27.95600
H  53.54400 19.16800 23.93100
H  54.04000 18.67500 25.63400
H  53.17500 20.16400 25.39200
H  47.86500 15.44400 23.26300
H  44.90000 16.03800 23.62600
H  46.03300 17.35500 22.13600
H  47.74300 17.11000 21.74600
H  47.37500 18.32500 23.00700
H  45.49400 13.36600 24.51100
H  46.77600 13.56000 23.53900
H  45.08500 14.18800 21.56700
H  43.81800 14.01100 22.82300
H  44.62300 12.58600 22.42100
H  41.63500 15.56200 26.77500
H  41.10500 15.77600 28.43300
H  41.48200 14.17700 27.85800
H  44.45900 16.10800 32.56600
H  42.25400 19.76300 33.09600
H  43.11400 19.53200 34.74800
H  41.53700 18.84400 34.40800
Mg 43.40200 42.58200 26.26800
C  42.19200 44.62300 28.83500
C  44.89300 40.66100 28.60400
C  44.30500 40.56400 23.68400
C  42.21500 45.00200 23.98200
N  43.66800 42.81100 28.46200
C  42.88800 43.53100 29.24300
C  43.05000 43.09200 30.78700
C  43.82800 41.73700 30.70100
C  44.23300 41.78200 29.15300
C  45.10100 41.59700 31.61100
C  41.64800 42.92700 31.51400
C  41.53500 41.85900 32.67800
H  40.74800 42.21600 33.93300
N  44.52500 40.88200 26.12500
C  45.10400 40.27700 27.24200
C  45.90400 39.14100 26.76000
C  45.58800 38.95100 25.33700
C  44.75400 40.16700 24.98300
C  46.78900 38.27100 27.75300
C  46.08900 37.88000 24.38000
O  45.88600 38.03100 23.17300
C  46.97200 36.79100 24.84200
N  43.43900 42.85600 24.03500
C  43.70300 41.74700 23.25400
C  43.38500 42.10500 21.81900
C  42.66300 43.50600 21.93300
C  42.62400 43.79400 23.42900
C  44.58400 42.16000 20.85400
C  41.20600 43.62100 21.24100
C  40.00700 43.05000 22.00400
N  42.51900 44.46400 26.33100
C  42.05900 45.31900 25.36000
C  41.47500 46.49700 25.92900
C  41.40900 46.20200 27.28100
C  42.07900 44.99400 27.44900
C  41.00400 47.66900 25.19900
C  40.92500 46.76400 28.54400
O  40.25800 47.78800 28.74100
C  41.40400 45.74800 29.64100
C  42.10300 46.49500 30.66100
O  43.27000 46.85200 30.54100
O  41.37600 46.67200 31.86700
C  42.11000 47.33600 32.91100
H  45.34500 39.97000 29.31900
H  44.75700 39.87200 22.97100
H  41.76400 45.69800 23.27100
H  43.72500 43.85800 31.16900
H  43.24100 40.82400 30.80800
H  45.15600 42.28600 32.45300
H  45.98500 41.75100 30.99200
H  45.12300 40.62300 32.10100
H  40.80600 42.74900 30.84500
H  41.58800 43.87700 32.04400
H  42.58300 41.77300 32.96400
H  41.22300 40.88300 32.30400
H  46.26900 37.34400 27.99400
H  46.90000 38.84600 28.67200
H  47.75500 38.09600 27.27800
H  46.58200 36.15000 25.63300
H  47.91800 37.25800 25.11500
H  47.02200 36.18900 23.93500
H  42.69500 41.41300 21.33700
H  43.22900 44.34800 21.53500
H  44.82800 43.14200 20.44800
H  44.58200 41.48300 20.00000
H  45.49200 42.01400 21.44000
H  41.25600 43.19600 20.23800
H  40.89600 44.65300 21.07300
H  39.49200 42.21900 21.52000
H  39.29800 43.84100 22.24800
H  40.40100 42.59300 22.91100
H  40.10500 47.40900 24.64000
H  41.76000 47.99400 24.48400
H  40.81300 48.50900 25.86600
H  40.53600 45.29400 30.11900
H  42.80500 46.62000 33.35000
H  41.41000 47.80000 33.60500
H  42.74700 48.14200 32.54800

