158

Mg 46.97000 45.67900 44.13800
C  43.71700 45.21000 43.26200
C  47.49100 42.25200 42.86500
C  50.39300 46.09600 43.68700
C  46.48700 49.05300 44.31000
N  45.74800 43.94400 43.08700
C  44.42000 43.99500 43.12500
C  43.87800 42.70000 42.46600
C  44.95800 41.68300 42.67500
C  46.13800 42.71300 42.91800
C  44.72500 40.62400 43.82600
C  43.49000 42.97600 40.94000
C  42.08800 42.37700 40.53000
H  41.91200 41.70000 39.19900
N  48.78500 44.31600 43.66000
C  48.70300 42.97200 43.14100
C  50.03300 42.41400 42.99000
C  50.90500 43.55000 43.33900
C  50.05200 44.73100 43.47400
C  50.31400 41.08300 42.46100
C  52.42400 43.41500 43.37700
O  52.94900 42.43200 42.95800
C  53.29700 44.50700 43.91900
N  48.21700 47.32200 44.17400
C  49.55800 47.23800 43.94200
C  50.17800 48.65700 44.20300
C  48.92200 49.65500 44.03500
C  47.80500 48.64000 44.18800
C  50.92500 48.91600 45.52400
C  48.68100 50.38000 42.67000
C  48.56700 51.89800 42.82000
N  45.36400 46.85400 44.07400
C  45.33200 48.21300 44.21800
C  43.91200 48.69900 43.99600
C  43.30200 47.59100 43.66200
C  44.16700 46.48200 43.72700
C  43.36800 50.08400 44.12400
C  41.98900 47.00800 43.27100
O  40.90600 47.65600 43.15600
C  42.22300 45.47300 43.02500
C  41.24100 44.73300 43.88700
O  40.29600 44.05800 43.43800
O  41.50700 45.04100 45.19400
C  40.54000 44.32900 46.08200
H  47.59700 41.21400 42.54300
H  51.45900 46.21900 43.48400
H  46.34700 50.11500 44.52500
H  42.97900 42.44900 43.03100
H  45.12400 41.17600 41.72500
H  43.65200 40.65400 44.01500
H  45.22500 40.99100 44.72200
H  45.08600 39.63200 43.55700
H  44.24000 42.52500 40.29000
H  43.54000 44.04800 40.75300
H  41.41000 43.23000 40.50500
H  41.73700 41.63900 41.25100
H  50.94600 41.22000 41.58300
H  49.46400 40.47300 42.15700
H  50.96700 40.57500 43.17000
H  53.44800 45.07600 43.00200
H  54.24400 44.12500 44.29900
H  52.92900 45.20500 44.67100
H  50.87300 48.81800 43.37900
H  48.77800 50.22600 44.95200
H  50.90600 48.04700 46.18200
H  50.47800 49.77500 46.02400
H  51.97500 49.16100 45.36400
H  47.86600 49.97100 42.07300
H  49.44400 50.16800 41.92100
H  48.57800 52.28300 43.83900
H  47.74300 52.26000 42.20500
H  49.49800 52.34800 42.47500
H  42.96100 50.44400 45.06900
H  42.61400 50.17500 43.34200
H  44.10200 50.84200 43.85100
H  42.04900 45.33100 41.95800
H  39.55800 44.67700 45.76200
H  40.79400 44.68100 47.08200
H  40.63500 43.25200 46.22000
Mg 26.21200 51.77300 26.65100
C  23.80400 51.91100 29.29900
C  28.48800 50.47700 28.83000
C  28.33900 51.83600 24.05900
C  23.59400 52.36000 24.34200
N  26.13000 51.26500 28.83700
C  25.07100 51.47200 29.71300
C  25.52000 51.06800 31.07700
C  27.05700 50.77300 30.94100
C  27.29100 50.88200 29.42200
C  28.03100 51.42200 31.80700
C  24.71300 49.86400 31.66800
C  24.00100 50.05800 33.02600
H  24.74000 50.92000 34.13800
N  28.17700 51.28000 26.47600
C  28.89500 50.70100 27.50400
C  30.26800 50.53300 26.97500
C  30.32200 51.10200 25.66500
C  28.89000 51.45600 25.31700
C  31.39100 49.85900 27.74200
C  31.50200 51.28600 24.74700
O  31.33600 51.90000 23.67600
C  32.85800 50.81500 25.06100
N  25.97700 52.21800 24.48700
C  27.02200 52.06000 23.65400
C  26.60100 52.10900 22.11700
C  25.01800 51.92100 22.27600
C  24.86200 52.23500 23.78500
C  27.12300 53.32000 21.32800
C  24.43400 50.52700 21.94300
C  23.65900 50.42000 20.67500
N  24.17500 52.10300 26.75100
C  23.25100 52.34600 25.72700
C  22.03000 52.62700 26.34800
C  22.18600 52.45700 27.67300
C  23.50800 52.16900 27.92400
C  20.79600 52.93900 25.55900
C  21.48400 52.53600 28.95600
O  20.33200 53.01000 29.09000
C  22.46100 52.19800 30.06600
C  22.58200 53.39500 30.96200
O  23.19200 54.41300 30.72600
O  21.82300 53.20900 32.08500
C  21.76000 54.31700 33.12900
H  29.25800 49.97900 29.42200
H  29.02200 51.79200 23.20700
H  22.76500 52.34400 23.63100
H  25.40900 51.91300 31.75700
H  27.19900 49.71800 31.17700
H  28.90400 51.75000 31.24300
H  28.23900 50.76600 32.65200
H  27.44400 52.14000 32.37900
H  25.27200 48.93900 31.81000
H  23.91200 49.62800 30.96700
H  23.90800 49.09100 33.51900
H  22.98400 50.43100 32.90100
H  31.18300 49.42200 28.71800
H  32.17000 50.61800 27.81600
H  31.84400 49.07800 27.13200
H  32.85800 49.76500 25.35400
H  33.32100 51.41800 25.84100
H  33.51000 50.85300 24.18800
H  26.99500 51.20000 21.66400
H  24.50900 52.58800 21.58000
H  27.81100 52.83300 20.63700
H  27.75400 53.90000 22.00100
H  26.36600 53.97300 20.89400
H  23.79600 50.13700 22.73600
H  25.21400 49.77800 21.80700
H  24.07000 49.80300 19.87500
H  23.37700 51.35400 20.18900
H  22.68600 49.99500 20.92000
H  20.48100 51.95500 25.21100
H  21.07000 53.48000 24.65300
H  19.99700 53.38300 26.15200
H  22.06700 51.40300 30.70000
H  21.65900 55.28900 32.64500
H  22.73300 54.55500 33.55800
H  20.98100 54.22700 33.88700

