158

Mg 45.83900 3.66500 47.07500
C  43.49300 6.27300 46.52800
C  43.21300 1.42300 46.92300
C  48.00700 1.08600 46.95300
C  48.31100 5.90900 46.78300
N  43.65200 3.87800 46.77700
C  42.90400 5.00000 46.55100
C  41.42800 4.72300 46.45800
C  41.34200 3.27400 46.98200
C  42.82400 2.77800 46.91400
C  40.78700 3.18400 48.42000
C  40.84800 4.81800 44.91400
C  39.67700 5.78900 44.66700
H  39.81000 6.86600 43.62000
N  45.60000 1.49400 47.04400
C  44.45300 0.79100 47.05500
C  44.73000 -0.60700 47.23800
C  46.16200 -0.68800 47.20900
C  46.67300 0.66300 47.06200
C  43.69000 -1.66500 47.24200
C  46.91600 -1.90600 47.48800
O  46.32300 -2.97000 47.79700
C  48.41700 -1.95300 47.56000
N  47.80000 3.53400 46.66700
C  48.49700 2.39800 46.78800
C  50.01600 2.58700 46.85800
C  50.08100 4.20200 46.76300
C  48.63500 4.56400 46.62200
C  50.62100 2.30400 48.21600
C  51.02100 4.73900 45.65800
C  52.24800 5.48200 46.08200
N  45.94400 5.64700 46.68500
C  47.07500 6.48700 46.77900
C  46.73700 7.92100 46.68800
C  45.26500 7.87700 46.59400
C  44.87900 6.48800 46.66700
C  47.61000 9.19000 46.59900
C  44.07300 8.64900 46.53500
O  43.86100 9.87600 46.58400
C  42.78100 7.64400 46.59800
C  42.04700 7.73900 47.92700
O  42.30600 7.23000 49.00300
O  41.10000 8.68200 47.77100
C  40.10500 8.95500 48.84400
H  42.45500 0.65700 47.10000
H  48.89400 0.46000 47.06800
H  49.14700 6.60900 46.71400
H  40.84500 5.44500 47.03000
H  40.74000 2.68200 46.29200
H  40.46800 4.17400 48.74400
H  41.61400 2.86700 49.05600
H  39.96400 2.47500 48.51100
H  40.52900 3.81700 44.62400
H  41.63700 5.12000 44.22600
H  39.27900 6.30000 45.54300
H  38.75600 5.27300 44.39800
H  43.87000 -2.57200 46.66600
H  42.76000 -1.21700 46.89200
H  43.43300 -2.01500 48.24200
H  48.78000 -2.96600 47.73400
H  48.83000 -1.46200 48.44100
H  48.80400 -1.53200 46.63200
H  50.52500 2.06100 46.05000
H  50.39000 4.66000 47.70300
H  51.33800 3.09500 48.43700
H  51.17300 1.36500 48.19400
H  49.96600 2.35000 49.08600
H  50.27100 5.25700 45.05900
H  51.37000 3.83600 45.15600
H  52.39600 5.59000 47.15700
H  52.40400 6.48200 45.67800
H  53.10000 5.04800 45.55900
H  48.62300 8.82900 46.42500
H  47.46300 9.68000 47.56200
H  47.35400 9.79700 45.73100
H  42.07100 7.84600 45.79600
H  40.14000 10.00900 49.12000
H  40.42700 8.57200 49.81200
H  39.10500 8.61800 48.57300
Mg 1.54700 42.95700 26.02100
C  3.63300 43.16100 28.72500
C  -1.05000 42.03700 28.04200
C  -0.43900 42.31100 23.20300
C  4.20900 43.62000 23.83500
N  1.36900 42.61700 28.07900
C  2.30700 42.90400 29.05700
C  1.74800 42.84200 30.48100
C  0.27700 42.38700 30.18700
C  0.19900 42.30600 28.68100
C  -0.18100 41.15600 30.96800
C  1.83100 44.25300 31.16300
C  2.12100 44.22100 32.65400
H  1.84400 42.90200 33.45300
N  -0.42200 42.15800 25.61500
C  -1.28200 41.92000 26.64100
C  -2.59300 41.57500 26.04600
C  -2.49400 41.65600 24.63600
C  -1.04500 42.02200 24.41700
C  -3.75900 41.24200 26.91400
C  -3.52200 41.45500 23.52300
O  -3.21800 41.55300 22.32600
C  -4.88600 41.27200 23.89600
N  1.80300 42.97200 23.79100
C  0.84800 42.70400 22.84700
C  1.40600 42.78500 21.43700
C  2.86000 43.35200 21.68700
C  3.01100 43.26800 23.19500
C  1.40900 41.47100 20.68500
C  3.09300 44.80500 21.14700
C  4.33800 44.99200 20.29500
N  3.53700 43.37300 26.21400
C  4.50400 43.60000 25.26400
C  5.75400 43.71600 25.96500
C  5.49300 43.60500 27.34400
C  4.16400 43.31300 27.41100
C  7.07900 43.83000 25.24100
C  6.05100 43.57800 28.63900
O  7.18100 43.74000 28.98800
C  4.86700 43.38000 29.75300
C  5.15100 42.15600 30.53700
O  4.92800 40.99500 30.31000
O  5.63900 42.51300 31.73800
C  5.88200 41.47500 32.78900
H  -1.90400 41.82500 28.68900
H  -1.03700 42.11300 22.31100
H  5.05200 43.96000 23.22900
H  2.35600 42.11400 31.01700
H  -0.41800 43.19800 30.40400
H  -1.11300 41.42100 31.46700
H  0.68900 40.87400 31.56100
H  -0.52400 40.32400 30.35400
H  0.99100 44.88300 30.86900
H  2.65700 44.84600 30.77100
H  1.42900 44.92700 33.11400
H  3.13700 44.57700 32.82500
H  -3.41000 40.62500 27.74200
H  -4.65900 40.73700 26.56400
H  -4.17700 42.18700 27.26200
H  -5.51700 41.40800 23.01800
H  -5.04200 42.13100 24.54800
H  -5.13000 40.34100 24.40800
H  0.84100 43.59300 20.97100
H  3.69900 42.75400 21.33100
H  0.60200 41.58400 19.96200
H  1.15200 40.64500 21.34800
H  2.37500 41.18400 20.27000
H  3.27800 45.41900 22.02900
H  2.30300 45.30800 20.58900
H  4.81500 44.04300 20.04800
H  5.11200 45.48200 20.88600
H  4.24100 45.48600 19.32900
H  7.78800 44.23500 25.96300
H  6.97800 44.61300 24.49000
H  7.51100 42.89100 24.89300
H  4.66200 44.19200 30.45000
H  6.80900 40.96300 32.53100
H  5.12500 40.69200 32.83400
H  6.06900 41.84900 33.79600

