158

Mg 9.03400 2.55900 27.10300
C  10.33600 1.17100 30.04500
C  7.03500 4.62200 28.96000
C  7.81500 3.74600 24.24900
C  10.88900 0.05000 25.28200
N  8.66500 2.77500 29.29900
C  9.34100 2.13900 30.30500
C  9.16500 2.87700 31.66400
C  7.86700 3.79800 31.28400
C  7.83500 3.75500 29.74600
C  6.53200 3.30500 31.99700
C  10.43400 3.57200 32.23000
C  10.15600 4.40100 33.45000
H  10.85400 4.05100 34.75200
N  7.61000 4.05800 26.70200
C  6.89800 4.74800 27.56900
C  5.99400 5.65800 26.84700
C  6.29000 5.46700 25.44800
C  7.29400 4.38200 25.39600
C  5.08000 6.67800 27.40900
C  5.77100 6.18100 24.10500
O  6.21200 5.93700 22.95500
C  4.73900 7.34400 24.22700
N  9.37700 2.00600 25.06400
C  8.67100 2.67800 24.11300
C  9.17400 2.19300 22.71800
C  9.94800 0.94500 22.99800
C  10.20500 0.99400 24.51400
C  8.02500 1.96700 21.67700
C  11.16200 0.70900 21.98600
C  11.09900 -0.50300 21.04200
N  10.24600 0.93100 27.50700
C  10.98700 0.07700 26.69600
C  11.80200 -0.80500 27.53700
C  11.58800 -0.35500 28.85300
C  10.62400 0.69100 28.80400
C  12.56100 -2.01300 27.19700
C  12.03800 -0.61500 30.17700
O  12.84000 -1.39100 30.71400
C  11.24600 0.49900 30.98600
C  10.51000 -0.05500 32.09400
O  9.46100 -0.71200 31.96500
O  11.07200 0.17400 33.26900
C  10.28800 -0.01300 34.39500
H  6.43900 5.40600 29.43100
H  7.47100 4.03000 23.25200
H  11.36400 -0.68600 24.62900
H  8.82200 2.14500 32.39500
H  8.05400 4.82300 31.60400
H  5.77500 3.35900 31.21400
H  6.27700 4.09700 32.70200
H  6.35600 2.32700 32.44500
H  10.72200 4.21400 31.39900
H  11.34700 3.02100 32.45400
H  9.07700 4.38100 33.60600
H  10.54300 5.38600 33.18900
H  5.57400 7.61300 27.14400
H  5.03100 6.50700 28.48500
H  4.17300 6.66500 26.80600
H  5.01300 8.08500 24.97800
H  3.73500 6.93700 24.34200
H  4.76000 7.86000 23.26700
H  9.85500 2.90800 22.25600
H  9.25600 0.10700 22.91700
H  7.08200 2.33000 22.08600
H  7.88700 0.91600 21.42300
H  8.33400 2.52600 20.79300
H  12.04300 0.67400 22.62500
H  11.25300 1.58900 21.35000
H  11.59200 -1.24900 21.66500
H  11.62600 -0.29900 20.11000
H  10.06300 -0.82300 20.93400
H  13.40400 -2.27100 27.83700
H  12.80900 -1.79300 26.15900
H  11.83200 -2.82200 27.15600
H  11.99900 1.20200 31.34400
H  9.36800 -0.58300 34.27000
H  10.06100 0.97600 34.79200
H  10.67400 -0.54100 35.26700
Mg 47.15200 16.22700 28.51800
C  45.15900 15.88600 31.34700
C  49.55100 17.89900 30.41700
C  48.94600 16.87500 25.62900
C  44.41900 15.17800 26.62700
N  47.29200 16.74800 30.61500
C  46.38100 16.47400 31.59000
C  46.86600 16.99500 32.93800
C  48.10900 17.78100 32.57300
C  48.39100 17.47500 31.11000
C  48.11100 19.34500 32.84900
C  47.06400 15.76600 33.97400
C  46.34500 15.96900 35.34900
H  46.63400 17.29200 36.18200
N  49.10100 17.09400 28.10700
C  49.92600 17.68300 29.01700
C  51.23700 17.83700 28.39100
C  51.08800 17.61400 27.01700
C  49.65400 17.13800 26.83700
C  52.45500 18.36600 29.24600
C  52.12600 17.78600 25.86400
O  51.93800 17.36200 24.75500
C  53.44600 18.63000 26.09300
N  46.79200 16.06400 26.43300
C  47.64600 16.33400 25.40000
C  46.99500 16.00500 24.00700
C  45.64800 15.27100 24.46800
C  45.56200 15.57300 25.89200
C  46.91200 17.30400 23.18600
C  45.74400 13.71700 24.32100
C  45.55800 13.18600 22.86200
N  45.17300 15.70500 28.86900
C  44.14900 15.25600 28.00700
C  42.92700 14.88500 28.74300
C  43.32100 15.12400 30.05200
C  44.66700 15.55900 30.11500
C  41.63100 14.41300 28.26200
C  42.79400 15.05500 31.36000
O  41.68300 14.83800 31.78600
C  44.05900 15.58000 32.30000
C  43.56900 16.84600 32.95100
O  43.58700 18.00200 32.53900
O  42.94200 16.55100 34.09700
C  42.09400 17.52600 34.84800
H  50.22200 18.40200 31.11600
H  49.40300 17.05500 24.65300
H  43.61300 14.79200 26.00000
H  46.15500 17.70300 33.36400
H  48.99600 17.43800 33.10700
H  48.77700 19.49600 33.69900
H  47.10000 19.64700 33.12500
H  48.49000 19.81300 31.94100
H  48.13500 15.82800 34.16500
H  46.88500 14.75800 33.60000
H  46.53500 15.11600 36.00100
H  45.26200 15.90600 35.24700
H  53.14100 19.00300 28.68800
H  53.07800 17.47800 29.34800
H  52.23100 18.70800 30.25600
H  54.05700 17.95000 26.68600
H  53.24200 19.54800 26.64400
H  53.83000 18.87300 25.10300
H  47.70700 15.29000 23.59400
H  44.83900 15.74400 23.91100
H  45.91000 17.53800 22.82600
H  47.71800 17.25900 22.45400
H  47.15900 18.13200 23.85000
H  44.98800 13.23200 24.93900
H  46.66800 13.30800 24.72800
H  46.42100 12.59100 22.56400
H  45.49400 14.03800 22.18400
H  44.69900 12.53100 22.71900
H  41.44200 14.98100 27.35200
H  40.87600 14.73900 28.97700
H  41.71000 13.33200 28.14200
H  44.29900 14.85400 33.07700
H  41.85200 18.47500 34.37000
H  42.57700 17.79700 35.78600
H  41.24300 16.89300 35.09800

