158

Mg 29.61100 57.81700 40.80300
C  26.90600 55.79100 40.03000
C  31.64200 55.14900 39.91400
C  32.15200 59.97300 40.97100
C  27.41100 60.47600 41.54200
N  29.27000 55.68800 39.97200
C  28.10500 55.03100 39.82400
C  28.30800 53.54200 39.43300
C  29.81500 53.39200 39.69000
C  30.29000 54.78900 39.86800
C  30.14600 52.38800 40.84400
C  27.81400 53.11300 37.97100
C  28.19400 53.90800 36.75900
H  27.24900 54.83500 36.09600
N  31.64800 57.58800 40.44600
C  32.32600 56.42500 40.11100
C  33.73400 56.71500 39.93200
C  33.87400 58.12300 40.14200
C  32.54700 58.60300 40.55500
C  34.70400 55.71400 39.44400
C  35.13200 58.82000 39.85900
O  36.19700 58.15600 39.55200
C  35.22600 60.33900 39.90200
N  29.72000 59.99300 41.14000
C  30.91500 60.55500 41.34500
C  30.71700 61.98700 41.75400
C  29.25100 62.05900 42.19600
C  28.74700 60.77300 41.63100
C  31.76600 62.51300 42.77000
C  28.53900 63.42100 41.95300
C  27.96600 64.17100 43.14900
N  27.62300 58.11400 40.80200
C  26.86100 59.27400 41.08400
C  25.41600 58.95100 40.99300
C  25.44600 57.57000 40.64700
C  26.75500 57.11600 40.45300
C  24.15700 59.87400 41.34000
C  24.53200 56.40400 40.28200
O  23.30300 56.24300 40.26200
C  25.49900 55.25000 40.03800
C  25.28000 54.08900 40.96700
O  25.44500 54.03800 42.19700
O  24.72400 53.00500 40.26400
C  24.24200 51.91600 41.13000
H  32.37900 54.36900 39.71500
H  32.84400 60.81700 41.00000
H  26.65000 61.12900 41.97400
H  27.82900 52.99500 40.24500
H  30.17300 52.92500 38.77300
H  29.34100 51.71800 41.14600
H  30.40800 53.02600 41.68800
H  31.02400 51.88100 40.44300
H  26.73600 53.03900 38.11400
H  28.26200 52.12900 37.83300
H  28.78400 53.31100 36.06300
H  28.80200 54.74200 37.10900
H  35.73100 55.74700 39.80900
H  34.82000 55.89500 38.37500
H  34.35800 54.68500 39.53800
H  34.33200 60.77600 39.45800
H  36.00600 60.68100 39.22200
H  35.40300 60.65000 40.93200
H  30.78800 62.58900 40.84800
H  29.24800 61.87700 43.27100
H  32.44200 61.67800 42.95800
H  31.37200 62.92700 43.69900
H  32.26300 63.23600 42.12400
H  27.77900 63.17300 41.21100
H  29.29300 64.05800 41.49000
H  28.33500 65.19600 43.15000
H  28.28700 63.75100 44.10200
H  26.88200 64.18600 43.27000
H  23.20500 59.54500 40.92400
H  24.34200 60.90600 41.04300
H  24.07200 59.81100 42.42500
H  25.15800 54.83700 39.08900
H  24.34900 51.00400 40.54200
H  23.19000 52.14700 41.29800
H  24.77300 51.88300 42.08100
Mg 36.32300 49.49600 25.76700
C  36.34200 47.70100 28.73300
C  34.67000 52.09700 27.45700
C  35.70200 51.07900 22.73400
C  37.23100 46.64200 24.07500
N  35.57900 49.81200 27.88900
C  35.85600 49.00200 28.97500
C  35.87300 49.82800 30.28200
C  35.06700 51.03400 29.85900
C  35.07900 51.03000 28.27500
C  33.65700 51.18400 30.38600
C  37.33900 50.02000 30.74500
C  37.64500 49.73700 32.20500
H  36.42200 49.80000 33.30100
N  35.48400 51.42800 25.23500
C  34.76900 52.22400 26.03400
C  34.18800 53.30700 25.28500
C  34.45800 53.08000 23.91500
C  35.27700 51.85000 23.89900
C  33.50900 54.49700 25.92300
C  33.98800 53.89300 22.64100
O  34.22900 53.55800 21.49200
C  33.07700 55.14300 22.82800
N  36.31000 48.97600 23.64200
C  36.25000 49.80700 22.59000
C  36.58400 49.18800 21.28600
C  37.21000 47.84700 21.78400
C  36.93000 47.83200 23.29500
C  35.40600 49.09000 20.29700
C  38.75200 47.76800 21.54000
C  39.31100 46.43300 20.91200
N  36.66700 47.57200 26.19900
C  37.16200 46.55300 25.47700
C  37.35600 45.35700 26.30000
C  37.05100 45.75200 27.60000
C  36.63800 47.08800 27.47700
C  37.98400 44.10500 25.72300
C  37.05900 45.35000 28.93400
O  37.19600 44.27200 29.47300
C  36.65700 46.65800 29.75100
C  35.63500 46.32700 30.78300
O  34.46300 46.37400 30.64600
O  36.30200 46.05200 31.95200
C  35.58000 45.40200 33.08400
H  34.20300 52.89600 28.03600
H  35.66500 51.63800 21.79600
H  37.50900 45.72400 23.55200
H  35.30300 49.29700 31.04600
H  35.56400 51.96800 30.12100
H  33.47400 52.22100 30.66800
H  33.50200 50.54100 31.25200
H  32.89200 50.94200 29.64700
H  37.72500 50.98800 30.42400
H  37.88900 49.23200 30.23300
H  38.27000 50.55700 32.55900
H  38.21300 48.80700 32.19900
H  33.78000 55.37200 25.33200
H  33.69800 54.61100 26.99000
H  32.44700 54.34500 25.72500
H  33.53600 56.10100 23.07600
H  32.41300 54.84300 23.63800
H  32.56600 55.26000 21.87200
H  37.35500 49.89900 20.99000
H  36.73100 46.98400 21.32200
H  34.54600 49.01000 20.96200
H  35.52200 48.18200 19.70600
H  35.25200 49.99300 19.70500
H  39.26400 47.87800 22.49600
H  39.01000 48.55500 20.83100
H  38.74700 45.53100 21.14900
H  40.36800 46.27000 21.12300
H  39.18500 46.78800 19.88900
H  37.60600 43.75600 24.76200
H  38.01900 43.27200 26.42500
H  39.06400 44.20800 25.61400
H  37.59100 46.88900 30.26500
H  34.56800 45.14400 32.77300
H  35.47600 46.16700 33.85300
H  36.25500 44.63100 33.45700

