158

Mg 17.26900 -2.44200 27.37700
C  15.93200 -0.33200 29.84900
C  18.84100 -4.17900 29.83400
C  18.72400 -4.10700 24.98400
C  15.62900 -0.45200 24.95700
N  17.42500 -2.19200 29.56000
C  16.70400 -1.37100 30.36600
C  16.96200 -1.61500 31.78400
C  17.88400 -2.86000 31.78400
C  18.08500 -3.10300 30.28500
C  19.24400 -2.79400 32.56600
C  15.61200 -1.71400 32.57800
C  15.74100 -1.15700 34.01000
H  16.99400 -0.62600 34.66200
N  18.54200 -4.05400 27.39000
C  19.07200 -4.59300 28.53000
C  19.90500 -5.71000 28.11900
C  19.88800 -5.72200 26.70800
C  19.07600 -4.59500 26.27400
C  20.46000 -6.77200 29.00700
C  20.50700 -6.71400 25.74900
O  20.17700 -6.67000 24.59400
C  21.34100 -7.85900 26.20100
N  17.01200 -2.52800 25.28200
C  17.85900 -3.20100 24.53400
C  17.87600 -2.80500 23.03100
C  16.70200 -1.71100 23.00900
C  16.32700 -1.58600 24.49200
C  19.25400 -2.26600 22.48300
C  15.51900 -1.94200 21.97600
C  15.10300 -0.74500 21.08900
N  16.03900 -0.70300 27.33000
C  15.35100 -0.14400 26.28500
C  14.54300 0.94600 26.77800
C  14.80500 0.98800 28.13300
C  15.71700 -0.05800 28.42600
C  13.72800 1.82500 25.88100
C  14.44200 1.68900 29.37700
O  13.74800 2.62400 29.63400
C  15.17500 0.84700 30.49400
C  16.08500 1.81800 31.32000
O  17.26000 2.01400 30.96100
O  15.46500 2.45000 32.33900
C  16.10600 3.60300 32.99900
H  19.32700 -4.69700 30.66300
H  19.31500 -4.56600 24.18900
H  15.22300 0.26500 24.24000
H  17.53700 -0.77700 32.17900
H  17.26800 -3.67700 32.16100
H  19.20400 -2.10800 33.41200
H  20.12700 -2.51400 31.99200
H  19.32800 -3.79300 32.99200
H  15.38500 -2.75900 32.79000
H  14.73200 -1.34600 32.05100
H  15.29600 -1.92300 34.64400
H  15.11000 -0.27400 34.11000
H  21.47100 -7.10400 28.77100
H  19.82800 -7.65800 28.95500
H  20.38300 -6.51600 30.06400
H  20.77000 -8.45900 26.91000
H  22.22000 -7.41300 26.66600
H  21.62900 -8.50700 25.37400
H  17.57100 -3.69300 22.47700
H  17.19000 -0.75100 22.84100
H  20.01000 -2.18000 23.26300
H  19.12600 -1.31200 21.97100
H  19.51700 -3.00900 21.73100
H  14.60000 -2.09000 22.54300
H  15.78000 -2.78900 21.34200
H  14.42700 -1.26400 20.40900
H  15.89400 -0.40300 20.42100
H  14.73200 0.08700 21.68800
H  14.30900 2.11500 25.00500
H  13.38900 2.66400 26.48900
H  12.92200 1.22700 25.45600
H  14.33000 0.56900 31.12300
H  16.71500 3.15400 33.78300
H  15.33800 4.18000 33.51500
H  16.68900 4.30900 32.40800
Mg -11.88400 38.04800 42.27600
C  -9.79800 35.35500 41.15500
C  -9.50100 40.16400 41.27700
C  -14.05000 40.50400 42.66400
C  -14.41800 35.68900 42.71600
N  -9.96400 37.77400 41.14200
C  -9.28800 36.59400 40.94600
C  -7.94600 36.88000 40.44700
C  -7.73000 38.41400 40.74300
C  -9.14400 38.84700 41.19400
C  -6.69400 38.66900 41.89800
C  -7.91500 36.49500 38.89500
C  -6.99400 35.34500 38.52900
H  -5.95400 35.61200 37.41500
N  -11.80200 40.11100 41.89700
C  -10.70400 40.75100 41.51900
C  -11.03100 42.19400 41.53700
C  -12.36700 42.29400 42.04800
C  -12.83000 40.95800 42.16000
C  -9.92200 43.24800 41.30400
C  -13.03900 43.53700 42.45400
O  -12.53900 44.60700 42.16500
C  -14.39100 43.74100 43.15100
N  -13.85200 38.11000 42.58700
C  -14.58200 39.22900 42.88900
C  -16.09100 39.05200 43.31700
C  -16.13000 37.50500 43.23000
C  -14.70700 37.02700 42.86000
C  -16.62700 39.63700 44.67400
C  -17.19500 36.94500 42.18900
C  -18.42700 36.38400 42.71900
N  -12.03000 35.91900 42.20500
C  -13.14700 35.09600 42.36400
C  -12.77600 33.77100 42.22200
C  -11.43100 33.76300 41.73900
C  -11.07900 35.10200 41.70000
C  -13.71000 32.61400 42.40200
C  -10.30300 32.96700 41.25600
O  -10.09900 31.81700 41.21200
C  -9.11300 33.98500 40.94500
C  -8.06400 33.62600 41.88600
O  -8.26300 33.72400 43.07800
O  -6.79900 33.32700 41.25100
C  -5.59900 32.93700 42.06900
H  -8.71600 40.90500 41.11500
H  -14.87300 41.17300 42.92400
H  -15.08500 34.87300 43.00200
H  -7.27000 36.27300 41.05000
H  -7.26200 38.86600 39.86900
H  -5.77100 38.09500 41.81400
H  -6.98000 38.56300 42.94400
H  -6.39700 39.71200 41.79000
H  -7.55900 37.30600 38.25900
H  -8.89000 36.20400 38.50500
H  -7.66900 34.53100 38.26500
H  -6.49500 34.88700 39.38300
H  -9.64800 43.81500 42.19300
H  -10.31700 43.86000 40.49300
H  -9.00300 42.81000 40.91400
H  -14.53000 43.05200 43.98300
H  -15.09300 43.35200 42.41300
H  -14.65200 44.76600 43.41700
H  -16.69400 39.47400 42.51300
H  -16.44700 37.15500 44.21300
H  -17.09200 38.90100 45.33000
H  -17.33900 40.44000 44.48400
H  -15.71600 40.01300 45.14000
H  -16.75100 36.22200 41.50500
H  -17.55000 37.68700 41.47400
H  -18.62200 35.43900 42.21000
H  -19.27900 36.98800 42.40800
H  -18.41100 36.10900 43.77300
H  -14.75800 32.85500 42.22700
H  -13.46800 32.20200 43.38200
H  -13.50000 31.82800 41.67700
H  -8.79500 33.77200 39.92500
H  -5.89200 32.30900 42.91000
H  -4.89900 33.75300 42.24900
H  -5.00600 32.20900 41.51500

