158

Mg 1.86200 -1.87200 43.06700
C  5.33600 -1.21700 42.64400
C  1.26900 0.95600 41.23100
C  -1.33700 -2.95500 42.89900
C  2.80600 -4.97900 44.51500
N  3.15000 -0.30000 42.14800
C  4.51900 -0.22700 42.01400
C  4.98500 0.80200 41.00500
C  3.69000 1.75600 40.91000
C  2.62200 0.80300 41.54700
C  3.68400 3.16600 41.57300
C  5.32000 0.06100 39.69400
C  6.40500 0.76700 38.83000
H  6.25000 1.05100 37.38600
N  0.11800 -1.07300 42.19400
C  0.08400 0.12300 41.51600
C  -1.33000 0.41200 41.15900
C  -2.12400 -0.69900 41.57000
C  -1.12400 -1.70300 42.21000
C  -1.72000 1.64000 40.45100
C  -3.65000 -0.92600 41.46400
O  -4.32400 -0.09100 40.87900
C  -4.31100 -2.30100 41.86600
N  0.94700 -3.78100 43.51500
C  -0.43200 -3.85500 43.49300
C  -0.92800 -5.17400 44.12600
C  0.45000 -5.76400 44.65400
C  1.46100 -4.79100 44.22100
C  -2.07900 -5.11400 45.18900
C  0.66500 -7.37400 44.46300
C  0.76400 -8.22900 45.71500
N  3.76200 -2.86200 43.63400
C  3.90600 -4.11900 44.14400
C  5.32500 -4.36200 44.34100
C  5.96600 -3.21900 43.83400
C  4.93800 -2.33800 43.34500
C  6.02700 -5.59200 44.85000
C  7.24900 -2.55200 43.53200
O  8.37000 -2.83200 43.78800
C  6.86500 -1.17000 42.75900
C  7.35600 -0.01700 43.64900
O  8.39300 0.54600 43.61000
O  6.39500 0.32500 44.55200
C  6.47800 1.56400 45.30900
H  1.13700 1.89500 40.68900
H  -2.36100 -3.33200 42.94400
H  2.99900 -5.98900 44.88400
H  5.85900 1.32600 41.39300
H  3.49100 1.88400 39.84600
H  4.62700 3.49100 42.01400
H  2.80800 3.10500 42.21900
H  3.44600 3.87300 40.77900
H  4.45300 -0.16900 39.07500
H  5.82300 -0.87700 39.92900
H  7.21200 0.03700 38.89600
H  6.76300 1.70400 39.25500
H  -1.68900 1.64800 39.36200
H  -0.98300 2.38800 40.74500
H  -2.69200 2.02100 40.76400
H  -5.31300 -2.38900 41.44400
H  -4.27100 -2.44000 42.94600
H  -3.74000 -3.06200 41.33400
H  -1.27700 -5.82300 43.32300
H  0.53100 -5.66800 45.73700
H  -2.79600 -4.30200 45.06800
H  -1.64000 -5.14600 46.18700
H  -2.64700 -6.04200 45.13600
H  1.63100 -7.47600 43.97000
H  -0.08800 -7.88000 43.85800
H  0.03000 -9.03400 45.66900
H  0.38100 -7.61800 46.53200
H  1.77600 -8.63300 45.69900
H  5.76200 -6.50500 44.31700
H  5.91700 -5.61700 45.93400
H  7.10900 -5.54600 44.72600
H  7.35700 -1.21700 41.78700
H  7.54000 1.74400 45.47600
H  5.95500 1.47300 46.26100
H  6.01900 2.39300 44.76900
Mg 46.99700 16.61800 29.10600
C  44.82400 16.03000 31.79700
C  49.03700 18.29800 31.29700
C  48.59300 17.97800 26.44900
C  44.58600 15.33600 27.01400
N  46.83600 17.09400 31.31900
C  45.93900 16.74300 32.21600
C  46.33700 17.15900 33.66000
C  47.65800 17.96000 33.45500
C  47.88700 17.76000 31.92000
C  47.69300 19.43700 33.81200
C  46.57800 15.86800 34.56000
C  46.11600 15.96300 35.99500
H  45.90300 17.34600 36.59200
N  48.77300 17.71400 28.90000
C  49.51200 18.24700 29.93000
C  50.65900 18.94100 29.28100
C  50.52500 18.74200 27.83300
C  49.26600 18.07400 27.66500
C  51.72500 19.65100 30.11000
C  51.50700 19.16100 26.78800
O  51.28300 18.98400 25.61400
C  52.86300 19.63500 27.09100
N  46.61100 16.72300 27.07500
C  47.41100 17.35900 26.14700
C  47.04100 17.07300 24.67300
C  45.87600 16.00200 24.89800
C  45.73400 15.90100 26.42800
C  46.65100 18.37400 23.89600
C  46.32000 14.55800 24.30600
C  45.22300 13.91900 23.37800
N  45.08200 15.78000 29.31600
C  44.33800 15.23500 28.37100
C  43.15700 14.67700 28.92600
C  43.33800 14.94200 30.31200
C  44.54000 15.61900 30.49800
C  42.12900 13.96400 28.23600
C  42.76600 14.73000 31.63200
O  41.72800 14.16200 31.93900
C  43.72300 15.43800 32.61200
C  42.97100 16.50400 33.31100
O  42.35000 17.41700 32.75700
O  43.06000 16.33000 34.69000
C  42.19400 17.29800 35.35800
H  49.76200 18.66200 32.02900
H  49.06800 18.46200 25.59300
H  43.89900 14.91400 26.27700
H  45.54700 17.83600 33.98600
H  48.52400 17.58700 34.00300
H  47.97700 20.06900 32.97100
H  48.41300 19.62200 34.60800
H  46.70800 19.72700 34.18000
H  47.61500 15.53000 34.57500
H  46.01200 15.04200 34.13100
H  46.92900 15.60500 36.62700
H  45.19300 15.41000 36.16800
H  52.32900 18.77700 30.35400
H  51.29900 19.97900 31.05800
H  52.27100 20.42600 29.57200
H  53.32800 19.79500 26.11800
H  53.35600 18.85600 27.67300
H  52.82500 20.58400 27.62500
H  47.94300 16.67800 24.20600
H  44.94500 16.29700 24.41300
H  47.00000 19.27000 24.40900
H  45.56500 18.38500 23.79600
H  46.92800 18.32900 22.84300
H  46.70600 14.00000 25.16000
H  47.05100 14.93300 23.59000
H  45.78700 13.63600 22.48900
H  44.41800 14.59400 23.08900
H  44.72200 13.06300 23.82900
H  41.36600 13.54500 28.89100
H  42.67100 13.13400 27.78300
H  41.58300 14.41700 27.40800
H  44.05000 14.66900 33.31300
H  41.12000 17.16200 35.23500
H  42.53600 18.28500 35.04800
H  42.38200 17.17500 36.42500

