158

Mg 34.45900 1.96400 30.33000
C  32.42700 3.02300 32.88900
C  37.16400 1.83000 32.50200
C  36.71000 1.80900 27.68100
C  31.97100 2.72300 27.98600
N  34.70200 2.53600 32.44100
C  33.63400 2.68800 33.33800
C  34.11700 2.63400 34.73400
C  35.68400 2.45200 34.64200
C  35.94500 2.29100 33.10600
C  36.63900 3.53400 35.26800
C  33.27200 1.65900 35.63400
C  32.70400 2.14500 37.02900
H  33.54100 3.25500 37.76500
N  36.51200 1.50400 30.13300
C  37.41800 1.47300 31.15800
C  38.68100 1.01300 30.71400
C  38.63000 1.09700 29.28300
C  37.23500 1.50500 28.96900
C  39.78500 0.51200 31.68900
C  39.80300 0.91900 28.30800
O  39.67700 1.16200 27.13400
C  41.18000 0.52300 28.83100
N  34.36600 2.13300 28.18200
C  35.35800 1.96000 27.32800
C  34.96300 2.24600 25.85700
C  33.39800 2.21800 25.92700
C  33.19300 2.35100 27.43400
C  35.48700 3.65200 25.30000
C  32.76300 0.80600 25.34900
C  31.33600 0.86500 24.76600
N  32.56800 2.80800 30.34200
C  31.65500 3.07500 29.34400
C  30.48200 3.54300 29.86400
C  30.70600 3.57100 31.26000
C  32.02200 3.12600 31.49000
C  29.22200 3.85300 29.08300
C  30.07000 3.79900 32.53600
O  28.93100 4.31900 32.66200
C  31.16000 3.48300 33.66100
C  31.24400 4.73100 34.29400
O  31.91000 5.71600 33.99500
O  30.58400 4.62400 35.50400
C  30.66500 5.65300 36.55500
H  37.94300 1.83500 33.26800
H  37.42500 1.80500 26.85500
H  31.07600 2.76600 27.36200
H  33.91300 3.62900 35.12800
H  35.94100 1.50500 35.11700
H  36.08500 4.22500 35.90300
H  36.97400 4.20900 34.48100
H  37.36900 3.14300 35.97800
H  33.83000 0.73800 35.80000
H  32.38400 1.38800 35.06300
H  32.59200 1.18200 37.52700
H  31.70500 2.58000 36.99200
H  40.59200 1.24400 31.67500
H  40.17500 -0.46100 31.39000
H  39.53200 0.54300 32.74900
H  41.56600 1.31700 29.46900
H  41.87100 0.49200 27.98900
H  41.18000 -0.47000 29.28100
H  35.23300 1.34600 25.30500
H  32.94100 3.08500 25.45000
H  35.83000 4.07500 26.24400
H  34.68300 4.26100 24.88500
H  36.30400 3.54500 24.58700
H  32.88300 0.03100 26.10600
H  33.39200 0.62100 24.47800
H  31.27800 0.80200 23.67900
H  30.92100 1.82700 25.06800
H  30.87700 0.00600 25.25400
H  28.65500 3.01600 28.67700
H  29.58200 4.55400 28.33000
H  28.56600 4.42100 29.74300
H  30.87800 2.71400 34.38000
H  29.78100 6.28300 36.45200
H  31.58000 6.22100 36.39200
H  30.72300 5.18400 37.53800
Mg 16.68300 51.76100 26.87900
C  18.73200 50.58100 29.48000
C  14.45200 52.90000 29.31500
C  14.63500 52.90400 24.42600
C  19.17100 50.88200 24.54000
N  16.65300 51.76500 29.16800
C  17.58700 51.17100 30.03200
C  17.14000 51.19800 31.50300
C  15.59000 51.59600 31.21900
C  15.55700 52.18900 29.80800
C  14.63500 50.38400 31.46300
C  17.92200 52.35200 32.31200
C  18.14200 51.97500 33.78500
H  17.17200 52.34000 34.95100
N  14.79600 52.74500 26.87900
C  14.10100 53.20400 27.99300
C  12.94900 53.95000 27.50800
C  12.89200 53.89400 26.10900
C  14.13900 53.06800 25.73300
C  12.05300 54.66000 28.55400
C  11.88300 54.55100 25.21200
O  12.01700 54.40900 23.97300
C  10.68700 55.33500 25.73000
N  16.89400 51.88800 24.77200
C  15.88700 52.39100 23.94500
C  16.25300 52.21900 22.37200
C  17.72100 51.55800 22.53400
C  17.97200 51.41400 24.03200
C  15.13300 51.33700 21.75900
C  18.87000 52.28500 21.85400
C  19.85300 51.30600 21.22700
N  18.55700 50.99300 26.93700
C  19.53800 50.69300 25.89800
C  20.67300 50.09000 26.38300
C  20.38600 50.05900 27.77800
C  19.10900 50.60100 28.05900
C  21.93000 49.61700 25.51800
C  20.90400 49.69900 29.08200
O  22.00800 49.21300 29.32800
C  19.84800 49.91500 30.23300
C  19.60700 48.59900 30.86700
O  18.91200 47.65500 30.44800
O  20.20500 48.51900 32.03500
C  19.90300 47.44000 32.97800
H  13.85900 53.33700 30.12100
H  13.89800 53.08500 23.64100
H  19.97600 50.58700 23.86400
H  17.20800 50.23800 32.01400
H  15.40000 52.34300 31.98900
H  13.87400 50.29200 30.68800
H  14.09300 50.44600 32.40700
H  15.13900 49.43000 31.31400
H  17.41900 53.31900 32.33800
H  18.85500 52.59100 31.80200
H  19.08200 52.38200 34.15800
H  18.26400 50.89200 33.76000
H  11.02800 54.71800 28.18700
H  12.28600 55.70300 28.76700
H  12.12300 54.18800 29.53400
H  11.10300 55.98900 26.49600
H  9.89200 54.65700 26.04100
H  10.31600 56.01900 24.96600
H  16.22200 53.21100 21.92200
H  17.61500 50.52600 22.20000
H  15.46500 50.62900 21.00000
H  14.32900 51.95200 21.35600
H  14.64600 50.75500 22.54200
H  19.46600 52.93700 22.49300
H  18.61500 52.97200 21.04700
H  19.86600 51.51900 20.15800
H  19.58900 50.25100 21.30900
H  20.85600 51.55400 21.57400
H  22.73900 49.97900 26.15200
H  21.92900 50.08000 24.53200
H  21.96600 48.52900 25.45200
H  20.40000 50.61100 30.86500
H  20.19100 47.79600 33.96700
H  20.57900 46.59700 32.83300
H  18.90000 47.02800 32.86300

