158

Mg 29.13600 56.66400 41.21000
C  26.38800 54.85200 39.77000
C  31.21600 54.44300 39.92000
C  31.39900 59.14800 41.27600
C  26.67900 59.21900 41.91400
N  28.79000 54.95700 39.77200
C  27.67300 54.30700 39.52300
C  28.05700 53.05000 38.65200
C  29.49800 52.64500 39.23100
C  29.88100 54.10200 39.65900
C  29.49400 51.60200 40.38400
C  28.10900 53.49900 37.16000
C  27.02600 52.89300 36.25600
H  26.34500 53.80800 35.25700
N  31.03400 56.68100 40.88300
C  31.72700 55.64500 40.33100
C  33.12200 56.01400 40.41400
C  33.21900 57.35400 40.74900
C  31.86900 57.80900 40.97600
C  34.21800 54.99200 40.01400
C  34.55500 58.07500 40.69900
O  35.63400 57.57000 40.41400
C  34.66700 59.48200 41.00000
N  29.08300 58.92800 41.57300
C  30.18300 59.65100 41.64900
C  29.93900 61.08800 42.06400
C  28.41800 61.03600 42.50000
C  28.03300 59.66400 41.89900
C  30.92300 61.60000 43.16500
C  27.56300 62.23400 41.92600
C  26.80600 62.99600 42.93000
N  27.00300 57.01800 40.98300
C  26.17100 58.04000 41.35600
C  24.74500 57.77100 41.02600
C  24.85800 56.42200 40.52000
C  26.25400 56.06700 40.44300
C  23.57700 58.64700 41.31300
C  24.08700 55.33300 40.02600
O  22.88400 55.24200 39.86000
C  25.00400 54.23100 39.52500
C  24.75800 53.10400 40.32400
O  25.27500 52.86300 41.41200
O  23.90100 52.15200 39.64100
C  23.58300 50.98600 40.49900
H  31.92400 53.64800 39.67700
H  32.14000 59.94700 41.34100
H  26.00900 60.01900 42.23700
H  27.38100 52.19900 38.74000
H  30.10500 52.37700 38.36700
H  29.83100 50.64100 39.99600
H  28.54700 51.50700 40.91500
H  30.12400 51.86500 41.23400
H  29.05800 53.27300 36.67600
H  27.89600 54.56800 37.16900
H  26.32000 52.30600 36.84200
H  27.51200 52.14400 35.63000
H  34.68200 55.35500 39.09700
H  33.79000 54.00700 39.82200
H  34.95500 54.85700 40.80500
H  34.09100 60.14000 40.34900
H  35.71500 59.74100 41.15700
H  34.31900 59.57100 42.02900
H  30.14500 61.62200 41.13600
H  28.31600 60.82500 43.56500
H  31.52600 62.38600 42.71000
H  31.61000 60.90200 43.64500
H  30.24000 62.11800 43.83700
H  26.88600 61.79400 41.19400
H  28.19700 62.84300 41.28200
H  26.89600 62.59000 43.93700
H  25.76800 62.80800 42.65400
H  27.10100 64.04100 42.83700
H  23.10200 58.53400 42.28800
H  22.87600 58.43400 40.50600
H  23.94000 59.66300 41.15800
H  24.79800 54.02100 38.47500
H  23.55300 51.25300 41.55600
H  24.34600 50.21500 40.39400
H  22.65100 50.49400 40.21800
Mg -1.70900 33.58900 27.29200
C  -3.74500 31.91400 29.60200
C  -0.62400 35.63500 29.80900
C  -0.15800 35.44500 25.01200
C  -3.19600 31.73700 24.68900
N  -2.11500 33.75100 29.46700
C  -2.94000 32.92700 30.19700
C  -2.90600 33.35200 31.66400
C  -2.07600 34.66100 31.62900
C  -1.54700 34.70000 30.21800
C  -2.90700 35.86200 32.09000
C  -2.35500 32.18100 32.53800
C  -3.22800 31.76900 33.69000
H  -2.63300 31.67000 35.10600
N  -0.46900 35.22700 27.43600
C  -0.09000 35.96200 28.53000
C  0.76600 37.04900 28.13300
C  0.93200 36.89400 26.79800
C  0.10200 35.83200 26.33300
C  1.28300 38.15500 29.14600
C  1.80800 37.78000 25.82900
O  2.02700 37.57700 24.65700
C  2.65200 38.89400 26.39700
N  -1.65400 33.57800 25.28200
C  -1.05000 34.52300 24.51000
C  -1.28700 34.36200 22.96100
C  -2.00300 32.98600 22.90200
C  -2.29000 32.70900 24.39200
C  -2.06800 35.47700 22.34600
C  -1.23500 31.89000 22.09000
C  -0.21000 31.07400 22.95400
N  -3.18600 32.09800 27.11400
C  -3.67400 31.40800 25.97500
C  -4.53500 30.35600 26.42400
C  -4.50900 30.53200 27.83700
C  -3.78900 31.62900 28.18600
C  -5.20300 29.37200 25.69500
C  -5.13500 30.02100 29.01500
O  -5.83000 29.04200 29.08300
C  -4.68300 30.93800 30.28900
C  -5.93000 31.55100 30.70400
O  -6.71100 32.21400 30.02800
O  -6.22600 31.20300 31.96200
C  -7.29600 31.76400 32.75400
H  -0.27700 36.37700 30.53200
H  0.24800 36.09700 24.23600
H  -3.52000 31.07200 23.88500
H  -3.93600 33.48400 31.99500
H  -1.30500 34.49800 32.38200
H  -2.54800 36.70800 31.50400
H  -2.80500 36.05100 33.15900
H  -3.97800 35.84500 31.88900
H  -1.40400 32.40600 33.02000
H  -2.13800 31.35800 31.85600
H  -3.54100 30.75700 33.43400
H  -4.14800 32.34000 33.81300
H  2.35300 38.27400 28.97400
H  1.10400 37.98300 30.20800
H  0.67100 39.05100 29.03600
H  2.11400 39.55200 27.07900
H  3.08700 39.46000 25.57400
H  3.46200 38.36200 26.89500
H  -0.33100 34.29000 22.44300
H  -3.01300 33.02600 22.49400
H  -2.73800 35.07800 21.58500
H  -1.37800 36.15600 21.84500
H  -2.58700 35.89700 23.20800
H  -0.70000 32.25700 21.21400
H  -2.00400 31.21900 21.70600
H  0.67900 30.71100 22.44000
H  -0.65500 30.15600 23.33800
H  0.20300 31.76000 23.69400
H  -4.56100 28.90300 24.94900
H  -6.00700 29.83000 25.11900
H  -5.52800 28.58800 26.37900
H  -4.19500 30.30000 31.02600
H  -8.11600 32.23300 32.21000
H  -6.90400 32.56200 33.38500
H  -7.70500 31.04800 33.46600

