158

Mg 16.64500 53.54600 25.56500
C  17.92300 51.81800 28.39700
C  14.31300 54.85300 27.56500
C  15.11500 54.57700 22.83800
C  19.01200 51.71600 23.62500
N  16.23600 53.41500 27.74000
C  16.92600 52.73000 28.72500
C  16.48300 53.26800 30.10000
C  15.17200 53.97200 29.75900
C  15.20900 54.12100 28.26700
C  13.91300 53.26100 30.39700
C  17.55500 54.12900 30.82400
C  17.96700 53.76400 32.31400
H  17.01600 52.86900 33.08100
N  15.00700 54.71800 25.22900
C  14.15800 55.12600 26.18000
C  13.01800 55.81300 25.58800
C  13.27600 55.82800 24.19200
C  14.49800 55.03700 24.03400
C  11.89800 56.24400 26.53300
C  12.43100 56.39300 23.06300
O  12.80500 56.23400 21.91200
C  11.18100 57.29600 23.35100
N  17.19000 53.41100 23.53800
C  16.35400 53.89500 22.55400
C  16.67200 53.37400 21.12700
C  18.05200 52.65300 21.39100
C  18.17900 52.63800 22.93700
C  15.55800 52.45100 20.53100
C  19.25900 53.42400 20.80800
C  19.65200 53.08000 19.40600
N  18.10900 51.95300 25.87200
C  19.00900 51.41300 25.00800
C  19.97300 50.54700 25.78200
C  19.49600 50.64100 27.09500
C  18.41700 51.53300 27.12900
C  21.16700 49.92600 25.21200
C  19.84000 50.32800 28.48600
O  20.74300 49.63800 28.96900
C  18.82400 51.15900 29.40900
C  18.10300 50.21100 30.28800
O  16.99300 49.76000 30.07900
O  19.00400 49.74200 31.25900
C  18.54500 48.73900 32.18000
H  13.58100 55.23300 28.28100
H  14.63800 54.88800 21.90600
H  19.81000 51.30600 23.00200
H  16.31000 52.39500 30.73000
H  15.12200 54.97900 30.17200
H  14.17700 52.26700 30.75700
H  13.20600 53.01200 29.60500
H  13.34900 53.94600 31.02900
H  17.21100 55.16100 30.89800
H  18.46100 54.15600 30.21900
H  18.06600 54.71800 32.83100
H  19.00000 53.42600 32.40200
H  11.62700 55.55900 27.33700
H  10.96800 56.53100 26.04200
H  12.27000 57.20000 26.90200
H  11.30200 57.92400 24.23400
H  10.37700 56.62100 23.64300
H  10.92900 58.00000 22.55800
H  16.71900 54.29200 20.54100
H  17.94600 51.62700 21.04100
H  15.30200 52.84000 19.54600
H  14.56800 52.50300 20.98300
H  15.85500 51.40900 20.40400
H  20.14200 53.39800 21.44600
H  19.00700 54.48300 20.86500
H  20.73900 53.16700 19.38600
H  19.19400 53.81200 18.74100
H  19.46300 52.07000 19.04300
H  21.91400 50.00600 26.00200
H  21.60100 50.39700 24.33000
H  20.89500 48.91000 24.92900
H  19.44400 51.92000 29.88300
H  18.06900 49.15000 33.07100
H  19.42000 48.18300 32.51600
H  17.82200 48.08300 31.69500
Mg -5.45500 24.86400 25.57200
C  -3.75000 26.36300 28.20800
C  -6.93500 22.80000 27.86600
C  -6.92800 23.35200 23.01500
C  -3.66800 27.09300 23.37200
N  -5.33200 24.64600 27.84000
C  -4.67600 25.49800 28.69500
C  -5.23500 25.31900 30.14600
C  -5.95400 23.89500 30.01900
C  -6.12300 23.74600 28.47700
C  -5.12600 22.76700 30.63900
C  -5.96800 26.60100 30.54400
C  -5.43300 27.32300 31.79000
H  -5.06900 26.50200 32.99500
N  -6.73200 23.26300 25.47300
C  -7.16700 22.51600 26.51800
C  -7.97000 21.47000 25.97400
C  -7.99400 21.61200 24.57300
C  -7.15600 22.78500 24.27800
C  -8.65100 20.41500 26.90000
C  -8.75700 20.77500 23.58800
O  -8.54100 20.79900 22.39200
C  -9.80600 19.72500 23.99900
N  -5.22000 25.06600 23.48900
C  -6.03200 24.40100 22.61100
C  -5.87400 24.97700 21.19200
C  -4.84100 26.07400 21.31300
C  -4.59600 26.13000 22.83400
C  -5.47100 23.99100 20.07100
C  -5.29400 27.42500 20.81400
C  -5.51300 27.51000 19.30100
N  -3.91200 26.32000 25.63800
C  -3.27200 27.09300 24.72100
C  -2.20600 27.89700 25.30500
C  -2.39700 27.64000 26.66300
C  -3.48200 26.75900 26.83300
C  -1.29300 28.78100 24.58800
C  -1.87300 27.98900 27.94800
O  -0.88700 28.66800 28.28900
C  -2.89800 27.35300 29.01400
C  -2.21200 26.64600 30.13600
O  -1.85600 25.49900 30.16500
O  -2.01600 27.53300 31.15500
C  -1.19700 27.16800 32.30600
H  -7.48100 22.20000 28.59700
H  -7.42200 22.85900 22.17500
H  -3.03800 27.64000 22.66700
H  -4.34000 25.33700 30.76700
H  -6.94200 23.91300 30.47800
H  -4.65000 23.13800 31.54600
H  -4.41600 22.36700 29.91400
H  -5.81500 21.96600 30.90500
H  -7.03900 26.52900 30.73400
H  -5.87400 27.34100 29.75000
H  -6.25300 27.95800 32.12400
H  -4.74300 28.13100 31.54600
H  -9.71900 20.63500 26.89400
H  -8.41800 20.39600 27.96500
H  -8.49100 19.46600 26.38900
H  -9.52700 18.82100 24.53900
H  -10.20100 19.26900 23.09100
H  -10.62600 20.20200 24.53500
H  -6.88400 25.25700 20.89200
H  -3.88000 25.89300 20.83200
H  -6.09400 24.28100 19.22500
H  -5.70300 22.95700 20.32500
H  -4.39500 24.14700 19.99100
H  -4.47600 28.10600 21.04900
H  -6.14600 27.69700 21.43800
H  -5.52200 26.47800 18.94900
H  -4.72300 28.08900 18.82400
H  -6.46900 28.03400 19.28500
H  -1.84600 29.10000 23.70500
H  -0.38200 28.31900 24.20600
H  -1.04000 29.58000 25.28500
H  -3.49500 28.18600 29.38600
H  -0.21600 27.07200 31.84100
H  -1.46100 26.21300 32.76000
H  -1.17200 27.91300 33.10100

