158

Mg 24.64200 -7.11100 48.67000
C  27.13700 -5.12300 47.05400
C  22.54100 -6.47400 45.91900
C  22.61600 -9.58500 49.69600
C  27.16400 -8.14100 50.94700
N  24.87300 -5.96900 46.72200
C  25.96500 -5.24700 46.32100
C  25.64100 -4.55100 44.96700
C  24.11700 -4.84000 44.61200
C  23.79600 -5.79400 45.84400
C  23.19100 -3.58600 44.59300
C  26.56800 -4.95200 43.80900
C  27.39200 -3.92000 43.09900
H  27.21600 -3.69000 41.64100
N  22.68400 -7.76600 48.14500
C  22.04300 -7.28600 47.03200
C  20.70000 -7.89700 47.05200
C  20.63500 -8.81200 48.19000
C  22.03900 -8.82600 48.68200
C  19.69300 -7.73900 46.00500
C  19.49800 -9.63200 48.79600
O  18.39300 -9.62700 48.30600
C  19.61500 -10.33500 50.10700
N  24.86800 -8.57100 50.17000
C  23.88700 -9.60800 50.33100
C  24.16600 -10.39000 51.63700
C  25.56000 -9.84200 52.12600
C  25.88100 -8.77700 51.06600
C  23.00000 -10.43700 52.70200
C  26.56000 -11.03700 52.31200
C  27.25300 -10.96300 53.66700
N  26.67500 -6.57900 49.11400
C  27.54600 -7.18800 49.95900
C  28.87900 -6.62800 49.83400
C  28.76800 -5.75800 48.72300
C  27.43400 -5.86700 48.27700
C  29.99600 -6.95900 50.76600
C  29.46700 -4.84000 47.86800
O  30.64200 -4.36400 47.98800
C  28.44000 -4.39300 46.73400
C  28.31200 -2.92000 46.97000
O  27.98400 -2.35500 48.03400
O  28.55200 -2.28200 45.79800
C  28.69800 -0.80400 45.88100
H  21.86300 -6.28400 45.08400
H  22.13100 -10.43800 50.17300
H  27.90800 -8.54300 51.63700
H  25.75400 -3.48700 45.17800
H  24.00100 -5.39200 43.67900
H  22.64900 -3.56100 43.64800
H  23.62400 -2.61500 44.83700
H  22.40900 -3.64700 45.35000
H  26.00400 -5.41000 42.99600
H  27.23400 -5.69700 44.24500
H  28.45400 -4.16100 43.07400
H  27.17900 -2.96800 43.58600
H  18.68700 -7.71000 46.42300
H  19.77000 -8.56300 45.29700
H  19.81800 -6.76800 45.52600
H  20.09800 -11.29600 49.92800
H  18.59900 -10.51700 50.45600
H  20.16300 -9.64700 50.75100
H  24.28000 -11.41800 51.29200
H  25.48500 -9.30700 53.07200
H  22.12400 -9.91900 52.31300
H  23.36500 -9.89100 53.57100
H  22.66800 -11.42800 53.01300
H  27.36600 -10.85100 51.60200
H  26.15100 -12.04000 52.18900
H  28.29100 -10.73300 53.42700
H  27.18400 -11.93700 54.15300
H  26.93300 -10.28800 54.46000
H  30.07900 -6.23600 51.57700
H  30.87300 -6.90500 50.12100
H  29.83500 -7.96100 51.16400
H  28.92600 -4.66500 45.79600
H  28.93600 -0.54200 44.85000
H  29.43900 -0.43700 46.59100
H  27.69100 -0.46300 46.12400
Mg 0.08700 43.10000 25.90800
C  2.17100 42.57500 28.59200
C  -2.60200 42.05200 28.01900
C  -1.98900 43.33300 23.22800
C  2.79600 43.91400 23.94400
N  -0.16800 42.37400 28.10400
C  0.85600 42.48100 29.02200
C  0.28200 42.37400 30.50600
C  -1.19100 41.91900 30.17700
C  -1.33100 42.19100 28.68900
C  -1.55500 40.45000 30.56400
C  0.53900 43.75600 31.33800
C  0.65300 43.70200 32.85800
H  0.58300 42.35500 33.55500
N  -2.06900 42.79200 25.71900
C  -2.94400 42.41500 26.68600
C  -4.29500 42.50000 26.10100
C  -4.14600 42.79100 24.69100
C  -2.68600 42.98200 24.49600
C  -5.55800 42.22600 26.99700
C  -5.15900 42.89100 23.61500
O  -4.84700 43.09500 22.47900
C  -6.62800 42.86900 23.82300
N  0.39900 43.39700 23.82300
C  -0.63000 43.57000 22.90800
C  -0.08700 44.11500 21.56100
C  1.38700 44.52800 22.00100
C  1.56600 43.88300 23.33000
C  -0.15200 43.06000 20.44700
C  1.55000 46.05800 22.01400
C  0.60400 46.78100 22.90900
N  2.04100 43.16200 26.15100
C  3.06200 43.46200 25.24000
C  4.37600 43.28800 25.87000
C  4.05300 42.92600 27.18500
C  2.61500 42.92100 27.28700
C  5.70400 43.46300 25.27200
C  4.65800 42.52200 28.52800
O  5.81800 42.19900 28.83300
C  3.43000 42.37900 29.53200
C  3.59100 41.04500 30.19900
O  3.07300 40.00300 29.86800
O  4.43600 41.17800 31.25200
C  4.59700 39.98600 32.13200
H  -3.42100 41.81700 28.70200
H  -2.60600 43.63300 22.37800
H  3.63500 44.25600 23.33500
H  0.76200 41.53600 31.01200
H  -1.95200 42.51500 30.68000
H  -1.29800 40.38000 31.62100
H  -0.94800 39.80300 29.93000
H  -2.60900 40.23600 30.38800
H  -0.33900 44.39600 31.24400
H  1.45700 44.19100 30.94300
H  -0.12200 44.34300 33.27800
H  1.63300 44.15800 32.99900
H  -6.41800 41.97600 26.37600
H  -5.76700 43.12900 27.57000
H  -5.16600 41.39000 27.57700
H  -6.96800 43.78400 24.30800
H  -6.96400 42.06200 24.47400
H  -7.28300 42.73200 22.96300
H  -0.66700 45.01300 21.34800
H  2.15600 44.06800 21.38000
H  -0.52100 43.50200 19.52100
H  -0.73200 42.16000 20.64700
H  0.84700 42.85200 20.06300
H  1.57600 46.48400 21.01000
H  2.50000 46.22200 22.52300
H  1.03000 47.24200 23.80100
H  -0.22000 46.11900 23.17300
H  0.17000 47.58600 22.31800
H  6.44600 42.87900 25.81600
H  6.11300 44.46700 25.15800
H  5.41600 43.03000 24.31400
H  3.40500 43.05100 30.39000
H  3.79200 40.02600 32.86600
H  5.51600 40.10200 32.70800
H  4.54000 39.08000 31.52800

