158

Mg 8.86500 3.05700 26.73000
C  10.11100 1.64300 29.72800
C  7.11100 5.31700 28.69700
C  7.35100 4.17900 24.02200
C  10.55200 0.59200 24.92200
N  8.63900 3.42000 29.01500
C  9.40400 2.78500 30.00500
C  9.02400 3.41100 31.37700
C  7.89700 4.45800 31.02600
C  7.83000 4.43800 29.46100
C  6.48900 4.15000 31.66600
C  10.20100 4.04200 32.20000
C  9.81700 4.58000 33.55200
H  10.25600 3.83800 34.81900
N  7.42700 4.59400 26.42500
C  6.93600 5.42400 27.33600
C  6.04100 6.40200 26.65400
C  6.06500 6.03700 25.29500
C  6.96900 4.87600 25.19000
C  5.19000 7.44600 27.31200
C  5.36800 6.76900 24.08600
O  5.30000 6.27800 22.96700
C  4.55900 8.09600 24.27200
N  8.88900 2.46300 24.76600
C  8.20700 3.09900 23.78500
C  8.30200 2.38600 22.45200
C  9.45600 1.42000 22.70400
C  9.65100 1.45400 24.21900
C  6.94400 1.64500 22.09000
C  10.73400 1.67000 21.97300
C  11.62000 0.48700 21.43700
N  10.06700 1.40400 27.21000
C  10.68200 0.50900 26.35800
C  11.41600 -0.47700 27.16300
C  11.32400 0.01200 28.50900
C  10.36000 1.06600 28.47000
C  12.30600 -1.46200 26.56500
C  11.72300 -0.19500 29.85900
O  12.52800 -0.92400 30.47500
C  11.00400 0.89500 30.67200
C  10.25200 0.24800 31.77900
O  9.18000 -0.35700 31.65500
O  10.81400 0.53600 32.97200
C  10.13600 0.04200 34.18500
H  6.55100 6.02200 29.31600
H  6.95900 4.59300 23.09100
H  11.07000 -0.15000 24.31000
H  8.63200 2.61100 32.00400
H  8.17500 5.49300 31.22200
H  5.76900 3.78900 30.93200
H  6.05300 5.08000 32.03000
H  6.56400 3.38500 32.44000
H  10.67100 4.91100 31.74200
H  11.09900 3.42500 32.19400
H  8.73800 4.67200 33.43000
H  10.34600 5.52200 33.69800
H  5.78500 8.35500 27.40600
H  4.89500 7.10100 28.30300
H  4.27000 7.78400 26.83500
H  3.62400 7.96400 24.81600
H  4.30700 8.54200 23.31000
H  5.28100 8.81200 24.66400
H  8.58700 3.11500 21.69400
H  9.18600 0.40200 22.42300
H  6.12300 1.90300 22.75900
H  7.10100 0.56700 22.14100
H  6.72200 1.85700 21.04500
H  11.49200 2.20600 22.54400
H  10.56900 2.36100 21.14700
H  11.19600 -0.49400 21.65200
H  12.58600 0.64200 21.91800
H  11.89000 0.59900 20.38700
H  11.67400 -2.04800 25.89700
H  12.75300 -2.05900 27.36000
H  13.10900 -0.94400 26.04200
H  11.72300 1.52000 31.20100
H  9.11900 0.43000 34.23900
H  10.67400 0.43900 35.04600
H  10.14800 -1.04700 34.15100
Mg 31.12600 58.45200 40.29600
C  28.18800 56.88500 39.44400
C  32.84500 55.58600 39.40200
C  33.96800 60.20100 39.86700
C  29.26600 61.38600 40.54300
N  30.60600 56.46300 39.47400
C  29.32100 56.03900 39.24800
C  29.37300 54.55100 38.83800
C  30.76000 54.13900 39.28000
C  31.48500 55.49500 39.37600
C  30.73900 53.45600 40.66100
C  29.07300 54.37600 37.31800
C  27.78000 53.77500 36.80000
H  27.04600 54.59100 35.74900
N  33.15400 57.94100 39.74300
C  33.64500 56.70600 39.43100
C  35.07500 56.78100 39.17300
C  35.40000 58.14400 39.28600
C  34.16300 58.80600 39.69000
C  35.89100 55.54000 38.81000
C  36.76000 58.75100 39.11800
O  37.72000 58.05300 38.81500
C  37.00800 60.16300 39.51800
N  31.56400 60.46800 40.27500
C  32.82000 60.96500 40.12600
C  32.77800 62.53600 40.03200
C  31.24600 62.88100 40.08300
C  30.61600 61.53500 40.44000
C  33.70600 63.36900 40.94200
C  30.60800 63.54300 38.75900
C  29.84800 64.87600 38.93800
N  29.05300 59.05800 40.22400
C  28.43700 60.25000 40.45600
C  27.03300 60.07600 40.34400
C  26.88200 58.75700 39.96000
C  28.15300 58.16600 39.95600
C  26.04900 61.18700 40.49700
C  25.94700 57.78300 39.47300
O  24.75700 57.97400 39.21200
C  26.72900 56.45000 39.26800
C  26.05600 55.45700 40.18900
O  26.13200 55.41500 41.37900
O  25.35900 54.55200 39.47200
C  24.57800 53.53900 40.18200
H  33.35500 54.63800 39.21900
H  34.74800 60.92500 39.62000
H  28.71800 62.28900 40.81800
H  28.64200 53.98400 39.41400
H  31.16800 53.51400 38.48600
H  30.01400 52.64500 40.72900
H  30.52900 54.15800 41.46700
H  31.72300 53.01000 40.81000
H  29.86000 53.77200 36.86600
H  29.26800 55.28800 36.75200
H  27.15600 53.75200 37.69300
H  28.04600 52.77900 36.44600
H  36.25400 55.79400 37.81500
H  35.36000 54.59200 38.73500
H  36.69400 55.44700 39.54200
H  36.67800 60.81900 38.71300
H  38.08800 60.30800 39.53500
H  36.69700 60.44000 40.52600
H  33.04000 62.71100 38.98800
H  31.00000 63.54100 40.91500
H  33.97300 62.70000 41.76000
H  33.18900 64.12800 41.52900
H  34.45600 63.98200 40.44200
H  29.91600 62.87800 38.24200
H  31.39400 63.78200 38.04300
H  29.94400 65.20800 39.97200
H  28.85500 64.81500 38.49300
H  30.38100 65.64100 38.37300
H  25.04700 60.84900 40.76100
H  26.04700 61.74000 39.55800
H  26.33500 61.73400 41.39500
H  26.66900 56.06700 38.24900
H  23.82200 53.83800 40.90900
H  25.29900 52.93200 40.72900
H  24.14600 52.87800 39.43100

