158

Mg 24.82800 -6.79100 47.28300
C  27.23900 -4.51900 46.16600
C  22.74600 -5.61100 44.86700
C  22.99200 -9.51600 47.75800
C  27.40300 -8.33300 49.31600
N  25.04600 -5.37100 45.59400
C  26.02700 -4.43600 45.46600
C  25.73800 -3.41800 44.38000
C  24.22500 -3.54700 44.26800
C  23.98000 -4.90000 44.88600
C  23.40000 -2.47300 45.09500
C  26.44100 -3.72900 43.05800
C  27.33200 -2.70000 42.34300
H  27.06700 -2.32700 40.81400
N  23.05900 -7.44600 46.57200
C  22.35000 -6.79200 45.56200
C  21.05500 -7.43700 45.51600
C  21.06300 -8.58600 46.38500
C  22.39100 -8.56500 46.98100
C  19.87800 -6.95900 44.64100
C  19.91600 -9.47800 46.69400
O  18.76800 -9.27800 46.12600
C  20.04300 -10.43200 47.76900
N  25.06400 -8.48300 48.58500
C  24.11700 -9.53300 48.41600
C  24.37000 -10.59500 49.49200
C  25.81500 -10.27600 49.99000
C  26.13800 -8.97800 49.24100
C  23.26400 -10.62500 50.60900
C  26.79300 -11.50300 49.84100
C  28.04000 -11.47400 50.70800
N  26.90800 -6.42700 47.85100
C  27.77900 -7.13600 48.65000
C  29.05100 -6.50900 48.59700
C  28.83900 -5.45300 47.64200
C  27.56700 -5.45800 47.18700
C  30.27000 -6.78700 49.46600
C  29.53300 -4.36700 47.00800
O  30.63500 -3.90900 47.16000
C  28.51200 -3.72800 45.98300
C  28.35300 -2.30600 46.28800
O  27.63400 -1.87400 47.19400
O  28.83700 -1.63000 45.21900
C  28.50000 -0.19000 45.36900
H  22.03000 -5.12400 44.20300
H  22.61400 -10.54000 47.76000
H  28.28100 -8.78600 49.78000
H  26.01600 -2.40500 44.66900
H  23.83800 -3.42900 43.25600
H  23.00400 -2.92700 46.00400
H  22.52100 -2.14800 44.53800
H  23.95600 -1.58700 45.40300
H  25.61700 -4.06700 42.42900
H  27.20900 -4.48100 43.23800
H  28.35200 -3.08400 42.34700
H  27.34100 -1.77600 42.92200
H  19.78000 -7.70900 43.85600
H  20.06900 -5.96900 44.22700
H  18.96300 -6.76300 45.20000
H  20.65900 -11.24400 47.38100
H  19.06100 -10.87900 47.92500
H  20.41900 -9.92400 48.65600
H  24.18200 -11.56600 49.03400
H  25.90100 -10.00000 51.04100
H  22.39000 -10.08200 50.24700
H  23.58000 -10.26900 51.59000
H  22.93200 -11.61900 50.90700
H  27.18800 -11.38100 48.83200
H  26.32700 -12.48800 49.88800
H  28.94400 -11.38300 50.10700
H  28.00400 -12.31200 51.40500
H  27.96300 -10.58000 51.32600
H  30.97500 -5.97300 49.63700
H  30.85900 -7.61900 49.08000
H  30.05000 -7.12200 50.48000
H  29.14100 -3.81700 45.09700
H  27.45600 -0.03600 45.64200
H  28.57100 0.22200 44.36200
H  29.10400 0.32500 46.11600
Mg 25.57200 0.46700 29.11500
C  27.50800 0.47200 31.91100
C  22.81000 1.24900 30.95600
C  23.74600 0.41700 26.29300
C  28.36100 -0.45500 27.23200
N  25.21700 0.55000 31.28900
C  26.17500 0.73800 32.23800
C  25.52300 1.27200 33.58700
C  23.95000 1.40900 33.25400
C  23.99000 1.04500 31.72800
C  23.04000 0.59500 34.20200
C  26.10200 2.56600 34.18800
C  26.82900 2.47600 35.50300
H  26.37900 3.11700 36.81700
N  23.52400 0.71700 28.64700
C  22.57700 1.10400 29.55200
C  21.30100 1.33100 28.87700
C  21.54800 1.09400 27.46100
C  23.00600 0.79400 27.40200
C  20.04800 1.83800 29.47300
C  20.56100 1.10900 26.27400
O  20.88100 0.93500 25.11700
C  19.10500 1.41700 26.51100
N  25.96600 -0.06500 26.97800
C  25.07800 0.07200 26.02700
C  25.67600 -0.12200 24.56200
C  27.19700 -0.23700 24.92200
C  27.19700 -0.25000 26.45300
C  25.24400 -1.27300 23.77500
C  28.05500 0.98300 24.40400
C  29.38100 0.71200 23.71300
N  27.46900 -0.06600 29.48400
C  28.52700 -0.34100 28.60100
C  29.79700 -0.46700 29.36300
C  29.41000 -0.08300 30.66900
C  28.01100 0.06000 30.69500
C  31.16700 -0.80200 28.85500
C  29.94100 0.14800 31.97700
O  31.10800 0.12300 32.36600
C  28.70600 0.43900 32.83900
C  28.66800 -0.64500 33.90500
O  28.00000 -1.67000 33.78200
O  29.45600 -0.30300 34.90200
C  29.32800 -1.21500 36.01100
H  21.94900 1.65100 31.49500
H  23.29400 0.28100 25.30800
H  29.21200 -0.66200 26.58000
H  25.65800 0.42100 34.25500
H  23.70900 2.46600 33.37200
H  22.04900 1.04900 34.22600
H  23.35100 0.73000 35.23800
H  22.92200 -0.47700 34.03900
H  25.37400 3.36800 34.31000
H  26.73400 2.97400 33.39900
H  27.76400 3.02100 35.37400
H  27.00500 1.46900 35.88200
H  19.16600 1.21100 29.34100
H  19.71600 2.69800 28.89300
H  20.10500 2.16600 30.51100
H  18.76800 0.60300 27.15100
H  18.59600 1.28700 25.55600
H  19.00900 2.37500 27.02200
H  25.30100 0.83800 24.20700
H  27.63700 -1.15500 24.53200
H  24.60800 -0.89300 22.97600
H  24.63100 -1.94200 24.38000
H  25.97800 -1.86100 23.22400
H  28.09600 1.68500 25.23700
H  27.37200 1.44600 23.69200
H  30.05400 0.87900 24.55400
H  29.59800 1.49300 22.98500
H  29.47600 -0.29800 23.31500
H  31.12400 -0.46800 27.81800
H  31.25600 -1.88100 28.97800
H  31.94000 -0.29800 29.43500
H  28.76000 1.41000 33.33200
H  29.13500 -2.23600 35.68300
H  28.53700 -0.82400 36.65100
H  30.25200 -1.18100 36.58700

