158

Mg 7.15700 1.68900 28.15700
C  8.96400 0.51200 30.89900
C  5.66300 4.01900 30.22500
C  5.55000 2.96900 25.49100
C  8.40400 -0.85900 26.18000
N  7.36500 2.27600 30.26200
C  8.00500 1.52000 31.26100
C  7.81800 2.11700 32.68700
C  6.51700 3.04800 32.39000
C  6.48800 3.12100 30.88000
C  5.20000 2.39100 33.02600
C  9.04500 2.83400 33.28900
C  9.49100 2.43900 34.70700
H  9.92100 3.57200 35.65900
N  5.81200 3.30600 27.86200
C  5.38300 4.15500 28.86100
C  4.58300 5.18500 28.25700
C  4.65400 5.00700 26.84500
C  5.37800 3.71300 26.67000
C  3.90400 6.35100 28.94200
C  4.08600 5.88800 25.66100
O  4.13800 5.51400 24.54000
C  3.20100 7.20800 25.89100
N  6.93600 1.02100 26.16100
C  6.26400 1.77700 25.24900
C  6.38600 1.11300 23.80800
C  7.45100 -0.06000 24.05300
C  7.49000 -0.05000 25.53900
C  5.06700 0.60800 23.12900
C  8.83100 0.20000 23.43700
C  9.50500 -0.96900 22.65900
N  8.39600 0.17800 28.40500
C  8.83000 -0.77900 27.49600
C  9.90800 -1.56700 28.15300
C  9.96100 -1.14600 29.46800
C  8.99600 -0.10300 29.60500
C  10.77700 -2.56500 27.45800
C  10.64500 -1.28200 30.70000
O  11.55000 -2.04700 30.92600
C  10.01000 -0.29000 31.73100
C  9.52200 -0.99300 32.94800
O  8.60300 -1.84100 32.83400
O  10.19900 -0.58300 34.05900
C  9.42100 -0.90200 35.26800
H  5.20400 4.75100 30.89300
H  5.16000 3.23900 24.50700
H  8.79400 -1.75900 25.70000
H  7.47000 1.24200 33.23700
H  6.52600 4.10100 32.67300
H  4.78000 3.13000 33.70700
H  5.43200 1.44000 33.50600
H  4.55100 2.17800 32.17700
H  8.77100 3.88900 33.31000
H  9.90200 2.62700 32.64900
H  10.39000 1.82500 34.66400
H  8.67500 1.90500 35.19400
H  4.24000 7.30100 28.52600
H  4.21600 6.38300 29.98600
H  2.82300 6.21600 28.92000
H  3.09300 7.77100 24.96400
H  3.58000 7.86200 26.67700
H  2.23300 6.82800 26.21600
H  6.77500 1.95100 23.22900
H  7.22800 -1.04100 23.63400
H  4.55600 0.21800 24.00900
H  5.13500 -0.14000 22.34000
H  4.49400 1.45300 22.74500
H  9.54900 0.40300 24.23200
H  8.88700 1.09800 22.82200
H  10.32800 -1.32200 23.28000
H  9.94800 -0.53300 21.76300
H  8.91900 -1.85700 22.41800
H  11.28000 -2.07800 26.62300
H  10.32900 -3.50900 27.15100
H  11.71800 -2.78700 27.96100
H  10.73500 0.47600 32.00900
H  10.00300 -0.73000 36.17300
H  8.97700 -1.89500 35.19700
H  8.57100 -0.24600 35.45900
Mg 50.89200 44.48600 42.57100
C  47.68400 45.43600 41.12400
C  50.36000 41.33600 41.28600
C  54.15500 43.94600 43.11900
C  51.38900 47.87500 43.15100
N  49.19400 43.57700 41.35100
C  48.02500 44.14600 40.86500
C  47.23700 43.10900 40.10100
C  48.04400 41.76100 40.29900
C  49.27100 42.22600 41.01600
C  47.15600 40.75900 41.05300
C  47.19700 43.63000 38.63600
C  45.81100 43.70500 38.00800
H  45.69200 42.98300 36.64000
N  52.07600 42.83200 42.34200
C  51.66500 41.57400 41.95100
C  52.74100 40.61700 42.14100
C  53.86800 41.34300 42.68200
C  53.44000 42.79300 42.75700
C  52.66200 39.17400 41.78800
C  55.18000 40.73600 43.13200
O  55.47900 39.53100 42.89300
C  56.17900 41.51400 43.96000
N  52.57100 45.76300 42.96500
C  53.83300 45.31800 43.17400
C  54.83100 46.47300 43.39700
C  53.91900 47.70400 43.30600
C  52.48700 47.06700 43.20400
C  55.62300 46.56200 44.78500
C  54.15600 48.81700 42.23300
C  54.41400 50.23000 42.78000
N  49.71500 46.29000 42.50800
C  49.98600 47.59800 42.87200
C  48.78100 48.44500 42.73300
C  47.80500 47.60100 42.11900
C  48.46200 46.31500 41.94700
C  48.67600 49.89000 43.05800
C  46.49700 47.60500 41.49100
O  45.65400 48.45800 41.36800
C  46.38800 46.18000 40.74500
C  45.03900 45.59000 41.11200
O  44.05900 45.52000 40.43700
O  45.07500 45.17500 42.44400
C  43.84400 44.79800 43.11600
H  50.20900 40.34800 40.84600
H  55.20700 43.78700 43.36100
H  51.46800 48.95700 43.27900
H  46.21100 43.07600 40.46700
H  48.22500 41.33200 39.31300
H  46.12700 41.12000 41.02900
H  47.50700 40.75700 42.08500
H  47.06000 39.77100 40.60400
H  47.91500 43.04800 38.05900
H  47.51900 44.66300 38.50600
H  45.57500 44.73900 37.75500
H  44.99500 43.30300 38.60900
H  53.07900 39.08700 40.78500
H  51.65900 38.77500 41.63900
H  53.14600 38.49000 42.48500
H  55.69800 42.21800 44.64000
H  56.84800 41.92700 43.20500
H  56.74700 40.86200 44.62400
H  55.59300 46.56900 42.62400
H  53.74500 48.23200 44.24400
H  55.60700 45.56900 45.23300
H  55.26100 47.36100 45.43200
H  56.67500 46.76600 44.58400
H  53.40900 48.76400 41.44000
H  55.12300 48.49800 41.84400
H  54.12400 50.36800 43.82200
H  54.02500 50.95400 42.06500
H  55.48800 50.41400 42.74900
H  48.78900 50.51900 42.17500
H  49.55400 50.03000 43.68900
H  47.79700 49.99500 43.69500
H  46.41200 46.36800 39.67200
H  43.92700 43.71800 42.99100
H  42.98900 45.16900 42.55100
H  43.76300 45.17800 44.13400

