158

Mg -2.47400 16.98200 26.60800
C  -3.03200 14.73800 29.35100
C  -3.23700 19.64400 28.75800
C  -2.12000 19.04300 24.02500
C  -2.40400 14.26400 24.59000
N  -2.77500 17.23100 28.91700
C  -2.99500 16.09800 29.77900
C  -3.30500 16.62400 31.15300
C  -3.43800 18.23200 30.92900
C  -3.20200 18.37900 29.44100
C  -4.69200 19.07200 31.43300
C  -2.20400 16.06800 32.16300
C  -1.65600 16.88600 33.28200
H  -1.14800 16.23900 34.59300
N  -2.55900 19.03800 26.45400
C  -2.82000 19.96700 27.46600
C  -2.78900 21.25300 26.82900
C  -2.49300 21.11300 25.44300
C  -2.32600 19.68700 25.25600
C  -3.33100 22.40800 27.68500
C  -2.47300 22.20100 24.34700
O  -2.15800 22.04200 23.18000
C  -2.69300 23.65900 24.90900
N  -2.47500 16.71800 24.57000
C  -2.07600 17.74600 23.67600
C  -1.85900 17.21900 22.24400
C  -1.85300 15.68500 22.51000
C  -2.26100 15.51600 23.96900
C  -2.96300 17.69000 21.19900
C  -0.48500 15.03400 21.95100
C  -0.69300 14.10400 20.66900
N  -2.75000 14.92300 26.85500
C  -2.59200 13.93600 25.94000
C  -2.81400 12.63900 26.52700
C  -2.98900 12.89600 27.88600
C  -2.90500 14.29900 28.03200
C  -2.85300 11.31800 25.80500
C  -3.18100 12.27800 29.14800
O  -3.33500 11.11600 29.47700
C  -3.12800 13.45800 30.19100
C  -1.93700 13.20700 31.01400
O  -0.75800 13.22800 30.70700
O  -2.33100 12.89700 32.32700
C  -1.38900 12.53500 33.35900
H  -3.35100 20.49600 29.43100
H  -1.86700 19.67000 23.16800
H  -2.40500 13.42700 23.88900
H  -4.31000 16.24100 31.33400
H  -2.63000 18.70800 31.48400
H  -5.53800 18.41300 31.62800
H  -5.01600 19.83700 30.72700
H  -4.50200 19.61100 32.36100
H  -1.31600 15.60300 31.73600
H  -2.53000 15.19600 32.72900
H  -2.43800 17.56900 33.61300
H  -0.76900 17.34700 32.84700
H  -4.04600 22.98200 27.09600
H  -2.55400 23.12000 27.96400
H  -3.91800 22.12000 28.55700
H  -3.74100 23.71000 25.20700
H  -2.41700 24.31000 24.08000
H  -2.00400 23.87100 25.72600
H  -0.96500 17.80500 22.03000
H  -2.66400 15.15900 22.00700
H  -3.96900 17.33400 21.42400
H  -2.69600 17.37800 20.19000
H  -3.15800 18.76200 21.15900
H  -0.08900 14.43500 22.77100
H  0.25100 15.79800 21.69900
H  -1.71600 14.09100 20.29300
H  -0.53100 13.08900 21.03000
H  -0.04500 14.26100 19.80700
H  -1.84100 11.10100 25.46200
H  -3.53600 11.17100 24.96900
H  -3.12500 10.59600 26.57500
H  -3.92600 13.42000 30.93200
H  -1.51100 12.99900 34.33800
H  -0.38000 12.78800 33.03200
H  -1.53800 11.46000 33.46700
Mg 25.33100 1.60100 30.10100
C  27.52500 1.28600 32.99100
C  22.87900 2.34000 32.42500
C  23.08100 1.34300 27.68200
C  27.81700 0.61800 28.09100
N  25.23300 1.58100 32.48400
C  26.25200 1.70500 33.30400
C  25.83500 2.16900 34.69500
C  24.35200 2.37000 34.56500
C  24.07800 2.01500 33.05800
C  23.48400 1.45300 35.42500
C  26.67500 3.43600 35.07100
C  27.40200 3.23500 36.44800
H  26.82600 4.03000 37.62500
N  23.28600 1.84400 30.00500
C  22.49600 2.25300 31.01600
C  21.11600 2.35200 30.52400
C  21.13600 1.99200 29.16300
C  22.50100 1.71900 28.88400
C  19.96200 2.70800 31.43300
C  19.94200 1.97200 28.13500
O  20.07000 1.44100 27.01300
C  18.63900 2.42200 28.57600
N  25.40700 1.02400 28.12400
C  24.35500 1.07500 27.29200
C  24.79200 0.86200 25.87300
C  26.39300 0.86200 25.93900
C  26.60400 0.87300 27.51100
C  24.18100 -0.32400 25.10900
C  27.06000 2.09100 25.24300
C  27.38800 3.34700 26.06600
N  27.30800 1.06300 30.34200
C  28.22200 0.67400 29.48200
C  29.54100 0.51000 30.08400
C  29.24800 0.75300 31.49500
C  27.87100 1.01800 31.58200
C  30.79300 0.24200 29.28400
C  29.89000 0.84100 32.81300
O  31.07600 0.69000 33.13900
C  28.74200 1.11900 33.85300
C  28.66100 -0.04000 34.75800
O  28.47800 -1.18900 34.49900
O  28.92900 0.37800 36.01600
C  29.13100 -0.64700 37.08300
H  22.13500 2.67900 33.14800
H  22.44000 1.23000 26.80500
H  28.70900 0.42100 27.49400
H  26.13900 1.29000 35.26300
H  24.07000 3.41100 34.72600
H  22.94900 2.14400 36.07700
H  24.13300 0.83000 36.04100
H  22.87100 0.72300 34.89700
H  26.06300 4.29000 35.36000
H  27.31700 3.61800 34.20800
H  28.38300 3.66100 36.24100
H  27.51200 2.20500 36.78600
H  20.24800 3.17800 32.37400
H  19.43200 1.76600 31.57100
H  19.31900 3.35500 30.83700
H  17.86200 2.07400 27.89400
H  18.61800 3.48500 28.81600
H  18.47900 1.86900 29.50200
H  24.43200 1.78300 25.41300
H  26.82000 -0.05800 25.54100
H  23.39500 -0.68800 25.77000
H  24.91800 -1.11600 24.97800
H  23.75300 0.02700 24.16900
H  26.46200 2.49700 24.42700
H  27.98100 1.71700 24.79700
H  27.52400 3.15900 27.13100
H  26.54900 4.03800 25.98600
H  28.26800 3.81500 25.62500
H  31.70400 0.44500 29.84600
H  30.84200 0.84000 28.37300
H  30.81700 -0.81600 29.02200
H  29.05400 1.97500 34.45100
H  28.74500 -0.37300 38.06400
H  30.20900 -0.67800 37.24000
H  28.67500 -1.61500 36.87500

