158

Mg 34.36800 3.06800 29.27700
C  32.27100 4.16600 32.00500
C  36.82100 2.71800 31.44500
C  36.34600 2.66900 26.49900
C  31.49500 3.45100 27.22500
N  34.49200 3.40900 31.43800
C  33.53400 3.81900 32.42400
C  34.15300 3.91600 33.80800
C  35.64400 3.47600 33.54300
C  35.66600 3.21800 32.01700
C  36.72400 4.51300 33.94800
C  33.27300 3.19500 34.92600
C  34.21500 2.70100 36.05600
H  35.09300 3.79100 36.77900
N  36.31900 2.68400 28.97100
C  37.13000 2.50300 30.03200
C  38.39300 2.06600 29.54300
C  38.37800 2.27800 28.12200
C  36.96900 2.61000 27.74400
C  39.45000 1.56200 30.48100
C  39.47700 2.01600 27.14200
O  39.30500 2.17400 25.94200
C  40.74100 1.54200 27.58400
N  33.95800 3.20300 27.23400
C  34.90200 2.87200 26.33400
C  34.33600 3.02200 24.86400
C  32.83300 2.75200 25.17400
C  32.71400 3.09700 26.65300
C  34.67400 4.44600 24.35100
C  32.41600 1.23500 25.08200
C  31.14100 0.89600 24.21500
N  32.27200 3.56500 29.53600
C  31.22800 3.78500 28.60800
C  29.99700 4.16500 29.26900
C  30.40600 4.40900 30.56300
C  31.75500 3.99700 30.70700
C  28.64100 4.39200 28.67400
C  29.91700 4.80100 31.81800
O  28.75500 5.16400 32.11700
C  31.11500 4.67700 32.87500
C  31.20400 5.96300 33.70800
O  31.52500 7.08000 33.39100
O  30.64500 5.63400 34.93600
C  30.29700 6.59800 35.99900
H  37.68200 2.78100 32.11300
H  36.88400 2.50300 25.56300
H  30.68300 3.63400 26.51800
H  34.14400 4.96600 34.10200
H  35.82400 2.52800 34.05200
H  37.33200 4.22100 34.80500
H  36.22900 5.47500 34.07900
H  37.38800 4.72300 33.10900
H  32.69900 2.42200 34.41500
H  32.59900 3.90800 35.40100
H  34.84300 1.89800 35.66900
H  33.61100 2.31800 36.87800
H  39.13000 1.66800 31.51800
H  40.43400 2.03200 30.48400
H  39.72700 0.51100 30.40800
H  40.72500 0.49500 27.88400
H  41.15600 2.17400 28.36900
H  41.39400 1.65800 26.72000
H  34.68900 2.27800 24.14900
H  32.26400 3.40200 24.51100
H  35.05100 4.40700 23.32800
H  35.48200 4.90800 24.91700
H  33.78400 5.06700 24.45300
H  32.40600 0.81700 26.08800
H  33.21100 0.65900 24.60800
H  30.60000 1.78500 23.89100
H  30.37800 0.36600 24.78400
H  31.38900 0.26400 23.36200
H  28.46200 3.84500 27.74900
H  28.24800 5.40900 28.67700
H  27.97500 3.68200 29.16300
H  30.77100 3.91200 33.57100
H  30.91200 6.44500 36.88600
H  29.28300 6.29200 36.25400
H  30.23000 7.63900 35.68300
Mg 45.86700 17.24200 29.00600
C  44.30500 16.83600 32.23500
C  48.16000 19.20900 30.51900
C  46.92300 17.88700 26.03100
C  43.07300 15.52000 27.66000
N  46.18800 17.92500 31.03400
C  45.42500 17.65100 32.21600
C  46.16300 18.15400 33.47400
C  47.38200 18.98100 32.88300
C  47.25900 18.75200 31.40000
C  47.39600 20.48600 33.17700
C  46.61600 17.09800 34.47900
C  46.20100 17.23300 35.98700
H  45.91000 18.64700 36.49000
N  47.37300 18.28600 28.37600
C  48.24500 18.96200 29.15600
C  49.41000 19.39800 28.38400
C  49.07500 19.04900 27.05600
C  47.71500 18.42200 27.09400
C  50.63900 20.08400 28.99400
C  49.89600 19.42900 25.81000
O  49.49000 19.11600 24.68100
C  51.18400 20.24600 25.82100
N  45.06500 16.76800 27.13800
C  45.67100 17.25900 26.05800
C  44.82500 17.04600 24.78500
C  43.81900 15.95900 25.24200
C  43.92200 16.11200 26.78300
C  44.17700 18.35100 24.25400
C  44.14900 14.47100 24.77600
C  43.71800 14.07500 23.36600
N  44.08500 16.25100 29.75700
C  43.04100 15.60600 29.05200
C  42.09000 15.15500 30.00100
C  42.59300 15.51600 31.25600
C  43.80100 16.22700 31.05400
C  40.83100 14.40800 29.64700
C  42.27000 15.51200 32.67600
O  41.36600 14.97300 33.29600
C  43.36100 16.45900 33.35000
C  42.72800 17.66400 34.01500
O  42.45200 18.69800 33.44400
O  42.49200 17.41000 35.33400
C  41.81800 18.42300 36.20000
H  48.95300 19.79800 30.98400
H  47.28900 18.03800 25.01400
H  42.32700 14.90600 27.15200
H  45.47800 18.91000 33.85600
H  48.31800 18.47900 33.13100
H  46.71700 20.84200 33.95200
H  47.30600 21.06800 32.25900
H  48.39700 20.70200 33.55000
H  47.69300 16.93900 34.42400
H  46.14500 16.18100 34.12300
H  46.94800 16.76400 36.62700
H  45.24400 16.71300 36.03400
H  51.51600 19.71300 28.46400
H  50.83600 19.88100 30.04600
H  50.60800 21.16600 28.86300
H  51.84500 19.65700 26.45700
H  51.03500 21.28900 26.10000
H  51.53700 20.23500 24.79000
H  45.38800 16.59200 23.97000
H  42.84400 16.17100 24.80500
H  43.90700 18.98900 25.09600
H  43.26300 18.12400 23.70400
H  44.72800 18.95800 23.53600
H  43.98800 13.72900 25.55700
H  45.22900 14.58900 24.68200
H  43.53400 15.01100 22.83900
H  42.80000 13.49600 23.46200
H  44.49700 13.46800 22.90500
H  40.78500 13.95900 28.65500
H  40.04900 15.15000 29.80800
H  40.70800 13.61800 30.38700
H  43.77800 15.77400 34.08800
H  42.11500 18.21800 37.22900
H  40.74500 18.23900 36.16900
H  42.21700 19.43000 36.07600

