158

Mg 36.85000 50.29500 25.31900
C  37.12500 48.33700 28.28300
C  35.85600 52.94200 27.12700
C  36.09600 51.83600 22.41800
C  38.06200 47.59700 23.52200
N  36.41100 50.49800 27.50500
C  36.73600 49.65600 28.53600
C  36.54100 50.36400 29.92700
C  36.20200 51.80600 29.47200
C  36.12500 51.77100 27.94800
C  34.89800 52.43600 30.04800
C  37.89000 50.31600 30.85300
C  37.81400 49.60300 32.18900
H  36.52900 49.63800 33.01500
N  36.12100 52.15400 24.84000
C  35.78300 53.11600 25.75100
C  35.35100 54.30900 24.99500
C  35.32600 53.96600 23.61100
C  35.91100 52.66700 23.55300
C  34.79000 55.48000 25.71800
C  34.86500 54.74500 22.36700
O  34.99000 54.26800 21.28300
C  34.30900 56.09800 22.51800
N  36.93800 49.68400 23.24800
C  36.57800 50.52700 22.24800
C  37.09000 49.99100 20.85400
C  37.91500 48.66200 21.25900
C  37.63000 48.64500 22.74300
C  35.93200 49.74100 19.90400
C  39.45300 48.52400 21.04200
C  40.09500 47.16600 20.67500
N  37.48400 48.38300 25.75900
C  37.87400 47.40000 24.89800
C  38.31500 46.25900 25.70300
C  37.94900 46.59100 27.02400
C  37.43200 47.85100 27.02100
C  39.02800 44.98300 25.25000
C  38.09100 46.11900 28.36900
O  38.51100 45.12000 28.87900
C  37.48600 47.23000 29.24900
C  36.31600 46.76200 29.99300
O  35.13400 47.07000 29.76900
O  36.66900 46.08000 31.09500
C  35.73400 45.57600 32.01000
H  35.49700 53.69500 27.83200
H  36.00800 52.28700 21.42700
H  38.38100 46.72200 22.95100
H  35.68400 49.97300 30.47500
H  36.98000 52.51100 29.76500
H  34.98600 53.44000 30.46300
H  34.55500 51.81400 30.87500
H  34.12200 52.42000 29.28200
H  38.18100 51.34300 31.07300
H  38.67800 49.84500 30.26500
H  38.53000 50.09000 32.85000
H  38.13700 48.57200 32.04900
H  35.04200 56.32400 25.07700
H  35.40000 55.74200 26.58200
H  33.74200 55.34400 25.98600
H  34.04000 56.42100 21.51200
H  35.06200 56.83300 22.80400
H  33.44000 56.24300 23.15900
H  37.87900 50.68100 20.55800
H  37.34900 47.79300 20.92200
H  35.38700 50.66900 19.73500
H  35.23800 49.00900 20.31700
H  36.29000 49.38600 18.93800
H  39.78800 48.80800 22.04000
H  39.76200 49.29300 20.33500
H  40.70700 47.38600 19.80000
H  39.29600 46.45700 20.45900
H  40.77200 46.87800 21.47900
H  39.89300 44.82000 25.89300
H  39.47300 45.13200 24.26600
H  38.41500 44.08400 25.29800
H  38.23500 47.51700 29.98600
H  35.18400 44.81600 31.45500
H  35.05400 46.34100 32.38600
H  36.24600 45.06300 32.82400
Mg 10.66600 46.55800 25.64700
C  8.64400 46.68500 28.47200
C  13.24000 47.76400 27.48700
C  12.54400 46.14600 22.90500
C  7.75700 46.11700 23.68300
N  10.86800 47.18000 27.70500
C  9.97400 47.06200 28.74100
C  10.52900 47.65900 30.03500
C  11.82600 48.40100 29.54000
C  11.99300 47.74900 28.19300
C  11.62700 49.94300 29.45300
C  10.81600 46.47000 31.05700
C  10.35200 46.59000 32.57800
H  10.44100 45.36900 33.40800
N  12.63800 46.73400 25.24900
C  13.53400 47.21200 26.17900
C  14.88500 47.15800 25.59800
C  14.73300 46.60400 24.27200
C  13.26400 46.41300 24.08200
C  16.14700 47.54800 26.30900
C  15.75400 46.29400 23.22000
O  15.47800 45.88100 22.13600
C  17.22000 46.56100 23.57100
N  10.20800 46.21400 23.57400
C  11.16800 46.09500 22.66600
C  10.62000 45.91000 21.24500
C  9.09000 45.63500 21.57800
C  8.99900 46.07800 22.99200
C  10.90300 47.17400 20.40500
C  8.75300 44.11800 21.29300
C  9.13800 43.06900 22.41600
N  8.68300 46.30300 25.95900
C  7.61400 46.19600 25.06700
C  6.36600 46.19900 25.81800
C  6.71200 46.29900 27.13300
C  8.15100 46.44400 27.20700
C  5.00500 45.98600 25.23700
C  6.13400 46.40500 28.46100
O  4.95700 46.45200 28.79900
C  7.37800 46.84600 29.34100
C  7.28800 45.95800 30.58200
O  7.79100 44.83800 30.67500
O  6.42800 46.56100 31.45800
C  5.99600 45.77800 32.64800
H  14.07700 48.18800 28.04500
H  12.94000 45.81200 21.94400
H  6.91900 46.03000 22.98900
H  9.78800 48.14000 30.67300
H  12.61800 48.18900 30.25800
H  12.27500 50.47000 30.15300
H  10.65400 50.11800 29.91300
H  11.43800 50.31900 28.44700
H  11.89400 46.33200 30.97700
H  10.33200 45.58500 30.64300
H  9.31800 46.91300 32.69900
H  10.91800 47.41600 33.00900
H  16.03800 47.71600 27.38100
H  16.41100 48.47500 25.80000
H  16.88200 46.76000 26.14500
H  17.56500 45.97000 24.42000
H  17.56300 47.59100 23.67300
H  17.81900 46.17000 22.74900
H  11.04000 44.99400 20.82800
H  8.42100 46.22600 20.95200
H  11.65900 47.77300 20.91300
H  9.96300 47.68500 20.20000
H  11.45800 46.78800 19.54900
H  9.41400 43.84500 20.47000
H  7.75600 44.02500 20.86200
H  9.58400 43.51600 23.30500
H  9.92500 42.39100 22.08800
H  8.25400 42.48800 22.68000
H  4.50700 45.08000 25.58400
H  4.87300 46.11900 24.16400
H  4.37100 46.80100 25.58400
H  7.21300 47.89400 29.59200
H  5.15400 45.09700 32.52200
H  5.72200 46.55000 33.36700
H  6.85400 45.41100 33.21000

