158

Mg 54.36600 24.14200 44.76300
C  52.12400 26.60200 43.97600
C  52.24800 21.77800 43.82400
C  56.96100 21.96800 44.98000
C  56.84600 26.77100 45.31000
N  52.46300 24.22300 43.83100
C  51.64200 25.33800 43.70300
C  50.22800 24.92700 43.35800
C  50.19000 23.37600 43.48400
C  51.73600 23.05200 43.74400
C  49.22200 22.73000 44.55800
C  49.74400 25.37700 41.89500
C  48.23900 24.96500 41.54200
H  47.98900 24.26700 40.21400
N  54.63200 22.06000 44.38700
C  53.56000 21.32400 43.99000
C  54.05000 19.96900 44.04600
C  55.40900 19.90500 44.39000
C  55.78000 21.33600 44.54200
C  53.09100 18.74800 43.81700
C  56.26600 18.65500 44.63200
O  55.63500 17.64600 44.64000
C  57.70500 18.71100 44.87700
N  56.65400 24.37100 44.80900
C  57.38800 23.27000 45.14400
C  58.78400 23.60400 45.73100
C  58.87200 25.14300 45.51600
C  57.40000 25.51600 45.11600
C  58.99600 23.30800 47.28100
C  59.86600 25.71700 44.46000
C  59.42200 25.56000 42.95000
N  54.47700 26.27700 44.84300
C  55.45600 27.20100 45.13700
C  54.85600 28.46700 45.25400
C  53.55600 28.28700 44.89000
C  53.38600 26.97400 44.54900
C  55.55500 29.76300 45.62800
C  52.21500 28.94000 44.70700
O  51.87400 30.09600 44.98800
C  51.33700 27.93100 43.91200
C  51.17400 28.45500 42.54500
O  52.08400 28.42100 41.70700
O  49.89500 28.89700 42.39400
C  49.56100 29.29300 41.02500
H  51.46400 21.05100 43.60000
H  57.80000 21.31400 45.22800
H  57.56900 27.58400 45.40600
H  49.55200 25.30500 44.12400
H  49.94900 22.95800 42.50700
H  48.92300 23.48100 45.28900
H  49.85100 22.03600 45.11500
H  48.30600 22.32200 44.13000
H  50.43300 25.04700 41.11800
H  49.72000 26.46600 41.86300
H  47.62800 25.86700 41.58800
H  47.94000 24.27300 42.32900
H  52.99400 18.59800 42.74200
H  52.15000 19.02600 44.29200
H  53.30000 17.77700 44.26700
H  58.11300 17.70500 44.97100
H  58.17100 19.26800 45.69000
H  58.10400 19.11200 43.94500
H  59.58400 23.10600 45.18300
H  59.12000 25.60100 46.47400
H  58.30100 22.54500 47.63100
H  58.75200 24.17100 47.90100
H  60.04000 23.17400 47.56600
H  60.85000 25.27800 44.62300
H  60.03900 26.76300 44.71400
H  58.86300 26.42800 42.59900
H  58.75600 24.71600 42.77300
H  60.25400 25.36300 42.27400
H  54.97500 30.60100 46.01500
H  56.15900 30.10500 44.78700
H  56.17700 29.48400 46.47800
H  50.39200 27.83100 44.44500
H  49.13900 30.28600 41.17400
H  48.76100 28.67700 40.61500
H  50.42600 29.30000 40.36200
Mg 49.92300 46.77900 42.14300
C  46.57800 47.45000 40.99700
C  49.67500 43.81400 40.47300
C  53.17000 46.47300 42.67600
C  49.99900 50.21500 43.23400
N  48.31000 45.83800 40.88700
C  47.03700 46.26900 40.49300
C  46.29800 45.24600 39.49800
C  47.39400 44.17100 39.40700
C  48.54500 44.55500 40.33700
C  46.92600 42.70600 39.75100
C  45.78000 45.94300 38.19000
C  44.30700 45.68100 37.82000
H  43.94400 45.12300 36.43400
N  51.19500 45.31100 41.82200
C  50.94400 44.19900 41.10100
C  52.12200 43.36700 41.08600
C  53.12100 44.00800 41.88900
C  52.53300 45.29000 42.19900
C  52.13900 42.01400 40.38200
C  54.55000 43.49500 42.23400
O  54.88500 42.36500 41.84900
C  55.50700 44.23500 43.15500
N  51.37500 48.14500 42.95600
C  52.68800 47.77000 43.04100
C  53.56700 48.97600 43.27600
C  52.56000 50.06600 43.64600
C  51.21400 49.50200 43.26600
C  54.67300 48.77400 44.30400
C  52.87600 51.41000 43.03600
C  52.54700 52.69400 43.88700
N  48.60300 48.42700 42.13200
C  48.76900 49.70600 42.73900
C  47.58300 50.44900 42.56800
C  46.67600 49.58700 42.00600
C  47.33000 48.39700 41.72800
C  47.38800 51.88800 42.94900
C  45.31400 49.52300 41.51900
O  44.39000 50.33700 41.57300
C  45.13800 48.02900 40.98900
C  44.21800 47.24700 41.91800
O  44.11900 47.40300 43.10600
O  43.54000 46.34100 41.25400
C  42.45900 45.63000 41.96600
H  49.74800 42.82300 40.01900
H  54.25100 46.39700 42.80400
H  50.12800 51.25300 43.55000
H  45.47800 44.77700 40.04100
H  47.82900 44.17400 38.40700
H  45.87900 42.40700 39.70000
H  47.11800 42.56600 40.81500
H  47.57200 42.02200 39.20200
H  46.42700 45.59800 37.38500
H  46.04900 46.98200 38.38200
H  43.92000 46.70000 37.83400
H  43.77700 45.09400 38.57000
H  51.30500 41.33900 40.57200
H  53.02100 41.38700 40.51600
H  52.14100 42.20300 39.30900
H  56.22000 44.66900 42.45400
H  56.09100 43.51100 43.72400
H  54.99200 44.93400 43.81400
H  54.03500 49.21100 42.32000
H  52.43200 50.21800 44.71700
H  55.66100 48.73800 43.84600
H  54.64800 47.82100 44.83100
H  54.72300 49.66000 44.93700
H  52.26100 51.49100 42.14000
H  53.88200 51.48000 42.62300
H  53.38800 53.35700 44.09200
H  51.86400 52.38700 44.67900
H  51.98500 53.41100 43.29000
H  46.53600 52.31400 42.42000
H  48.28900 52.37500 42.57600
H  47.49900 51.94800 44.03200
H  44.71300 47.90900 39.99300
H  41.68000 45.49500 41.21600
H  42.11900 46.06400 42.90600
H  42.81600 44.64700 42.27500

