158

Mg 17.65500 -0.28700 27.56600
C  16.80800 1.37800 30.61700
C  19.50600 -2.43800 29.43300
C  18.69100 -1.56300 24.70500
C  15.66400 2.07200 25.93300
N  18.28100 -0.34700 29.71700
C  17.67200 0.29300 30.77500
C  18.01400 -0.33000 32.14100
C  19.17600 -1.33500 31.73600
C  18.99600 -1.39500 30.21500
C  20.66300 -0.88300 31.92400
C  16.84700 -1.08000 32.83900
C  16.72200 -0.85900 34.33600
H  18.05300 -0.56100 35.09600
N  18.84300 -1.83200 27.15500
C  19.50100 -2.70100 28.03200
C  20.19000 -3.74100 27.27600
C  19.91300 -3.50300 25.92300
C  19.13700 -2.28200 25.85800
C  21.03500 -4.86400 27.98200
C  20.51000 -4.27200 24.77100
O  20.24100 -3.99900 23.60500
C  21.46800 -5.47600 24.97500
N  17.19500 0.16500 25.67000
C  17.89100 -0.42800 24.60200
C  17.79400 0.38500 23.36200
C  16.50800 1.27000 23.69500
C  16.44100 1.21200 25.22200
C  19.04300 1.18500 22.83000
C  15.11900 1.06100 22.95200
C  14.96600 1.97000 21.67100
N  16.54800 1.39400 28.12400
C  15.71400 2.26200 27.34500
C  15.03300 3.18700 28.16300
C  15.37000 2.82900 29.40800
C  16.39900 1.85900 29.37700
C  14.10600 4.28000 27.68000
C  15.08200 3.12300 30.88500
O  14.42600 4.03400 31.41600
C  15.99900 2.17800 31.63800
C  16.89300 3.05100 32.54900
O  17.99900 3.47500 32.23400
O  16.32200 3.27800 33.75600
C  17.05900 4.17100 34.65500
H  20.05100 -3.20900 29.98100
H  18.98100 -1.95000 23.72600
H  15.12800 2.75200 25.26700
H  18.27000 0.47800 32.82600
H  19.04300 -2.32100 32.18200
H  21.16800 -0.70600 30.97500
H  21.16900 -1.73800 32.37400
H  20.53500 -0.00900 32.56200
H  16.96200 -2.16300 32.82700
H  15.93200 -0.83600 32.29900
H  16.37700 -1.74500 34.86900
H  16.05400 -0.02100 34.53600
H  20.96000 -4.75900 29.06400
H  22.07800 -4.72800 27.69800
H  20.62000 -5.84400 27.74300
H  22.39100 -5.12300 25.43500
H  21.65200 -5.66600 23.91800
H  21.02600 -6.33700 25.47700
H  17.65300 -0.36200 22.58100
H  16.80100 2.30600 23.52500
H  19.99100 0.76700 23.16900
H  19.09500 2.26600 22.95700
H  19.24500 0.90600 21.79500
H  14.33900 1.26300 23.68700
H  14.97500 0.01000 22.70400
H  14.27100 2.80600 21.74600
H  14.59000 1.38900 20.82900
H  16.00700 2.25600 21.51700
H  14.11300 4.39500 26.59700
H  14.23500 5.22900 28.20000
H  13.13600 3.93200 28.03600
H  15.51400 1.53800 32.37500
H  17.11300 3.63400 35.60200
H  16.48000 5.08100 34.81700
H  18.07800 4.33900 34.30700
Mg 46.27300 5.93700 49.12800
C  43.91300 8.36300 48.44600
C  44.10300 3.51000 47.97600
C  48.85400 3.70300 49.15500
C  48.51600 8.51100 49.85900
N  44.29000 5.96700 48.11600
C  43.50800 7.10900 48.00900
C  42.12900 6.75500 47.38900
C  42.11100 5.17600 47.41000
C  43.58000 4.86900 47.88000
C  41.05500 4.54200 48.44800
C  42.09100 7.37200 45.90700
C  41.06500 8.48600 45.55000
H  40.29200 8.02300 44.28100
N  46.40800 3.80700 48.63900
C  45.37800 2.96200 48.36400
C  45.89200 1.66000 48.13800
C  47.31200 1.64400 48.45300
C  47.62800 3.05400 48.74300
C  45.10300 0.52600 47.63700
C  48.17500 0.43900 48.41100
O  47.73500 -0.66000 48.04600
C  49.66600 0.60100 48.63100
N  48.36700 6.09300 49.39000
C  49.23500 5.00600 49.39000
C  50.70200 5.37500 49.71000
C  50.53200 6.82300 50.11800
C  49.03600 7.19400 49.76900
C  51.27000 4.49200 50.84800
C  51.52500 7.88300 49.51100
C  52.16600 8.92900 50.42000
N  46.21800 8.03000 49.20900
C  47.20000 8.93700 49.59300
C  46.70900 10.28700 49.51400
C  45.37000 10.08500 49.15900
C  45.15300 8.69300 48.86500
C  47.63000 11.45200 49.51100
C  44.19100 10.76200 48.81500
O  43.89500 11.93200 48.72000
C  43.15600 9.63700 48.38000
C  41.92500 9.75400 49.27700
O  41.83300 9.40100 50.45300
O  40.90700 10.25100 48.56200
C  39.53200 10.48200 49.17400
H  43.39200 2.75800 47.62700
H  49.61300 2.95400 49.39000
H  49.27700 9.25300 50.11000
H  41.26400 7.17900 47.89900
H  41.89700 4.82400 46.40100
H  40.36200 5.31600 48.77800
H  41.61200 4.11200 49.28000
H  40.51200 3.82700 47.83000
H  42.06700 6.65400 45.08700
H  43.02400 7.87900 45.66400
H  41.59400 9.42800 45.40700
H  40.36600 8.70000 46.35900
H  44.84600 -0.21300 48.39600
H  45.58300 -0.05800 46.85300
H  44.13300 0.82500 47.24000
H  50.07500 1.37000 47.97600
H  50.15900 -0.34400 48.40300
H  49.89000 0.81500 49.67600
H  51.26300 5.29400 48.77900
H  50.49900 6.93200 51.20200
H  50.50700 3.84700 51.28600
H  51.60300 5.12500 51.67000
H  52.12000 3.84500 50.63100
H  50.94100 8.45200 48.78700
H  52.38100 7.32800 49.12900
H  52.06600 9.97900 50.14600
H  53.24400 8.77200 50.43400
H  51.78100 8.63700 51.39800
H  48.09300 11.42900 50.49800
H  47.04800 12.34600 49.29000
H  48.43200 11.22100 48.80900
H  42.86800 9.79300 47.34000
H  39.59700 11.22300 49.97100
H  39.08100 9.57900 49.58700
H  38.77000 10.86300 48.49400

