158

Mg 25.00100 0.99500 28.97200
C  27.16800 0.58100 31.69100
C  22.35800 0.89000 31.07500
C  22.91600 0.94800 26.12700
C  27.77400 0.36100 26.79900
N  24.73800 0.70000 31.08800
C  25.77400 0.69100 32.02600
C  25.21500 0.94300 33.43600
C  23.72000 0.91200 33.25000
C  23.59200 0.82500 31.71900
C  23.02300 -0.35500 34.03200
C  25.91700 2.19300 34.12000
C  25.08100 2.92100 35.27900
H  25.84500 3.06900 36.57100
N  22.87200 0.89700 28.67600
C  22.00000 0.88900 29.62200
C  20.67100 0.91500 29.05100
C  20.80100 0.94800 27.65200
C  22.22300 0.89500 27.38900
C  19.41200 0.84300 29.91300
C  19.72700 1.18000 26.57800
O  20.01000 1.44500 25.42600
C  18.22900 1.13400 26.95200
N  25.26100 0.63600 26.75100
C  24.27900 0.79200 25.82200
C  24.80500 0.98300 24.46000
C  26.35400 0.77300 24.64700
C  26.49800 0.54000 26.16700
C  24.23800 0.15200 23.30800
C  27.16800 1.98200 24.06200
C  27.22600 3.22800 24.96100
N  27.03900 0.63000 29.18700
C  28.01900 0.35700 28.24500
C  29.25100 -0.04500 28.92800
C  28.93200 0.11200 30.29400
C  27.61500 0.47200 30.37900
C  30.54100 -0.59500 28.25900
C  29.47100 0.12000 31.59500
O  30.54700 -0.31700 31.92700
C  28.36800 0.48100 32.66300
C  28.25500 -0.60400 33.67400
O  27.52900 -1.56800 33.56100
O  29.03200 -0.34700 34.75100
C  28.85500 -1.16800 35.94900
H  21.51700 1.03000 31.75700
H  22.23300 0.94600 25.27500
H  28.50600 0.17000 26.01100
H  25.60600 0.09300 33.99600
H  23.22600 1.84000 33.53900
H  23.81400 -0.96500 34.46800
H  22.49200 -0.93400 33.27600
H  22.33000 -0.07100 34.82400
H  26.24000 2.88100 33.33800
H  26.78000 1.68500 34.55100
H  24.18600 2.33800 35.49600
H  24.72800 3.90900 34.98100
H  18.72000 0.11000 29.49700
H  18.88400 1.78700 29.78100
H  19.60000 0.60300 30.95900
H  17.70700 1.33800 26.01700
H  17.94300 1.77900 27.78200
H  18.00600 0.09300 27.18100
H  24.61500 2.03800 24.26500
H  26.61800 -0.11400 24.07100
H  23.53400 -0.59400 23.67900
H  24.95700 -0.37900 22.68400
H  23.61800 0.76800 22.65600
H  26.76100 2.16900 23.06800
H  28.20200 1.67800 23.89400
H  28.25900 3.52800 25.13800
H  26.71000 2.98200 25.88900
H  26.70400 4.15600 24.73100
H  31.40000 -0.27200 28.84800
H  30.68100 -0.23000 27.24100
H  30.31300 -1.66000 28.28800
H  28.61500 1.38100 33.22500
H  29.19200 -2.17800 35.71400
H  27.86400 -1.21700 36.40000
H  29.41000 -0.69400 36.75900
Mg 16.66500 52.22700 26.39500
C  18.52500 50.79500 29.06700
C  14.13000 52.93100 28.65900
C  14.81700 53.31000 23.80200
C  19.14400 51.21000 24.29200
N  16.44700 51.95200 28.67900
C  17.31100 51.38600 29.51800
C  16.81200 51.54900 30.96400
C  15.31500 51.91400 30.71100
C  15.25100 52.33300 29.21000
C  14.30400 50.80100 30.99900
C  17.62300 52.68300 31.63300
C  18.36400 52.15500 32.95600
H  17.61300 52.35100 34.23000
N  14.75200 53.13400 26.24300
C  13.93000 53.41700 27.32300
C  12.79300 54.20700 26.86300
C  12.99900 54.30900 25.44800
C  14.24100 53.56500 25.09000
C  11.58300 54.64900 27.75000
C  12.19100 55.05100 24.37400
O  12.56200 55.08200 23.18100
C  10.87500 55.69300 24.74300
N  16.98000 52.36700 24.37600
C  16.00100 52.74400 23.51500
C  16.45200 52.55600 22.06100
C  17.86300 51.96800 22.26900
C  18.04300 51.82900 23.75600
C  15.44800 51.68800 21.23400
C  18.90500 52.73700 21.48800
C  19.85000 51.81400 20.66100
N  18.47800 51.20000 26.56300
C  19.39100 50.82500 25.59600
C  20.44000 49.99800 26.22400
C  20.10100 49.94700 27.58700
C  18.95500 50.72300 27.73600
C  21.71700 49.59200 25.56400
C  20.55300 49.50700 28.86500
O  21.47000 48.78200 29.21200
C  19.60200 50.09000 29.87800
C  19.21000 49.04000 30.84300
O  18.61800 48.03500 30.45000
O  19.76500 49.17300 32.07500
C  19.38500 48.20300 33.12400
H  13.39100 53.10500 29.44400
H  14.20600 53.61100 22.94900
H  19.83700 50.88300 23.51300
H  16.83000 50.57700 31.45800
H  14.94500 52.82900 31.17300
H  13.45200 51.35200 31.39600
H  14.74400 50.01900 31.61800
H  13.92100 50.33300 30.09200
H  16.95900 53.50700 31.89200
H  18.48100 53.02000 31.05100
H  19.23000 52.81400 33.02600
H  18.58100 51.09100 32.86200
H  11.75700 54.53600 28.82000
H  10.67300 54.09100 27.53000
H  11.40500 55.71800 27.63200
H  10.45300 56.05500 23.80500
H  11.09800 56.56600 25.35600
H  10.24700 54.93500 25.21100
H  16.52800 53.56300 21.65100
H  17.91400 50.95600 21.86700
H  14.71900 51.21800 21.89400
H  15.84800 51.04300 20.45100
H  14.82900 52.38900 20.67500
H  19.52100 53.15400 22.28400
H  18.54400 53.60100 20.93000
H  20.21100 52.40900 19.82100
H  19.35100 50.97000 20.18600
H  20.69000 51.40700 21.22500
H  22.39800 50.42500 25.74400
H  21.61500 49.55800 24.48000
H  22.11300 48.67300 25.99700
H  20.20400 50.79600 30.45000
H  19.53400 48.59800 34.12900
H  19.84700 47.21600 33.16000
H  18.32200 47.97900 33.03800

