158

Mg 9.50200 48.07400 25.94400
C  7.37500 48.10300 28.70600
C  12.00500 49.24300 27.98900
C  11.60500 48.05100 23.33600
C  6.77200 47.47600 23.85100
N  9.72100 48.58000 28.10900
C  8.67100 48.52200 29.07400
C  9.19400 48.87800 30.40900
C  10.44800 49.77300 30.11500
C  10.75900 49.20900 28.68000
C  10.37200 51.30300 30.33000
C  9.45600 47.66500 31.40200
C  9.68200 47.94700 32.91100
H  9.34300 46.87200 33.98600
N  11.55300 48.52300 25.71600
C  12.47400 48.90000 26.70100
C  13.82200 48.92500 26.08200
C  13.69600 48.51500 24.70200
C  12.26200 48.32200 24.57700
C  15.07100 49.25900 26.91900
C  14.78200 48.19600 23.68000
O  14.56900 48.00300 22.54200
C  16.20000 48.23400 24.13900
N  9.26200 47.89200 23.90100
C  10.27400 47.93000 23.01200
C  9.91200 47.36600 21.62500
C  8.39700 47.16200 21.81000
C  8.11800 47.47900 23.29100
C  10.38400 48.14500 20.32500
C  7.72100 45.88500 21.20300
C  6.79700 46.13800 19.96500
N  7.46100 47.85000 26.22800
C  6.45900 47.62300 25.24100
C  5.18900 47.45400 25.82100
C  5.50000 47.70200 27.23100
C  6.89100 47.88100 27.40900
C  3.90800 47.23200 25.16700
C  4.97600 47.71400 28.56100
O  3.88900 47.36000 28.89100
C  6.17100 48.14000 29.55300
C  6.12300 47.07700 30.57300
O  6.53700 45.96400 30.44200
O  5.49400 47.60000 31.66900
C  5.45900 46.72700 32.78700
H  12.74600 49.69900 28.64900
H  12.28400 47.88800 22.49700
H  5.91600 47.27000 23.20400
H  8.52400 49.42600 31.07000
H  11.25400 49.56200 30.81800
H  11.13900 51.63900 31.02900
H  9.45700 51.64300 30.81500
H  10.47600 51.72000 29.32800
H  10.50600 47.42700 31.23300
H  8.90700 46.75900 31.14400
H  9.03100 48.75600 33.24300
H  10.61800 48.49400 33.02100
H  14.92700 49.49400 27.97300
H  15.48400 50.16100 26.46800
H  15.78400 48.43500 26.94600
H  16.13800 47.51100 24.95200
H  16.48800 49.27100 24.31400
H  16.95100 47.87800 23.43400
H  10.32300 46.35700 21.57800
H  7.91400 48.04700 21.39500
H  9.64300 48.93000 20.17400
H  10.28100 47.45100 19.49100
H  11.44200 48.37000 20.45600
H  7.04600 45.37000 21.88600
H  8.51200 45.20500 20.88600
H  7.18600 45.48800 19.18200
H  6.83700 47.18500 19.66300
H  5.77400 45.84500 20.20000
H  3.41000 46.45800 25.75200
H  3.92900 46.99600 24.10300
H  3.41500 48.19500 25.29700
H  6.07700 49.14100 29.97500
H  6.06700 45.82300 32.75500
H  4.42100 46.47900 33.01100
H  5.90100 47.33700 33.57500
Mg -11.42800 38.76700 42.30500
C  -9.70600 35.99600 41.21000
C  -8.85000 40.78600 40.95800
C  -13.33800 41.42400 42.72200
C  -14.17400 36.68800 42.94300
N  -9.52200 38.38500 41.01600
C  -8.96200 37.17100 40.81900
C  -7.48600 37.26000 40.39100
C  -7.29400 38.83700 40.40300
C  -8.65700 39.36700 40.84700
C  -6.15500 39.43300 41.27400
C  -7.18500 36.67400 38.99600
C  -6.16500 35.50800 39.02000
H  -5.05700 35.69300 38.00100
N  -11.03100 40.84500 42.10800
C  -9.95300 41.46400 41.52600
C  -10.16400 42.87500 41.37600
C  -11.47100 43.13700 41.91100
C  -12.03500 41.77900 42.29700
C  -9.20500 43.83200 40.72700
C  -12.22500 44.49300 42.01400
O  -11.74200 45.51600 41.57400
C  -13.58200 44.59800 42.61100
N  -13.46900 39.01800 42.69500
C  -14.00700 40.23400 42.91100
C  -15.44500 40.20300 43.47800
C  -15.58700 38.67100 43.67500
C  -14.32100 38.05200 43.04600
C  -15.52100 41.04700 44.82800
C  -16.94500 38.10900 43.17600
C  -17.66000 37.15400 44.11800
N  -11.87600 36.78000 42.13900
C  -12.99500 36.01300 42.54500
C  -12.69700 34.58200 42.44100
C  -11.47600 34.54200 41.85400
C  -10.93500 35.86900 41.83100
C  -13.71700 33.44300 42.81600
C  -10.44900 33.64400 41.39200
O  -10.51400 32.41200 41.28400
C  -9.23500 34.53500 41.11200
C  -8.19400 34.29000 42.14000
O  -7.79000 35.10500 42.93900
O  -7.44000 33.15400 41.84800
C  -6.10100 33.03800 42.36000
H  -8.00500 41.44700 40.75600
H  -14.09100 42.19400 42.90200
H  -14.97000 36.10000 43.40300
H  -6.82100 36.93300 41.19000
H  -7.05500 39.23900 39.41900
H  -5.40900 39.98600 40.70300
H  -5.64000 38.58300 41.72200
H  -6.55500 40.05500 42.07500
H  -6.73100 37.46600 38.39900
H  -8.12300 36.33100 38.55900
H  -6.63200 34.53000 38.90500
H  -5.70100 35.44400 40.00400
H  -9.62500 44.08500 39.75400
H  -8.24200 43.45300 40.38400
H  -9.17500 44.74700 41.31900
H  -14.28000 44.17700 41.88800
H  -13.82600 45.65800 42.67200
H  -13.59000 44.13100 43.59600
H  -16.19700 40.60300 42.79800
H  -15.33300 38.56600 44.73000
H  -15.96400 42.02900 44.65900
H  -14.51400 41.22400 45.20700
H  -16.13000 40.61700 45.62300
H  -16.83900 37.63300 42.20100
H  -17.58200 38.93800 42.86900
H  -18.54400 37.72600 44.39800
H  -17.07100 36.86900 44.99000
H  -17.87600 36.26400 43.52600
H  -14.07400 33.73800 43.80200
H  -13.06200 32.57600 42.90500
H  -14.53100 33.26200 42.11300
H  -8.83100 34.21200 40.15300
H  -5.59900 34.00300 42.29800
H  -5.62200 32.36900 41.64500
H  -6.13300 32.59500 43.35500

