158

Mg 9.07100 4.00100 27.93400
C  10.04200 2.26800 30.88900
C  7.48100 6.37800 29.99500
C  7.48900 5.20700 25.17900
C  10.28300 1.20700 25.99600
N  8.81000 4.29000 30.19500
C  9.34400 3.44900 31.16400
C  9.07200 4.04000 32.59500
C  8.05300 5.15800 32.29800
C  8.17000 5.30700 30.69300
C  6.65900 4.98200 32.88600
C  10.35900 4.44800 33.42000
C  10.08100 4.66900 34.87100
H  10.61100 3.65200 35.93800
N  7.87000 5.72800 27.58900
C  7.36100 6.55300 28.55800
C  6.54900 7.57800 27.86900
C  6.48900 7.24500 26.50300
C  7.30900 5.98600 26.36200
C  5.86700 8.72600 28.57100
C  5.85400 8.06400 25.35500
O  5.91400 7.65100 24.20100
C  5.16200 9.35200 25.65600
N  8.91400 3.27400 25.84800
C  8.25700 4.01100 24.97600
C  8.41500 3.42000 23.56500
C  9.49500 2.33300 23.76500
C  9.51200 2.19800 25.30300
C  7.04900 2.85100 23.01100
C  10.95000 2.70400 23.22200
C  11.62200 1.58000 22.49400
N  10.10300 2.24000 28.27400
C  10.52500 1.26100 27.40000
C  11.31000 0.30800 28.24000
C  11.11400 0.63300 29.58600
C  10.36900 1.83300 29.55800
C  12.15800 -0.84300 27.76300
C  11.50300 0.31100 30.98600
O  12.16300 -0.59700 31.46300
C  10.77700 1.32000 31.85100
C  10.07100 0.49500 32.77900
O  8.95100 0.07000 32.58300
O  10.76200 0.49800 34.01200
C  9.94200 -0.11400 35.12600
H  6.92400 7.04000 30.66200
H  6.88700 5.58100 24.34800
H  10.74400 0.32200 25.55100
H  8.46800 3.23000 33.00500
H  8.36600 6.08000 32.78600
H  6.50300 5.89500 33.46100
H  6.46200 4.13500 33.54200
H  5.84900 4.89400 32.16200
H  10.64500 5.40900 32.99100
H  11.20400 3.76000 33.43700
H  9.01100 4.74300 35.06600
H  10.52600 5.61600 35.17600
H  6.33700 9.70500 28.66500
H  5.91700 8.58400 29.65100
H  4.84900 8.70900 28.18100
H  5.77800 10.00600 26.27300
H  4.34600 8.94300 26.25100
H  4.80700 9.93600 24.80700
H  8.84900 4.17600 22.91100
H  9.06700 1.38400 23.44200
H  7.14500 1.79900 22.74100
H  6.75000 3.41900 22.13000
H  6.24700 2.97800 23.73800
H  11.50500 3.09800 24.07400
H  10.80600 3.50300 22.49400
H  11.58800 1.74200 21.41600
H  11.21500 0.59600 22.72800
H  12.67800 1.41300 22.70900
H  12.71300 -0.61500 26.85300
H  11.46800 -1.68000 27.65500
H  12.82900 -1.14000 28.56900
H  11.56900 1.84400 32.38600
H  9.85300 -1.17400 34.88800
H  8.90200 0.20400 35.19100
H  10.48400 -0.04600 36.06900
Mg 35.85500 1.38700 29.55400
C  33.78500 2.22100 32.17100
C  38.54800 1.54700 31.63700
C  37.70200 0.93300 26.87700
C  33.01400 2.11300 27.32500
N  36.04100 1.69700 31.64100
C  35.09600 1.90800 32.59900
C  35.68600 2.14100 33.98600
C  37.21300 2.09000 33.73100
C  37.28800 1.82100 32.24900
C  37.99700 3.33900 34.27600
C  35.19100 1.01900 34.97200
C  34.83100 1.49100 36.43800
H  35.60800 2.66000 36.94700
N  37.84900 1.11900 29.25300
C  38.80900 1.25800 30.26400
C  40.09300 0.96900 29.71000
C  39.84800 0.67700 28.33200
C  38.38800 0.85200 28.12100
C  41.44800 1.09500 30.47300
C  40.86800 0.45900 27.20400
O  40.55500 0.29700 26.03100
C  42.31400 0.43500 27.54700
N  35.47100 1.58000 27.43500
C  36.43000 1.26700 26.55100
C  35.92500 1.24300 25.09900
C  34.43500 1.54100 25.29400
C  34.24700 1.77400 26.73100
C  36.54200 2.18600 24.05100
C  33.48500 0.35800 24.82500
C  33.23500 -0.79100 25.87100
N  33.86300 2.11800 29.61200
C  32.82400 2.30900 28.70400
C  31.62800 2.66800 29.43600
C  31.98500 2.61500 30.77300
C  33.35100 2.29800 30.80600
C  30.45700 3.01400 28.81500
C  31.54500 2.94100 32.10400
O  30.48700 3.45900 32.44700
C  32.66800 2.66000 33.10600
C  32.97700 3.85200 33.81800
O  33.44000 4.88100 33.32500
O  32.62400 3.67000 35.12000
C  32.34800 4.81000 35.93600
H  39.38100 1.58300 32.34200
H  38.25400 0.66400 25.97400
H  32.12800 2.38500 26.74700
H  35.34800 3.15600 34.19500
H  37.60200 1.23400 34.28300
H  38.63100 3.14900 35.14200
H  37.34300 4.15400 34.58400
H  38.60600 3.86900 33.54400
H  36.05000 0.37000 35.14400
H  34.41300 0.49600 34.41600
H  34.94500 0.70000 37.17900
H  33.74900 1.62400 36.42400
H  41.27400 1.27600 31.53400
H  42.05100 1.95000 30.16500
H  42.01000 0.16100 30.45600
H  42.40300 -0.33500 28.31300
H  42.60100 1.33300 28.09300
H  42.81600 0.19900 26.60800
H  36.15600 0.19600 24.90700
H  34.19000 2.46500 24.76900
H  37.21900 2.94800 24.43600
H  35.86700 2.72300 23.38500
H  37.13800 1.61600 23.33900
H  34.10000 -0.20700 24.12400
H  32.53800 0.70600 24.41200
H  33.45000 -0.62700 26.92600
H  33.99400 -1.55000 25.67800
H  32.26500 -1.26900 25.73500
H  30.65600 3.82300 28.11200
H  29.74700 3.43700 29.52600
H  30.17700 2.06500 28.35800
H  32.42900 1.83300 33.77400
H  32.97400 4.68400 36.81900
H  31.29700 4.81500 36.22600
H  32.57600 5.78900 35.51300

