158

Mg 2.27300 -1.52500 44.70500
C  5.55200 -0.67100 44.34700
C  1.52200 0.89800 42.20100
C  -0.86300 -2.58600 44.66700
C  3.34500 -4.55100 46.26200
N  3.42500 -0.24300 43.29700
C  4.79800 -0.01200 43.36600
C  5.32000 1.02100 42.38500
C  3.97000 1.50400 41.72600
C  2.89900 0.72300 42.48400
C  3.86600 3.03900 41.76900
C  6.48100 0.43200 41.43000
C  7.78100 1.22100 41.36200
H  8.28100 1.55200 39.95300
N  0.52600 -0.75000 43.79200
C  0.43500 0.19300 42.80000
C  -0.93400 0.49700 42.52400
C  -1.67100 -0.56700 43.18100
C  -0.70100 -1.35600 43.97000
C  -1.45900 1.56500 41.64000
C  -3.32500 -0.65600 43.02000
O  -3.99600 0.18500 42.41300
C  -4.05800 -1.84800 43.72500
N  1.38200 -3.37000 45.28700
C  0.03400 -3.41900 45.31400
C  -0.43500 -4.78900 45.87500
C  0.90500 -5.34400 46.45700
C  1.97200 -4.38000 45.99700
C  -1.73100 -4.98200 46.67300
C  1.30200 -6.80900 46.25600
C  1.65200 -7.80400 47.40400
N  4.05700 -2.48000 45.33200
C  4.30300 -3.60700 46.03900
C  5.66000 -3.57600 46.40600
C  6.20100 -2.40900 45.85000
C  5.15900 -1.82700 45.16700
C  6.51200 -4.57500 47.24300
C  7.35700 -1.57800 45.74000
O  8.50000 -1.74200 46.18000
C  6.94600 -0.36000 44.71400
C  7.10500 0.90500 45.38500
O  6.43800 1.31700 46.33700
O  8.21800 1.57300 44.88500
C  8.61600 2.86400 45.42100
H  1.24700 1.68500 41.49500
H  -1.89600 -2.92200 44.77800
H  3.68400 -5.40500 46.85100
H  5.56300 1.85300 43.04700
H  4.13600 1.24800 40.67900
H  4.77200 3.58200 42.03900
H  3.12300 3.14800 42.55900
H  3.53400 3.43700 40.81100
H  6.06100 0.14700 40.46500
H  6.72100 -0.54600 41.84700
H  8.56300 0.74600 41.95400
H  7.75900 2.16400 41.90800
H  -1.82200 2.41400 42.21900
H  -2.23700 1.19400 40.97300
H  -0.77200 1.89600 40.86000
H  -5.09400 -1.88400 43.38800
H  -4.03300 -1.82500 44.81500
H  -3.57400 -2.76400 43.38800
H  -0.50300 -5.32800 44.93000
H  0.91300 -5.19700 47.53700
H  -2.29500 -4.10400 46.98800
H  -1.65600 -5.70000 47.49000
H  -2.51400 -5.34700 46.00800
H  2.08600 -6.90900 45.50400
H  0.38000 -7.23100 45.85600
H  2.62600 -8.26000 47.22000
H  0.91900 -8.60800 47.46900
H  1.56600 -7.35300 48.39200
H  5.88300 -5.27200 47.79700
H  7.19500 -3.94300 47.80900
H  7.14200 -5.09300 46.51900
H  7.57900 -0.47100 43.83400
H  9.30300 3.23000 44.65800
H  8.98200 2.76600 46.44200
H  7.80100 3.58000 45.53200
Mg 41.61200 40.64700 26.49300
C  40.97800 43.12100 28.93000
C  42.94800 38.55800 28.77200
C  42.52200 38.57300 23.89100
C  40.71300 43.04500 24.02600
N  42.15900 40.95900 28.63600
C  41.59900 41.96100 29.44700
C  41.73400 41.44600 30.93900
C  42.68200 40.18600 30.79200
C  42.55500 39.83200 29.34600
C  44.14300 40.36200 31.21600
C  40.34300 41.14600 31.52800
C  39.76600 42.06700 32.62800
H  39.32900 41.33000 33.88700
N  42.53500 38.76900 26.35600
C  42.92600 38.09900 27.41000
C  43.33200 36.74900 26.98900
C  43.35000 36.79800 25.52200
C  42.73800 38.07800 25.17300
C  43.77300 35.73600 27.91700
C  43.96000 35.80200 24.53800
O  43.95600 35.94500 23.30500
C  44.69200 34.59700 25.03900
N  41.57600 40.78000 24.28400
C  42.01600 39.77000 23.45200
C  41.74600 40.15200 21.98100
C  40.89200 41.41200 22.06400
C  41.06100 41.78700 23.55600
C  43.09500 40.30300 21.13200
C  39.40500 41.25500 21.63500
C  38.45700 40.29400 22.41800
N  41.08400 42.63800 26.39600
C  40.76300 43.43500 25.32100
C  40.25000 44.77000 25.75300
C  40.34600 44.66100 27.19500
C  40.83700 43.36900 27.50400
C  39.81100 45.88200 25.01400
C  40.04700 45.38400 28.43400
O  39.55700 46.48800 28.53400
C  40.27800 44.31900 29.61000
C  41.09500 45.00800 30.68600
O  42.21800 44.68900 31.06800
O  40.26200 45.64100 31.51400
C  40.80000 45.90400 32.81200
H  43.37400 37.84500 29.48100
H  42.68900 37.86200 23.07900
H  40.37200 43.77600 23.29100
H  42.23900 42.12600 31.62400
H  42.37500 39.39400 31.47500
H  44.12800 40.68100 32.25900
H  44.70000 41.01800 30.54700
H  44.44500 39.31500 31.18300
H  40.33400 40.10800 31.86300
H  39.59900 41.29800 30.74500
H  38.84900 42.51900 32.25000
H  40.62200 42.66100 32.94700
H  44.79500 35.83500 28.28300
H  43.54100 34.74100 27.53700
H  43.06200 35.82500 28.73800
H  45.49700 34.84200 25.73100
H  45.14200 34.15300 24.15200
H  43.90400 33.95700 25.43700
H  41.15100 39.33000 21.58100
H  41.31700 42.15000 21.38400
H  43.40600 41.33700 20.97900
H  43.01200 39.86500 20.13700
H  43.95000 39.87900 21.65700
H  39.42700 40.65900 20.72300
H  38.94500 42.20400 21.35900
H  39.08300 40.03500 23.27200
H  38.24100 39.37000 21.88100
H  37.53500 40.78400 22.73000
H  40.63800 46.40200 24.53000
H  39.36500 46.66400 25.62900
H  39.07000 45.53200 24.29600
H  39.32500 44.05800 30.07000
H  41.74700 46.44300 32.77600
H  40.83100 44.92800 33.29700
H  40.06600 46.48600 33.36900

