158

Mg 53.25200 23.89200 44.68200
C  50.81600 26.09600 43.51300
C  51.44600 21.27800 43.29000
C  55.87700 21.76400 45.20300
C  55.18600 26.54400 45.45900
N  51.43400 23.73100 43.44700
C  50.60200 24.78700 43.06000
C  49.67500 24.25700 42.03600
C  49.42400 22.80500 42.48300
C  50.88200 22.55700 43.19100
C  48.16200 22.46700 43.39200
C  50.26500 24.34800 40.51700
C  49.43400 24.98000 39.44000
H  50.17000 25.72900 38.30300
N  53.58400 21.79800 44.38800
C  52.69400 20.89800 43.88000
C  53.36000 19.56200 43.79800
C  54.62600 19.67100 44.33700
C  54.78100 21.10900 44.66000
C  52.68600 18.30800 43.31000
C  55.65700 18.46200 44.40800
O  55.37900 17.39600 43.89100
C  57.05600 18.62100 44.93900
N  55.28600 24.13000 45.14000
C  56.13000 23.13200 45.41900
C  57.42200 23.66800 46.01700
C  57.29700 25.14000 45.77300
C  55.77100 25.28900 45.58000
C  57.97200 23.11200 47.32500
C  57.98500 25.70100 44.48400
C  58.33500 27.22600 44.65900
N  53.06000 25.97400 44.63300
C  53.89600 26.95400 45.13300
C  53.15600 28.19400 45.16400
C  51.95000 27.90000 44.54800
C  51.93400 26.53200 44.24100
C  53.61400 29.53300 45.71700
C  50.75800 28.56700 44.07900
O  50.54500 29.74300 44.01200
C  49.98900 27.43400 43.40100
C  49.64200 27.88400 42.03600
O  50.50100 28.16800 41.17000
O  48.32000 28.13300 41.90300
C  47.92500 28.92800 40.77200
H  50.80900 20.47500 42.91300
H  56.72200 21.12800 45.47300
H  55.84800 27.33500 45.81700
H  48.72700 24.78400 42.14600
H  49.45500 22.05500 41.69300
H  47.55000 21.71200 42.89900
H  47.55100 23.34000 43.61800
H  48.45400 22.19700 44.40700
H  50.33500 23.32100 40.15900
H  51.22800 24.86100 40.51700
H  48.79200 25.73500 39.89400
H  48.64100 24.34100 39.05200
H  53.18100 17.78800 42.49000
H  51.73700 18.51400 42.81500
H  52.44500 17.65500 44.14900
H  57.59500 17.70300 44.70100
H  56.96700 18.72600 46.02100
H  57.46500 19.44400 44.35400
H  58.19000 23.35500 45.31000
H  57.55700 25.73600 46.64800
H  58.85400 22.49000 47.17300
H  57.16900 22.52300 47.76800
H  58.19700 24.01500 47.89300
H  57.31100 25.58100 43.63600
H  58.88600 25.13400 44.25100
H  57.53200 27.91100 44.38400
H  59.29100 27.48000 44.20300
H  58.40400 27.45700 45.72200
H  53.73700 30.17100 44.84200
H  54.61500 29.42600 46.13500
H  53.03100 29.98100 46.52200
H  49.07600 27.31500 43.98400
H  48.09700 28.27400 39.91700
H  48.49000 29.83700 40.56800
H  46.85200 29.11700 40.81200
Mg 42.47800 41.63200 25.61900
C  41.65800 44.17900 27.92500
C  43.80500 39.85600 28.22800
C  43.20900 39.25200 23.44600
C  41.60400 43.76800 23.14300
N  42.85700 42.11900 27.88300
C  42.20400 43.06600 28.54600
C  42.14400 42.66600 30.07700
C  42.97400 41.40900 30.21300
C  43.22900 41.07700 28.68400
C  44.32700 41.51700 31.04200
C  40.74600 42.52400 30.74400
C  40.47400 43.10400 32.18100
H  41.41800 43.12300 33.34900
N  43.23000 39.76400 25.83900
C  43.68300 39.16400 26.98700
C  44.10900 37.76300 26.68400
C  43.92800 37.60200 25.33500
C  43.54500 38.91500 24.80700
C  44.68600 36.83200 27.70500
C  44.05200 36.34400 24.39600
O  43.92900 36.44700 23.20900
C  44.54600 35.08200 24.92700
N  42.40900 41.51600 23.64500
C  42.68400 40.41700 22.93000
C  42.51200 40.65500 21.36700
C  41.79500 42.01000 21.29400
C  41.89200 42.45000 22.77000
C  43.89700 40.66900 20.62400
C  40.26600 42.02800 20.76600
C  39.14200 41.48600 21.66100
N  41.96100 43.67900 25.45000
C  41.71700 44.44600 24.39700
C  41.33300 45.77500 24.79700
C  41.21200 45.68700 26.20200
C  41.61700 44.38600 26.58700
C  40.91900 46.97400 24.00700
C  40.80700 46.37000 27.43200
O  40.20100 47.43000 27.63200
C  41.08700 45.34900 28.61100
C  41.86700 46.05100 29.74500
O  43.03300 46.44000 29.59400
O  41.18700 46.09700 30.96000
C  41.99900 46.52100 32.10300
H  44.16700 39.27400 29.07800
H  43.28600 38.53500 22.62600
H  41.38900 44.28700 22.20700
H  42.72300 43.42000 30.61000
H  42.34400 40.60500 30.59600
H  44.33900 42.41300 31.66200
H  45.20200 41.54300 30.39200
H  44.40100 40.67500 31.72900
H  40.61500 41.44400 30.80900
H  39.94100 42.84500 30.08300
H  39.50800 42.61300 32.30100
H  40.23700 44.14800 31.97600
H  44.84300 37.32800 28.66300
H  45.68100 36.45800 27.46600
H  44.03600 36.01100 28.00800
H  43.83100 34.70700 25.65900
H  45.42800 35.29600 25.53000
H  44.90300 34.36700 24.18600
H  41.82600 39.91700 20.94900
H  42.38100 42.72000 20.70900
H  44.11500 41.60200 20.10400
H  43.93300 39.84900 19.90700
H  44.73700 40.52200 21.30400
H  40.25000 41.55900 19.78200
H  40.17000 43.11200 20.69700
H  39.70500 41.18300 22.54400
H  38.63000 40.65600 21.17500
H  38.31200 42.10100 22.00800
H  40.24700 47.59800 24.59700
H  40.48600 46.59000 23.08400
H  41.76000 47.63000 23.78500
H  40.12400 44.99100 28.97600
H  42.56200 47.44100 31.94800
H  42.71400 45.70900 32.23800
H  41.54900 46.47800 33.09500

