158

Mg 26.27100 0.49400 29.81500
C  28.17500 0.08800 32.69100
C  23.66100 1.22000 31.63200
C  24.53200 0.10600 26.99800
C  29.19900 -0.58700 28.05600
N  25.95900 0.34900 32.07000
C  26.91000 0.58300 32.97900
C  26.31000 0.99900 34.30800
C  24.83300 1.47900 33.91100
C  24.77300 1.00500 32.41400
C  23.62200 0.88200 34.64000
C  27.05600 2.12500 35.16600
C  27.54700 1.67800 36.52400
H  27.42200 2.67300 37.65700
N  24.28400 0.54600 29.35400
C  23.32600 0.93000 30.28000
C  22.06500 0.98200 29.62800
C  22.27700 0.59600 28.28400
C  23.74300 0.36300 28.12900
C  20.82900 1.50600 30.20100
C  21.31600 0.44800 27.08000
O  21.69800 0.08800 25.98900
C  19.85400 0.76100 27.26700
N  26.83400 -0.20800 27.76500
C  25.91600 -0.09900 26.82300
C  26.61500 -0.37500 25.43900
C  28.08600 -0.25500 25.74500
C  28.08100 -0.29400 27.29800
C  26.17500 -1.74400 24.83800
C  28.96900 0.88000 25.22700
C  29.30200 0.77100 23.75700
N  28.25000 -0.21100 30.22400
C  29.28500 -0.61700 29.42900
C  30.46600 -0.92300 30.22900
C  30.07300 -0.59500 31.49100
C  28.69900 -0.21900 31.43300
C  31.84000 -1.43000 29.78100
C  30.50500 -0.65700 32.84200
O  31.51900 -1.06500 33.42000
C  29.27200 -0.13200 33.67100
C  29.03000 -1.21100 34.69300
O  28.45200 -2.22800 34.52000
O  29.69300 -0.88100 35.84000
C  29.77200 -1.99500 36.81700
H  22.78700 1.55400 32.19500
H  24.00900 -0.03800 26.05100
H  30.12500 -0.85000 27.54100
H  26.35800 0.11500 34.94400
H  24.71700 2.56200 33.95500
H  24.00000 0.61200 35.62600
H  23.14600 0.02000 34.17300
H  22.83100 1.62700 34.72700
H  26.39200 2.96900 35.35200
H  27.93800 2.50000 34.64500
H  28.62300 1.64100 36.35200
H  27.17800 0.70600 36.85000
H  20.44600 2.33000 29.59900
H  21.03200 2.03000 31.13500
H  20.04800 0.76300 30.36400
H  19.38200 0.02800 27.92200
H  19.39300 0.71200 26.28000
H  19.85300 1.77400 27.66900
H  26.30000 0.31600 24.65800
H  28.57000 -1.15400 25.36300
H  25.98900 -2.48800 25.61200
H  26.97900 -2.27000 24.32300
H  25.30400 -1.66200 24.18700
H  29.82800 1.02400 25.88200
H  28.36000 1.77700 25.33600
H  30.35400 1.05800 23.74500
H  28.78500 1.40100 23.03300
H  29.30300 -0.24600 23.36600
H  32.50800 -1.36600 30.64000
H  32.17200 -0.84800 28.92200
H  31.63100 -2.40300 29.33600
H  29.62800 0.74900 34.20500
H  30.61100 -1.75300 37.46900
H  30.13700 -2.91200 36.35600
H  28.83100 -2.10500 37.35600
Mg 46.28200 16.09400 28.95800
C  44.40100 15.57200 31.87300
C  48.22400 18.14800 30.78500
C  47.75200 16.97300 26.10300
C  43.66700 14.59500 27.15000
N  46.15400 16.87900 31.10900
C  45.51700 16.34400 32.16400
C  46.06600 16.79500 33.50800
C  47.10500 17.84400 33.08500
C  47.15400 17.66300 31.52300
C  46.93700 19.34900 33.54400
C  46.43800 15.64600 34.45300
C  46.37700 15.89600 35.99000
H  46.44000 17.29900 36.54500
N  47.86100 17.27000 28.53900
C  48.53300 17.99400 29.40900
C  49.69700 18.55800 28.72900
C  49.60100 18.22900 27.41400
C  48.40300 17.43900 27.29800
C  50.73600 19.19700 29.59900
C  50.65400 18.53800 26.29600
O  50.47700 18.13900 25.15400
C  51.90000 19.33000 26.62400
N  45.81600 15.74800 26.94500
C  46.59600 16.21300 25.95600
C  46.01300 15.78800 24.60100
C  44.88300 14.81200 24.97200
C  44.71600 15.14300 26.42200
C  45.61400 17.07900 23.82200
C  45.13300 13.37800 24.57400
C  46.01800 12.55300 25.48300
N  44.44200 15.17200 29.40300
C  43.45700 14.58200 28.50000
C  42.37600 14.11500 29.30800
C  42.71600 14.40800 30.65700
C  43.91300 15.13300 30.61800
C  41.03200 13.56400 28.77400
C  42.23900 14.37900 32.02600
O  41.23500 13.97600 32.59100
C  43.29400 15.22800 32.81300
C  42.72900 16.43300 33.48200
O  42.30000 17.37100 32.84200
O  42.74000 16.27900 34.84500
C  42.07500 17.37400 35.49900
H  49.03600 18.56100 31.38800
H  48.25100 17.12400 25.14400
H  42.86400 14.05600 26.64200
H  45.23600 17.30100 34.00200
H  48.07200 17.56700 33.50700
H  47.88100 19.70600 33.95600
H  46.11000 19.48000 34.24100
H  46.68300 19.98400 32.69500
H  47.47700 15.32500 34.38100
H  45.84200 14.82400 34.05500
H  47.02400 15.24800 36.58200
H  45.38500 15.51800 36.23700
H  50.28900 19.67900 30.46900
H  51.37300 19.95300 29.13800
H  51.38600 18.37500 29.89900
H  52.67300 19.20100 25.86600
H  52.45200 18.72500 27.34300
H  51.65200 20.29500 27.06600
H  46.86900 15.41300 24.04000
H  43.94000 15.12600 24.52400
H  44.66300 17.41900 24.23200
H  45.47600 16.97500 22.74600
H  46.34200 17.86900 24.00600
H  45.49800 13.24500 23.55500
H  44.10200 13.02600 24.53400
H  46.60600 13.18900 26.14400
H  46.66200 11.77900 25.06700
H  45.28300 12.08300 26.13700
H  40.32900 13.98500 29.49200
H  41.04500 12.47500 28.72700
H  40.74700 13.97200 27.80500
H  43.62900 14.60500 33.64200
H  41.88700 17.30700 36.57000
H  41.07100 17.45400 35.08100
H  42.67100 18.27300 35.34300

