158

Mg 2.22100 -0.77200 44.32100
C  5.41900 0.31300 43.54100
C  0.88900 1.90400 42.65300
C  -0.74600 -2.45400 44.05400
C  3.64700 -3.84400 45.43500
N  3.09400 0.96600 43.32400
C  4.38700 1.14300 42.99500
C  4.61900 2.42500 42.21900
C  3.19800 3.00600 42.09400
C  2.31800 1.90000 42.67100
C  3.05600 4.46800 42.63600
C  5.41700 2.32200 40.83900
C  5.88000 3.66700 40.30100
H  5.45800 4.04400 38.87800
N  0.26700 -0.25700 43.63400
C  -0.02300 0.94800 43.09300
C  -1.46800 0.95200 42.84100
C  -1.96900 -0.38400 43.14900
C  -0.79400 -1.13400 43.56500
C  -2.11200 2.00700 42.05400
C  -3.47900 -0.90100 43.02100
O  -4.37500 -0.05500 42.90800
C  -4.02200 -2.33600 43.20000
N  1.65600 -2.93300 44.52700
C  0.30500 -3.20100 44.57400
C  0.07100 -4.73500 45.04000
C  1.49000 -5.10300 45.57400
C  2.32800 -3.90900 45.15800
C  -1.08100 -4.91400 46.05400
C  1.94200 -6.51000 45.16000
C  1.23800 -7.70300 45.76500
N  4.14100 -1.58600 44.67200
C  4.57900 -2.75800 45.13200
C  6.00300 -2.77000 45.29900
C  6.41600 -1.55900 44.72100
C  5.27400 -0.87800 44.28300
C  6.80000 -3.91400 45.95200
C  7.52900 -0.75900 44.38400
O  8.73000 -0.94100 44.62700
C  6.93100 0.54400 43.65500
C  7.21700 1.73800 44.60800
O  7.02400 1.81400 45.79300
O  7.75500 2.77900 43.86800
C  8.28400 3.92700 44.64600
H  0.50700 2.80600 42.16900
H  -1.67500 -3.01800 43.94500
H  4.17300 -4.65500 45.94300
H  5.27900 3.11200 42.74800
H  3.10100 3.13000 41.01500
H  3.10400 5.22000 41.84900
H  3.76100 4.81500 43.39100
H  2.04600 4.65400 43.00100
H  4.77300 1.81800 40.11800
H  6.33800 1.74400 40.92400
H  6.96900 3.68700 40.25100
H  5.53300 4.53800 40.85700
H  -2.16700 1.69400 41.01100
H  -1.60800 2.96000 42.21000
H  -3.14300 2.07200 42.40100
H  -5.08700 -2.37600 42.97200
H  -3.88000 -2.73100 44.20600
H  -3.50600 -2.93500 42.44900
H  -0.12300 -5.22400 44.08500
H  1.55800 -5.03200 46.66000
H  -1.88200 -5.43500 45.53000
H  -1.54400 -3.95800 46.29700
H  -0.82100 -5.40200 46.99400
H  3.01700 -6.63600 45.29100
H  1.77700 -6.62100 44.08800
H  1.85500 -8.49600 46.18800
H  0.82200 -8.18100 44.87800
H  0.53300 -7.44200 46.55400
H  6.46400 -4.15200 46.96100
H  7.82600 -3.54700 45.90300
H  6.79400 -4.79700 45.31300
H  7.54600 0.77000 42.78400
H  9.11000 4.40500 44.12100
H  8.73800 3.60200 45.58200
H  7.44600 4.55700 44.94300
Mg 41.52700 8.63800 29.74500
C  43.31900 9.69300 32.36500
C  39.18500 7.32400 31.97700
C  39.95500 7.17100 27.08200
C  44.19400 9.44000 27.54800
N  41.35300 8.47700 31.87200
C  42.10100 9.19500 32.75800
C  41.65800 9.05600 34.16100
C  40.50000 8.04500 34.13700
C  40.32000 7.92000 32.59200
C  40.83800 6.63300 34.71800
C  41.37100 10.47400 34.67600
C  40.96200 10.67300 36.15100
H  41.73700 9.94800 37.25700
N  39.75800 7.47000 29.53600
C  38.90800 7.08000 30.59100
C  37.83100 6.25600 30.01900
C  37.94500 6.32300 28.59600
C  39.30400 6.90000 28.33300
C  36.68000 5.48800 30.82300
C  36.84100 6.01500 27.49400
O  37.10900 6.24700 26.30300
C  35.44600 5.63100 27.89400
N  42.09500 8.28500 27.71100
C  41.18700 7.77300 26.82200
C  41.63900 7.94300 25.35700
C  42.86700 8.85000 25.53500
C  43.09200 8.86200 26.96900
C  42.06600 6.59900 24.65600
C  42.68300 10.28000 25.04400
C  43.84200 10.78500 24.24000
N  43.40300 9.39400 29.90500
C  44.37300 9.65700 28.95400
C  45.52500 10.22300 29.66300
C  45.08800 10.29000 30.98700
C  43.88000 9.76800 31.11300
C  46.85000 10.68300 29.10300
C  45.49600 10.77300 32.27300
O  46.44200 11.40700 32.70300
C  44.37600 10.33300 33.25200
C  45.02300 9.37800 34.24600
O  44.85600 8.17200 34.16100
O  45.61700 10.13100 35.23100
C  46.07100 9.36700 36.42200
H  38.56300 6.88600 32.76000
H  39.56800 6.58800 26.24400
H  44.92000 9.92500 26.89200
H  42.43100 8.61700 34.79100
H  39.60600 8.42600 34.62900
H  41.88800 6.48200 34.97000
H  40.55200 5.86800 33.99700
H  40.16500 6.67300 35.57400
H  40.37200 10.73500 34.32800
H  42.02300 11.25000 34.27500
H  39.88000 10.62200 36.27700
H  41.26900 11.69600 36.36800
H  35.78700 6.10300 30.71200
H  36.91800 5.32300 31.87400
H  36.49300 4.50400 30.39400
H  34.92100 6.35700 28.51500
H  35.52300 4.66400 28.39100
H  34.95400 5.45200 26.93800
H  40.81500 8.41200 24.81900
H  43.85500 8.47500 25.26600
H  41.80200 5.77600 25.32000
H  43.13800 6.50800 24.48000
H  41.58300 6.41500 23.69700
H  42.45900 11.00800 25.82400
H  41.86400 10.26500 24.32500
H  44.27600 11.63400 24.76900
H  43.47700 11.26100 23.33000
H  44.69600 10.12100 24.10900
H  47.17800 10.06900 28.26500
H  47.58000 10.57900 29.90600
H  46.74600 11.72100 28.78700
H  44.14600 11.27500 33.75000
H  45.36300 9.59400 37.22000
H  47.05800 9.73900 36.69900
H  46.00600 8.29600 36.23000

