158

Mg 55.83700 25.53700 45.38000
C  53.12700 26.87100 43.35200
C  54.77300 22.40900 44.36000
C  58.84800 24.28400 46.13000
C  56.85200 28.70600 45.94200
N  54.12300 24.78800 43.89600
C  53.13900 25.49200 43.26400
C  52.12200 24.52000 42.62200
C  52.45500 23.17700 43.28300
C  53.87700 23.39900 43.87900
C  51.48300 23.00200 44.47300
C  52.24700 24.45000 41.06800
C  50.86300 24.38000 40.35900
H  50.77100 23.73100 38.92100
N  56.66600 23.58400 45.36900
C  56.06900 22.45700 44.92600
C  56.94600 21.30800 45.08400
C  58.22200 21.84300 45.41800
C  58.00500 23.31600 45.69000
C  56.47900 19.93300 44.74300
C  59.54100 21.11800 45.53600
O  59.53900 19.84900 45.39900
C  60.87400 21.72000 45.91300
N  57.71400 26.37800 45.75600
C  58.73600 25.70100 46.21200
C  59.87500 26.61600 46.83200
C  59.19500 27.98400 46.78600
C  57.85000 27.69900 46.09400
C  60.23000 26.17400 48.23200
C  59.93600 29.19300 46.11800
C  60.22200 30.31900 47.16600
N  55.12100 27.40800 44.93900
C  55.56200 28.60200 45.33000
C  54.52700 29.61100 45.06100
C  53.57500 29.02100 44.20100
C  53.99900 27.64800 44.14000
C  54.57600 31.04600 45.47000
C  52.34300 29.24800 43.48500
O  51.59900 30.18600 43.33100
C  52.14000 27.86400 42.79400
C  52.29300 28.02000 41.21200
O  53.25600 27.71000 40.60800
O  51.15200 28.70300 40.71400
C  51.04800 28.88300 39.26600
H  54.54100 21.36900 44.12100
H  59.78400 23.92700 46.56600
H  57.06700 29.63700 46.47100
H  51.08700 24.74900 42.87500
H  52.51300 22.35300 42.57200
H  50.51200 22.52600 44.34000
H  51.32800 23.91400 45.04900
H  51.85400 22.40900 45.31000
H  52.86400 23.59500 40.79000
H  52.84000 25.27800 40.67900
H  50.51600 25.41200 40.32300
H  50.22900 23.92800 41.12200
H  55.49500 19.65000 45.11500
H  57.12100 19.13000 45.10300
H  56.38100 19.76100 43.67100
H  61.11400 22.60900 45.33100
H  61.56700 20.97900 45.51500
H  60.94800 21.85700 46.99200
H  60.80700 26.55800 46.27000
H  58.84800 28.23100 47.78900
H  61.18400 25.67000 48.07500
H  59.42300 25.49300 48.50000
H  60.30700 26.99400 48.94700
H  59.52100 29.75200 45.27900
H  60.94500 28.91600 45.81300
H  59.30100 30.38000 47.74500
H  60.52000 31.25100 46.68600
H  61.02900 30.06400 47.85300
H  53.58500 31.31600 45.83500
H  54.91300 31.64100 44.62100
H  55.24600 31.31300 46.28800
H  51.08900 27.59900 42.91500
H  50.19600 29.51100 39.00500
H  51.03600 27.91700 38.76000
H  51.95100 29.40800 38.95300
Mg 47.89100 15.43300 29.10100
C  45.92200 15.46300 31.99700
C  50.36200 17.03200 30.71800
C  49.55800 15.67500 26.08000
C  45.23300 13.86400 27.36600
N  48.08800 16.11800 31.16000
C  47.20900 15.96800 32.18500
C  47.88100 16.41100 33.46500
C  49.15700 17.21400 32.98200
C  49.25900 16.75800 31.51900
C  49.14500 18.79400 33.10400
C  48.12500 15.16500 34.47400
C  47.52000 15.26700 35.89000
H  47.78800 16.47700 36.68700
N  49.66900 16.28700 28.44300
C  50.56800 16.81900 29.31900
C  51.76800 17.06700 28.65000
C  51.61800 16.65300 27.28000
C  50.23600 16.20000 27.20800
C  53.04900 17.48100 29.35000
C  52.66000 16.62500 26.20800
O  52.40300 16.06200 25.12600
C  54.13300 17.03100 26.51500
N  47.47200 14.73400 27.04200
C  48.32600 15.02200 26.03200
C  47.73000 14.45500 24.69300
C  46.39200 13.73200 25.14800
C  46.33200 14.16100 26.64000
C  47.56000 15.40800 23.49900
C  46.42500 12.14400 25.13300
C  45.48200 11.37200 24.21500
N  45.87800 14.84800 29.49500
C  44.95400 14.10900 28.75100
C  43.75200 13.89000 29.52100
C  44.02800 14.44100 30.81400
C  45.33500 14.98300 30.72900
C  42.49500 13.11700 29.09400
C  43.55800 14.63300 32.17100
O  42.50600 14.39300 32.82700
C  44.75800 15.25700 32.96900
C  44.38100 16.43800 33.79300
O  44.49500 17.64500 33.42200
O  43.85700 16.13400 34.98400
C  43.35900 17.19600 35.84900
H  51.19100 17.42500 31.31000
H  50.09300 15.66400 25.12800
H  44.43600 13.46500 26.73500
H  47.19100 17.02300 34.04600
H  50.01800 16.77700 33.48700
H  48.29300 19.28700 33.57400
H  49.16400 19.16900 32.08100
H  50.01700 19.08000 33.69300
H  49.18700 14.94700 34.58000
H  47.68100 14.34200 33.91400
H  47.68600 14.34800 36.45200
H  46.43800 15.22800 35.76400
H  53.69400 16.60200 29.37800
H  52.82200 17.66700 30.40000
H  53.40000 18.40100 28.88200
H  54.57000 16.26100 27.15100
H  54.21100 17.99200 27.02400
H  54.67600 17.09400 25.57300
H  48.35800 13.68100 24.25100
H  45.55100 14.18200 24.62100
H  48.18700 16.29900 23.54200
H  46.54200 15.79200 23.44300
H  47.79400 14.76300 22.65200
H  46.18500 11.82200 26.14600
H  47.40700 11.86000 24.75300
H  46.10500 10.68600 23.64200
H  45.01400 12.09800 23.55000
H  44.78900 10.74000 24.77000
H  42.22600 12.45100 29.91400
H  42.89600 12.54200 28.26000
H  41.67200 13.76100 28.78300
H  45.19100 14.49700 33.61900
H  44.14000 17.65400 36.45500
H  42.71600 16.61400 36.50900
H  42.77800 17.89200 35.24400

