158

Mg 26.98500 51.02600 25.67900
C  25.34600 52.32500 28.43200
C  29.45100 49.78100 27.80100
C  28.77800 50.16400 23.07700
C  24.85700 52.85300 23.54200
N  27.40600 51.18600 27.85700
C  26.50200 51.60700 28.78700
C  26.91600 51.24700 30.25400
C  28.24000 50.53100 30.00200
C  28.41900 50.53100 28.46600
C  29.44900 51.21100 30.68700
C  25.82800 50.40400 31.07400
C  25.21800 51.23900 32.26900
H  25.29700 50.61700 33.67900
N  28.89700 50.22200 25.46900
C  29.67100 49.61800 26.42700
C  30.72700 48.85600 25.81200
C  30.46500 48.82600 24.40100
C  29.32400 49.85600 24.25300
C  31.92200 48.31100 26.60500
C  31.10300 48.06600 23.26000
O  30.68900 48.05800 22.13800
C  32.28400 47.12400 23.59300
N  26.85500 51.45400 23.62100
C  27.66500 50.90300 22.74500
C  27.27700 51.05800 21.23700
C  26.06300 52.05000 21.43800
C  25.79800 52.07200 22.93900
C  28.42000 51.76800 20.46600
C  24.79900 51.63700 20.64900
C  24.54800 52.50900 19.35400
N  25.32800 52.23600 25.88300
C  24.58200 52.93900 24.97700
C  23.54700 53.65000 25.70100
C  23.78400 53.39200 27.02600
C  24.94900 52.57100 27.09200
C  22.42500 54.37800 25.09300
C  23.25900 53.58100 28.32900
O  22.33100 54.30600 28.63800
C  24.24200 52.93500 29.36000
C  24.85400 54.02000 30.25700
O  26.02300 54.44700 30.07600
O  24.12000 54.27100 31.40500
C  24.83800 55.15100 32.41300
H  30.11000 49.20700 28.45600
H  29.30600 49.83800 22.17900
H  24.21900 53.54400 22.98800
H  27.12800 52.17300 30.78900
H  28.17800 49.49900 30.34600
H  29.71400 52.17100 30.24400
H  30.29900 50.54300 30.54500
H  29.18300 51.38500 31.72900
H  26.30900 49.56100 31.56900
H  24.96000 49.97100 30.57600
H  24.16000 51.34600 32.02800
H  25.74100 52.19100 32.35400
H  32.26100 48.97400 27.40100
H  32.76300 48.50700 25.94100
H  31.82800 47.24200 26.79300
H  31.92400 46.47700 24.39300
H  33.13400 47.79500 23.71600
H  32.50800 46.46100 22.75800
H  27.02300 50.04500 20.92700
H  26.38500 53.07000 21.22700
H  28.10500 52.74300 20.09200
H  28.47500 51.16400 19.56000
H  29.37000 51.87300 20.98900
H  23.94100 51.53800 21.31400
H  25.10200 50.65000 20.30000
H  24.44800 51.91700 18.44500
H  25.28500 53.28200 19.13500
H  23.60700 53.05600 19.41300
H  21.85600 53.70000 24.45700
H  22.82900 55.11100 24.39500
H  21.81200 54.81600 25.88100
H  23.69100 52.13800 29.86000
H  24.72800 56.20300 32.14900
H  25.90100 54.91000 32.41200
H  24.49800 55.06300 33.44400
Mg -11.21300 38.16800 42.60800
C  -8.95000 35.46400 42.21100
C  -9.00400 40.32200 41.08500
C  -13.67500 40.44900 42.29700
C  -13.58500 35.74200 43.68100
N  -9.22300 37.82200 41.57700
C  -8.52900 36.65600 41.56700
C  -7.29000 36.84400 40.69600
C  -7.16500 38.46500 40.58400
C  -8.50400 38.96900 41.15000
C  -5.84600 39.03900 41.08300
C  -7.34100 36.14100 39.28400
C  -6.20000 35.05700 39.10100
H  -5.12200 35.58800 38.16600
N  -11.24900 40.10500 42.06500
C  -10.24900 40.83000 41.46800
C  -10.67800 42.17700 41.25000
C  -12.05100 42.29400 41.55100
C  -12.41100 40.91300 42.00000
C  -9.70000 43.14700 40.71900
C  -12.91300 43.54200 41.34800
O  -12.36500 44.53900 40.91200
C  -14.38200 43.62900 41.68800
N  -13.33500 38.09500 42.86300
C  -14.13000 39.13300 42.67800
C  -15.65600 38.76900 43.00000
C  -15.50100 37.25000 43.35300
C  -14.01300 37.02000 43.41300
C  -16.35800 39.69500 44.11000
C  -16.14000 36.23700 42.41900
C  -16.79800 34.96600 42.97200
N  -11.28200 36.00100 42.92200
C  -12.29500 35.19300 43.43900
C  -11.81900 33.77100 43.48400
C  -10.45300 33.93800 43.15400
C  -10.20100 35.27000 42.77800
C  -12.59700 32.56000 43.99100
C  -9.15400 33.23000 43.00200
O  -8.84300 32.09800 43.28000
C  -8.19600 34.13500 42.29000
C  -6.89100 34.22100 43.00800
O  -6.04300 33.35500 42.91200
O  -6.63700 35.49200 43.56600
C  -5.29400 35.66000 44.21600
H  -8.22500 40.98900 40.71000
H  -14.46800 41.19900 42.25900
H  -14.33200 34.99700 43.96300
H  -6.40400 36.56900 41.26800
H  -7.11700 38.71600 39.52400
H  -5.10100 39.18300 40.30000
H  -5.33100 38.41200 41.81000
H  -6.02600 39.95500 41.64600
H  -7.43500 36.79000 38.41300
H  -8.22000 35.50300 39.19000
H  -6.51100 34.08600 38.71500
H  -5.79400 34.82800 40.08600
H  -9.62400 42.82000 39.68200
H  -8.73500 43.01200 41.20700
H  -10.07100 44.16100 40.86800
H  -14.51800 43.61500 42.76900
H  -15.04700 42.88300 41.25300
H  -14.73000 44.58900 41.30700
H  -16.22500 38.76400 42.07100
H  -15.94600 37.02000 44.32100
H  -17.24700 40.24900 43.80900
H  -15.74300 40.55300 44.38100
H  -16.44900 38.97400 44.92200
H  -15.39500 35.78100 41.76600
H  -16.96800 36.67400 41.86200
H  -17.86200 35.04800 42.74800
H  -16.68600 34.87600 44.05200
H  -16.34400 34.10600 42.48000
H  -12.70400 31.82600 43.19300
H  -13.61400 32.93100 44.11900
H  -12.09900 32.13800 44.86400
H  -8.00700 33.69800 41.31000
H  -4.50900 35.65500 43.45900
H  -5.15100 34.84900 44.92900
H  -5.33700 36.60800 44.75300

