158

Mg -1.63200 17.21900 26.67300
C  -2.07800 14.83600 29.07200
C  -2.42300 19.60800 28.85900
C  -1.47200 19.37900 24.11400
C  -1.87800 14.62200 24.18100
N  -1.86400 17.18900 28.78800
C  -1.94200 16.11400 29.57700
C  -2.10600 16.57900 31.06400
C  -2.73500 18.04600 30.90700
C  -2.39100 18.31900 29.38900
C  -4.19600 18.34300 31.23900
C  -0.68400 16.63200 31.67000
C  -0.52400 17.22800 33.10400
H  -0.29900 16.30200 34.32500
N  -1.77500 19.21800 26.49000
C  -1.96300 20.06600 27.62200
C  -1.94900 21.49500 27.18000
C  -1.74000 21.44700 25.72600
C  -1.62500 19.97900 25.35700
C  -2.37900 22.63500 28.07300
C  -1.79000 22.55700 24.73100
O  -1.68000 22.40900 23.51700
C  -1.89600 23.90200 25.30500
N  -1.59400 16.99700 24.52800
C  -1.51600 18.08900 23.69400
C  -1.60700 17.68800 22.25300
C  -1.46400 16.16100 22.25000
C  -1.64900 15.92500 23.72700
C  -2.88800 18.20900 21.54200
C  -0.12500 15.64800 21.55300
C  1.07400 15.36200 22.52100
N  -1.87900 15.13400 26.58600
C  -2.02900 14.21800 25.51800
C  -2.20400 12.89300 26.01000
C  -2.21900 13.10400 27.41600
C  -2.03500 14.49200 27.69600
C  -2.09200 11.73700 25.23200
C  -2.24800 12.46900 28.72500
O  -2.30100 11.27400 29.03200
C  -2.41300 13.58900 29.81300
C  -1.53700 13.37800 30.98000
O  -0.39500 13.05700 31.06300
O  -2.38700 13.55000 32.05700
C  -1.86200 13.46800 33.44100
H  -2.64200 20.34800 29.63200
H  -1.34000 20.12600 23.32700
H  -1.93600 13.82200 23.44000
H  -2.78800 15.87600 31.54200
H  -2.21300 18.74600 31.56000
H  -4.13300 19.23500 31.86200
H  -4.61700 17.46100 31.72100
H  -4.77200 18.61600 30.35400
H  0.03700 17.06700 30.97900
H  -0.28300 15.63900 31.87300
H  -1.47900 17.74300 33.20800
H  0.25600 17.99000 33.11300
H  -2.76500 22.29500 29.03500
H  -3.21900 23.04600 27.51400
H  -1.47100 23.22400 28.20100
H  -1.74800 24.61100 24.49000
H  -1.02900 23.94100 25.96300
H  -2.88800 24.05400 25.73200
H  -0.82000 18.19700 21.69600
H  -2.34100 15.61800 21.89800
H  -3.59100 17.37900 21.48400
H  -2.63700 18.40500 20.49900
H  -3.29600 19.10000 22.02000
H  0.24700 16.45700 20.92400
H  -0.34300 14.82900 20.86900
H  0.77700 15.27800 23.56600
H  1.79500 16.17800 22.47500
H  1.63500 14.49400 22.17700
H  -2.95800 11.54100 24.60000
H  -2.07900 10.93300 25.96700
H  -1.13000 11.77300 24.72200
H  -3.47100 13.68200 30.05900
H  -2.40200 14.16600 34.08100
H  -0.80800 13.74400 33.48200
H  -1.89500 12.43500 33.78700
Mg 0.69500 43.77300 26.09000
C  2.79300 43.32000 28.69400
C  -1.86100 42.40900 27.92100
C  -1.20600 43.64500 23.23300
C  3.56400 44.54300 24.06700
N  0.47300 43.00000 28.08600
C  1.48900 43.00900 28.98500
C  0.89700 42.67600 30.40800
C  -0.58100 42.19200 30.04300
C  -0.66400 42.43000 28.52500
C  -0.92700 40.72000 30.55700
C  0.95200 43.86800 31.39100
C  0.58700 43.54300 32.87800
H  0.40400 42.14200 33.39200
N  -1.32700 43.24800 25.66900
C  -2.22900 42.67300 26.57800
C  -3.56200 42.46200 25.96800
C  -3.37700 42.86700 24.56400
C  -1.88900 43.28400 24.42900
C  -4.77300 41.91400 26.71700
C  -4.33800 42.87500 23.43300
O  -4.08200 43.28100 22.25500
C  -5.74800 42.56600 23.63600
N  1.19000 43.75000 23.91900
C  0.14000 43.88800 22.99000
C  0.63500 44.32800 21.62700
C  2.06400 44.73500 21.99100
C  2.31400 44.29000 23.45400
C  0.51300 43.19700 20.54000
C  2.32100 46.21300 21.77100
C  1.68900 47.20300 22.74600
N  2.86200 43.87800 26.28700
C  3.84500 44.25300 25.39900
C  5.07200 44.29500 26.09100
C  4.77500 43.92400 27.42100
C  3.37800 43.71100 27.46300
C  6.37400 44.68900 25.52000
C  5.27500 43.64900 28.71800
O  6.38800 43.65900 29.11600
C  4.04000 43.28500 29.64200
C  4.32500 41.95600 30.22600
O  4.21000 40.90200 29.64600
O  4.76800 42.11500 31.52600
C  4.80000 40.73200 32.15400
H  -2.61000 41.87000 28.50500
H  -1.82900 43.75500 22.34300
H  4.39800 45.01000 23.54100
H  1.53500 41.92900 30.88000
H  -1.16000 42.94000 30.58400
H  -1.75200 40.53700 31.24600
H  -0.00500 40.40500 31.04600
H  -1.12000 40.07100 29.70200
H  0.19500 44.54900 30.99900
H  1.90900 44.37900 31.28600
H  -0.28600 44.11000 33.19900
H  1.48200 43.88400 33.39900
H  -5.09600 41.01200 26.19600
H  -5.54300 42.67900 26.62400
H  -4.53400 41.59600 27.73200
H  -6.26500 42.59100 22.67700
H  -6.22200 43.29300 24.29500
H  -5.75000 41.58600 24.11300
H  0.04900 45.17800 21.28000
H  2.68500 44.14300 21.31800
H  -0.54100 43.10400 20.28100
H  1.03200 42.29300 20.85600
H  0.93500 43.65500 19.64500
H  1.99000 46.34500 20.74100
H  3.40900 46.25400 21.82700
H  0.75900 46.80800 23.15300
H  1.49000 48.15100 22.24500
H  2.42300 47.48100 23.50300
H  7.12900 44.47700 26.27600
H  6.52800 45.74400 25.29700
H  6.49100 44.03900 24.65200
H  4.06400 44.00300 30.46300
H  5.74400 40.21600 31.97500
H  3.92200 40.11400 31.96900
H  4.78900 41.04200 33.19900

