158

Mg 45.18200 4.11100 46.29400
C  43.43000 7.12200 46.28500
C  42.06100 2.50400 45.80200
C  46.69100 1.23600 45.48900
C  48.18000 5.90600 46.06900
N  42.99500 4.74800 45.95700
C  42.56000 6.06600 45.94500
C  41.03900 6.09400 45.81800
C  40.60600 4.60400 46.08900
C  41.92300 3.87600 45.97500
C  40.00000 4.35500 47.51300
C  40.50500 6.48100 44.48300
C  39.76800 7.81400 44.28900
H  40.29000 8.77000 43.22800
N  44.52000 2.15900 45.83700
C  43.19500 1.72100 45.66200
C  43.08000 0.24400 45.38100
C  44.44100 -0.15900 45.38100
C  45.33500 1.06700 45.56200
C  41.81600 -0.55200 45.07300
C  44.96200 -1.48600 45.04000
O  44.22100 -2.40500 44.68000
C  46.40600 -1.85500 44.91700
N  47.12600 3.69400 45.84500
C  47.51000 2.41100 45.65100
C  49.09400 2.29700 45.47200
C  49.55700 3.78900 45.57900
C  48.18300 4.53600 45.79800
C  49.84100 1.36800 46.51000
C  50.36700 4.41200 44.38200
C  51.61600 5.19300 44.75900
N  45.73000 6.12500 46.27100
C  46.98900 6.70700 46.22300
C  46.83600 8.14700 46.36900
C  45.44300 8.36900 46.43400
C  44.81400 7.10800 46.37500
C  47.87600 9.21800 46.41900
C  44.42100 9.40000 46.50400
O  44.47000 10.63100 46.59600
C  43.09500 8.59900 46.38500
C  42.35400 8.85700 47.63800
O  42.27400 8.07800 48.56200
O  41.62500 9.98800 47.45800
C  40.57000 10.31100 48.40700
H  41.11700 1.95600 45.75800
H  47.38400 0.43900 45.20900
H  49.19900 6.29600 46.01100
H  40.60600 6.73700 46.58400
H  39.83900 4.30700 45.37500
H  40.31200 5.17200 48.16300
H  40.30200 3.40600 47.95700
H  38.91300 4.27700 47.49000
H  39.89600 5.76900 43.92600
H  41.39400 6.73700 43.90800
H  39.81000 8.40400 45.20400
H  38.71200 7.57600 44.15900
H  40.95600 0.09500 45.25000
H  41.78200 -1.39200 45.76700
H  41.88300 -0.86800 44.03200
H  46.56500 -1.33600 43.97200
H  46.50800 -2.94000 44.94000
H  47.04700 -1.50300 45.72500
H  49.27800 1.96800 44.44900
H  50.10100 4.03100 46.49200
H  50.36600 0.61600 45.92200
H  49.10400 0.96600 47.20500
H  50.58400 2.00300 46.99300
H  49.65800 5.07300 43.88400
H  50.58500 3.67600 43.60900
H  51.87900 5.26600 45.81500
H  51.37400 6.11200 44.22500
H  52.52600 4.79300 44.31200
H  47.62400 10.21200 46.78800
H  48.38700 9.28100 45.45800
H  48.64000 8.86400 47.11100
H  42.52200 9.00400 45.55100
H  40.60200 9.92000 49.42400
H  39.73300 9.82800 47.90200
H  40.31500 11.35700 48.57100
Mg 5.22100 54.91100 41.60100
C  3.99300 51.58200 41.19500
C  8.31100 53.91000 40.37700
C  6.22200 58.18700 41.69900
C  1.95400 55.74000 42.69300
N  6.09900 52.97400 40.91300
C  5.36400 51.83300 40.70000
C  6.17100 50.88900 39.85800
C  7.65800 51.38000 40.10700
C  7.37400 52.83700 40.41600
C  8.48100 50.56100 41.14600
C  5.77100 51.02200 38.37700
C  5.54400 49.75800 37.47000
H  6.08900 49.76300 36.06100
N  6.85200 55.91000 40.94200
C  8.06400 55.27000 40.68600
C  9.12300 56.23100 40.55600
C  8.61600 57.54100 40.94400
C  7.17000 57.26400 41.23400
C  10.54800 55.89000 40.16800
C  9.45600 58.76000 41.16700
O  10.63800 58.65900 40.90000
C  8.83500 60.05900 41.68400
N  4.21700 56.68500 41.86700
C  4.87500 57.88300 42.01800
C  3.99200 58.98200 42.63800
C  2.58800 58.15300 42.83100
C  2.94600 56.75700 42.45300
C  4.51600 59.85600 43.86700
C  1.36300 58.74100 42.10800
C  0.11300 59.16400 42.98000
N  3.37700 53.88600 41.97700
C  2.16200 54.34000 42.45100
C  1.22500 53.24500 42.68800
C  1.92600 52.14300 42.29300
C  3.18900 52.58500 41.78800
C  -0.16900 53.34300 43.26900
C  1.86800 50.70800 42.09200
O  0.98600 49.89800 42.33200
C  3.26100 50.25200 41.43200
C  2.96700 49.26000 40.26700
O  2.43900 49.58700 39.21600
O  3.35300 48.01700 40.63900
C  2.77200 46.89100 39.84800
H  9.27400 53.51100 40.05200
H  6.54800 59.22100 41.83100
H  0.94400 55.90900 43.07400
H  6.15300 49.89700 40.30900
H  8.24500 51.31900 39.19100
H  9.41100 50.18000 40.72500
H  7.93100 49.68900 41.50100
H  8.77800 51.11600 42.03500
H  6.41400 51.79100 37.95100
H  4.83400 51.57900 38.40200
H  4.48800 49.61200 37.24400
H  6.12000 48.98300 37.97600
H  11.18200 55.73900 41.04100
H  10.89700 56.75100 39.59600
H  10.60500 55.03000 39.50100
H  9.70300 60.71400 41.77000
H  8.48700 59.94800 42.71100
H  8.12400 60.53100 41.00700
H  3.81800 59.73100 41.86600
H  2.37900 58.06900 43.89800
H  3.77000 59.85200 44.66200
H  4.71300 60.87300 43.52900
H  5.49400 59.48700 44.17500
H  1.05900 58.04700 41.32400
H  1.72300 59.69600 41.72700
H  0.13500 58.59300 43.90800
H  -0.83200 59.14400 42.43700
H  0.10500 60.20700 43.29800
H  -0.16300 52.81700 44.22400
H  -0.92400 52.90600 42.61500
H  -0.33200 54.37400 43.58200
H  3.84100 49.64900 42.13000
H  1.83600 46.55400 40.29500
H  3.44000 46.03000 39.86200
H  2.47300 47.27500 38.87300

