158

Mg 9.03400 3.68300 27.15000
C  10.52000 2.19700 30.13100
C  7.00600 5.44000 29.16800
C  7.63500 4.83300 24.36800
C  10.75300 1.21600 25.25900
N  8.68200 3.65900 29.40900
C  9.47400 3.11600 30.42000
C  9.06800 3.61800 31.78600
C  7.86800 4.55400 31.42600
C  7.80300 4.53200 29.88000
C  6.47200 4.25500 32.09900
C  10.19500 4.42000 32.44800
C  9.92000 4.69000 33.90500
H  10.98000 4.30100 35.00500
N  7.56400 4.97500 26.78300
C  6.78100 5.61300 27.82000
C  5.95800 6.57900 27.10600
C  6.13400 6.48000 25.73700
C  7.11600 5.35900 25.56800
C  4.93700 7.45200 27.88900
C  5.51800 7.28800 24.66300
O  5.77600 7.14100 23.46300
C  4.48300 8.33500 25.07000
N  9.26900 3.17700 25.05000
C  8.57500 3.82600 24.13300
C  8.96300 3.31600 22.75200
C  10.08400 2.20500 23.02400
C  10.12000 2.20600 24.49000
C  7.66800 2.70800 22.03000
C  11.47500 2.41100 22.37000
C  12.63400 3.02300 23.10500
N  10.29800 2.09800 27.58100
C  10.89900 1.16500 26.67800
C  11.67100 0.19500 27.44600
C  11.58800 0.61600 28.75900
C  10.72900 1.72000 28.79500
C  12.27200 -1.06500 26.83100
C  12.04300 0.36100 30.06100
O  12.84300 -0.51400 30.43600
C  11.34900 1.37500 30.99100
C  10.68700 0.68000 32.11000
O  9.67100 -0.03400 31.97400
O  11.18500 1.14300 33.27300
C  10.68300 0.49600 34.51000
H  6.45400 6.05500 29.88200
H  7.27000 5.07500 23.36800
H  11.29800 0.46200 24.68800
H  8.87100 2.79700 32.47500
H  8.12300 5.56300 31.74800
H  6.70700 3.92700 33.11200
H  5.91700 3.43100 31.65200
H  5.69500 5.02000 32.10600
H  10.31600 5.36700 31.92300
H  11.11300 3.83300 32.46800
H  8.98000 4.18800 34.13400
H  9.68000 5.75300 33.91000
H  5.26200 8.48800 27.79000
H  4.99800 7.18700 28.94500
H  3.90500 7.26400 27.59100
H  3.52800 7.86600 25.30800
H  4.38700 8.99800 24.21000
H  4.96800 8.98500 25.79900
H  9.36300 4.18500 22.22900
H  9.68600 1.28600 22.59400
H  6.86400 2.77600 22.76300
H  7.68800 1.63400 21.84400
H  7.43800 3.19200 21.08100
H  11.37600 3.18000 21.60400
H  11.80600 1.45600 21.96200
H  13.59100 2.78500 22.64000
H  12.62200 2.57200 24.09700
H  12.47600 4.10100 23.13000
H  13.33600 -0.92800 26.63600
H  11.72200 -1.50200 25.99700
H  12.18500 -1.86400 27.56800
H  12.16300 1.93800 31.44800
H  9.84300 -0.19100 34.40200
H  10.65900 1.30700 35.23700
H  11.49800 -0.15300 34.83000
Mg 6.06200 54.64600 39.71500
C  5.99500 51.12800 39.19800
C  9.43900 54.55600 38.97800
C  6.04800 57.95300 39.43400
C  2.65100 54.59000 39.95200
N  7.50100 53.04000 38.71000
C  7.25000 51.65200 38.82600
C  8.59000 50.85800 38.79300
C  9.65600 51.98000 39.04900
C  8.81100 53.29800 38.89700
C  10.50200 51.81200 40.33200
C  8.82000 50.24100 37.38000
C  8.45800 51.15400 36.21500
H  7.07300 51.08900 35.66000
N  7.56900 56.07500 39.36000
C  8.87500 55.86100 39.09000
C  9.58100 57.14700 38.90600
C  8.61200 58.19500 39.12800
C  7.34400 57.45400 39.32500
C  11.11500 57.27900 38.53900
C  8.91500 59.69900 39.03600
O  10.06000 60.10600 38.74900
C  7.84600 60.73300 39.21400
N  4.50600 56.05200 39.47200
C  4.79700 57.38800 39.48800
C  3.49700 58.18800 39.83100
C  2.53200 57.14300 40.20300
C  3.22400 55.84300 39.71100
C  3.70900 59.12900 40.98900
C  1.12700 57.33600 39.53400
C  -0.08100 57.32600 40.47700
N  4.56800 53.13500 39.66600
C  3.22600 53.27600 39.91700
C  2.67900 52.01100 40.25200
C  3.72000 51.17600 39.98400
C  4.89200 51.90700 39.60100
C  1.27300 51.58400 40.73100
C  4.10300 49.80900 40.06600
O  3.48300 48.88100 40.60100
C  5.58600 49.70400 39.50800
C  5.54900 48.73600 38.38700
O  5.09700 49.02800 37.29400
O  6.02000 47.55700 38.82500
C  5.96200 46.37900 37.89900
H  10.52400 54.53000 38.85400
H  6.02400 59.03200 39.60000
H  1.57000 54.59000 40.11100
H  8.49500 50.18000 39.64000
H  10.35700 51.94300 38.21500
H  11.50000 52.16800 40.07700
H  10.46100 50.77000 40.65000
H  10.06000 52.45200 41.09600
H  8.20400 49.34900 37.26900
H  9.87300 49.97000 37.31800
H  9.22900 50.97300 35.46600
H  8.59900 52.18800 36.53200
H  11.19200 58.06600 37.78800
H  11.52400 56.35800 38.12300
H  11.51400 57.52400 39.52300
H  7.17200 60.71600 38.35700
H  8.33400 61.70600 39.27700
H  7.35700 60.63400 40.18300
H  3.18100 58.76800 38.96300
H  2.51000 56.91800 41.27000
H  3.14100 58.95100 41.90200
H  3.33100 60.05900 40.56200
H  4.74300 59.18500 41.32900
H  1.06800 56.59500 38.73700
H  1.12400 58.36000 39.16300
H  0.17800 57.18400 41.52700
H  -0.70600 56.49900 40.14000
H  -0.51300 58.32600 40.44200
H  1.17900 51.15900 41.73000
H  0.87700 51.00100 39.90000
H  0.67400 52.49500 40.70400
H  6.16100 49.29400 40.33800
H  6.46600 45.59200 38.45900
H  6.46600 46.59700 36.95800
H  4.94700 46.10500 37.61100

