158

Mg 30.61000 58.60300 39.62800
C  28.30700 56.07300 38.73900
C  33.13900 56.35600 38.72400
C  32.84900 61.06800 39.86000
C  27.97300 60.77400 39.58000
N  30.72800 56.44500 38.79400
C  29.62900 55.60800 38.69800
C  30.03800 54.30700 38.11800
C  31.54200 54.25900 38.52600
C  31.85800 55.81100 38.54700
C  31.78900 53.61800 39.93100
C  29.85900 54.09500 36.58300
C  28.80400 53.12000 36.09000
H  27.80100 53.62400 35.09000
N  32.71500 58.69100 39.36500
C  33.58300 57.65900 39.03400
C  34.96500 58.12000 38.98600
C  34.88500 59.54600 39.34300
C  33.45100 59.82700 39.58900
C  36.21800 57.31300 38.74200
C  36.07300 60.51000 39.46200
O  37.20800 60.18100 39.10000
C  35.83200 61.97700 39.79500
N  30.48800 60.69800 39.33400
C  31.47000 61.43300 39.86500
C  30.89800 62.79000 40.37000
C  29.40000 62.80000 39.90200
C  29.27400 61.33700 39.58900
C  31.15200 63.18300 41.90600
C  29.05600 63.78000 38.79400
C  27.86700 64.76800 39.16300
N  28.47600 58.47100 39.45400
C  27.53300 59.41300 39.49500
C  26.21300 58.86700 39.28600
C  26.48100 57.51000 39.00300
C  27.86800 57.32900 39.05500
C  24.89500 59.62500 39.26000
C  25.87100 56.22200 38.60500
O  24.71200 55.89200 38.46800
C  27.03100 55.32600 38.38000
C  26.77100 54.06400 39.22300
O  27.08200 53.98900 40.38200
O  25.99300 53.18300 38.54800
C  25.44200 52.00400 39.33000
H  33.99200 55.68500 38.60600
H  33.53700 61.80200 40.28400
H  27.15900 61.48700 39.72900
H  29.52400 53.56300 38.72600
H  32.15500 53.75500 37.77900
H  32.15200 54.32300 40.67800
H  32.48200 52.77700 39.90600
H  30.95700 53.08700 40.39300
H  30.80200 53.86800 36.08500
H  29.76900 55.13900 36.28300
H  28.23700 52.56300 36.83600
H  29.42400 52.39200 35.56600
H  36.13000 56.30600 39.15000
H  37.02500 57.78400 39.30300
H  36.40800 57.33200 37.66800
H  35.18800 62.38300 39.01500
H  36.76700 62.51600 39.64300
H  35.44700 61.97500 40.81500
H  31.45800 63.47900 39.73700
H  28.79600 62.99600 40.78700
H  32.01400 63.85000 41.92000
H  31.44500 62.34100 42.53100
H  30.24300 63.65300 42.28200
H  28.73300 63.17600 37.94600
H  29.98400 64.25900 38.48200
H  27.04000 64.64800 38.46300
H  28.23400 65.78900 39.05900
H  27.52700 64.72500 40.19700
H  24.92400 60.70100 39.43400
H  24.22200 59.13800 39.96600
H  24.51400 59.49800 38.24700
H  27.06200 54.97100 37.35000
H  26.15600 51.18300 39.28500
H  24.52100 51.66000 38.85900
H  25.24000 52.23500 40.37600
Mg 27.07200 49.47100 26.00100
C  25.23900 50.91600 28.79200
C  29.64500 48.89400 28.25200
C  28.89500 48.71900 23.28900
C  24.54000 50.74400 23.94300
N  27.38500 49.91000 28.32500
C  26.43000 50.33300 29.22000
C  26.90800 50.04100 30.68200
C  28.43300 49.64700 30.50800
C  28.53200 49.46000 28.92500
C  29.52800 50.61100 31.01000
C  26.00500 49.04600 31.52000
C  25.57700 49.63100 32.83400
H  26.57800 49.98200 33.91900
N  28.96400 48.83400 25.82700
C  29.85800 48.49100 26.85500
C  31.15100 48.13000 26.21100
C  31.00500 48.18700 24.78300
C  29.56800 48.59000 24.57200
C  32.37000 47.74600 26.99700
C  32.09700 48.00200 23.76000
O  31.84000 48.02400 22.57400
C  33.50000 47.72600 24.09000
N  26.72200 49.67400 23.84100
C  27.65200 49.19800 22.93500
C  27.01700 49.41600 21.51300
C  25.52000 49.89600 21.82900
C  25.53500 49.98700 23.32400
C  27.74600 50.38600 20.55600
C  24.46000 48.98800 21.16500
C  24.01700 47.64000 22.01600
N  25.25600 50.53000 26.25000
C  24.30100 50.94600 25.30900
C  23.16200 51.62900 25.95900
C  23.54300 51.60700 27.31700
C  24.81800 50.97000 27.47400
C  22.00800 52.21700 25.20400
C  23.06500 51.87400 28.69400
O  22.03000 52.42700 29.06200
C  24.12600 51.43100 29.63400
C  24.34200 52.49600 30.62100
O  25.29900 53.27100 30.60800
O  23.40300 52.45300 31.58700
C  23.65600 53.32600 32.76000
H  30.54800 48.67700 28.82500
H  29.53400 48.51300 22.42800
H  23.74100 51.04200 23.26200
H  26.90800 50.99900 31.20300
H  28.54900 48.67300 30.98500
H  30.16100 50.90300 30.17100
H  30.17100 50.32500 31.84200
H  29.06700 51.51700 31.40300
H  26.48700 48.07100 31.59500
H  25.06200 48.86800 31.00400
H  24.78300 48.97600 33.19200
H  25.10900 50.60900 32.72200
H  32.14700 47.89500 28.05300
H  33.21900 48.40200 26.80400
H  32.58800 46.74200 26.63300
H  34.05700 47.57600 23.16400
H  33.70300 46.83400 24.68200
H  33.78000 48.65000 24.59700
H  27.01100 48.44200 21.02400
H  25.38000 50.89600 21.42100
H  28.75600 50.46700 20.95700
H  27.14900 51.29700 20.54600
H  27.69900 50.06500 19.51500
H  24.84600 48.57800 20.23200
H  23.58400 49.60900 20.97700
H  24.27400 46.76800 21.41400
H  22.94700 47.64200 22.22300
H  24.51000 47.50800 22.97900
H  21.79200 51.54600 24.37300
H  22.16400 53.18400 24.72600
H  21.15900 52.29700 25.88300
H  23.86700 50.52400 30.17900
H  23.59600 54.36500 32.43900
H  24.65000 53.10000 33.14700
H  22.99200 53.13300 33.60200

