158

Mg 47.11800 15.05500 28.07100
C  44.85500 15.28300 30.87100
C  49.33800 16.95700 29.65100
C  48.75400 15.25100 25.23100
C  44.38100 13.40600 26.33900
N  47.10500 15.92200 30.05000
C  46.17400 15.88200 31.02100
C  46.72200 16.30400 32.38000
C  48.11200 17.05600 31.92300
C  48.23300 16.64000 30.43900
C  48.14500 18.56600 32.18100
C  46.90700 15.04300 33.28900
C  46.71200 15.30600 34.78500
H  46.43600 16.76100 35.24200
N  48.93800 15.83100 27.57700
C  49.74300 16.55900 28.38000
C  50.99000 16.80200 27.70500
C  50.82300 16.30800 26.35100
C  49.46600 15.79100 26.29900
C  52.12300 17.49200 28.40800
C  51.77600 16.34000 25.17600
O  51.44400 15.95600 24.06400
C  53.10500 17.06600 25.45000
N  46.57400 14.43000 26.04000
C  47.47400 14.61300 25.08800
C  47.14900 13.79000 23.85000
C  45.80800 13.05500 24.22400
C  45.52300 13.65700 25.65100
C  46.99100 14.57700 22.59400
C  45.87600 11.47500 24.18100
C  47.06800 10.88700 24.88900
N  44.97500 14.45500 28.44600
C  44.10200 13.82700 27.62600
C  42.92900 13.55400 28.34600
C  43.11000 14.11100 29.61400
C  44.46400 14.63500 29.65100
C  41.68400 12.91500 27.77600
C  42.57800 14.33300 30.91200
O  41.51200 13.99700 31.42400
C  43.71500 15.05400 31.80400
C  43.13000 16.22500 32.55700
O  42.80700 17.31700 32.10700
O  42.90500 15.85000 33.85400
C  42.14300 16.79000 34.70700
H  50.05800 17.50100 30.26600
H  49.20700 15.32300 24.24000
H  43.67200 12.81900 25.75100
H  46.01900 17.02300 32.80100
H  49.01400 16.64600 32.37600
H  48.28600 19.09500 31.23800
H  48.94800 18.86600 32.85500
H  47.23000 18.96900 32.61500
H  47.97500 14.84000 33.20900
H  46.37700 14.14100 32.98300
H  47.64900 15.02000 35.26200
H  46.00500 14.65900 35.30300
H  51.95800 17.43100 29.48400
H  52.19600 18.48200 27.95700
H  53.05100 16.92600 28.33600
H  53.75700 16.60200 26.19000
H  52.74700 18.02400 25.82800
H  53.67700 17.20100 24.53200
H  47.88800 12.99800 23.72900
H  44.96400 13.33800 23.59400
H  47.50700 14.00100 21.82600
H  47.30500 15.60000 22.80000
H  46.01600 14.77900 22.15000
H  45.91200 11.17700 23.13400
H  44.92700 11.12600 24.58600
H  46.74600 10.22200 25.69000
H  47.66900 11.66700 25.35700
H  47.66600 10.25000 24.23700
H  41.02900 13.74200 27.50400
H  41.12800 12.23600 28.42200
H  42.01400 12.38000 26.88600
H  43.92700 14.36700 32.62300
H  42.65700 17.69900 35.02100
H  41.78800 16.38600 35.65400
H  41.31700 17.21400 34.13600
Mg 42.27900 41.43700 26.38500
C  41.16300 43.76800 28.77200
C  42.81900 39.18200 28.90200
C  43.52500 39.34500 24.12600
C  42.01100 43.95800 23.89300
N  42.07500 41.55200 28.54100
C  41.58400 42.59300 29.28100
C  41.62800 42.23500 30.71800
C  42.25200 40.81300 30.81500
C  42.45500 40.49600 29.32600
C  43.52800 40.50600 31.68500
C  40.20000 42.51000 31.44100
C  39.79500 41.56600 32.58700
H  39.35800 42.26800 33.80800
N  43.04600 39.54100 26.47100
C  43.17100 38.75200 27.57400
C  43.53200 37.41900 27.15100
C  43.79400 37.44100 25.77700
C  43.33000 38.79900 25.41600
C  43.82500 36.30200 28.15600
C  44.40600 36.38300 24.95000
O  44.59900 36.50300 23.72900
C  44.77900 34.99600 25.57500
N  42.89700 41.67200 24.33300
C  43.32500 40.54400 23.59600
C  43.23200 40.81000 22.10100
C  42.70800 42.30100 21.99400
C  42.43900 42.66300 23.45300
C  44.52000 40.45600 21.28500
C  41.57000 42.60500 20.97000
C  40.18300 42.41600 21.57700
N  41.72000 43.45700 26.28800
C  41.66400 44.31300 25.21600
C  40.99800 45.49900 25.56600
C  40.77200 45.39200 26.99800
C  41.29400 44.10400 27.36100
C  40.66200 46.75700 24.70500
C  40.37900 46.05800 28.29000
O  39.91400 47.17300 28.43700
C  40.70300 45.05500 29.49200
C  41.84500 45.65300 30.19000
O  42.97200 45.68900 29.68600
O  41.45100 45.88100 31.47500
C  42.58600 46.41900 32.19300
H  42.82100 38.39900 29.66300
H  43.82800 38.57000 23.41900
H  41.85100 44.64600 23.06000
H  42.35900 42.80100 31.29500
H  41.46700 40.09400 31.05200
H  43.67000 41.25800 32.46000
H  44.41500 40.44900 31.05500
H  43.50200 39.55500 32.21700
H  39.34500 42.51100 30.76600
H  40.17000 43.49900 31.89800
H  40.69600 41.01900 32.86600
H  38.98000 40.90600 32.29200
H  43.25400 35.41300 27.88700
H  43.48200 36.37900 29.18800
H  44.86700 35.99600 28.25400
H  45.49200 35.03000 26.39900
H  45.29800 34.32600 24.88900
H  43.93300 34.49400 26.04300
H  42.36300 40.26100 21.73800
H  43.56200 42.93900 21.76500
H  45.34100 40.17000 21.94300
H  44.83300 41.34100 20.73100
H  44.35900 39.69300 20.52300
H  41.54400 41.88300 20.15400
H  41.72800 43.56300 20.47700
H  40.15100 41.92400 22.54900
H  39.57100 41.84100 20.88200
H  39.74900 43.40600 21.71300
H  41.59200 47.31400 24.60100
H  40.01000 47.33900 25.35600
H  40.35100 46.45200 23.70600
H  39.81700 44.82000 30.08100
H  42.67200 47.45900 31.87600
H  43.53900 45.92000 32.02100
H  42.46500 46.24900 33.26300

