158

Mg 2.77700 -0.51000 43.32700
C  6.15000 -0.15400 42.21500
C  2.13400 2.51600 41.75700
C  -0.56400 -1.33000 43.22600
C  3.52800 -3.39000 44.69000
N  3.99900 0.91300 41.93100
C  5.36600 0.90100 41.71800
C  5.76200 2.06200 40.82500
C  4.66800 3.11000 41.23400
C  3.49700 2.13600 41.66300
C  5.02100 4.14000 42.32600
C  5.80900 1.69500 39.30800
C  6.98800 2.21600 38.40100
H  6.50800 2.49900 36.98200
N  0.97200 0.54500 42.71100
C  0.93400 1.76200 42.11200
C  -0.44900 2.06600 41.86500
C  -1.28500 0.96700 42.18600
C  -0.28100 -0.00800 42.77500
C  -0.78600 3.32800 41.31000
C  -2.77100 0.84300 41.95100
O  -3.45500 1.66800 41.27300
C  -3.55700 -0.32400 42.42300
N  1.62300 -2.06700 43.90000
C  0.28700 -2.13100 43.91500
C  -0.17000 -3.47100 44.56700
C  1.07600 -4.02000 45.29600
C  2.13100 -3.12700 44.61200
C  -1.36000 -3.15100 45.63400
C  1.29100 -5.58600 45.24500
C  1.34300 -6.20000 46.63000
N  4.49600 -1.68100 43.42200
C  4.64000 -2.83000 44.12600
C  6.04800 -3.19400 43.99200
C  6.71000 -2.23500 43.21700
C  5.70300 -1.29800 42.93400
C  6.80600 -4.34600 44.51600
C  7.96100 -1.73300 42.59700
O  9.12800 -2.12600 42.59000
C  7.60500 -0.38100 41.94400
C  8.57400 0.71800 42.42700
O  8.90500 0.96200 43.59200
O  9.01500 1.40700 41.35300
C  9.90900 2.58700 41.55400
H  2.07400 3.56800 41.47000
H  -1.55700 -1.75900 43.08000
H  3.85200 -4.20400 45.34200
H  6.71600 2.56200 40.98900
H  4.51000 3.67400 40.31400
H  4.18800 4.20700 43.02600
H  5.13500 5.18200 42.02600
H  5.92200 3.83000 42.85500
H  4.96800 2.13400 38.77100
H  5.63300 0.64100 39.09100
H  7.83300 1.53500 38.30800
H  7.28500 3.16200 38.85500
H  -0.60100 3.43400 40.24100
H  -0.20600 4.09900 41.81800
H  -1.80400 3.58300 41.60500
H  -4.61200 -0.05300 42.41400
H  -3.27800 -0.71200 43.40300
H  -3.33100 -1.11600 41.70900
H  -0.54800 -4.13200 43.78700
H  1.03600 -3.70600 46.33900
H  -1.05100 -3.41300 46.64600
H  -2.23500 -3.65500 45.22200
H  -1.70800 -2.11900 45.61300
H  2.19400 -5.89900 44.72100
H  0.51100 -6.14800 44.73200
H  0.83100 -7.16100 46.68800
H  1.12600 -5.52400 47.45600
H  2.38000 -6.48900 46.80200
H  7.20700 -4.87500 43.65200
H  6.14300 -4.94900 45.13600
H  7.57400 -4.00600 45.21100
H  7.80900 -0.39400 40.87400
H  9.57000 3.32300 40.82500
H  10.98200 2.43500 41.43800
H  9.75800 3.02200 42.54200
Mg 47.54300 44.86300 43.56100
C  44.10500 43.90000 43.38100
C  48.31400 41.55100 43.32100
C  50.55500 45.91700 43.02000
C  46.24900 48.22800 43.16400
N  46.31200 42.99800 43.53200
C  44.96000 42.79300 43.44400
C  44.53000 41.29500 43.50900
C  45.92900 40.62100 43.67200
C  46.90100 41.76700 43.39200
C  46.05700 40.08400 45.06600
C  43.97300 41.04800 41.95500
C  44.92700 41.37700 40.76600
H  44.87700 40.51100 39.47500
N  49.26900 43.84200 43.25200
C  49.35300 42.47900 43.25200
C  50.73000 42.12500 43.14600
C  51.43700 43.35400 42.81900
C  50.45300 44.46600 42.96700
C  51.26800 40.73300 43.00500
C  52.90700 43.48200 42.40300
O  53.65400 42.51800 42.29700
C  53.45800 44.79100 42.02000
N  48.26300 46.76100 43.04300
C  49.53100 46.91900 43.13100
C  49.91700 48.43900 43.31200
C  48.49300 49.15100 43.26900
C  47.60700 47.96900 43.06300
C  50.76100 48.82500 44.54600
C  48.37100 50.23800 42.11500
C  48.11600 51.67400 42.65000
N  45.62900 45.89600 43.42500
C  45.30500 47.26500 43.39000
C  43.87000 47.48100 43.45000
C  43.36200 46.17000 43.46300
C  44.45000 45.26700 43.37800
C  43.01900 48.82000 43.48300
C  42.11400 45.42700 43.48600
O  40.95700 45.77600 43.52300
C  42.58900 43.91000 43.37600
C  41.98800 43.16000 44.52800
O  42.07900 43.45500 45.71100
O  41.23800 42.10600 44.06400
C  40.47100 41.34000 45.05100
H  48.67900 40.52500 43.24100
H  51.54700 46.37100 42.98400
H  45.91500 49.26700 43.19900
H  43.79400 41.10500 44.29000
H  46.03600 39.77800 42.98900
H  46.04800 38.99600 45.12300
H  45.21200 40.40300 45.67700
H  46.96500 40.44500 45.54900
H  43.04200 41.58800 41.78400
H  43.63900 40.01100 41.97500
H  45.96900 41.42600 41.08400
H  44.65700 42.36300 40.38800
H  51.60200 40.44700 42.00800
H  50.61200 39.95500 43.39500
H  52.18300 40.66700 43.59300
H  52.75700 45.27900 41.34200
H  54.40500 44.69400 41.49000
H  53.57700 45.52700 42.81600
H  50.41200 48.74800 42.39100
H  48.30000 49.51300 44.27900
H  50.54400 49.82200 44.92900
H  51.78100 48.66400 44.19600
H  50.50400 48.12200 45.33900
H  47.50900 50.19300 41.45000
H  49.24200 50.11700 41.47200
H  49.10900 52.11500 42.56600
H  47.87400 51.68800 43.71300
H  47.36300 52.25900 42.12200
H  43.36000 49.41400 44.33100
H  41.98900 48.49300 43.62800
H  43.06800 49.35700 42.53500
H  42.28100 43.44900 42.43800
H  39.57900 41.88700 45.35300
H  41.15700 41.00800 45.83000
H  40.19500 40.41600 44.54300

