158

Mg 17.51900 -1.77000 27.22900
C  16.55200 0.15800 29.98200
C  19.32500 -3.68200 29.35500
C  18.85800 -3.18800 24.63700
C  15.53100 0.27500 25.21200
N  17.93900 -1.68800 29.42200
C  17.41500 -0.87200 30.39200
C  17.95700 -1.27300 31.78100
C  18.96500 -2.33600 31.46800
C  18.71300 -2.61400 30.00600
C  20.38500 -2.05100 31.94700
C  16.87700 -1.80900 32.74800
C  16.86900 -1.32700 34.18800
H  18.04000 -0.56900 34.72400
N  18.81300 -3.37300 27.02700
C  19.37800 -4.09900 28.05900
C  20.14400 -5.28300 27.50400
C  19.88900 -5.15800 26.09300
C  19.16300 -3.86500 25.84500
C  20.90800 -6.32900 28.29500
C  20.19300 -6.11100 24.98500
O  19.94500 -5.89200 23.80100
C  20.58500 -7.60500 25.35400
N  17.47200 -1.22300 25.29700
C  18.11700 -2.01200 24.38300
C  17.93700 -1.47100 22.94900
C  16.90700 -0.38500 23.05900
C  16.52700 -0.43800 24.58900
C  19.24400 -0.94200 22.30000
C  15.65900 -0.67700 22.10500
C  15.02200 0.58000 21.50700
N  16.30000 -0.02200 27.45800
C  15.53700 0.64800 26.55000
C  14.86000 1.77300 27.13200
C  15.15600 1.56700 28.56500
C  16.07500 0.48800 28.66800
C  14.05900 2.80600 26.49800
C  14.89500 2.02700 29.93800
O  14.26300 2.98400 30.32800
C  15.89600 1.11700 30.88200
C  16.79800 2.11100 31.51400
O  17.79700 2.55600 30.97500
O  16.50600 2.33100 32.81800
C  17.25000 3.40000 33.45800
H  20.01800 -4.20400 30.01900
H  19.15100 -3.51000 23.63600
H  14.92000 0.87700 24.53500
H  18.45600 -0.36200 32.10800
H  18.69500 -3.21200 32.05800
H  20.51600 -1.02900 32.30100
H  21.06200 -2.05200 31.09200
H  20.74200 -2.80700 32.64600
H  16.71500 -2.88600 32.72600
H  15.96100 -1.32700 32.40700
H  16.60800 -2.25200 34.70300
H  15.94600 -0.76700 34.33400
H  21.15500 -5.90700 29.26900
H  21.80600 -6.79900 27.89300
H  20.14000 -7.07700 28.48800
H  19.80300 -8.12900 25.90500
H  21.56100 -7.60100 25.84000
H  20.81000 -8.03100 24.37600
H  17.50000 -2.31800 22.42000
H  17.37200 0.59400 22.93800
H  19.02500 -0.07800 21.67200
H  19.76600 -1.69000 21.70400
H  19.84500 -0.64500 23.16000
H  14.95500 -1.30700 22.64800
H  15.99000 -1.18000 21.19700
H  15.37000 1.55800 21.84000
H  13.93800 0.48000 21.56900
H  15.30700 0.62500 20.45600
H  14.49000 3.80500 26.56300
H  13.25600 2.91200 27.22700
H  13.65800 2.45900 25.54500
H  15.37300 0.66600 31.72500
H  18.23700 3.52300 33.01100
H  17.52800 3.09600 34.46700
H  16.65800 4.30100 33.62000
Mg 36.30900 49.37200 24.83600
C  36.26600 47.81700 27.98500
C  34.94600 52.13100 26.30600
C  36.23900 50.78500 21.72000
C  37.35800 46.35500 23.44400
N  35.75700 49.92800 26.93200
C  35.90200 49.18100 28.07200
C  35.71800 49.97900 29.35400
C  35.14900 51.36800 28.78500
C  35.27300 51.14900 27.20400
C  33.70300 51.80800 29.08100
C  36.90900 49.98200 30.34100
C  36.75800 49.61000 31.90100
H  35.47100 49.52500 32.69400
N  35.63200 51.17900 24.09700
C  35.13900 52.15900 24.85200
C  34.85100 53.34200 24.01100
C  35.25400 53.03700 22.73800
C  35.79300 51.58800 22.78900
C  34.21400 54.47100 24.62500
C  35.22000 53.79300 21.33300
O  35.65900 53.39700 20.29200
C  34.68000 55.29900 21.32400
N  36.35700 48.62100 22.84200
C  36.53200 49.41300 21.73100
C  37.06000 48.71400 20.47100
C  37.63600 47.41000 21.12300
C  37.09800 47.46200 22.61700
C  35.91300 48.40400 19.44800
C  39.16700 47.24400 21.04400
C  39.75800 45.96800 20.47900
N  36.62500 47.34700 25.47300
C  37.15300 46.25900 24.80100
C  37.42100 45.23200 25.80900
C  36.98500 45.75400 27.04700
C  36.55800 47.06900 26.77900
C  38.05300 43.89200 25.57400
C  36.90500 45.53600 28.47800
O  37.29000 44.57900 29.14000
C  36.37400 46.84700 29.17800
C  35.18100 46.62200 30.01000
O  33.97400 46.88500 29.69600
O  35.63900 45.92200 31.16200
C  34.38000 45.46100 31.86100
H  34.56700 53.02200 26.81000
H  36.38600 51.25000 20.74300
H  37.77100 45.40100 23.11100
H  34.91600 49.53200 29.94200
H  35.81600 52.13000 29.18700
H  33.28300 51.31600 29.95900
H  32.97400 51.60500 28.29700
H  33.61800 52.86900 29.31200
H  37.40900 50.93600 30.17500
H  37.62900 49.31400 29.86700
H  37.30100 50.38500 32.44300
H  37.32000 48.69100 32.06500
H  34.08400 55.32600 23.96300
H  34.78600 54.81400 25.48700
H  33.23300 54.13500 24.96100
H  33.60500 55.12500 21.35700
H  34.96400 55.76800 20.38200
H  34.95300 56.01000 22.10400
H  37.88300 49.22900 19.97400
H  37.10100 46.53100 20.76400
H  35.08500 49.08700 19.63900
H  35.63200 47.36300 19.60400
H  36.23200 48.54000 18.41400
H  39.63800 47.39600 22.01600
H  39.60900 48.00800 20.40400
H  40.04200 46.21100 19.45500
H  39.04000 45.15800 20.35000
H  40.51400 45.50300 21.11200
H  38.78400 43.83900 26.38100
H  38.40900 43.80700 24.54700
H  37.25900 43.15500 25.69000
H  37.17600 47.11400 29.86600
H  34.01400 44.71500 31.15500
H  33.57200 46.17200 32.03600
H  34.73200 44.93200 32.74700

