158

Mg 1.66900 7.99800 27.04500
C  1.66400 10.33200 29.57500
C  2.25600 5.45400 29.28000
C  2.20300 5.89100 24.46500
C  1.59900 10.64900 24.70300
N  1.67600 7.91200 29.17900
C  1.65300 8.98100 30.05900
C  1.56600 8.50000 31.48500
C  1.86800 6.90500 31.35100
C  1.92700 6.69300 29.82400
C  3.15300 6.43500 32.08900
C  0.17600 8.83200 32.19900
C  0.29400 9.07600 33.67700
H  1.43800 8.39600 34.45700
N  2.20300 6.00300 26.92600
C  2.39900 5.11100 27.95500
C  2.95600 3.92800 27.41800
C  2.91100 3.99000 26.01500
C  2.43300 5.33200 25.73800
C  3.42300 2.82600 28.31600
C  3.26900 2.94300 24.97800
O  2.98700 3.18800 23.80000
C  3.79000 1.59400 25.34800
N  1.82300 8.28000 24.85100
C  1.89000 7.21100 24.07100
C  1.88200 7.63800 22.57700
C  1.47700 9.09000 22.61000
C  1.60000 9.38800 24.13900
C  3.22500 7.42800 21.82300
C  0.06800 9.39800 22.11800
C  -0.11600 10.58200 21.22000
N  1.72700 10.04100 27.06700
C  1.73800 11.01000 26.03900
C  1.86200 12.30400 26.66000
C  1.87000 12.05800 28.05900
C  1.66700 10.71400 28.23900
C  1.93300 13.68400 26.01400
C  1.88400 12.69700 29.35200
O  1.93400 13.82300 29.76200
C  1.80200 11.57900 30.42400
C  3.17200 11.65100 31.06200
O  4.20800 11.57500 30.46000
O  3.01800 11.80800 32.45100
C  4.28400 11.82400 33.15300
H  2.32400 4.65100 30.01700
H  2.28100 5.24500 23.58800
H  1.58200 11.45200 23.96400
H  2.42200 8.98700 31.95200
H  0.99400 6.41100 31.77500
H  3.61200 5.56100 31.62700
H  3.21800 6.26500 33.16400
H  3.97400 7.13500 31.93300
H  -0.58800 8.06100 32.10400
H  -0.26400 9.68500 31.68200
H  -0.57800 8.52600 34.03100
H  0.31600 10.14200 33.90600
H  4.49100 2.73500 28.11900
H  2.98300 1.83200 28.24100
H  3.41900 3.09700 29.37200
H  2.97200 1.07000 25.84200
H  4.74700 1.56000 25.86800
H  3.99000 1.09500 24.40000
H  1.12500 7.12300 21.98500
H  2.12700 9.68600 21.96900
H  3.87200 7.28500 22.68800
H  3.55000 8.32600 21.29700
H  3.31100 6.61400 21.10400
H  -0.45300 9.66800 23.03600
H  -0.41100 8.49500 21.73800
H  -0.40500 10.28100 20.21300
H  0.78100 11.20000 21.17800
H  -0.92300 11.18300 21.63900
H  0.96600 14.15100 25.82800
H  2.04000 13.47400 24.94900
H  2.72700 14.36200 26.32600
H  1.03600 11.74100 31.18300
H  4.63900 12.85400 33.20700
H  5.16800 11.30600 32.78200
H  4.00100 11.47500 34.14600
Mg 8.47800 48.04700 25.30900
C  6.47900 48.24400 28.01400
C  11.20600 48.83900 27.37600
C  10.58200 47.84900 22.58400
C  5.81800 47.70200 23.19300
N  8.83800 48.36400 27.52400
C  7.81200 48.35100 28.43300
C  8.38000 48.72600 29.81700
C  9.71900 49.41900 29.42900
C  10.00100 48.85900 28.06300
C  9.68500 50.98300 29.38700
C  8.61700 47.40500 30.66000
C  8.51000 47.54500 32.15300
H  7.80700 46.50600 33.00600
N  10.50700 48.32200 25.01500
C  11.48700 48.50000 25.99300
C  12.79800 48.46200 25.42300
C  12.67000 48.04400 24.11300
C  11.23100 48.06000 23.85400
C  14.04700 48.97500 26.13900
C  13.71500 47.72900 23.07100
O  13.50600 47.43700 21.90800
C  15.16900 47.77800 23.39500
N  8.23400 47.94200 23.09200
C  9.21900 47.76500 22.21900
C  8.72500 47.46600 20.82900
C  7.21100 47.25800 21.02600
C  7.08200 47.56800 22.52700
C  9.02800 48.60200 19.83700
C  6.59800 45.84300 20.69300
C  5.41600 45.76200 19.69900
N  6.59700 47.93000 25.52400
C  5.55600 47.90500 24.59100
C  4.29300 47.92800 25.19600
C  4.65000 47.94500 26.60100
C  6.04100 48.07800 26.69100
C  2.95000 47.89100 24.61700
C  4.06100 48.03600 27.88900
O  2.82200 48.03900 28.10700
C  5.19600 48.24300 28.92200
C  5.05300 47.10200 29.87200
O  5.65600 46.08000 29.76400
O  4.22600 47.40000 30.94000
C  4.00200 46.38800 32.02300
H  11.98000 49.11300 28.09500
H  11.27600 47.72300 21.75000
H  4.91600 47.57900 22.59000
H  7.62400 49.39400 30.22900
H  10.56900 49.03100 29.99100
H  8.70600 51.41300 29.60200
H  9.87600 51.21700 28.34000
H  10.52500 51.45900 29.89300
H  9.60600 47.01600 30.41700
H  7.83800 46.71400 30.33900
H  8.13600 48.51300 32.48600
H  9.52800 47.50400 32.54000
H  13.96100 49.13000 27.21400
H  14.44800 49.93300 25.80800
H  14.83200 48.22500 26.04800
H  15.52100 46.90700 23.94700
H  15.38800 48.70700 23.92200
H  15.68100 47.81800 22.43400
H  9.22700 46.51300 20.66000
H  6.54700 47.96100 20.52300
H  8.83800 49.59200 20.25000
H  8.34700 48.54200 18.98800
H  10.04700 48.51900 19.45600
H  6.35000 45.25700 21.57800
H  7.40800 45.32800 20.17700
H  5.50100 44.82700 19.14600
H  5.37700 46.60700 19.01200
H  4.49800 45.87900 20.27500
H  2.73200 48.95100 24.48500
H  2.22000 47.38700 25.25100
H  3.01300 47.35400 23.67100
H  4.94100 49.20200 29.37500
H  2.94800 46.24600 32.26200
H  4.57100 46.75400 32.87900
H  4.35400 45.45100 31.59100

