158

Mg 7.15700 53.00800 41.40000
C  6.62600 49.67100 40.53500
C  10.32900 52.66200 40.24700
C  7.33300 56.30800 41.57300
C  3.92300 53.18100 42.75100
N  8.23700 51.40800 40.43300
C  7.89100 50.10500 40.20100
C  9.02900 49.24100 39.52400
C  10.27500 50.12200 39.92700
C  9.58200 51.52400 40.31900
C  11.05700 49.48300 41.11100
C  8.90400 49.01000 37.97600
C  8.63700 50.24200 37.09500
H  7.26300 50.17600 36.31100
N  8.56300 54.37300 40.86200
C  9.83700 54.01400 40.36700
C  10.59500 55.24400 40.24300
C  9.78900 56.27400 40.59100
C  8.52300 55.71200 41.06800
C  11.95800 55.28700 39.63400
C  10.22000 57.73300 40.70900
O  11.35600 58.02100 40.31700
C  9.31300 58.88900 41.26700
N  5.77900 54.51700 42.04700
C  6.17300 55.82200 42.02100
C  5.03300 56.77200 42.48100
C  4.12100 55.67500 43.16000
C  4.63300 54.36900 42.66300
C  5.38700 57.93600 43.46000
C  2.60900 55.95200 43.05000
C  1.85800 55.85100 41.75200
N  5.60500 51.69100 41.74400
C  4.34800 51.86900 42.33700
C  3.66600 50.61500 42.41600
C  4.53400 49.74000 41.67400
C  5.67400 50.41400 41.29400
C  2.32900 50.31100 42.96100
C  4.59500 48.37400 41.10600
O  3.73900 47.50800 41.17100
C  5.96900 48.28900 40.39300
C  5.75300 47.78700 39.00900
O  5.04600 48.34900 38.15800
O  6.43000 46.52900 38.89100
C  5.76300 45.78200 37.85800
H  11.38700 52.52500 40.01600
H  7.41500 57.39300 41.66800
H  2.98900 53.20700 43.31600
H  8.91600 48.26800 40.00300
H  10.81400 50.36300 39.01100
H  10.60800 48.54300 41.43200
H  11.03300 50.21500 41.91900
H  12.13700 49.36500 41.01200
H  8.08100 48.30000 37.89300
H  9.86900 48.66700 37.60400
H  9.42700 50.31000 36.34600
H  8.53500 51.17700 37.64600
H  12.09100 56.10200 38.92200
H  12.20600 54.48300 38.94100
H  12.75800 55.27200 40.37400
H  8.95100 58.63500 42.26300
H  8.51100 58.98100 40.53500
H  9.95200 59.77200 41.25700
H  4.48600 57.16600 41.62500
H  4.43400 55.56600 44.19900
H  6.45300 57.91300 43.68400
H  4.85300 57.89200 44.40900
H  5.04700 58.82000 42.92100
H  2.38200 56.90600 43.52500
H  2.15600 55.20300 43.69900
H  2.50000 55.68000 40.88800
H  1.41300 56.79100 41.42500
H  1.15000 55.03800 41.91100
H  1.94600 51.17000 43.51100
H  2.22900 49.46600 43.64300
H  1.81400 50.10500 42.02200
H  6.66400 47.60900 40.88600
H  6.22400 44.79600 37.91000
H  6.10800 46.24100 36.93100
H  4.69500 45.58500 37.94700
Mg 17.27000 51.86900 26.86400
C  19.31100 50.23100 29.25400
C  14.87900 52.39400 29.20000
C  15.32100 52.72100 24.37100
C  19.71100 50.59900 24.39600
N  17.08600 51.19900 28.87000
C  18.08500 50.72300 29.67500
C  17.71400 50.79700 31.08300
C  16.17200 51.13100 31.04000
C  15.98800 51.68400 29.63700
C  15.20000 49.92500 31.23500
C  18.58000 52.02800 31.65800
C  19.21500 51.79800 33.07500
H  18.64000 52.45600 34.36100
N  15.38100 52.55500 26.78600
C  14.52100 52.73700 27.83600
C  13.31000 53.44300 27.36200
C  13.53800 53.61000 25.94900
C  14.78900 52.92500 25.65000
C  12.18700 53.68700 28.29100
C  12.51000 54.34400 24.95400
O  12.85400 54.40700 23.76200
C  11.14900 54.94000 25.48500
N  17.50000 51.66600 24.69200
C  16.53600 52.17900 23.90400
C  16.99000 52.14700 22.45700
C  18.55000 51.75400 22.49000
C  18.61400 51.39000 23.96200
C  15.96500 51.30000 21.55300
C  19.47600 52.96200 22.00500
C  20.24900 52.69500 20.71300
N  19.18300 50.78700 26.74700
C  19.97700 50.32900 25.76400
C  21.05600 49.43800 26.31200
C  20.86000 49.50300 27.66300
C  19.74900 50.32600 27.89400
C  22.14400 48.74000 25.54100
C  21.31100 48.88400 28.90700
O  22.24000 48.13700 29.13400
C  20.40100 49.43800 29.99900
C  19.78100 48.13700 30.57800
O  18.87700 47.44300 30.06800
O  20.44100 47.88100 31.74000
C  19.87100 46.84800 32.53800
H  14.11700 52.50400 29.97400
H  14.74900 53.08000 23.51300
H  20.34600 50.01800 23.72300
H  17.82600 49.86900 31.64300
H  15.82800 51.84600 31.78700
H  14.20000 50.30100 31.45100
H  15.44600 49.35600 32.13200
H  15.17700 49.29500 30.34600
H  17.90400 52.87000 31.80800
H  19.37900 52.31500 30.97400
H  20.29300 51.95800 33.05100
H  19.18600 50.74000 33.33700
H  11.28600 53.34700 27.78100
H  12.06400 54.76400 28.41300
H  12.27500 53.17800 29.25100
H  11.48500 55.54000 26.33100
H  10.41200 54.18100 25.74800
H  10.76700 55.47400 24.61500
H  16.96100 53.15800 22.05200
H  18.80600 50.83600 21.96000
H  15.42300 51.94800 20.86500
H  15.19100 50.83800 22.16600
H  16.45900 50.48000 21.03300
H  20.23100 52.94800 22.79100
H  19.04300 53.96300 22.00900
H  20.40800 53.66800 20.24900
H  19.77000 51.97500 20.05000
H  21.23200 52.31700 20.99300
H  21.64700 48.04300 24.86700
H  22.83800 48.31700 26.26600
H  22.74500 49.42900 24.94700
H  20.95300 49.98300 30.76500
H  19.37900 46.07500 31.94600
H  19.30500 47.27400 33.36600
H  20.77900 46.35300 32.88100

