158

Mg 46.95000 15.95100 29.16900
C  44.87300 15.80200 32.15900
C  49.24500 17.85400 30.94200
C  48.49900 16.68100 26.32000
C  44.22700 14.76300 27.52100
N  47.03200 16.62200 31.26400
C  46.13600 16.40300 32.32000
C  46.75400 16.84000 33.63300
C  47.93600 17.73200 33.16000
C  48.08200 17.45500 31.65300
C  47.61500 19.26600 33.51000
C  47.05300 15.55500 34.45000
C  46.61400 15.48100 35.91000
H  46.19800 16.83800 36.47800
N  48.73500 16.94800 28.70800
C  49.54900 17.59700 29.62000
C  50.80200 17.91000 28.88000
C  50.58000 17.58500 27.50600
C  49.27900 17.00400 27.41200
C  52.09300 18.34400 29.62200
C  51.50100 17.77300 26.36900
O  51.17100 17.44500 25.25300
C  52.79500 18.52800 26.48600
N  46.39000 15.92900 27.23500
C  47.17500 16.21200 26.18400
C  46.54800 15.83900 24.83800
C  45.52000 14.82400 25.30100
C  45.30700 15.22300 26.80600
C  45.95100 16.88400 23.91600
C  45.96300 13.28600 25.09900
C  44.81500 12.63100 24.12800
N  44.99600 15.36500 29.70400
C  44.03300 14.85500 28.86500
C  42.90700 14.37300 29.62500
C  43.14700 14.75200 30.94200
C  44.40200 15.36700 30.91200
C  41.73300 13.53900 29.19200
C  42.54500 14.78600 32.30700
O  41.47000 14.36000 32.68600
C  43.73400 15.39900 33.18400
C  43.14300 16.60100 33.91600
O  43.37800 17.75900 33.60000
O  42.36800 16.17100 34.94100
C  41.71700 17.15900 35.78900
H  49.95300 18.48600 31.48200
H  48.87500 16.89900 25.31800
H  43.42300 14.21700 27.02300
H  45.91400 17.35300 34.10300
H  48.80400 17.42300 33.74100
H  46.81300 19.31300 34.24700
H  47.27900 19.71600 32.57600
H  48.54200 19.75400 33.81200
H  48.07500 15.26800 34.20100
H  46.50100 14.71200 34.03500
H  47.50200 15.12500 36.43200
H  45.79800 14.78500 36.10900
H  52.93400 18.09100 28.97700
H  52.09000 17.85100 30.59400
H  52.04800 19.39300 29.91600
H  53.14700 18.80400 25.49200
H  53.49200 17.88300 27.02100
H  52.73500 19.43100 27.09400
H  47.33100 15.34600 24.26100
H  44.52800 14.97400 24.87600
H  46.10500 17.88000 24.33100
H  44.91500 16.68700 23.63900
H  46.58000 16.70300 23.04400
H  46.05300 12.87600 26.10500
H  46.90700 13.06800 24.59900
H  45.21100 11.77100 23.58800
H  44.45600 13.29400 23.34200
H  44.00300 12.18800 24.70400
H  41.27400 13.24700 30.13700
H  42.06700 12.69300 28.59100
H  41.05600 14.17000 28.61700
H  44.00600 14.56700 33.83300
H  42.22000 18.12600 35.78100
H  41.85000 16.71600 36.77600
H  40.64200 17.33800 35.76000
Mg -1.73300 34.56600 26.33300
C  -3.28900 32.62600 28.86600
C  -0.67200 36.74900 28.73900
C  -0.74400 36.59000 23.89700
C  -3.45600 32.55800 23.98100
N  -2.21700 34.87200 28.59700
C  -2.60000 33.79700 29.37800
C  -2.35600 34.15000 30.83300
C  -1.68000 35.62700 30.73600
C  -1.44500 35.73600 29.27900
C  -2.46200 36.75400 31.37600
C  -1.40500 33.11200 31.53900
C  -2.04700 32.47600 32.76000
H  -1.11100 32.15900 33.97000
N  -0.79700 36.47800 26.28000
C  -0.35800 37.19400 27.33900
C  0.61900 38.19800 26.91000
C  0.55700 38.15600 25.46700
C  -0.33400 37.03400 25.17900
C  1.41800 39.04400 27.92100
C  1.37900 38.98800 24.37000
O  1.46000 38.76400 23.18300
C  2.17900 40.15800 24.84400
N  -2.18700 34.63100 24.15700
C  -1.61700 35.53700 23.41600
C  -1.81500 35.29600 21.85500
C  -2.39500 33.82200 21.95600
C  -2.69200 33.66300 23.46500
C  -2.49600 36.43900 21.02200
C  -1.47000 32.73800 21.40800
C  -0.14400 32.42300 22.17700
N  -3.09000 32.90300 26.30700
C  -3.60200 32.14500 25.33500
C  -4.21100 30.98600 25.82900
C  -4.16400 31.19900 27.21100
C  -3.44700 32.31300 27.48000
C  -5.05200 30.00800 25.11300
C  -4.54300 30.61100 28.47400
O  -5.18300 29.64700 28.75200
C  -3.92700 31.44700 29.58800
C  -4.92100 31.89700 30.57200
O  -5.77200 32.78000 30.43100
O  -4.74500 31.29200 31.76500
C  -5.60600 31.65400 32.92500
H  -0.19900 37.18800 29.62000
H  -0.49900 37.31200 23.11500
H  -3.88500 31.86300 23.25600
H  -3.32300 34.11300 31.33500
H  -0.68500 35.66400 31.17900
H  -3.30800 36.32900 31.91600
H  -2.90200 37.41400 30.62900
H  -1.85500 37.35200 32.05600
H  -0.44400 33.54200 31.82000
H  -1.23100 32.37300 30.75700
H  -2.50000 31.53700 32.44200
H  -2.85400 33.01800 33.25400
H  2.46200 39.08000 27.60900
H  1.42000 38.53400 28.88400
H  1.03000 40.06100 27.98800
H  1.50400 40.72900 25.48200
H  2.56200 40.64700 23.94800
H  2.94400 39.79300 25.53000
H  -0.77000 35.25600 21.54900
H  -3.35600 33.79300 21.44100
H  -1.95400 36.64600 20.09900
H  -2.46300 37.37500 21.58100
H  -3.53600 36.20800 20.78900
H  -1.21200 32.83200 20.35300
H  -1.99700 31.79300 21.53900
H  -0.17800 31.42600 22.61700
H  0.05300 33.04400 23.05100
H  0.62300 32.46300 21.40300
H  -5.00400 29.97900 24.02400
H  -6.10500 30.23300 25.27900
H  -4.76800 29.04600 25.53900
H  -3.27600 30.79900 30.17400
H  -4.94600 32.11400 33.66000
H  -6.10700 30.71300 33.15500
H  -6.33100 32.42900 32.67500

