158

Mg 6.98500 56.58300 41.83000
C  6.03800 53.09600 41.97600
C  10.07100 55.65400 40.50300
C  7.72200 59.83000 41.35600
C  4.05900 57.40100 43.40800
N  7.88200 54.63800 41.22700
C  7.29100 53.30000 41.34800
C  8.28800 52.33400 40.86600
C  9.66500 53.09000 40.88400
C  9.21500 54.57000 40.83300
C  10.53100 52.77800 42.14300
C  7.90900 51.81700 39.35900
C  8.19600 50.28100 39.27000
H  7.38900 49.47100 38.28000
N  8.57900 57.63300 40.92000
C  9.80100 57.04300 40.53600
C  10.77800 58.07400 40.30000
C  10.09400 59.30500 40.31400
C  8.68500 58.93400 40.83600
C  12.24000 57.78700 39.82500
C  10.73000 60.62900 40.02200
O  11.91900 60.70300 39.74800
C  9.98700 61.97700 40.20600
N  5.90000 58.34000 42.19600
C  6.45900 59.58200 41.93900
C  5.42800 60.64700 42.42700
C  4.27100 59.91600 43.14000
C  4.77700 58.46100 42.95000
C  6.06000 61.87200 43.25100
C  2.84700 60.20500 42.61900
C  1.66800 60.09400 43.64800
N  5.41400 55.51600 42.55600
C  4.31600 55.99300 43.22300
C  3.45900 54.93000 43.60500
C  4.06600 53.76800 43.11900
C  5.24200 54.19100 42.41600
C  2.13700 54.88000 44.25600
C  3.98000 52.33400 43.03300
O  3.14300 51.47600 43.39700
C  5.23000 51.90500 42.19000
C  4.68200 51.32100 40.95900
O  4.25100 51.86200 39.90800
O  4.69500 49.95800 41.03100
C  3.88700 49.26300 40.03200
H  11.09400 55.34600 40.28000
H  8.01400 60.87900 41.27400
H  3.13100 57.60000 43.94800
H  8.38500 51.43200 41.46900
H  10.30700 52.85900 40.03400
H  11.52200 52.53500 41.75900
H  10.18500 51.87500 42.64500
H  10.76700 53.56600 42.85900
H  8.64700 52.34700 38.75700
H  6.92500 52.19200 39.07700
H  7.90400 49.70400 40.14700
H  9.26000 50.12900 39.09000
H  13.01800 58.55100 39.82700
H  12.24900 57.59800 38.75200
H  12.65900 56.90600 40.31200
H  9.89600 62.26700 41.25200
H  9.01700 61.78500 39.74700
H  10.59900 62.68800 39.65000
H  5.03400 61.01400 41.48000
H  4.26200 60.12800 44.20900
H  6.09600 62.83200 42.73700
H  7.09000 61.62000 43.50400
H  5.48300 61.98700 44.16900
H  2.74800 59.43700 41.85200
H  2.60200 61.08700 42.02600
H  1.47100 61.04900 44.13500
H  1.82600 59.33400 44.41300
H  0.79300 59.69500 43.13500
H  1.94300 55.83800 44.73900
H  2.19300 54.19700 45.10300
H  1.30100 54.62500 43.60400
H  5.71800 51.12900 42.78200
H  2.81200 49.42100 40.12300
H  3.99900 48.18900 40.17600
H  4.18500 49.42900 38.99700
Mg -8.88000 40.95800 42.83200
C  -7.91500 37.68300 41.92400
C  -6.05700 42.15300 41.11100
C  -10.02500 44.16400 43.15200
C  -11.95900 39.66700 43.75100
N  -7.31000 40.02800 41.60200
C  -7.02200 38.68800 41.51700
C  -5.80800 38.41400 40.63900
C  -5.04700 39.82000 40.74800
C  -6.17100 40.75300 41.20300
C  -3.94500 39.91800 41.78300
C  -6.18200 37.79300 39.21300
C  -5.47200 36.44800 38.74700
H  -4.48300 36.60100 37.56500
N  -8.22200 42.88200 42.00400
C  -6.96900 43.20300 41.46300
C  -6.77200 44.63800 41.46200
C  -7.95800 45.22000 42.14400
C  -8.82300 44.08600 42.37400
C  -5.50200 45.25000 40.88100
C  -8.18500 46.68700 42.44500
O  -7.36500 47.46600 42.10900
C  -9.36200 47.24400 43.12300
N  -10.70900 41.76500 43.38700
C  -10.91500 43.14800 43.53000
C  -12.26000 43.43700 44.24200
C  -12.91600 41.96100 44.22400
C  -11.81800 41.03400 43.82100
C  -12.24500 44.11200 45.61800
C  -14.16700 41.77900 43.41700
C  -15.52200 41.72000 44.18800
N  -9.66600 39.07200 43.05500
C  -10.97100 38.70000 43.41000
C  -11.03700 37.32700 43.50600
C  -9.82700 36.80900 42.92800
C  -9.10700 37.91600 42.59800
C  -12.13100 36.54300 44.13400
C  -9.03400 35.64500 42.50000
O  -9.40700 34.49000 42.45600
C  -7.80500 36.16500 41.84900
C  -6.69600 35.57000 42.63600
O  -6.63700 35.67400 43.85600
O  -5.74800 34.93600 41.85800
C  -4.57600 34.41600 42.56600
H  -5.14900 42.52400 40.63000
H  -10.35800 45.16400 43.43700
H  -12.91100 39.27600 44.11700
H  -5.23100 37.60700 41.08900
H  -4.69100 40.27500 39.82400
H  -3.09000 40.23900 41.18600
H  -3.90600 38.91100 42.19800
H  -4.12500 40.57300 42.63600
H  -5.87400 38.63300 38.59000
H  -7.23500 37.69100 38.95000
H  -6.22000 35.67200 38.58600
H  -4.94700 36.07900 39.62800
H  -5.72700 46.11300 40.25500
H  -4.99300 44.48100 40.30000
H  -4.74400 45.62900 41.56600
H  -9.16600 48.31200 43.22400
H  -9.48800 46.89200 44.14700
H  -10.28000 47.05400 42.56600
H  -12.74900 44.11700 43.54500
H  -13.22100 41.82700 45.26100
H  -13.01500 44.88200 45.58500
H  -11.24600 44.52800 45.74900
H  -12.41900 43.51500 46.51200
H  -14.10300 40.89800 42.77800
H  -14.26300 42.70000 42.84100
H  -15.34900 41.64300 45.26200
H  -16.07100 40.79700 44.00300
H  -16.06100 42.64900 44.00100
H  -12.90300 36.45100 43.36900
H  -12.48100 36.88200 45.10900
H  -11.68900 35.58600 44.40900
H  -7.72200 35.81500 40.82000
H  -4.63900 33.32900 42.52600
H  -4.37900 34.67600 43.60600
H  -3.69300 34.72200 42.00400

