158

Mg 16.54000 52.42200 25.11700
C  18.26500 51.15000 27.97100
C  13.84300 53.20000 27.19600
C  14.78800 53.47500 22.42800
C  18.96200 51.06400 23.17400
N  16.05400 52.13900 27.31100
C  16.92700 51.63400 28.28000
C  16.31600 51.91400 29.76100
C  14.84200 52.28300 29.37600
C  14.91700 52.54400 27.85100
C  13.77000 51.27700 29.83300
C  17.10400 53.09200 30.48400
C  17.57100 52.73600 31.89700
H  16.74600 51.91700 32.84400
N  14.62000 53.22900 24.87500
C  13.67800 53.50600 25.81900
C  12.42800 53.99800 25.26100
C  12.68000 54.10400 23.85800
C  14.13500 53.65000 23.72100
C  11.09900 54.19300 26.08600
C  11.77700 54.47400 22.67700
O  12.12700 54.50500 21.46400
C  10.39600 54.94100 22.90900
N  16.76300 52.22300 23.10700
C  16.01200 52.79000 22.19100
C  16.44300 52.53700 20.71800
C  17.89900 52.00400 21.03400
C  17.92900 51.76500 22.50100
C  15.55000 51.57100 19.95800
C  19.11000 53.01200 20.62500
C  20.04200 52.83100 19.43400
N  18.27700 51.37100 25.46600
C  19.20700 50.96200 24.50300
C  20.42700 50.46800 25.19400
C  20.09300 50.62900 26.55300
C  18.74200 51.12900 26.66200
C  21.63900 49.88700 24.67300
C  20.55200 50.39700 27.83400
O  21.67700 50.07900 28.20000
C  19.44500 50.73700 28.83200
C  19.30100 49.52800 29.70900
O  18.83500 48.43000 29.38000
O  19.77500 49.91300 30.93400
C  19.68900 48.86700 31.88600
H  13.01700 53.47100 27.85700
H  14.35000 53.85200 21.50100
H  19.69700 50.70200 22.45300
H  16.33300 50.97600 30.31600
H  14.61900 53.28900 29.73200
H  14.14400 50.54100 30.54400
H  13.28900 50.78300 28.98900
H  12.96300 51.79500 30.35100
H  16.42100 53.92700 30.63900
H  18.01800 53.28900 29.92400
H  17.82900 53.66500 32.40500
H  18.53300 52.23400 31.79200
H  11.01100 55.18700 26.52500
H  11.09600 53.47200 26.90300
H  10.25700 53.96400 25.43300
H  10.26500 55.80000 23.56600
H  9.86200 54.10200 23.35600
H  9.84400 55.07300 21.97900
H  16.45600 53.42800 20.09000
H  18.14800 51.00500 20.67500
H  14.56900 51.58000 20.43300
H  15.96600 50.56400 19.92500
H  15.34400 51.91000 18.94300
H  19.75000 53.17200 21.49300
H  18.67200 53.96800 20.33700
H  20.04100 51.78400 19.13100
H  21.04000 53.08200 19.79300
H  19.65600 53.44500 18.61900
H  21.59700 49.66800 23.60600
H  21.95400 48.99400 25.21100
H  22.33900 50.71400 24.79100
H  19.62000 51.52800 29.56100
H  18.70200 48.55200 32.22200
H  20.33900 49.21100 32.69100
H  20.13200 47.93500 31.53600
Mg -10.64500 17.03500 42.36100
C  -7.26000 16.03300 42.15600
C  -9.51100 20.19100 41.53000
C  -13.76900 17.80000 41.80600
C  -11.44000 13.58700 42.53300
N  -8.52400 17.98300 41.69600
C  -7.37100 17.35000 41.80000
C  -6.19300 18.34600 41.50400
C  -6.96700 19.71500 41.61900
C  -8.44000 19.30900 41.69500
C  -6.46600 20.57700 42.70900
C  -5.43400 18.17500 40.12900
C  -6.35000 17.64400 39.01100
H  -5.70600 17.76500 37.65900
N  -11.56500 18.83500 41.94200
C  -10.97200 19.97300 41.59100
C  -11.92300 20.96500 41.34300
C  -13.19500 20.31700 41.42200
C  -12.92200 18.87600 41.74200
C  -11.59100 22.40100 40.94100
C  -14.51900 21.04600 41.26500
O  -14.58700 22.21400 41.01500
C  -15.85400 20.29200 41.45800
N  -12.36400 15.83100 42.25100
C  -13.57200 16.46300 42.06700
C  -14.65500 15.49800 42.16700
C  -13.97200 14.11600 42.30300
C  -12.49500 14.49400 42.34000
C  -15.73200 15.82100 43.24000
C  -14.22100 13.16200 41.10900
C  -14.36600 11.68400 41.53000
N  -9.61100 15.21300 42.41600
C  -10.01700 13.90200 42.55400
C  -8.88900 12.97000 42.56900
C  -7.82700 13.84900 42.54300
C  -8.26600 15.16900 42.38400
C  -8.93900 11.49600 42.61000
C  -6.39200 13.77200 42.46300
O  -5.63300 12.80100 42.48800
C  -5.94200 15.22600 42.27100
C  -5.12100 15.69900 43.43800
O  -3.91800 15.89200 43.32000
O  -5.84500 15.92700 44.59900
C  -5.14800 16.59400 45.81900
H  -9.14300 21.18100 41.25100
H  -14.74800 18.18200 41.50700
H  -11.74500 12.54600 42.65500
H  -5.47900 18.26700 42.32300
H  -6.69400 20.29700 40.73900
H  -6.00900 19.95600 43.48000
H  -7.40800 20.95800 43.10200
H  -5.85800 21.42200 42.38700
H  -4.60600 17.49100 40.31200
H  -5.06200 19.12900 39.75600
H  -7.24600 18.26300 39.07300
H  -6.45800 16.58100 39.22800
H  -11.44600 22.47600 39.86300
H  -10.66600 22.69200 41.43900
H  -12.39700 23.06400 41.25300
H  -16.07300 19.62500 40.62400
H  -16.62700 21.05000 41.32800
H  -15.92700 19.83700 42.44600
H  -15.29000 15.48900 41.28100
H  -14.19700 13.63400 43.25400
H  -16.76800 15.76500 42.90700
H  -15.57300 16.88100 43.44200
H  -15.62500 15.19200 44.12400
H  -13.40700 13.14700 40.38300
H  -15.00100 13.56900 40.46500
H  -14.84100 11.49100 42.49200
H  -13.43400 11.12400 41.47000
H  -15.10500 11.19000 40.89900
H  -8.19400 11.09900 41.92000
H  -9.85200 10.96500 42.34300
H  -8.60600 11.15100 43.58900
H  -5.31300 15.34100 41.38800
H  -5.17900 17.68000 45.91200
H  -4.06900 16.48000 45.72200
H  -5.55700 16.19200 46.74600

