158

Mg 9.19700 3.46100 27.16300
C  10.31400 1.83100 29.96300
C  7.21700 5.47300 29.03000
C  8.01900 4.83400 24.25800
C  10.92700 1.11800 25.18500
N  8.67300 3.44900 29.30100
C  9.46800 2.89500 30.27400
C  9.10500 3.56400 31.71400
C  7.97600 4.57500 31.29000
C  7.92800 4.55300 29.80400
C  6.69700 4.43100 32.02000
C  10.37800 3.99500 32.48500
C  10.21500 4.85100 33.67100
H  10.39500 4.34800 35.09700
N  7.88700 4.98000 26.63900
C  7.14900 5.63100 27.61100
C  6.30500 6.61000 26.97500
C  6.53900 6.50600 25.54800
C  7.52300 5.45900 25.40700
C  5.46800 7.63300 27.78400
C  6.00500 7.29900 24.38400
O  6.30000 7.09900 23.24800
C  5.04900 8.41200 24.70100
N  9.50700 3.07600 25.09000
C  8.90100 3.78200 24.12500
C  9.34900 3.39900 22.73100
C  10.17200 2.16900 23.02600
C  10.23100 2.12700 24.51000
C  8.13900 3.30800 21.75800
C  11.48000 1.97300 22.24700
C  11.47000 0.87500 21.14300
N  10.35800 1.81100 27.44300
C  11.05400 0.95100 26.59000
C  11.86500 -0.05600 27.33600
C  11.56000 0.30100 28.70200
C  10.59500 1.38800 28.69100
C  12.74000 -1.20400 26.81900
C  12.01900 -0.01700 30.04500
O  12.97800 -0.74800 30.38300
C  11.19900 0.97500 30.89100
C  10.40100 0.48000 31.96800
O  9.22900 0.26000 31.93800
O  11.17600 0.20200 33.02000
C  10.49800 -0.13000 34.27700
H  6.73100 6.27600 29.58900
H  7.66100 5.28100 23.32800
H  11.45400 0.47100 24.48100
H  8.72600 2.77100 32.35800
H  8.42000 5.55700 31.45200
H  6.85000 3.66500 32.78100
H  5.95100 4.05700 31.31900
H  6.38700 5.40400 32.39900
H  11.14500 4.49800 31.89600
H  10.75500 3.01700 32.78400
H  9.26400 5.38100 33.65400
H  10.88200 5.69600 33.50300
H  4.50700 7.78400 27.29200
H  6.06300 8.54100 27.68400
H  5.31600 7.39600 28.83700
H  5.53900 9.13400 25.35400
H  4.13200 7.98100 25.10200
H  4.73000 8.84400 23.75200
H  10.04100 4.17200 22.39600
H  9.66600 1.21500 22.87800
H  7.21000 3.34400 22.32700
H  8.08400 2.36300 21.21700
H  8.23600 4.19700 21.13600
H  12.27000 1.68100 22.93900
H  11.89900 2.92400 21.92000
H  10.44700 0.85300 20.76700
H  11.89300 -0.04600 21.54500
H  12.03800 1.19700 20.27000
H  13.78900 -0.96700 26.64100
H  12.31300 -1.41000 25.83700
H  12.78900 -2.02500 27.53400
H  11.87700 1.71800 31.31000
H  11.14700 0.09000 35.12500
H  10.29200 -1.19300 34.40700
H  9.59600 0.47200 34.38700
Mg -11.61600 37.89000 42.41800
C  -8.98300 35.59400 41.56700
C  -10.09100 40.20600 40.46100
C  -14.34700 39.88100 42.74700
C  -13.17400 35.37800 43.95700
N  -9.77900 37.80100 41.03800
C  -8.85500 36.86000 40.92500
C  -7.76000 37.30400 39.96900
C  -7.96300 38.86500 39.87700
C  -9.36800 39.03700 40.51100
C  -6.84800 39.77500 40.55300
C  -7.63300 36.45100 38.64700
C  -6.29900 35.72300 38.31900
H  -5.52200 36.22900 37.03800
N  -12.17100 39.77200 41.63600
C  -11.34200 40.64700 40.95200
C  -12.00300 41.87900 40.68900
C  -13.21300 41.84600 41.44500
C  -13.30900 40.47100 41.97800
C  -11.51600 42.96900 39.65100
C  -14.24000 42.96800 41.54700
O  -13.94700 44.08800 41.16200
C  -15.68800 42.84800 42.05900
N  -13.60300 37.67300 43.26800
C  -14.52900 38.62200 43.31400
C  -15.83100 38.00400 43.83900
C  -15.35600 36.64700 44.47700
C  -13.97800 36.49000 43.79900
C  -16.64400 38.98600 44.77500
C  -16.33200 35.41700 44.11600
C  -16.62800 34.33300 45.26300
N  -11.20600 35.86600 42.74000
C  -11.89000 34.97000 43.50100
C  -11.19100 33.71500 43.52900
C  -10.01800 33.97500 42.81700
C  -10.11000 35.22900 42.31400
C  -11.66800 32.39100 44.20400
C  -8.82500 33.37100 42.48000
O  -8.32000 32.31300 42.81800
C  -8.00400 34.37200 41.63700
C  -6.66200 34.68400 42.30600
O  -5.67800 33.93500 42.24500
O  -6.67200 35.67000 43.23900
C  -5.44700 35.95000 44.02600
H  -9.52100 40.98300 39.94800
H  -15.15200 40.56500 43.02600
H  -13.61900 34.56000 44.52700
H  -6.78800 37.26900 40.46000
H  -8.08100 39.19500 38.84400
H  -7.34000 40.28100 41.38300
H  -6.51900 40.54100 39.85000
H  -5.96700 39.17200 40.77400
H  -7.69700 37.17700 37.83700
H  -8.47400 35.76000 38.58700
H  -6.47300 34.65300 38.20600
H  -5.60900 35.80700 39.15800
H  -11.66400 43.93400 40.13600
H  -11.99200 42.91200 38.67200
H  -10.43600 42.86200 39.55300
H  -16.30900 43.72800 41.88800
H  -15.73400 42.57200 43.11200
H  -16.15200 42.07400 41.44700
H  -16.25300 37.67800 42.88900
H  -15.32800 36.71500 45.56400
H  -17.27100 38.39400 45.44100
H  -17.26600 39.49400 44.03700
H  -16.06900 39.76300 45.27900
H  -15.96700 34.90100 43.22800
H  -17.26500 35.90600 43.83300
H  -17.69100 34.10200 45.18700
H  -16.56600 34.84900 46.22100
H  -15.98500 33.46300 45.13200
H  -10.90500 31.66500 43.92200
H  -12.65200 32.12400 43.82100
H  -11.61400 32.57200 45.27700
H  -7.79700 33.97500 40.64400
H  -5.10000 36.93500 43.71400
H  -4.54900 35.36000 43.83800
H  -5.63000 36.08000 45.09200

