158

Mg -0.98100 7.61800 26.17100
C  -0.30300 9.68400 28.94000
C  -0.53700 4.86300 28.13300
C  -1.36200 5.84800 23.41600
C  -0.46800 10.47500 24.11300
N  -0.58700 7.38100 28.31300
C  -0.50000 8.35300 29.25900
C  -0.43900 7.72200 30.62400
C  -0.28300 6.16000 30.33800
C  -0.48500 6.11000 28.80900
C  1.02400 5.56400 30.84700
C  -1.59600 8.10600 31.53600
C  -1.34700 8.72800 32.96200
H  -0.00900 8.34200 33.76500
N  -1.16300 5.60100 25.90100
C  -1.02300 4.64000 26.77900
C  -1.17200 3.34900 26.13500
C  -1.40400 3.57400 24.70900
C  -1.46100 5.12500 24.63600
C  -1.13200 2.14800 26.99800
C  -1.53100 2.61300 23.57100
O  -1.72400 2.93700 22.43000
C  -1.34000 1.15300 23.85200
N  -0.93600 8.10600 24.01200
C  -1.10900 7.14900 23.19000
C  -1.07600 7.66400 21.68000
C  -0.93600 9.20100 21.87600
C  -0.65500 9.29700 23.39000
C  -0.05700 7.03300 20.76700
C  -2.07400 10.14700 21.47900
C  -3.28800 10.35100 22.39600
N  -0.66600 9.71600 26.41200
C  -0.43300 10.75700 25.49500
C  -0.04200 11.94000 26.19900
C  -0.12000 11.58800 27.48200
C  -0.35500 10.21300 27.66800
C  0.34200 13.25300 25.59600
C  0.15200 12.11800 28.78000
O  0.51300 13.25500 29.11200
C  0.07100 10.92200 29.74900
C  1.38400 10.72400 30.40100
O  2.41300 10.40900 29.87400
O  1.28800 11.20400 31.65800
C  2.44700 11.80900 32.35200
H  -0.55100 3.99700 28.79700
H  -1.49500 5.32800 22.46500
H  -0.23800 11.38400 23.55400
H  0.49500 8.12100 31.02100
H  -1.01300 5.54700 30.86500
H  0.76200 4.95700 31.71400
H  1.65400 6.40000 31.15100
H  1.55800 4.97900 30.09800
H  -2.06500 7.17500 31.85300
H  -2.33200 8.62800 30.92400
H  -2.23000 8.61100 33.59100
H  -1.23500 9.81000 32.89300
H  -1.58100 1.27100 26.53100
H  -1.67500 2.30100 27.93100
H  -0.10600 1.91900 27.28600
H  -1.15000 0.60700 22.92800
H  -2.23300 0.81800 24.38000
H  -0.43200 1.17800 24.45600
H  -2.01800 7.40700 21.19600
H  -0.07700 9.48600 21.26900
H  0.72300 7.77000 20.57900
H  -0.64600 6.67900 19.92100
H  0.22900 6.07800 21.20900
H  -2.44300 9.91000 20.48200
H  -1.56800 11.10700 21.37700
H  -3.00300 11.20000 23.01800
H  -3.59500 9.60900 23.13300
H  -4.11600 10.67900 21.76800
H  0.62500 13.09100 24.55600
H  1.09100 13.67200 26.26900
H  -0.56500 13.85400 25.66100
H  -0.67900 11.15800 30.50400
H  2.62700 11.13800 33.19200
H  2.02200 12.73400 32.74100
H  3.36700 11.93300 31.78100
Mg 47.39200 16.76500 29.56900
C  45.33200 15.94200 32.36800
C  49.57700 18.23800 31.87300
C  49.12300 17.72500 26.99400
C  44.75100 15.69400 27.46900
N  47.40500 16.98000 31.87300
C  46.53200 16.55200 32.79300
C  46.90800 16.94000 34.20600
C  48.13900 17.86700 33.97000
C  48.42900 17.71500 32.44600
C  47.93300 19.31400 34.26400
C  47.25400 15.71000 35.05600
C  47.20300 15.80900 36.50300
H  47.14700 17.20900 37.18400
N  49.11900 17.82000 29.49600
C  49.93700 18.29500 30.52200
C  51.16000 18.83100 29.93400
C  51.03800 18.75400 28.50100
C  49.68000 18.14600 28.25100
C  52.31400 19.34600 30.83400
C  51.96600 19.17100 27.38200
O  51.60000 19.17400 26.22400
C  53.34700 19.90100 27.76700
N  46.91100 16.84300 27.49000
C  47.92400 17.14300 26.66000
C  47.48800 16.93700 25.17700
C  46.23800 16.02700 25.35400
C  45.89300 16.21900 26.83200
C  47.28500 18.25600 24.32700
C  46.41200 14.59900 24.84300
C  46.73300 13.50200 25.89800
N  45.49800 15.94200 29.80200
C  44.58400 15.53400 28.87600
C  43.33600 15.05700 29.53900
C  43.58700 15.24000 30.88900
C  44.94800 15.74300 31.03900
C  42.13000 14.47500 28.90600
C  42.97000 15.07700 32.23500
O  41.89400 14.69000 32.54500
C  44.12200 15.52600 33.27800
C  43.48200 16.69900 34.01700
O  43.05100 17.73700 33.45700
O  43.53000 16.39500 35.37900
C  43.05500 17.45800 36.26200
H  50.20400 18.59300 32.69400
H  49.78900 17.80600 26.13300
H  43.94500 15.33800 26.82400
H  46.14600 17.55200 34.68800
H  48.99100 17.48600 34.53300
H  46.99300 19.57000 34.75300
H  47.87200 19.82600 33.30300
H  48.79000 19.77000 34.76000
H  48.22400 15.34200 34.72200
H  46.50400 14.92900 34.92900
H  48.07800 15.35000 36.96300
H  46.38600 15.20700 36.90100
H  51.85500 19.50900 31.80900
H  52.72000 20.32000 30.55900
H  53.11000 18.60200 30.85300
H  53.92100 20.09400 26.86100
H  53.89000 19.36500 28.54500
H  52.92800 20.81600 28.18600
H  48.35100 16.38100 24.81100
H  45.37700 16.47300 24.85700
H  46.42400 17.97600 23.72000
H  48.11700 18.41400 23.64100
H  47.04700 19.16800 24.87400
H  47.29900 14.70400 24.21700
H  45.63900 14.19300 24.19000
H  46.63300 13.91200 26.90300
H  47.74300 13.16300 25.66800
H  46.13200 12.59500 25.95500
H  42.44400 13.88600 28.04400
H  41.40100 15.19900 28.54300
H  41.63700 13.94500 29.72100
H  44.25300 14.74200 34.02400
H  43.08400 17.06400 37.27800
H  42.01300 17.68100 36.03100
H  43.70100 18.32400 36.12000

