158

Mg 1.69200 -1.82200 44.17300
C  4.98500 -0.62700 43.62800
C  0.50500 0.93500 42.34500
C  -1.33000 -3.06200 44.36200
C  3.12700 -4.80600 45.28000
N  2.63500 -0.21800 42.92100
C  3.99500 0.09300 42.86800
C  4.28700 1.26400 41.94800
C  2.83600 1.95600 41.78800
C  1.92400 0.88800 42.40900
C  2.77300 3.21000 42.66500
C  4.87000 0.75500 40.61700
C  5.99100 1.67100 40.02200
H  5.73500 2.25200 38.65700
N  -0.18600 -1.11900 43.43600
C  -0.47600 -0.01900 42.75700
C  -1.88400 0.12200 42.58500
C  -2.46100 -1.06200 43.10000
C  -1.33200 -1.81000 43.71200
C  -2.59000 1.21700 41.89600
C  -3.93200 -1.34400 43.02900
O  -4.74200 -0.54700 42.49800
C  -4.48000 -2.63600 43.58300
N  1.02200 -3.78600 44.47600
C  -0.30000 -3.96600 44.80900
C  -0.60600 -5.18700 45.47400
C  0.81500 -5.82500 45.74500
C  1.79900 -4.78400 45.05100
C  -1.41400 -5.05100 46.80500
C  1.01000 -7.23900 45.21400
C  0.97800 -7.32700 43.69000
N  3.71000 -2.59700 44.42200
C  4.05800 -3.83800 44.86200
C  5.46400 -3.87000 45.09000
C  5.95300 -2.59500 44.63900
C  4.80100 -1.93100 44.21400
C  6.22600 -5.03400 45.71400
C  7.08800 -1.71300 44.39500
O  8.28800 -1.84500 44.51000
C  6.46500 -0.37800 43.79000
C  6.78600 0.81300 44.57400
O  6.12000 1.20800 45.50800
O  7.92200 1.34900 44.06300
C  8.36200 2.69700 44.55700
H  0.16400 1.89700 41.95600
H  -2.28900 -3.54400 44.56300
H  3.71900 -5.62300 45.69900
H  4.94500 1.87300 42.56800
H  2.57900 2.13700 40.74500
H  3.75100 3.68800 42.72400
H  2.47400 3.13900 43.71100
H  2.08900 3.95500 42.26000
H  4.11400 0.44500 39.89600
H  5.48900 -0.07000 40.97100
H  6.93200 1.12100 40.04400
H  6.18800 2.53200 40.66000
H  -3.23200 0.77800 41.13200
H  -1.95700 1.92600 41.36200
H  -3.21300 1.75300 42.61200
H  -4.10100 -3.48100 43.00900
H  -5.56100 -2.67200 43.44700
H  -4.29800 -2.86000 44.63400
H  -1.13700 -5.72400 44.68700
H  1.04700 -5.96800 46.80000
H  -1.36300 -4.00200 47.09500
H  -0.93700 -5.67100 47.56400
H  -2.44500 -5.40400 46.76200
H  0.31800 -8.01900 45.53100
H  1.96400 -7.66100 45.52900
H  0.31900 -8.04500 43.20300
H  1.99700 -7.52700 43.35800
H  0.66400 -6.43500 43.14800
H  5.78500 -5.25300 46.68700
H  7.28700 -4.78100 45.72400
H  6.09300 -5.83400 44.98600
H  6.93700 -0.23400 42.81800
H  7.68200 3.35900 44.01900
H  9.41800 2.83500 44.32500
H  8.21500 2.75400 45.63500
Mg 25.61600 1.58800 29.57100
C  27.40800 1.46500 32.56800
C  22.69800 1.67000 31.52200
C  23.89700 1.76900 26.88300
C  28.55200 0.94300 27.87500
N  25.08900 1.45500 31.79400
C  26.03000 1.64400 32.79100
C  25.33000 1.73500 34.17600
C  23.80900 1.44200 33.84100
C  23.83800 1.49100 32.32100
C  23.05900 0.12700 34.28900
C  25.62600 3.09500 34.93100
C  26.11000 2.91300 36.41000
H  25.86200 3.97300 37.43200
N  23.59200 1.72300 29.24400
C  22.59500 1.81500 30.13900
C  21.34300 1.96200 29.41600
C  21.69700 1.89600 28.05700
C  23.11200 1.85100 28.00400
C  19.96800 2.12100 30.00500
C  20.77700 1.81800 26.87600
O  21.18000 1.79100 25.70800
C  19.25800 1.68700 27.02700
N  26.20700 1.45100 27.65700
C  25.27400 1.71600 26.66800
C  25.91800 1.73800 25.25400
C  27.49400 1.64700 25.62000
C  27.42700 1.34200 27.14900
C  25.47100 0.49800 24.40100
C  28.29200 2.88600 25.25000
C  27.96800 4.21000 25.96800
N  27.56500 1.17100 30.05900
C  28.66700 0.82300 29.28800
C  29.82000 0.46500 30.10200
C  29.39700 0.81900 31.38000
C  28.01700 1.19700 31.31900
C  31.09300 -0.07900 29.56200
C  29.77500 0.93100 32.79100
O  30.84400 0.66500 33.30300
C  28.51900 1.43800 33.56700
C  28.39600 0.48800 34.65700
O  27.92700 -0.64000 34.59500
O  29.11100 0.98900 35.72800
C  28.93000 0.13100 36.90900
H  21.72600 1.84500 31.98700
H  23.51300 1.88000 25.86700
H  29.45600 0.71600 27.30400
H  25.55900 0.84800 34.76800
H  23.24500 2.30700 34.19100
H  22.05400 0.38200 34.62500
H  23.57000 -0.26100 35.17000
H  22.99300 -0.68100 33.56100
H  24.81400 3.82000 34.98200
H  26.44100 3.55300 34.37000
H  27.11000 2.50000 36.28500
H  25.62400 2.04400 36.85400
H  19.25500 2.81900 29.56600
H  20.08300 2.38500 31.05700
H  19.51200 1.13200 30.03600
H  18.80400 1.40600 26.07600
H  18.96000 2.69300 27.32300
H  19.00500 1.01100 27.84400
H  25.69500 2.64700 24.69500
H  27.88300 0.77300 25.09800
H  24.38500 0.43300 24.33200
H  25.64900 -0.35300 25.05900
H  25.94100 0.49200 23.41800
H  28.03800 3.08800 24.20900
H  29.35500 2.69600 25.40100
H  27.37800 4.88600 25.34900
H  28.74700 4.84500 26.39100
H  27.28800 3.94700 26.77800
H  31.73500 0.60800 29.01100
H  30.84700 -1.01900 29.06800
H  31.48600 -0.37200 30.53600
H  28.71200 2.47300 33.85000
H  29.05300 -0.93700 36.73100
H  28.06100 0.44200 37.48800
H  29.75000 0.37100 37.58600

