158

Mg 17.09800 -1.71300 27.74800
C  16.27700 0.49600 30.36200
C  19.22800 -3.38100 29.92900
C  18.39600 -3.40900 25.04700
C  15.65400 0.55700 25.52200
N  17.64100 -1.47300 29.92100
C  17.04900 -0.54700 30.80000
C  17.47100 -0.88100 32.21700
C  18.43400 -2.20000 32.11600
C  18.49600 -2.33800 30.59100
C  19.82500 -2.03100 32.80800
C  16.17700 -1.12500 33.06600
C  16.00600 -0.29400 34.39100
H  17.27200 -0.06300 35.24600
N  18.47000 -3.28800 27.47200
C  19.25600 -3.78000 28.50600
C  19.99800 -4.96500 28.03900
C  19.88400 -4.87300 26.59600
C  18.90200 -3.85600 26.29900
C  20.86400 -5.81600 28.92300
C  20.66300 -5.72900 25.54700
O  20.53400 -5.58000 24.32900
C  21.75000 -6.77000 26.05800
N  17.05400 -1.38300 25.49300
C  17.59100 -2.34200 24.66100
C  17.36600 -1.88900 23.20200
C  16.26100 -0.79700 23.39300
C  16.31000 -0.53600 24.89700
C  18.73000 -1.23900 22.54300
C  14.87200 -1.25900 22.99800
C  14.18400 -2.28600 23.92300
N  16.24300 0.16700 27.82700
C  15.66900 0.94200 26.82800
C  15.07800 2.17000 27.45700
C  15.35200 2.04100 28.84700
C  15.94800 0.75900 29.00900
C  14.46500 3.24900 26.70500
C  15.28500 2.64500 30.12100
O  14.87100 3.76000 30.42400
C  15.91400 1.71600 31.14800
C  17.04000 2.43600 31.87100
O  18.20400 2.67200 31.46000
O  16.49600 3.04800 32.99000
C  17.30400 3.92800 33.90700
H  19.94000 -3.94300 30.53700
H  18.80400 -3.98400 24.21300
H  15.27500 1.29800 24.81600
H  18.11500 -0.10300 32.62600
H  17.93300 -3.10400 32.46300
H  19.82500 -1.24200 33.56100
H  20.66700 -1.88400 32.13200
H  20.02800 -3.00100 33.26200
H  16.07500 -2.18800 33.28600
H  15.26600 -0.90900 32.50800
H  15.14300 -0.67300 34.93900
H  15.90100 0.77100 34.18200
H  20.37700 -5.79100 29.89800
H  21.87600 -5.41300 28.94400
H  20.74600 -6.88100 28.72600
H  21.13400 -7.58600 26.43700
H  22.35000 -6.37600 26.87900
H  22.36500 -7.04800 25.20300
H  16.98500 -2.71200 22.59700
H  16.61600 0.10400 22.89300
H  19.66800 -1.29300 23.09500
H  18.63600 -0.18000 22.30400
H  18.82800 -1.68100 21.55100
H  14.83700 -1.68500 21.99500
H  14.24800 -0.36900 23.08500
H  13.54400 -1.78000 24.64500
H  14.87000 -2.97600 24.41400
H  13.57100 -3.00000 23.37400
H  13.65200 2.91000 26.06300
H  15.20700 3.73000 26.06700
H  13.99600 3.94200 27.40400
H  15.21400 1.55200 31.96800
H  16.90600 3.69000 34.89400
H  17.15000 5.00300 33.82600
H  18.36300 3.69200 33.79800
Mg 6.35100 54.80100 41.09900
C  5.55500 51.29100 40.92800
C  9.61700 53.96800 40.21700
C  7.01400 58.02500 41.00900
C  2.90300 55.33800 41.46400
N  7.40700 52.84000 40.40500
C  6.89200 51.58300 40.46800
C  7.85400 50.58700 39.89800
C  9.19600 51.36000 39.91700
C  8.74500 52.83600 40.22900
C  10.21500 51.00200 40.99500
C  7.49400 49.96400 38.47700
C  7.77500 50.79000 37.20200
H  6.89000 50.44200 36.00600
N  8.08700 55.81800 40.72300
C  9.31300 55.33000 40.42800
C  10.28300 56.45100 40.34200
C  9.53700 57.61100 40.58300
C  8.18200 57.18400 40.86800
C  11.72200 56.22400 39.99500
C  10.10000 58.99800 40.56700
O  11.28600 59.15900 40.40000
C  9.34400 60.30000 40.75400
N  5.06600 56.46800 41.18300
C  5.61200 57.70000 41.15400
C  4.60200 58.80400 41.38900
C  3.22300 57.94500 41.56600
C  3.70400 56.49100 41.40400
C  4.94800 59.76800 42.59700
C  2.07600 58.41000 40.54800
C  0.80300 59.00100 41.12300
N  4.53800 53.61800 41.25400
C  3.25800 53.96900 41.53800
C  2.44900 52.74100 41.94400
C  3.34500 51.78900 41.74400
C  4.60000 52.27800 41.27500
C  1.05100 52.70500 42.53900
C  3.47300 50.37500 41.94900
O  2.74500 49.52300 42.42900
C  4.79400 49.99000 41.31200
C  4.44000 49.26700 40.10600
O  3.76100 49.73000 39.16300
O  4.72300 47.92400 40.27900
C  4.44800 47.05100 39.08800
H  10.65600 53.80000 39.92700
H  7.21900 59.09400 40.92300
H  1.88300 55.58900 41.76200
H  7.81200 49.70500 40.53700
H  9.75100 51.23400 38.98700
H  10.41700 51.80500 41.70400
H  11.11300 50.74300 40.43600
H  9.78500 50.12400 41.47700
H  6.45700 49.64200 38.56800
H  8.02300 49.02200 38.33300
H  8.85700 50.75500 37.07200
H  7.60900 51.84500 37.42000
H  12.31400 57.13500 40.07800
H  11.74600 55.90800 38.95200
H  12.11400 55.46600 40.67300
H  8.73300 60.62800 39.91300
H  10.08900 61.09600 40.75600
H  8.81200 60.24000 41.70300
H  4.52400 59.45800 40.52000
H  2.74600 58.05800 42.54000
H  4.94300 60.83400 42.37100
H  5.88900 59.52300 43.08900
H  4.24500 59.50400 43.38600
H  1.71100 57.58200 39.94100
H  2.47000 59.20400 39.91300
H  0.98200 59.19500 42.18100
H  -0.06600 58.35400 41.00000
H  0.57700 59.94400 40.62600
H  1.17100 52.17000 43.48100
H  0.29900 52.12000 42.01000
H  0.61400 53.68200 42.74700
H  5.46800 49.42500 41.95600
H  5.22000 46.28600 39.00600
H  4.29400 47.52700 38.11900
H  3.51600 46.53600 39.32100

