158

Mg 24.85500 1.00900 29.36700
C  26.82300 0.80600 32.12700
C  22.05100 1.41600 31.33400
C  22.87700 1.14400 26.68900
C  27.60900 0.46300 27.40000
N  24.44400 1.06600 31.46900
C  25.44600 0.96000 32.40800
C  24.90300 1.21600 33.78500
C  23.34400 1.19300 33.61300
C  23.26300 1.21300 32.03400
C  22.50200 -0.07000 34.09000
C  25.62500 2.30100 34.59200
C  24.90000 3.06000 35.69600
H  25.71500 3.66200 36.90800
N  22.72600 1.24500 29.01300
C  21.77100 1.36400 29.99500
C  20.44900 1.57900 29.43000
C  20.63500 1.53300 28.00300
C  22.14500 1.29600 27.84100
C  19.15600 1.80100 30.23700
C  19.68100 1.57700 26.86900
O  19.91900 1.40700 25.70900
C  18.26400 1.98300 27.23500
N  25.14000 0.62100 27.33700
C  24.22400 0.83100 26.37800
C  24.78600 0.81400 24.94500
C  26.27700 0.84900 25.22000
C  26.39200 0.65500 26.73300
C  24.21200 -0.43600 24.16000
C  27.11800 2.06400 24.66600
C  27.42300 3.34100 25.47500
N  26.80700 0.58000 29.65000
C  27.85200 0.39200 28.81000
C  29.14800 0.27000 29.49200
C  28.76500 0.40300 30.79800
C  27.35400 0.63000 30.85500
C  30.43200 0.04200 28.75800
C  29.31900 0.45500 32.17500
O  30.45800 0.33300 32.58100
C  28.06800 0.70000 33.07600
C  28.08600 -0.31600 34.14000
O  27.44600 -1.35200 33.97500
O  28.76900 0.05900 35.30900
C  28.68700 -0.99100 36.37300
H  21.27400 1.65100 32.06400
H  22.47200 1.41400 25.71100
H  28.42800 0.32600 26.69100
H  25.16000 0.29800 34.31500
H  23.01400 2.12700 34.06900
H  21.96400 -0.61000 33.31000
H  21.84300 0.31300 34.86900
H  23.07400 -0.85200 34.59000
H  26.18500 2.95900 33.92800
H  26.35900 1.82700 35.24400
H  24.19200 2.36800 36.15200
H  24.38100 3.95800 35.36200
H  18.32600 1.25700 29.78600
H  18.89600 2.85500 30.33100
H  19.24500 1.31700 31.20900
H  17.77300 2.02300 26.26200
H  18.29700 2.93200 27.77100
H  17.77700 1.21800 27.83700
H  24.62000 1.78900 24.48500
H  26.66500 -0.14400 24.99200
H  23.61900 -1.02600 24.85800
H  25.05600 -1.03700 23.82200
H  23.68800 -0.24600 23.22300
H  26.88000 2.27600 23.62300
H  28.13100 1.67300 24.57300
H  28.45700 3.38000 25.81700
H  26.82900 3.35000 26.38900
H  27.23300 4.17000 24.79400
H  30.48500 0.69600 27.88800
H  30.54600 -1.00100 28.46200
H  31.27800 0.31900 29.38700
H  28.27700 1.62600 33.61100
H  28.80200 -2.02600 36.05200
H  27.70100 -0.89500 36.82900
H  29.51100 -0.72800 37.03600
Mg 46.77400 16.91400 27.46900
C  44.56500 16.62000 30.41400
C  48.79300 18.72500 29.46700
C  48.26300 17.70700 24.71000
C  43.83200 15.66600 25.66800
N  46.43500 17.92600 29.70500
C  45.75200 17.32300 30.68400
C  46.27000 17.74800 32.05700
C  47.46100 18.71400 31.62200
C  47.57400 18.47900 30.14500
C  47.37100 20.21100 32.11300
C  46.67900 16.49500 32.85300
C  46.76200 16.72700 34.30500
H  46.97700 18.12500 34.90700
N  48.33200 18.01800 27.17000
C  49.15400 18.57800 28.10100
C  50.41300 18.96100 27.46200
C  50.20100 18.73700 26.11100
C  48.94600 18.04300 25.97100
C  51.64800 19.34600 28.19000
C  51.23900 19.15400 24.92300
O  50.97000 18.85600 23.78500
C  52.55700 19.78000 25.26400
N  46.12200 16.67000 25.56000
C  46.98100 17.13200 24.54400
C  46.38000 16.93900 23.11300
C  44.99100 16.14300 23.46100
C  44.95500 16.14000 24.99200
C  46.22800 18.31800 22.40800
C  44.89400 14.70500 22.76000
C  43.67300 14.46100 21.86900
N  44.65600 16.07500 27.92100
C  43.62000 15.61600 27.06800
C  42.45700 15.27900 27.91100
C  42.84900 15.64700 29.22500
C  44.14200 16.16600 29.16400
C  41.11700 14.69600 27.42600
C  42.37900 15.60200 30.58400
O  41.38600 15.14000 31.04500
C  43.54200 16.18600 31.47500
C  43.09200 17.29000 32.29800
O  42.88600 18.43100 31.82800
O  42.75700 16.87900 33.58700
C  42.29500 17.94700 34.47100
H  49.48900 19.19700 30.16300
H  48.85000 17.81200 23.79600
H  42.96100 15.30900 25.11500
H  45.52800 18.22300 32.70000
H  48.38400 18.34300 32.07000
H  46.65400 20.28000 32.93100
H  47.01400 20.74600 31.23400
H  48.34500 20.61700 32.38500
H  47.68100 16.18200 32.55800
H  46.05600 15.60200 32.80400
H  47.46800 15.98100 34.66900
H  45.78500 16.49200 34.72800
H  52.48000 18.69700 27.91800
H  51.45300 19.39100 29.26200
H  51.84500 20.35100 27.81600
H  52.42700 20.74000 25.76400
H  53.20600 19.86600 24.39200
H  53.10200 19.07400 25.89100
H  46.97900 16.22400 22.55000
H  44.18600 16.80100 23.13200
H  46.53900 19.14000 23.05400
H  45.17700 18.42100 22.13900
H  46.86000 18.29500 21.52000
H  44.99300 13.97000 23.55900
H  45.80800 14.67100 22.16800
H  43.18900 13.48900 21.96800
H  43.95200 14.55800 20.82000
H  42.90200 15.19500 22.10300
H  40.84600 15.08500 26.44400
H  40.37800 15.05300 28.14300
H  41.18000 13.61000 27.48600
H  43.93000 15.35500 32.06400
H  41.84700 18.77400 33.92000
H  43.09400 18.37400 35.07800
H  41.52300 17.62600 35.17000

