158

Mg 43.71000 4.40100 47.42400
C  41.58200 7.08200 46.90600
C  41.00900 2.20300 47.11700
C  45.85600 1.80200 47.24300
C  46.44900 6.58700 47.26400
N  41.55600 4.64600 46.88800
C  40.85900 5.87100 46.72400
C  39.36000 5.56500 46.34800
C  39.30500 4.02100 46.53900
C  40.69800 3.58400 46.77400
C  38.25300 3.57600 47.66200
C  39.07700 5.98900 44.87600
C  37.85300 6.89100 44.59500
H  37.21200 6.64100 43.21000
N  43.43400 2.37000 47.27600
C  42.26000 1.65900 47.34400
C  42.50400 0.24500 47.20600
C  43.89100 0.09900 47.21100
C  44.47200 1.48000 47.19200
C  41.41500 -0.69600 47.20100
C  44.63000 -1.19600 47.03600
O  44.07300 -2.26700 46.76100
C  46.11800 -1.36200 47.14600
N  45.79100 4.19300 47.25600
C  46.44000 3.03700 47.30000
C  47.94100 3.16100 47.56600
C  48.15200 4.68500 47.51000
C  46.75200 5.19700 47.29400
C  48.71800 2.36500 48.72100
C  49.20500 5.13900 46.37800
C  50.68100 5.28500 46.73000
N  43.94000 6.42700 47.25200
C  45.10700 7.13800 47.16200
C  44.75300 8.51900 47.06400
C  43.36600 8.56600 47.02700
C  42.94400 7.24900 47.07900
C  45.72800 9.67800 46.83400
C  42.23000 9.43000 46.88800
O  42.19500 10.62900 46.89600
C  41.00500 8.49300 46.82000
C  40.07800 9.06000 47.88100
O  40.00800 8.66800 49.04200
O  39.16700 9.94600 47.27800
C  38.14600 10.62200 48.08300
H  40.16700 1.55800 46.85900
H  46.55000 0.96900 47.36800
H  47.17800 7.40000 47.23700
H  38.79500 6.15800 47.06600
H  38.86700 3.56900 45.64900
H  37.55000 4.37500 47.89600
H  38.85300 3.34000 48.54000
H  37.79400 2.67800 47.24800
H  39.10200 5.13300 44.20300
H  39.90100 6.66100 44.63800
H  38.06900 7.95900 44.64000
H  37.12900 6.67700 45.38000
H  41.72300 -1.64400 46.76000
H  40.55600 -0.41400 46.59300
H  41.12100 -0.78900 48.24700
H  46.51600 -0.82000 46.28800
H  46.43400 -2.39900 47.26100
H  46.38100 -0.95400 48.12200
H  48.42800 2.81800 46.65300
H  48.49000 5.02500 48.48800
H  49.34600 1.62300 48.22800
H  48.05900 1.92100 49.46700
H  49.48600 3.03200 49.11300
H  48.95400 6.16400 46.10700
H  49.11100 4.45000 45.53900
H  50.97900 4.27500 47.01100
H  50.80300 5.83300 47.66400
H  51.25300 5.76800 45.93800
H  45.09000 10.54500 47.00300
H  46.08000 9.76200 45.80600
H  46.50800 9.82200 47.58200
H  40.64700 8.59000 45.79500
H  37.82400 9.95500 48.88300
H  37.24500 10.65400 47.47100
H  38.59700 11.55500 48.41900
Mg 0.14300 43.11400 26.58600
C  2.56400 42.85000 29.20900
C  -2.12500 41.79700 28.74600
C  -1.91600 43.01000 23.98200
C  2.93200 43.66800 24.37800
N  0.20800 42.40800 28.78800
C  1.24400 42.44700 29.64800
C  0.68000 42.49400 31.03400
C  -0.78800 41.77700 30.92600
C  -0.90000 41.95100 29.39000
C  -0.79900 40.26400 31.23400
C  0.70100 43.95300 31.63200
C  1.20600 44.03100 33.11100
H  0.88700 42.81500 34.04300
N  -1.75400 42.62400 26.44700
C  -2.57400 42.05600 27.42000
C  -3.84900 41.83100 26.88900
C  -3.86800 42.32200 25.54900
C  -2.41000 42.67600 25.27200
C  -4.93600 41.32600 27.80100
C  -5.10900 42.37600 24.55900
O  -4.96400 42.89400 23.47100
C  -6.49300 41.84600 24.95200
N  0.52400 43.04500 24.40700
C  -0.57000 43.23500 23.64800
C  -0.14900 43.86400 22.33200
C  1.30100 44.25800 22.49800
C  1.60300 43.63700 23.86200
C  -0.47000 42.90100 21.13400
C  1.55600 45.78600 22.41800
C  1.80800 46.39400 21.03800
N  2.25900 43.13100 26.68800
C  3.22400 43.33800 25.73700
C  4.58200 43.30000 26.37500
C  4.32600 43.12000 27.72500
C  2.94600 43.08100 27.84100
C  5.93200 43.30300 25.69300
C  4.98000 43.03700 29.05200
O  6.17800 43.10500 29.25400
C  3.84300 42.97800 30.05800
C  4.00400 41.83300 31.03400
O  3.97700 40.61200 30.72100
O  4.34800 42.26800 32.27100
C  4.36900 41.27700 33.32400
H  -2.92300 41.46800 29.41400
H  -2.68300 43.20000 23.22900
H  3.71900 43.91800 23.66300
H  1.38600 41.94000 31.65300
H  -1.54600 42.32000 31.49100
H  -1.06400 39.64100 30.38000
H  -1.49600 39.84800 31.96100
H  0.17800 39.95700 31.60700
H  -0.34600 44.24400 31.72700
H  1.28700 44.68400 31.07600
H  0.64200 44.81500 33.61600
H  2.26600 44.28100 33.08600
H  -5.29800 40.45900 27.24900
H  -5.77500 42.02000 27.85700
H  -4.69300 41.00500 28.81400
H  -7.22100 42.05200 24.16800
H  -6.73600 42.43200 25.83800
H  -6.36300 40.77800 25.12700
H  -0.76000 44.75000 22.16000
H  1.88600 43.74000 21.73800
H  0.39200 42.59900 20.54000
H  -1.25100 43.38800 20.55000
H  -0.90400 41.96000 21.47400
H  2.40700 46.07300 23.03700
H  0.77300 46.31000 22.96700
H  0.90000 46.83800 20.62800
H  2.25500 45.71700 20.31100
H  2.56100 47.13000 21.32100
H  6.12700 44.29200 25.27900
H  5.90300 42.47400 24.98600
H  6.70900 43.05500 26.41600
H  3.89100 43.76600 30.80900
H  5.31500 40.73700 33.34500
H  3.46000 40.67600 33.29800
H  4.26200 41.81900 34.26400

