158

Mg 7.88200 2.73900 27.57100
C  9.44700 1.37500 30.33400
C  5.97800 4.53400 29.90400
C  5.86100 3.60100 25.13700
C  9.41400 0.36800 25.53200
N  7.81500 3.01500 29.82700
C  8.63100 2.41200 30.72500
C  8.38800 2.90000 32.14700
C  7.14300 3.79800 32.00100
C  6.91800 3.75700 30.48100
C  5.89800 3.36900 32.83000
C  9.62900 3.54600 32.88900
C  9.32600 4.62500 33.92200
H  10.17200 4.63800 35.14900
N  6.21500 3.98100 27.54200
C  5.58400 4.61400 28.52800
C  4.50800 5.37800 28.04200
C  4.46700 5.26300 26.58500
C  5.53400 4.23000 26.35200
C  3.54400 6.16800 28.99400
C  3.66300 5.90900 25.54200
O  3.76800 5.62100 24.34400
C  2.59300 6.94200 25.88200
N  7.75800 2.14000 25.58400
C  6.85300 2.73700 24.73200
C  7.12000 2.22000 23.28300
C  8.34800 1.26700 23.42400
C  8.48100 1.22400 24.95300
C  5.76400 1.63200 22.73300
C  9.65300 1.41900 22.55900
C  10.08200 0.14500 21.89900
N  9.17100 1.19800 27.78300
C  9.65000 0.29300 26.91100
C  10.50500 -0.68100 27.53300
C  10.39100 -0.26900 28.94900
C  9.57000 0.86700 29.03400
C  11.38400 -1.78400 26.91400
C  10.87800 -0.63200 30.29500
O  11.66600 -1.47000 30.70200
C  10.32300 0.50100 31.26200
C  9.60200 -0.11900 32.40100
O  8.57800 -0.82900 32.35500
O  10.24900 0.18300 33.56100
C  9.63400 -0.34000 34.78400
H  5.48600 5.15200 30.65800
H  5.20800 3.76100 24.27700
H  9.83800 -0.27000 24.75400
H  8.28300 2.05500 32.82900
H  7.35200 4.83700 32.25700
H  5.23300 2.86100 32.13100
H  5.43600 4.27300 33.22900
H  6.29500 2.65300 33.54900
H  10.30100 3.91900 32.11700
H  10.21600 2.89200 33.53500
H  8.31300 4.44600 34.28400
H  9.35800 5.64800 33.54700
H  3.48800 7.18400 28.60100
H  4.07200 6.31800 29.93500
H  2.55500 5.72400 29.11200
H  2.14000 6.85500 24.89500
H  2.87000 7.99500 25.94100
H  1.88500 6.58100 26.62800
H  7.52000 3.06700 22.72600
H  7.96000 0.25900 23.27500
H  5.01900 1.52100 23.52100
H  5.86200 0.62600 22.32500
H  5.32400 2.23100 21.93500
H  10.47300 1.71300 23.21400
H  9.47400 2.23300 21.85600
H  10.82000 -0.21100 22.61700
H  10.48100 0.34100 20.90400
H  9.27800 -0.55900 21.68300
H  11.27000 -1.71800 25.83200
H  11.02900 -2.74300 27.29200
H  12.43900 -1.56400 27.07500
H  11.17900 1.12100 31.52900
H  9.69500 -1.42800 34.80400
H  8.63700 -0.04300 35.11000
H  10.29300 -0.18400 35.63800
Mg -2.09200 34.31700 26.63000
C  -3.98800 32.50800 28.88500
C  -0.94000 36.25300 29.26000
C  -0.56500 36.41700 24.42400
C  -3.57300 32.56600 23.98200
N  -2.61600 34.52200 28.73900
C  -3.25800 33.55300 29.45600
C  -3.12100 33.84000 30.97800
C  -2.36800 35.18600 31.04800
C  -1.95400 35.37700 29.58100
C  -3.16900 36.40700 31.46800
C  -2.21800 32.69900 31.61000
C  -2.93800 31.68700 32.65100
H  -2.45400 31.80900 34.17300
N  -0.89900 36.11000 26.83400
C  -0.39700 36.63200 28.03300
C  0.37700 37.76500 27.67500
C  0.31100 38.04100 26.28900
C  -0.40300 36.81600 25.77600
C  0.97600 38.69600 28.60400
C  0.90400 39.14500 25.42400
O  0.59500 39.22900 24.21900
C  1.81900 40.26500 25.95900
N  -2.29400 34.61100 24.41700
C  -1.37800 35.44500 23.80000
C  -1.49800 35.18700 22.26400
C  -2.36300 33.86800 22.16500
C  -2.75600 33.62300 23.59000
C  -2.02000 36.48800 21.49700
C  -1.69000 32.65000 21.61100
C  -0.51200 32.12300 22.40300
N  -3.50200 32.88700 26.42500
C  -3.95600 32.20600 25.28800
C  -4.77600 31.11800 25.67100
C  -4.84000 31.23800 27.08100
C  -4.03800 32.28300 27.48200
C  -5.45000 30.09000 24.82600
C  -5.42400 30.65900 28.26500
O  -6.30400 29.75100 28.46800
C  -4.72000 31.38100 29.50800
C  -5.86400 31.75700 30.47000
O  -6.41600 32.85700 30.47400
O  -5.91400 30.91100 31.48400
C  -6.97700 31.10700 32.48900
H  -0.47800 36.79000 30.09100
H  -0.01700 37.00100 23.68200
H  -4.04600 32.01500 23.16700
H  -4.11800 33.85300 31.41900
H  -1.55000 35.11600 31.76500
H  -3.03300 36.62900 32.52600
H  -4.19000 36.45200 31.08800
H  -2.61100 37.20800 30.98300
H  -1.39500 33.13800 32.17500
H  -1.75000 32.12500 30.81000
H  -2.87600 30.65100 32.31700
H  -4.00600 31.89900 32.61800
H  2.05300 38.79900 28.47200
H  0.90600 38.28600 29.61200
H  0.28000 39.52900 28.50500
H  1.07800 40.93500 26.39600
H  2.32700 40.75700 25.13000
H  2.58200 39.94700 26.66900
H  -0.58600 35.10000 21.67400
H  -3.20300 33.93900 21.47400
H  -1.25900 37.11500 21.03300
H  -2.45400 37.08400 22.29900
H  -2.76200 36.21500 20.74600
H  -1.21100 32.92200 20.67000
H  -2.46100 31.89400 21.46500
H  0.35600 31.93000 21.77200
H  -0.80400 31.17800 22.86000
H  -0.07500 32.75900 23.17300
H  -4.71400 29.75100 24.09700
H  -6.25300 30.49300 24.20900
H  -5.83200 29.28500 25.45400
H  -4.09800 30.68700 30.07300
H  -7.78000 31.74000 32.11100
H  -6.46400 31.62900 33.29700
H  -7.30400 30.10400 32.76100

