158

Mg 45.58200 5.04000 48.15400
C  43.21700 7.48700 47.22200
C  43.03400 2.70100 47.72900
C  47.94300 2.61800 48.18500
C  48.14500 7.39500 47.87000
N  43.37700 5.16800 47.76400
C  42.67200 6.25000 47.23300
C  41.26300 5.83900 46.74300
C  41.11200 4.38200 47.32600
C  42.59600 4.02700 47.61800
C  40.23200 4.18600 48.63200
C  40.99000 6.07100 45.22100
C  39.65600 6.77000 44.92100
H  39.54800 7.61800 43.65500
N  45.48900 2.94700 48.15700
C  44.36200 2.18900 47.96000
C  44.75400 0.81200 48.04900
C  46.19300 0.68300 48.14100
C  46.57900 2.09900 48.16200
C  43.72200 -0.33800 48.01000
C  46.92700 -0.62700 48.23300
O  46.32900 -1.70900 48.30900
C  48.47500 -0.69900 48.25800
N  47.76100 5.04100 48.07000
C  48.43600 3.89100 48.17500
C  50.00000 4.17700 48.33000
C  50.01400 5.74100 48.38400
C  48.60000 6.10500 48.07000
C  50.75700 3.47000 49.45200
C  51.05900 6.39400 47.49900
C  52.42900 5.79900 47.40800
N  45.69400 7.05000 47.71500
C  46.79700 7.85900 47.65900
C  46.33800 9.23100 47.36200
C  44.95300 9.08900 47.35000
C  44.58400 7.75800 47.45700
C  47.25400 10.44000 47.02500
C  43.73600 9.87500 47.07000
O  43.60200 11.05000 46.93700
C  42.54800 8.79600 47.02400
C  41.53100 9.16500 48.11800
O  41.23900 8.50600 49.08700
O  40.94200 10.26100 47.69500
C  39.72300 10.60300 48.43500
H  42.24900 1.98200 47.48800
H  48.69200 1.83800 48.33000
H  48.94300 8.13900 47.81100
H  40.51300 6.45700 47.23500
H  40.71100 3.74400 46.53800
H  39.47900 3.43800 48.38600
H  39.64200 5.09600 48.74700
H  40.78300 3.84600 49.50900
H  40.92800 5.07900 44.77500
H  41.79200 6.54900 44.65800
H  39.31200 7.35700 45.77200
H  38.91200 5.97700 44.84700
H  44.04100 -1.06000 48.76200
H  43.70700 -0.76500 47.00700
H  42.71500 -0.01500 48.27100
H  48.77000 -1.73200 48.07000
H  48.75500 -0.32400 49.24200
H  48.88600 -0.13600 47.42000
H  50.29700 3.82500 47.34200
H  50.05200 6.14500 49.39600
H  51.43500 4.08200 50.04600
H  51.29800 2.64900 48.98100
H  49.99400 3.03400 50.09700
H  51.26100 7.37000 47.94100
H  50.81300 6.62200 46.46200
H  52.48900 4.87500 47.98300
H  53.16400 6.46100 47.86600
H  52.71900 5.54900 46.38800
H  47.75400 10.33900 46.06100
H  47.97700 10.57000 47.83100
H  46.60500 11.31500 46.99900
H  42.06000 8.78500 46.04900
H  39.75000 10.57100 49.52400
H  38.80000 10.22600 47.99500
H  39.68000 11.67600 48.25300
Mg 47.85800 25.25500 28.68800
C  48.58400 27.53100 31.17400
C  47.13800 22.87300 31.27100
C  47.25400 23.08200 26.26000
C  49.00400 27.55400 26.34600
N  47.62700 25.27200 30.99600
C  47.99800 26.39200 31.77200
C  47.68800 26.20900 33.23700
C  47.37100 24.64400 33.26000
C  47.40200 24.17900 31.73400
C  48.25900 23.77700 34.11600
C  46.56800 27.23200 33.87200
C  47.00700 28.12800 35.07200
H  46.06400 28.40300 36.28300
N  47.16200 23.21100 28.75600
C  46.98100 22.44100 29.92400
C  46.60700 21.11100 29.46000
C  46.61000 21.13800 28.02000
C  46.96200 22.51700 27.59200
C  46.29800 19.97700 30.40600
C  46.28600 19.94600 27.08000
O  46.43700 20.02000 25.90400
C  45.97400 18.67100 27.59900
N  48.09400 25.37700 26.58700
C  47.77600 24.33700 25.77900
C  48.07100 24.59400 24.26400
C  48.40700 26.10800 24.27700
C  48.56800 26.40900 25.79900
C  49.12100 23.66300 23.61600
C  47.47200 27.08400 23.57300
C  48.02100 28.01100 22.44300
N  48.79000 27.11600 28.70300
C  49.09600 27.95000 27.70400
C  49.54000 29.25100 28.22600
C  49.37000 29.12600 29.61800
C  48.88800 27.80000 29.82700
C  50.05900 30.40300 27.45400
C  49.49800 29.86400 30.81300
O  49.87100 30.96100 31.13000
C  49.05300 28.80100 31.87100
C  50.19700 28.51300 32.81600
O  51.17800 27.82600 32.51200
O  49.88300 29.10000 34.04400
C  51.04000 29.05800 35.00500
H  47.00600 22.13100 32.06200
H  47.11400 22.27800 25.53500
H  49.26000 28.31900 25.61000
H  48.56200 26.44300 33.84500
H  46.32100 24.66600 33.55100
H  48.78200 23.01200 33.54200
H  47.66400 23.24600 34.85800
H  49.06800 24.41400 34.47500
H  45.73300 26.68700 34.31200
H  46.24700 27.80100 33.00000
H  47.08400 29.10900 34.60400
H  48.05000 27.98300 35.35400
H  47.02200 19.21100 30.12800
H  45.27100 19.64000 30.26400
H  46.53800 20.21900 31.44200
H  46.90000 18.38000 28.09500
H  45.62200 18.08000 26.75400
H  45.11000 18.91300 28.21800
H  47.10100 24.57100 23.76600
H  49.40400 26.12800 23.83700
H  49.62900 24.05300 22.73300
H  48.72900 22.72700 23.21900
H  49.86300 23.35700 24.35300
H  47.08800 27.75100 24.34500
H  46.57400 26.53700 23.28600
H  47.86300 29.08800 22.49600
H  47.57900 27.67000 21.50600
H  49.09700 27.91700 22.30000
H  49.63700 31.30900 27.88700
H  49.73800 30.21000 26.43000
H  51.14700 30.37900 27.50800
H  48.22300 29.08400 32.51900
H  50.84700 28.37300 35.83100
H  51.16300 30.04600 35.45000
H  51.99300 28.97200 34.48300

