158

Mg 43.51900 3.98400 47.64300
C  41.50100 6.82500 47.09900
C  40.71800 2.03900 47.35200
C  45.62400 1.39400 47.51200
C  46.41500 6.22000 47.76600
N  41.47500 4.41300 47.23500
C  40.78800 5.62000 47.30600
C  39.26900 5.42500 47.35700
C  39.14000 3.88700 47.59000
C  40.59300 3.40000 47.32400
C  38.51500 3.50100 48.97200
C  38.46700 5.98700 46.04200
C  38.83900 5.36800 44.63000
H  39.33500 6.24200 43.47400
N  43.24000 1.94300 47.53100
C  41.98700 1.31500 47.40500
C  42.23500 -0.11600 47.27500
C  43.62100 -0.27700 47.28400
C  44.24700 1.07800 47.51500
C  41.25200 -1.22100 47.27600
C  44.32100 -1.66300 47.14000
O  43.62300 -2.62300 46.85300
C  45.75400 -1.88100 47.31400
N  45.75900 3.85200 47.58900
C  46.29200 2.61800 47.62800
C  47.83200 2.71600 47.83300
C  48.08400 4.23600 47.94000
C  46.68400 4.81100 47.77000
C  48.30100 1.87800 49.01900
C  49.09800 4.81100 46.94400
C  50.53900 4.36000 47.05000
N  43.92800 6.15600 47.53800
C  45.12300 6.84800 47.54600
C  44.75900 8.27500 47.48500
C  43.33500 8.31300 47.30900
C  42.88500 6.97300 47.25600
C  45.80600 9.39500 47.63500
C  42.13500 9.11100 47.23000
O  41.91100 10.31100 47.20300
C  40.91200 8.20800 47.10700
C  39.95500 8.40400 48.29200
O  40.23600 8.14300 49.46500
O  38.77000 8.76300 47.84800
C  37.79200 8.95900 48.93300
H  39.76600 1.50500 47.31800
H  46.23800 0.53700 47.79700
H  47.35300 6.77600 47.70900
H  38.99900 5.93000 48.28400
H  38.54000 3.42700 46.80500
H  39.21400 2.97800 49.62500
H  37.65900 2.84200 48.82700
H  38.03600 4.36700 49.42700
H  38.65900 7.05100 45.90100
H  37.42000 5.81100 46.28900
H  38.03000 4.70400 44.32500
H  39.64200 4.63000 44.62700
H  41.41400 -2.05900 47.95400
H  41.17800 -1.61700 46.26300
H  40.28800 -0.71700 47.34700
H  45.97000 -1.46600 48.29800
H  46.36600 -1.35000 46.58500
H  45.82800 -2.96700 47.24500
H  48.33200 2.35800 46.93300
H  48.47900 4.43800 48.93500
H  48.58100 0.88300 48.67400
H  47.46700 1.82600 49.71900
H  49.20800 2.32900 49.42100
H  49.19400 5.89300 47.03300
H  48.82300 4.47300 45.94500
H  51.22000 5.21000 47.00900
H  50.70100 3.74600 46.16400
H  50.81800 3.75000 47.90900
H  45.30200 10.35300 47.50900
H  46.61600 9.32700 46.90900
H  46.34700 9.39600 48.58100
H  40.33000 8.43400 46.21300
H  36.91200 9.45000 48.51800
H  38.20500 9.61100 49.70300
H  37.50600 7.99200 49.34700
Mg 27.28000 50.99900 26.87800
C  25.31400 51.95800 29.65300
C  29.80600 50.16700 29.19900
C  29.43200 50.73700 24.37800
C  24.80000 52.34300 24.77600
N  27.53100 51.01700 29.13100
C  26.55300 51.42800 30.02300
C  26.95800 51.11100 31.41500
C  28.47700 50.66200 31.29200
C  28.62200 50.61100 29.76200
C  29.48900 51.67000 31.93400
C  25.97500 50.03000 32.09800
C  25.07600 50.36500 33.21000
H  25.31400 49.66500 34.58300
N  29.29800 50.27600 26.75300
C  30.12300 50.03700 27.79200
C  31.39400 49.49100 27.23200
C  31.29300 49.66700 25.80400
C  29.94900 50.23700 25.59100
C  32.46900 48.97800 28.01700
C  32.24800 49.41300 24.79200
O  32.07900 49.62100 23.58200
C  33.52400 48.76200 25.07600
N  27.27900 51.86900 24.83800
C  28.18300 51.34700 23.98600
C  27.70700 51.41300 22.55600
C  26.16200 51.69800 22.80100
C  26.08000 52.00900 24.28600
C  28.53300 52.48300 21.65400
C  25.17300 50.60400 22.32500
C  24.05700 50.94600 21.33700
N  25.37100 51.93100 27.04600
C  24.46200 52.31100 26.12100
C  23.30600 52.85800 26.84900
C  23.56600 52.72400 28.19300
C  24.84800 52.13000 28.28900
C  22.12700 53.48600 26.17800
C  22.99500 52.83200 29.42500
O  21.88900 53.24100 29.77200
C  24.05800 52.24400 30.46500
C  24.23700 53.18900 31.53200
O  25.18200 54.00100 31.63900
O  23.28300 52.98100 32.53200
C  23.20800 53.99300 33.66300
H  30.61300 49.73700 29.79500
H  29.94500 50.54900 23.43300
H  23.94200 52.50200 24.12000
H  27.01300 52.06000 31.94800
H  28.56400 49.72200 31.83600
H  29.70200 52.47200 31.22600
H  30.35800 51.09900 32.26300
H  29.01400 52.19600 32.76200
H  26.64200 49.23700 32.43500
H  25.42500 49.57900 31.27200
H  24.03300 50.29700 32.90000
H  25.27600 51.38300 33.54300
H  32.41800 49.26900 29.06600
H  33.42900 49.43400 27.77700
H  32.51600 47.91300 27.79200
H  34.26700 48.56700 24.30200
H  33.44200 47.84000 25.65200
H  34.05300 49.50600 25.67100
H  27.85800 50.38900 22.21400
H  25.92800 52.53900 22.14900
H  28.71000 51.90900 20.74400
H  29.49500 52.83600 22.02400
H  27.94000 53.37500 21.45200
H  24.59500 50.24900 23.17700
H  25.69200 49.69100 22.03200
H  24.13500 51.98500 21.01700
H  23.10400 50.80800 21.84700
H  24.05600 50.43200 20.37600
H  22.58600 54.09000 25.39500
H  21.59700 54.05900 26.94000
H  21.40500 52.88600 25.62500
H  23.69700 51.29600 30.86200
H  23.49600 55.03600 33.52600
H  23.81700 53.58800 34.47200
H  22.18700 53.97000 34.04300

