158

Mg -0.13400 7.42400 26.57500
C  0.92700 9.52500 29.23200
C  -0.57400 5.02900 28.82600
C  -0.95500 5.47400 24.02600
C  0.16500 10.15400 24.37500
N  0.23500 7.37400 28.76900
C  0.50400 8.33700 29.69300
C  0.45100 7.82500 31.09900
C  -0.03700 6.30500 30.89700
C  -0.14600 6.17400 29.37900
C  0.79300 5.14500 31.63000
C  -0.50500 8.62000 32.11800
C  0.09400 8.81100 33.55900
H  1.20300 7.93000 34.13300
N  -0.65500 5.47100 26.43800
C  -0.78100 4.64300 27.52600
C  -1.31500 3.34400 27.04300
C  -1.54100 3.42300 25.62400
C  -0.99000 4.77200 25.32200
C  -1.64400 2.25100 28.05200
C  -2.18300 2.42300 24.67000
O  -2.30900 2.67600 23.48900
C  -2.67200 1.08900 25.11400
N  -0.29300 7.81100 24.46700
C  -0.73800 6.81500 23.68600
C  -1.12800 7.38100 22.26400
C  -0.75600 8.88600 22.35400
C  -0.36400 8.99700 23.85400
C  -0.33800 6.64900 21.18500
C  -2.05500 9.76400 22.15000
C  -2.06600 10.72700 20.97100
N  0.54700 9.36200 26.63700
C  0.60400 10.38600 25.70100
C  1.10700 11.61000 26.27100
C  1.32100 11.28200 27.67700
C  0.93200 9.96200 27.83500
C  1.39700 12.97000 25.59400
C  1.64100 11.91300 28.96400
O  2.06200 13.03800 29.23000
C  1.37200 10.73100 30.01900
C  2.65800 10.45100 30.71200
O  3.54300 9.77800 30.19100
O  2.66000 11.06900 31.98100
C  3.89000 10.91700 32.72400
H  -0.82800 4.29200 29.59100
H  -1.17600 4.81000 23.18700
H  0.10800 11.05000 23.75400
H  1.47600 7.78400 31.46700
H  -1.03000 6.13100 31.31200
H  1.66600 5.56100 32.13200
H  1.13500 4.37000 30.94400
H  0.17100 4.69300 32.40300
H  -1.51200 8.21200 32.21200
H  -0.72400 9.63700 31.79200
H  -0.65000 8.63600 34.33700
H  0.44900 9.84100 33.58500
H  -2.68600 2.26800 28.37400
H  -1.08300 2.33400 28.98300
H  -1.36900 1.31400 27.56900
H  -1.93000 0.36500 25.45000
H  -3.20000 0.61900 24.28500
H  -3.48300 1.36000 25.79100
H  -2.20400 7.22000 22.18900
H  0.06100 9.17900 21.69500
H  -0.94100 6.02400 20.52700
H  0.49400 6.08000 21.60000
H  0.23000 7.27700 20.49800
H  -2.09000 10.46500 22.98400
H  -2.93500 9.12000 22.14500
H  -3.01400 10.45600 20.50500
H  -1.28700 10.51300 20.23900
H  -2.07500 11.79500 21.18600
H  1.28500 13.78800 26.30500
H  0.65800 13.09300 24.80300
H  2.44000 12.99700 25.27700
H  0.55000 11.09900 30.63400
H  4.13000 11.97200 32.86000
H  4.67400 10.34500 32.22800
H  3.50300 10.50800 33.65700
Mg 47.37500 25.77300 27.62500
C  48.17400 28.18200 30.15300
C  47.02400 23.49500 30.13900
C  46.91800 23.40600 25.21800
C  48.91000 27.83600 25.26300
N  47.51300 25.89100 29.81400
C  47.72700 26.97000 30.66600
C  47.59300 26.64800 32.11100
C  47.50300 25.08300 32.05200
C  47.33900 24.81400 30.60900
C  48.72000 24.28300 32.70900
C  46.44500 27.45600 32.78900
C  45.84300 26.96200 34.12900
H  45.80300 27.93200 35.28900
N  46.90600 23.72900 27.63300
C  46.79500 22.97000 28.82900
C  46.29200 21.63400 28.53000
C  46.19000 21.60200 27.04700
C  46.74400 22.89100 26.55400
C  46.10700 20.56800 29.55600
C  45.69700 20.48800 26.15700
O  45.75800 20.59300 24.93600
C  45.13500 19.25500 26.64400
N  47.79700 25.62500 25.51000
C  47.52300 24.58100 24.69100
C  47.89800 24.87400 23.21400
C  48.08200 26.42700 23.25400
C  48.32100 26.63900 24.75700
C  49.03600 23.94800 22.73800
C  46.92200 27.29000 22.65000
C  47.35500 28.49800 21.79800
N  48.29000 27.64800 27.63900
C  48.93300 28.26800 26.63100
C  49.34600 29.59200 27.13400
C  49.06600 29.59600 28.51800
C  48.47200 28.38000 28.79100
C  49.88000 30.70000 26.32400
C  49.15600 30.38900 29.76400
O  49.68200 31.51200 29.93100
C  48.58100 29.48400 30.93500
C  49.62700 29.28800 31.95500
O  50.54000 28.40900 32.00900
O  49.25900 30.05900 33.06000
C  49.82400 29.57200 34.31700
H  46.87300 22.71000 30.88400
H  46.85000 22.67700 24.40800
H  49.32600 28.48200 24.48800
H  48.58400 26.90400 32.48400
H  46.65000 24.77100 32.65500
H  49.51000 24.91900 33.10800
H  49.24900 23.71600 31.94300
H  48.33600 23.58200 33.45000
H  45.61000 27.55200 32.09600
H  46.90800 28.43000 32.94900
H  46.22100 25.96600 34.36100
H  44.77700 26.77000 34.01100
H  45.07400 20.22500 29.51300
H  46.19400 20.88000 30.59600
H  46.77700 19.76000 29.26400
H  44.21600 19.40400 27.20900
H  45.92700 18.72800 27.17500
H  44.78000 18.72600 25.76000
H  47.04900 24.60900 22.58500
H  49.03800 26.52000 22.73900
H  49.38100 23.38000 23.60100
H  49.80900 24.57500 22.29400
H  48.52800 23.26800 22.05400
H  46.31500 27.63900 23.48500
H  46.22900 26.66300 22.08900
H  47.45000 29.37600 22.43800
H  46.53400 28.65200 21.09800
H  48.26300 28.32500 21.22000
H  49.16100 31.06600 25.59100
H  50.81100 30.47900 25.80300
H  50.09400 31.47100 27.06500
H  47.71300 29.89600 31.45100
H  50.90800 29.48400 34.23700
H  49.29400 28.64100 34.51500
H  49.63400 30.33900 35.06900

