158

Mg 29.43800 58.52400 41.14800
C  26.25200 57.02100 40.42100
C  30.93300 55.83800 39.74500
C  32.25800 60.28300 41.08900
C  27.60600 61.53200 41.88500
N  28.72000 56.73600 40.06500
C  27.36700 56.24900 39.97000
C  27.34300 55.03000 39.11000
C  28.76200 54.49300 39.25500
C  29.54400 55.74100 39.69800
C  28.92100 53.35400 40.27900
C  26.88400 55.45700 37.63300
C  25.85500 54.47300 36.95900
H  26.09200 54.00500 35.49300
N  31.34200 58.04500 40.69900
C  31.79500 56.86400 40.12600
C  33.22400 56.93400 40.07200
C  33.71700 58.16800 40.58200
C  32.43600 58.87900 40.81600
C  34.00800 55.72000 39.56200
C  35.18700 58.72400 40.72700
O  36.17800 58.00900 40.56300
C  35.42500 60.21700 41.16400
N  29.86300 60.61400 41.45500
C  31.14700 61.04900 41.42700
C  31.20300 62.47000 41.81400
C  29.73600 62.91100 42.18500
C  28.98400 61.65100 41.73700
C  32.37100 63.00300 42.65400
C  29.17700 64.29800 41.65000
C  28.50600 65.28800 42.68900
N  27.40000 59.12900 41.22300
C  26.83800 60.36500 41.51100
C  25.39300 60.25100 41.51500
C  25.14600 58.94700 41.04700
C  26.39700 58.32700 40.85300
C  24.36700 61.38800 41.84100
C  24.09100 58.00800 40.73700
O  22.88300 58.14800 40.71100
C  24.78500 56.72400 40.31500
C  24.49800 55.66900 41.27700
O  24.94600 55.70600 42.39500
O  23.89900 54.61000 40.66200
C  23.58100 53.49000 41.53300
H  31.35000 54.89600 39.38000
H  33.20400 60.82900 41.10900
H  26.91000 62.35300 42.06900
H  26.65100 54.32700 39.57400
H  29.02500 54.03400 38.30200
H  28.00700 53.11100 40.82100
H  29.58400 53.54900 41.12200
H  29.25700 52.44600 39.77900
H  27.77800 55.44500 37.01000
H  26.42900 56.44700 37.59400
H  24.82200 54.82100 36.93400
H  25.92200 53.53300 37.50800
H  34.28200 55.95700 38.53400
H  33.43400 54.79400 39.56300
H  34.86800 55.57800 40.21600
H  35.22700 60.85600 40.30300
H  36.49000 60.30800 41.38100
H  35.04600 60.46100 42.15600
H  31.36000 62.99200 40.87100
H  29.68800 62.96600 43.27200
H  32.88700 62.12300 43.03800
H  32.20600 63.56000 43.57600
H  33.01500 63.59000 42.00000
H  28.41900 64.11200 40.88800
H  29.92400 64.85900 41.08900
H  27.54300 65.72000 42.41700
H  29.19700 66.08700 42.95600
H  28.20400 64.83000 43.63100
H  24.80900 61.98900 42.63600
H  23.35900 61.15300 42.18300
H  24.05600 62.01500 41.00500
H  24.37300 56.36100 39.37400
H  22.60700 53.58100 42.01400
H  24.47700 53.23700 42.10000
H  23.39500 52.64200 40.87400
Mg 26.19400 50.69200 26.46600
C  24.00100 51.82800 29.04400
C  28.37200 49.83500 28.88300
C  28.42800 50.26300 24.05800
C  23.92700 52.25900 24.12300
N  26.27300 51.00100 28.82400
C  25.20700 51.29900 29.59700
C  25.57700 51.09600 31.14600
C  27.03100 50.40400 31.02200
C  27.27300 50.40300 29.50200
C  28.25200 51.05000 31.81600
C  24.54100 50.25900 31.93800
C  24.84400 49.86500 33.37900
H  24.16300 50.71200 34.46500
N  28.08600 49.98000 26.43700
C  28.84300 49.68200 27.55900
C  30.14500 49.10800 27.13900
C  30.24400 49.39400 25.75700
C  28.91500 49.89600 25.31500
C  31.08400 48.32900 28.00800
C  31.36400 49.18200 24.89800
O  31.34900 49.39800 23.71200
C  32.69700 48.73900 25.44500
N  26.15000 51.14500 24.40000
C  27.19000 50.83800 23.64200
C  27.08700 51.38900 22.18300
C  25.58400 51.85800 22.15500
C  25.16900 51.75500 23.62000
C  28.21600 52.47000 21.89200
C  24.62000 51.05800 21.22700
C  24.12400 49.63600 21.66600
N  24.33300 51.68600 26.53700
C  23.52700 52.24100 25.50300
C  22.29100 52.70300 26.10300
C  22.43900 52.57000 27.46600
C  23.65900 51.95000 27.69100
C  21.09000 53.21200 25.37100
C  21.79000 52.82900 28.77400
O  20.77800 53.43200 29.06700
C  22.82400 52.38500 29.83400
C  23.15000 53.58000 30.64900
O  23.98100 54.46700 30.46400
O  22.43600 53.56900 31.78400
C  22.59900 54.71600 32.78600
H  28.94500 49.21100 29.57300
H  29.12000 50.13200 23.22400
H  23.24800 52.60400 23.34000
H  25.77800 52.02600 31.67700
H  26.95300 49.35200 31.29600
H  29.13200 51.19600 31.19000
H  28.54200 50.25900 32.50700
H  28.00700 51.96900 32.35000
H  24.36900 49.37300 31.32700
H  23.60400 50.81400 31.97200
H  25.90500 49.99200 33.59600
H  24.61700 48.79900 33.36300
H  31.37900 47.33400 27.67400
H  30.63900 48.28400 29.00200
H  32.03300 48.85600 28.10900
H  32.65000 47.78300 25.96600
H  32.93900 49.52600 26.15900
H  33.44400 48.79700 24.65400
H  27.40200 50.52000 21.60600
H  25.56600 52.86600 21.74000
H  27.78200 53.28500 21.31400
H  28.95400 52.05600 21.20500
H  28.65100 52.96000 22.76300
H  25.07100 50.85400 20.25600
H  23.71700 51.64500 21.05800
H  24.24400 48.96600 20.81500
H  23.09900 49.53400 22.02400
H  24.69900 49.25500 22.51000
H  21.13100 53.16100 24.28300
H  20.91800 54.21300 25.76700
H  20.27200 52.54900 25.65400
H  22.39400 51.65300 30.51800
H  22.48900 55.65300 32.24000
H  23.53000 54.67500 33.35200
H  21.84100 54.83300 33.56100

