158

Mg 1.54700 42.95700 26.02100
C  3.63300 43.16100 28.72500
C  -1.05000 42.03700 28.04200
C  -0.43900 42.31100 23.20300
C  4.20900 43.62000 23.83500
N  1.36900 42.61700 28.07900
C  2.30700 42.90400 29.05700
C  1.74800 42.84200 30.48100
C  0.27700 42.38700 30.18700
C  0.19900 42.30600 28.68100
C  -0.18100 41.15600 30.96800
C  1.83100 44.25300 31.16300
C  2.12100 44.22100 32.65400
H  1.84400 42.90200 33.45300
N  -0.42200 42.15800 25.61500
C  -1.28200 41.92000 26.64100
C  -2.59300 41.57500 26.04600
C  -2.49400 41.65600 24.63600
C  -1.04500 42.02200 24.41700
C  -3.75900 41.24200 26.91400
C  -3.52200 41.45500 23.52300
O  -3.21800 41.55300 22.32600
C  -4.88600 41.27200 23.89600
N  1.80300 42.97200 23.79100
C  0.84800 42.70400 22.84700
C  1.40600 42.78500 21.43700
C  2.86000 43.35200 21.68700
C  3.01100 43.26800 23.19500
C  1.40900 41.47100 20.68500
C  3.09300 44.80500 21.14700
C  4.33800 44.99200 20.29500
N  3.53700 43.37300 26.21400
C  4.50400 43.60000 25.26400
C  5.75400 43.71600 25.96500
C  5.49300 43.60500 27.34400
C  4.16400 43.31300 27.41100
C  7.07900 43.83000 25.24100
C  6.05100 43.57800 28.63900
O  7.18100 43.74000 28.98800
C  4.86700 43.38000 29.75300
C  5.15100 42.15600 30.53700
O  4.92800 40.99500 30.31000
O  5.63900 42.51300 31.73800
C  5.88200 41.47500 32.78900
H  -1.90400 41.82500 28.68900
H  -1.03700 42.11300 22.31100
H  5.05200 43.96000 23.22900
H  2.35600 42.11400 31.01700
H  -0.41800 43.19800 30.40400
H  -1.11300 41.42100 31.46700
H  0.68900 40.87400 31.56100
H  -0.52400 40.32400 30.35400
H  0.99100 44.88300 30.86900
H  2.65700 44.84600 30.77100
H  1.42900 44.92700 33.11400
H  3.13700 44.57700 32.82500
H  -3.41000 40.62500 27.74200
H  -4.65900 40.73700 26.56400
H  -4.17700 42.18700 27.26200
H  -5.51700 41.40800 23.01800
H  -5.04200 42.13100 24.54800
H  -5.13000 40.34100 24.40800
H  0.84100 43.59300 20.97100
H  3.69900 42.75400 21.33100
H  0.60200 41.58400 19.96200
H  1.15200 40.64500 21.34800
H  2.37500 41.18400 20.27000
H  3.27800 45.41900 22.02900
H  2.30300 45.30800 20.58900
H  4.81500 44.04300 20.04800
H  5.11200 45.48200 20.88600
H  4.24100 45.48600 19.32900
H  7.78800 44.23500 25.96300
H  6.97800 44.61300 24.49000
H  7.51100 42.89100 24.89300
H  4.66200 44.19200 30.45000
H  6.80900 40.96300 32.53100
H  5.12500 40.69200 32.83400
H  6.06900 41.84900 33.79600
Mg -4.58300 25.51300 25.77300
C  -3.67000 27.05500 28.80700
C  -6.65200 23.51800 27.57500
C  -5.06500 23.63200 23.06500
C  -2.36600 27.52500 24.21000
N  -5.07100 25.37200 28.00600
C  -4.60000 26.03600 29.03600
C  -5.17200 25.53200 30.35200
C  -6.10400 24.29100 29.97700
C  -5.94300 24.37200 28.43900
C  -5.49800 22.92700 30.36400
C  -5.84800 26.73200 31.16700
C  -5.46800 26.94000 32.57400
H  -5.25000 25.74400 33.42500
N  -5.80700 23.82700 25.37600
C  -6.60800 23.23700 26.18800
C  -7.40600 22.26900 25.44500
C  -6.96000 22.22100 24.08600
C  -5.92700 23.29200 24.11400
C  -8.45600 21.42400 26.09000
C  -7.31400 21.31300 22.89300
O  -6.84600 21.40900 21.71600
C  -8.10500 20.13100 23.16900
N  -3.89000 25.64200 23.85300
C  -4.21200 24.77000 22.83900
C  -3.43400 25.18000 21.55600
C  -2.86300 26.56500 21.92100
C  -3.08100 26.64200 23.39900
C  -2.45500 24.09100 21.03200
C  -3.65300 27.73900 21.22100
C  -3.03700 28.49800 20.01200
N  -3.35200 27.04400 26.26400
C  -2.43100 27.77200 25.54100
C  -1.73000 28.77500 26.37800
C  -2.26600 28.55100 27.63300
C  -3.18100 27.47900 27.55500
C  -0.56100 29.61800 26.02700
C  -2.00800 28.86000 29.03400
O  -1.21600 29.59400 29.59900
C  -2.96100 27.92400 29.80000
C  -2.19300 27.18700 30.83200
O  -1.63700 26.10200 30.61700
O  -2.18100 27.89500 32.00700
C  -1.26400 27.42400 33.04000
H  -7.30500 22.90700 28.20200
H  -5.21300 23.04500 22.15600
H  -1.78900 28.20100 23.57500
H  -4.39000 25.16500 31.01700
H  -7.18300 24.38700 30.10200
H  -4.49200 23.02800 30.77000
H  -5.48000 22.32100 29.45900
H  -6.27900 22.57600 31.03900
H  -6.88200 26.39000 31.12600
H  -5.77600 27.69300 30.65800
H  -6.33100 27.41800 33.03700
H  -4.59300 27.57700 32.70100
H  -7.99600 20.54800 26.54800
H  -9.29100 21.12700 25.45600
H  -9.00100 21.98600 26.84900
H  -8.19300 19.55500 22.24700
H  -9.07600 20.58400 23.37300
H  -7.66900 19.50100 23.94300
H  -4.22400 25.16400 20.80400
H  -1.78500 26.49100 21.77900
H  -2.32800 23.29900 21.76900
H  -1.41800 24.42400 20.98400
H  -2.86600 23.72900 20.08900
H  -3.80900 28.53700 21.94700
H  -4.64500 27.34600 20.99900
H  -2.92100 29.57300 20.14900
H  -3.61600 28.20200 19.13700
H  -1.99600 28.18400 19.93300
H  -0.21600 30.25300 26.84300
H  -0.87700 30.18000 25.14800
H  0.18900 28.88000 25.74400
H  -3.62000 28.51200 30.43900
H  -0.36300 28.01700 32.88300
H  -1.00300 26.36800 32.95800
H  -1.55700 27.68200 34.05700

