158

Mg 16.60400 -0.73300 27.85800
C  15.55400 1.16100 30.52500
C  18.42100 -2.69500 29.91600
C  18.17600 -2.02900 25.17600
C  14.99100 1.48900 25.68400
N  17.07000 -0.64100 30.02900
C  16.45100 0.16400 30.93100
C  16.88000 -0.22600 32.38500
C  17.68800 -1.57200 32.12100
C  17.80100 -1.60800 30.60900
C  19.07400 -1.63700 32.79900
C  15.80200 -0.26000 33.52500
C  16.19000 -0.95000 34.80600
H  17.36500 -0.40500 35.52600
N  17.92400 -2.19200 27.57300
C  18.42000 -2.98200 28.59900
C  19.10300 -4.14600 28.03500
C  19.13200 -3.93800 26.60800
C  18.37800 -2.74500 26.40900
C  19.73900 -5.15500 28.90000
C  19.87400 -4.67700 25.49700
O  19.78400 -4.47300 24.28500
C  20.95700 -5.73900 25.83700
N  16.71800 -0.23100 25.79800
C  17.40700 -0.95600 24.93300
C  17.31700 -0.43600 23.45400
C  16.00100 0.49400 23.59900
C  15.94400 0.63200 25.11400
C  18.66300 0.21000 23.03300
C  14.76300 -0.14800 23.01300
C  13.97700 -1.13300 23.86900
N  15.30300 0.82700 28.00400
C  14.72100 1.65700 27.03400
C  13.81500 2.63300 27.67100
C  14.13100 2.41000 29.05000
C  15.04500 1.39900 29.16800
C  13.03900 3.61000 26.98300
C  13.91000 2.91500 30.43600
O  13.12600 3.75700 30.79600
C  14.83800 2.15600 31.44000
C  15.71800 3.13200 32.14200
O  16.68500 3.69800 31.75400
O  15.15200 3.37700 33.39600
C  15.64200 4.54700 34.16200
H  19.08200 -3.27500 30.56400
H  18.67100 -2.50600 24.32700
H  14.36200 2.09500 25.02800
H  17.57100 0.59200 32.58400
H  17.13100 -2.43000 32.49600
H  19.27700 -0.77000 33.42800
H  19.83900 -1.57400 32.02400
H  19.10800 -2.56900 33.36400
H  14.84400 -0.63800 33.16800
H  15.69000 0.81300 33.68500
H  16.42500 -2.00700 34.68500
H  15.36400 -0.90600 35.51500
H  19.09300 -5.36900 29.75200
H  20.67200 -4.77800 29.31800
H  19.95400 -6.06800 28.34600
H  21.69700 -5.74000 25.03700
H  20.71900 -6.79800 25.93300
H  21.52800 -5.37100 26.69000
H  17.23400 -1.41400 22.97800
H  16.42700 1.42000 23.21100
H  18.55400 1.29000 23.12500
H  18.96100 0.06400 21.99400
H  19.42400 -0.15600 23.72200
H  15.11600 -0.76300 22.18600
H  14.05900 0.57000 22.59400
H  13.06200 -0.74400 24.31800
H  14.56300 -1.46300 24.72700
H  13.81100 -2.06200 23.32300
H  12.89700 3.36900 25.93000
H  13.49200 4.59000 27.13700
H  12.07300 3.59500 27.48800
H  14.25300 1.51900 32.10300
H  15.87700 5.42200 33.55700
H  16.45500 4.40900 34.87500
H  14.82700 4.75300 34.85600
Mg 16.92400 52.70500 26.80900
C  18.84600 51.09300 29.09000
C  14.47400 53.16800 29.11500
C  14.60300 53.49000 24.30500
C  19.12700 51.56600 24.26400
N  16.70100 52.25900 28.86100
C  17.73100 51.66700 29.61800
C  17.46000 51.86700 31.11400
C  15.90200 52.26900 31.03000
C  15.63700 52.59100 29.58100
C  15.01000 51.04300 31.44600
C  18.27100 52.91200 31.93800
C  18.44800 52.68500 33.42100
H  17.39700 51.86800 34.08800
N  14.92100 53.40300 26.74500
C  14.06000 53.53000 27.82800
C  12.87500 54.24900 27.44800
C  12.93900 54.40500 26.08100
C  14.19800 53.73600 25.66300
C  11.96700 54.78800 28.51800
C  11.99000 55.13500 25.12900
O  12.41500 55.36400 24.03600
C  10.74500 55.71400 25.58300
N  16.88200 52.53800 24.61200
C  15.86400 52.99100 23.84400
C  16.20700 52.80500 22.32600
C  17.76000 52.62400 22.36400
C  17.97400 52.21500 23.84600
C  15.34800 51.69300 21.56400
C  18.61000 53.92000 21.95600
C  19.28900 53.95200 20.51600
N  18.60000 51.59000 26.67000
C  19.38800 51.21500 25.61900
C  20.51200 50.51000 26.12100
C  20.28200 50.35800 27.49400
C  19.09800 51.06900 27.75800
C  21.75400 50.11700 25.23100
C  20.88300 49.87200 28.77300
O  21.84300 49.09900 28.99100
C  19.86200 50.24400 29.83900
C  19.26800 49.01500 30.43300
O  18.72500 48.09500 29.82300
O  19.37400 49.04600 31.75600
C  18.74300 48.08700 32.66000
H  13.69700 53.22900 29.88000
H  13.90500 53.64500 23.47900
H  19.87000 51.17400 23.56700
H  17.63900 50.82200 31.36900
H  15.72400 53.16400 31.62700
H  15.58000 50.12100 31.33600
H  14.15900 51.05500 30.76500
H  14.64700 51.14600 32.46800
H  17.83100 53.90700 31.87600
H  19.27800 52.98700 31.52700
H  18.59000 53.65700 33.89400
H  19.33000 52.04900 33.50100
H  11.11400 54.14500 28.73900
H  11.59600 55.78500 28.28100
H  12.61100 55.00200 29.37100
H  11.03800 56.64700 26.06500
H  10.22100 55.00700 26.22600
H  10.19000 56.00600 24.69100
H  16.07000 53.73400 21.77100
H  18.05700 51.71400 21.84400
H  14.54600 51.37700 22.23000
H  15.95200 50.83500 21.26800
H  14.93700 52.19400 20.68700
H  19.47100 53.95200 22.62400
H  17.97200 54.79300 22.09700
H  18.80600 53.21100 19.87900
H  20.36200 53.76000 20.48100
H  19.09100 54.91500 20.04500
H  22.71800 50.07100 25.73700
H  21.96200 50.88000 24.48000
H  21.58700 49.12100 24.82000
H  20.45500 50.73100 30.61300
H  19.33100 47.17200 32.72700
H  17.79100 47.80700 32.20900
H  18.65400 48.58000 33.62800

