158

Mg 35.84200 1.79900 29.59500
C  33.51100 2.75500 32.09300
C  38.22300 1.63800 32.02700
C  38.11100 1.16900 27.24900
C  33.38400 2.48500 27.22900
N  35.74800 2.05300 31.82400
C  34.70500 2.42500 32.63800
C  35.13300 2.58700 34.12600
C  36.70400 2.46700 33.98600
C  36.90600 2.01200 32.56300
C  37.49500 3.73600 34.42900
C  34.53100 1.41800 34.96800
C  34.30700 1.65800 36.49200
H  35.02400 2.86500 37.17900
N  37.88800 1.38700 29.66400
C  38.69700 1.29200 30.74400
C  40.06100 0.95300 30.32200
C  40.09800 0.85200 28.90500
C  38.66500 1.10900 28.51800
C  41.14200 0.92900 31.43200
C  41.28600 0.52300 27.98700
O  41.17000 0.56000 26.77100
C  42.65500 0.20300 28.48900
N  35.78500 1.90000 27.59500
C  36.81300 1.51300 26.76100
C  36.43700 1.49000 25.27600
C  34.86100 1.57500 25.31700
C  34.62200 2.11000 26.79800
C  37.01500 2.74800 24.59100
C  34.09000 0.24200 24.89700
C  33.84100 -0.72700 26.03900
N  33.88100 2.35500 29.61800
C  33.02200 2.63200 28.59200
C  31.76900 3.05100 29.06400
C  31.89000 3.10800 30.45500
C  33.18700 2.67500 30.71600
C  30.55400 3.33500 28.23400
C  31.19800 3.34400 31.71200
O  29.96700 3.46700 31.95500
C  32.25200 3.15700 32.82700
C  32.41100 4.42700 33.65500
O  33.13000 5.36800 33.36800
O  31.58800 4.33700 34.79700
C  31.63900 5.51800 35.60000
H  38.95600 1.52300 32.82800
H  38.76500 0.94500 26.40400
H  32.54400 2.57600 26.53700
H  34.92500 3.55900 34.57400
H  37.02700 1.60700 34.57400
H  36.89400 4.40900 35.04100
H  37.96900 4.29900 33.62400
H  38.28500 3.44100 35.11900
H  35.22400 0.57900 34.90300
H  33.63700 1.12500 34.41800
H  34.70900 0.73600 36.91200
H  33.23800 1.76500 36.67600
H  42.05900 0.43900 31.10500
H  40.74000 0.50200 32.35100
H  41.31800 1.97200 31.69500
H  42.94600 1.04300 29.12000
H  43.33900 0.21900 27.64100
H  42.66200 -0.78800 28.94300
H  36.76500 0.51100 24.92600
H  34.38600 2.25900 24.61400
H  37.39700 2.42900 23.62100
H  37.76600 3.14600 25.27300
H  36.20600 3.46100 24.43300
H  34.81000 -0.15500 24.18200
H  33.15700 0.48300 24.38800
H  34.78800 -1.25700 26.14000
H  33.09800 -1.46900 25.74800
H  33.65800 -0.25800 27.00600
H  30.23100 2.44200 27.70000
H  30.75700 4.17800 27.57300
H  29.79800 3.78400 28.87900
H  31.88700 2.30800 33.40600
H  32.61300 5.74000 36.03500
H  31.02200 5.40800 36.49200
H  31.46100 6.46000 35.08100
Mg 29.31600 58.16100 40.94200
C  26.31500 56.77200 39.75000
C  31.06200 55.45100 39.58500
C  32.10600 59.93200 41.27900
C  27.42700 61.26200 41.39000
N  28.73900 56.37700 39.75700
C  27.43700 55.99100 39.36500
C  27.39100 54.65200 38.66600
C  28.92400 54.16600 38.88100
C  29.61500 55.38000 39.50700
C  29.05200 53.02100 39.93600
C  26.99700 54.79100 37.19800
C  26.03800 53.79500 36.67700
H  26.25400 53.48100 35.18800
N  31.32000 57.74100 40.48900
C  31.84100 56.53300 39.99700
C  33.33200 56.65000 40.07900
C  33.66500 57.94200 40.57900
C  32.34900 58.59300 40.87500
C  34.25700 55.45100 39.74600
C  35.08900 58.51000 40.77200
O  36.05200 57.78900 40.50300
C  35.35100 59.90900 41.32000
N  29.74000 60.31400 41.29800
C  31.02000 60.73600 41.44200
C  31.04100 62.25900 41.85200
C  29.56700 62.69600 41.76200
C  28.83800 61.35400 41.56800
C  31.70500 62.69300 43.25800
C  29.22600 63.80100 40.73400
C  28.71700 65.11400 41.37100
N  27.33100 58.84200 40.87900
C  26.71800 60.08500 41.02200
C  25.32200 60.00300 40.83500
C  25.08500 58.66500 40.43700
C  26.39700 58.04700 40.37800
C  24.34200 61.14300 41.04900
C  24.08900 57.68400 40.09600
O  22.87400 57.70400 40.09700
C  24.86600 56.44200 39.57100
C  24.56100 55.24800 40.39700
O  24.78300 55.19100 41.61100
O  24.01200 54.25200 39.63800
C  23.52100 52.99600 40.32000
H  31.64600 54.56400 39.33200
H  32.95100 60.60400 41.44600
H  26.87600 62.20500 41.35200
H  26.61200 54.02200 39.09500
H  29.51600 53.95600 37.99000
H  28.26900 52.28300 39.76100
H  28.99100 53.49600 40.91500
H  29.95100 52.44200 39.72500
H  27.94400 54.83200 36.66000
H  26.55200 55.74800 36.92500
H  24.99200 54.07700 36.79700
H  26.22700 52.81200 37.10800
H  34.86800 55.64100 38.86400
H  33.69900 54.51800 39.66500
H  34.90200 55.29900 40.61100
H  35.09800 60.74500 40.66700
H  36.42600 59.98600 41.48000
H  34.92100 59.98400 42.31900
H  31.59400 62.80900 41.09100
H  29.22000 63.07700 42.72300
H  32.72200 62.31400 43.35900
H  31.15100 62.35000 44.13200
H  31.79400 63.77800 43.30600
H  28.64200 63.42100 39.89600
H  30.11400 64.16900 40.22000
H  29.42500 65.27400 42.18500
H  27.70300 64.99800 41.75400
H  28.71700 65.97900 40.70800
H  23.31200 60.79000 40.99300
H  24.48200 61.88600 40.26300
H  24.44400 61.48500 42.07900
H  24.54600 56.19900 38.55800
H  22.54200 53.23800 40.73300
H  24.12900 52.82600 41.20900
H  23.44400 52.14500 39.64300

