158

Mg 8.68400 3.39100 27.33100
C  10.24100 1.96200 30.11100
C  7.14200 5.65100 29.52700
C  6.67700 4.58400 24.74400
C  9.86900 0.88900 25.31900
N  8.54500 3.60700 29.61600
C  9.42400 3.02100 30.53400
C  9.17800 3.57200 31.92600
C  8.13500 4.78700 31.73400
C  7.92000 4.68700 30.15600
C  6.84500 4.70400 32.67300
C  10.53200 4.08100 32.56800
C  10.36000 4.98100 33.80200
H  11.19700 4.54700 34.99900
N  7.22000 4.97100 27.13400
C  6.80900 5.85600 28.16100
C  5.90400 6.83300 27.58800
C  5.78200 6.54400 26.18400
C  6.60500 5.35100 25.92600
C  5.24800 7.95600 28.39000
C  4.86000 7.21100 25.18200
O  4.47200 6.62200 24.17400
C  4.16200 8.47900 25.42600
N  8.30600 2.87100 25.32000
C  7.46400 3.49600 24.42000
C  7.61200 2.94700 22.97500
C  8.69700 1.81400 23.21800
C  8.94000 1.76900 24.74500
C  6.20000 2.49900 22.39300
C  10.06100 2.03600 22.43100
C  10.24000 1.18400 21.23200
N  9.78300 1.76200 27.51600
C  10.31400 0.88800 26.61500
C  11.37700 0.10000 27.16400
C  11.31000 0.45400 28.54000
C  10.31800 1.44800 28.72100
C  12.21000 -0.93200 26.55200
C  11.93200 0.13900 29.80500
O  12.77700 -0.75000 30.11800
C  11.29600 1.14600 30.85500
C  10.66900 0.55300 32.05000
O  9.57300 -0.01600 32.00500
O  11.38900 0.86600 33.16900
C  10.76000 0.60500 34.48200
H  6.80400 6.35200 30.29400
H  6.15000 4.88500 23.83600
H  10.39200 0.25900 24.59700
H  8.69500 2.71500 32.39500
H  8.60700 5.74700 31.94100
H  7.22300 4.18200 33.55300
H  6.13900 4.03400 32.18200
H  6.48300 5.68400 32.98200
H  11.10400 4.57100 31.78000
H  10.98000 3.12900 32.85200
H  9.36500 5.07000 34.23800
H  10.66800 5.99200 33.53700
H  4.17300 7.78600 28.34000
H  5.48800 8.95700 28.03100
H  5.64500 7.73200 29.38000
H  4.74100 9.26000 25.91900
H  3.39900 8.09100 26.10100
H  3.69300 8.98900 24.58500
H  8.05400 3.73800 22.36900
H  8.31100 0.81200 23.02900
H  6.21500 1.70200 21.65000
H  5.78400 3.40400 21.95300
H  5.61200 2.10700 23.22300
H  10.94500 1.86600 23.04600
H  10.17400 3.08800 22.16700
H  11.19300 0.67400 21.37600
H  10.42900 1.83100 20.37500
H  9.44700 0.44800 21.10000
H  13.14400 -1.20800 27.04100
H  12.51400 -0.62700 25.55000
H  11.47300 -1.73500 26.59100
H  12.11000 1.82900 31.09700
H  9.72600 0.29800 34.32600
H  10.80600 1.52500 35.06500
H  11.35700 -0.13600 35.01300
Mg 47.50100 14.76600 27.52200
C  45.53400 14.86600 30.49500
C  49.48600 17.28000 28.81100
C  49.10700 14.84300 24.61000
C  45.06000 12.64700 26.22800
N  47.48400 15.87600 29.42300
C  46.71800 15.68000 30.58600
C  47.23100 16.40700 31.77900
C  48.44800 17.28300 31.23200
C  48.48000 16.85700 29.71800
C  48.39200 18.83000 31.49500
C  47.57700 15.44700 32.86400
C  47.31400 15.94000 34.26700
H  48.38400 15.71100 35.36000
N  49.16300 15.90500 26.79000
C  49.79000 16.93300 27.44400
C  50.75400 17.57400 26.53200
C  50.81100 16.65700 25.34900
C  49.66600 15.75700 25.52100
C  51.61800 18.82200 26.83100
C  51.76200 16.76700 24.15200
O  51.67000 16.01700 23.14900
C  52.92700 17.79400 24.15700
N  47.11400 13.85800 25.69700
C  47.92600 14.02200 24.65700
C  47.57100 13.06000 23.51100
C  46.36000 12.25900 24.09000
C  46.17700 12.89400 25.44800
C  47.21600 13.84200 22.16400
C  46.71700 10.66600 24.24400
C  47.28900 9.95300 22.99000
N  45.55600 13.99700 28.14800
C  44.74400 13.14800 27.47100
C  43.54500 12.97200 28.33100
C  43.89300 13.56600 29.54000
C  45.12100 14.18900 29.35700
C  42.28800 12.15400 27.99200
C  43.36700 13.84300 30.85700
O  42.31200 13.53400 31.37000
C  44.38300 14.68000 31.55400
C  43.77100 15.96000 31.94900
O  43.48100 16.87100 31.23500
O  43.56000 15.91900 33.27700
C  42.81700 16.99300 33.90400
H  50.15000 18.04100 29.22600
H  49.71900 14.65000 23.72600
H  44.39500 11.95000 25.71300
H  46.45200 17.06100 32.17100
H  49.34800 16.79800 31.61000
H  48.49900 19.37900 30.56000
H  49.20800 19.03500 32.18800
H  47.48000 19.22300 31.94500
H  48.61400 15.13500 32.74400
H  47.12600 14.45600 32.80700
H  46.37700 15.53400 34.64900
H  47.18800 17.02200 34.29500
H  51.26500 19.59300 26.14500
H  52.70500 18.78200 26.76200
H  51.50900 19.22200 27.83900
H  53.26200 17.76500 23.12000
H  53.72100 17.37300 24.77300
H  52.48100 18.76000 24.39400
H  48.46400 12.50000 23.23400
H  45.47800 12.53100 23.51100
H  47.92300 14.55600 21.74200
H  46.21900 14.27300 22.25100
H  47.01100 13.13100 21.36400
H  45.81100 10.21600 24.64900
H  47.40100 10.33900 25.02700
H  46.75000 9.06700 22.65500
H  48.26800 9.51300 23.17600
H  47.23500 10.61800 22.12800
H  42.56200 11.19000 27.56300
H  41.84600 12.70100 27.16000
H  41.65800 12.15400 28.88100
H  44.85500 14.18900 32.40500
H  43.46100 17.42300 34.67200
H  41.87700 16.68400 34.36000
H  42.66000 17.84500 33.24300

