158

Mg 40.82900 9.76800 29.02000
C  42.60500 10.72800 31.79700
C  38.43500 8.15800 31.19900
C  39.26100 8.33100 26.38400
C  43.36900 10.95300 27.00900
N  40.68000 9.31500 31.20800
C  41.43700 10.02100 32.10100
C  40.88500 9.95400 33.51300
C  39.60100 8.96100 33.36200
C  39.54100 8.74100 31.84000
C  39.69800 7.68300 34.15500
C  40.37700 11.34700 34.12100
C  40.03900 11.41500 35.67500
H  41.03600 12.06000 36.63200
N  39.15200 8.50200 28.83400
C  38.21500 8.09200 29.80100
C  37.08100 7.43100 29.20400
C  37.37400 7.31700 27.84000
C  38.63700 8.05900 27.61900
C  35.91900 6.95500 30.07100
C  36.63100 6.63800 26.75100
O  37.05800 6.49800 25.64000
C  35.22700 6.17800 27.05900
N  41.27900 9.57100 27.01900
C  40.42200 9.03500 26.06100
C  40.91600 9.37400 24.61900
C  42.36200 10.01500 24.90800
C  42.34100 10.23200 26.40700
C  40.98600 8.20900 23.59700
C  42.57100 11.28100 24.01700
C  41.78600 12.58900 24.39000
N  42.61400 10.82600 29.25200
C  43.58700 11.15200 28.35800
C  44.68500 11.80700 29.05100
C  44.27200 11.80500 30.41900
C  43.08400 11.09200 30.44000
C  45.79200 12.60500 28.43100
C  44.66100 12.05200 31.79500
O  45.68500 12.59400 32.17700
C  43.56300 11.45200 32.77100
C  44.28900 10.46400 33.56400
O  45.20500 9.78800 33.20400
O  43.77100 10.50100 34.87300
C  44.23000 9.42200 35.70300
H  37.67200 7.81200 31.90000
H  38.83700 7.96500 25.44600
H  44.12500 11.33700 26.32100
H  41.65300 9.57900 34.18800
H  38.76800 9.54400 33.75400
H  39.43800 6.82000 33.54300
H  39.12400 7.59500 35.07700
H  40.74100 7.48700 34.40400
H  39.52900 11.64000 33.50100
H  41.09600 12.10700 33.81600
H  39.98400 10.37400 35.99300
H  38.99800 11.73300 35.73900
H  34.95200 7.06300 29.57900
H  35.82900 7.51700 31.00000
H  36.02400 5.93000 30.42600
H  34.81900 5.55600 26.26200
H  34.47200 6.90900 27.35100
H  35.46000 5.44600 27.83200
H  40.12000 10.06700 24.34400
H  43.08900 9.26800 24.58800
H  41.05200 7.28100 24.16600
H  41.85200 8.38400 22.96000
H  40.07500 8.28600 23.00300
H  42.17400 11.11400 23.01600
H  43.63000 11.52000 23.91000
H  41.12900 12.86500 23.56500
H  42.57200 13.28400 24.68700
H  41.17900 12.48200 25.28900
H  46.31500 13.13000 29.23100
H  45.34000 13.39700 27.83400
H  46.47100 12.01000 27.82200
H  43.28100 12.27900 33.42200
H  44.03300 9.76200 36.72000
H  45.26800 9.20300 35.45100
H  43.54500 8.60100 35.49300
Mg 42.04100 41.97800 27.42100
C  40.80600 44.04600 30.09300
C  43.00800 39.76200 29.90400
C  43.39000 40.14500 25.01100
C  41.24100 44.49700 25.18500
N  41.95600 41.96100 29.76900
C  41.36700 42.89700 30.59100
C  41.57000 42.55000 32.06100
C  42.40100 41.22900 31.97000
C  42.45100 40.90100 30.46600
C  43.77700 41.32200 32.69200
C  40.24800 42.41000 32.90300
C  40.16700 43.15000 34.24700
H  39.65800 42.24100 35.36200
N  42.97400 40.14800 27.45700
C  43.28300 39.41600 28.58100
C  43.97700 38.24800 28.12500
C  43.86200 38.18900 26.72800
C  43.44500 39.58400 26.34600
C  44.54300 37.25900 29.13200
C  44.07100 37.01600 25.85600
O  43.97000 37.08400 24.63600
C  44.49200 35.57700 26.28600
N  42.29200 42.29500 25.38900
C  42.86900 41.31800 24.60300
C  42.80500 41.75300 23.16200
C  41.87600 42.97800 23.12500
C  41.76300 43.30900 24.64600
C  44.18100 41.97200 22.47600
C  40.47100 42.76400 22.46400
C  39.43400 41.83000 23.05300
N  41.28900 43.94200 27.57700
C  41.01100 44.82700 26.55200
C  40.48800 46.04000 27.11700
C  40.33900 45.74000 28.48800
C  40.85600 44.45900 28.73300
C  39.98200 47.21300 26.45600
C  39.93400 46.32400 29.72400
O  39.49300 47.47000 29.99300
C  40.34300 45.27300 30.83100
C  41.39100 45.91100 31.60900
O  42.54200 46.03400 31.31000
O  40.88700 46.18300 32.88800
C  41.86100 46.90600 33.83600
H  43.46000 39.20100 30.72400
H  43.65500 39.46000 24.20300
H  41.04800 45.26400 24.43300
H  42.18900 43.37300 32.41900
H  41.87300 40.45700 32.52900
H  44.61100 41.18100 32.00500
H  43.79800 40.58500 33.49500
H  43.77100 42.32700 33.11400
H  39.98700 41.35600 32.99000
H  39.41700 42.82000 32.32800
H  39.71800 44.14200 34.20800
H  41.25300 43.22400 34.31600
H  45.08200 37.82400 29.89200
H  45.22500 36.51300 28.72500
H  43.68300 36.73300 29.54700
H  43.80500 35.36800 27.10600
H  45.54300 35.59800 26.57500
H  44.44200 34.93600 25.40500
H  42.37300 40.93700 22.58200
H  42.32800 43.90700 22.78000
H  44.93400 41.77500 23.23900
H  44.42700 42.95700 22.08000
H  44.31000 41.16700 21.75300
H  40.72500 42.32400 21.49900
H  39.87400 43.67300 22.38700
H  38.98100 41.16200 22.32000
H  38.60900 42.42400 23.44700
H  39.86600 41.25500 23.87200
H  38.92100 47.18900 26.20800
H  40.58900 47.56600 25.62300
H  40.22300 48.09400 27.05000
H  39.51000 45.03100 31.49200
H  41.31200 47.77600 34.19800
H  42.79100 47.18800 33.34100
H  42.09100 46.23500 34.66300

