158

Mg 34.51000 2.91900 28.94000
C  32.60600 3.95800 31.83300
C  37.28500 2.75100 30.95700
C  36.40600 2.71700 26.28600
C  31.62700 3.88900 27.00500
N  34.82700 3.38900 31.14300
C  33.95200 3.72500 32.12300
C  34.62800 3.74200 33.53700
C  36.12700 3.66500 33.12000
C  36.07000 3.15800 31.63700
C  36.99100 4.94100 33.33900
C  34.06400 2.56200 34.38900
C  33.93400 2.85900 35.91000
H  34.55800 4.14000 36.44100
N  36.58600 2.52900 28.63400
C  37.54200 2.44900 29.60800
C  38.81900 2.19700 28.95400
C  38.54200 2.10500 27.57200
C  37.12400 2.40300 27.39000
C  40.06400 2.00300 29.74000
C  39.54700 1.69800 26.44200
O  39.17600 1.51400 25.30200
C  40.92100 1.63900 26.77400
N  34.10600 3.34200 26.97200
C  35.10400 3.14900 26.05700
C  34.61800 3.42000 24.67600
C  33.07100 3.42600 24.79800
C  32.87200 3.53300 26.34300
C  35.09800 4.84700 24.22800
C  32.46300 2.17400 24.15800
C  30.87200 2.13300 23.96200
N  32.45100 3.68500 29.33800
C  31.43000 3.90700 28.40000
C  30.21900 4.26000 29.14700
C  30.64100 4.27400 30.50200
C  32.01000 3.99700 30.54900
C  28.86600 4.52000 28.71400
C  30.18100 4.51600 31.81600
O  29.09800 4.81300 32.23000
C  31.50200 4.21100 32.72400
C  31.73900 5.44400 33.47400
O  32.15800 6.49900 33.06300
O  31.25500 5.20900 34.79600
C  31.38700 6.31500 35.80800
H  38.23400 2.79300 31.49500
H  36.96600 2.60000 25.35500
H  30.88800 4.12300 26.23600
H  34.52200 4.72900 33.98700
H  36.38800 2.85700 33.80300
H  37.56100 5.20100 32.44700
H  37.64500 4.73800 34.18700
H  36.46400 5.81600 33.71900
H  34.63900 1.65300 34.21400
H  33.06200 2.22100 34.13100
H  34.31400 2.05000 36.53500
H  32.86800 2.89200 36.13600
H  40.57100 1.14000 29.30700
H  39.86600 1.59900 30.73300
H  40.64000 2.92800 29.74000
H  41.30200 2.53000 27.27200
H  41.35600 1.58100 25.77600
H  41.08400 0.68300 27.27100
H  34.95400 2.56300 24.09100
H  32.68200 4.33100 24.33100
H  35.22400 4.89100 23.14600
H  36.04400 5.08000 24.71500
H  34.45100 5.68900 24.47200
H  32.65800 1.37900 24.87800
H  32.95000 1.95600 23.20700
H  30.48500 2.24700 22.94900
H  30.38100 2.95200 24.48600
H  30.56400 1.17100 24.37300
H  28.17300 3.96000 29.34100
H  28.70600 4.25500 27.66800
H  28.79800 5.59700 28.86600
H  31.24000 3.33500 33.31700
H  32.10800 7.06400 35.47900
H  31.73600 5.96200 36.77800
H  30.43800 6.85100 35.80000
Mg 36.60100 49.90800 25.48000
C  36.91900 48.16100 28.53700
C  35.16500 52.49400 27.14900
C  35.85200 51.27100 22.45400
C  38.09600 47.11400 23.87500
N  35.97700 50.20500 27.60600
C  36.29700 49.45200 28.60500
C  36.06400 50.25600 29.93800
C  35.40400 51.61100 29.48900
C  35.50800 51.43000 27.95400
C  33.96300 51.94000 30.13500
C  37.40300 50.45500 30.75200
C  37.49300 50.01700 32.22300
H  36.21800 50.13300 33.09200
N  35.65400 51.64300 24.88200
C  35.12900 52.56400 25.71000
C  34.42200 53.64000 24.91800
C  34.63800 53.34900 23.56700
C  35.43600 52.03900 23.56900
C  33.77100 54.82300 25.65600
C  34.34800 54.14200 22.29900
O  34.65500 53.74800 21.18300
C  33.72000 55.47200 22.40900
N  36.90600 49.23500 23.43900
C  36.52900 50.03600 22.35800
C  37.02700 49.50100 21.03700
C  37.91100 48.21000 21.55100
C  37.60500 48.17300 23.06300
C  35.79700 49.13100 20.16200
C  39.48600 48.35900 21.13300
C  40.19400 47.11300 20.53300
N  37.24400 47.91200 25.98000
C  37.89200 46.89300 25.24200
C  38.21000 45.76300 26.17700
C  37.84800 46.20500 27.46800
C  37.30400 47.52300 27.29000
C  38.98000 44.55800 25.78300
C  37.78200 45.84300 28.85400
O  38.25400 44.88000 29.54000
C  37.16000 47.13700 29.60800
C  35.98800 46.66100 30.41100
O  34.95100 46.29200 29.87400
O  36.39100 46.49600 31.71000
C  35.43800 45.73200 32.60800
H  34.70500 53.28200 27.75000
H  35.78800 51.76100 21.48000
H  38.71800 46.39400 23.33900
H  35.34400 49.75900 30.58700
H  36.07600 52.40700 29.80800
H  34.01800 52.89600 30.65500
H  33.67300 51.13000 30.80500
H  33.17300 52.19100 29.42800
H  37.60300 51.52000 30.87700
H  38.18000 49.96200 30.16700
H  38.32200 50.60900 32.61100
H  37.78000 48.96600 32.24900
H  33.33800 54.59300 26.63000
H  32.97400 55.18800 25.00900
H  34.42500 55.68800 25.76600
H  32.78800 55.39900 22.96900
H  33.46900 55.80100 21.40100
H  34.45500 56.15900 22.82900
H  37.71400 50.21000 20.57500
H  37.45200 47.31500 21.13200
H  35.96200 48.14400 19.73100
H  35.59600 49.89500 19.41200
H  34.95500 48.92100 20.82100
H  40.04600 48.63900 22.02600
H  39.49600 49.21600 20.46100
H  40.47200 47.41700 19.52300
H  39.43900 46.32800 20.50200
H  41.00700 46.80800 21.19200
H  39.95600 44.83000 25.38000
H  38.30200 44.07800 25.07700
H  39.02300 44.02200 26.73000
H  37.87600 47.60800 30.28000
H  35.00300 46.36000 33.38600
H  36.02400 44.95600 33.10000
H  34.64200 45.16800 32.12200

