158

Mg -2.05100 17.58600 27.23100
C  -2.62700 15.33200 29.78300
C  -2.45400 20.21100 29.54900
C  -2.01800 19.72900 24.70200
C  -2.28100 14.86300 24.98500
N  -2.53700 17.65200 29.40300
C  -2.68000 16.66500 30.30500
C  -2.80800 17.13900 31.76700
C  -2.85700 18.71200 31.58100
C  -2.52400 18.90400 30.08600
C  -4.09500 19.53000 32.10600
C  -1.72900 16.64600 32.77200
C  -1.27500 17.54000 33.92900
H  -0.85000 16.69100 35.16200
N  -2.15200 19.67600 27.13100
C  -2.33200 20.53800 28.18100
C  -2.22900 21.91400 27.64300
C  -2.02800 21.76000 26.19700
C  -2.03500 20.38900 25.99200
C  -2.22800 23.15300 28.45400
C  -1.85100 22.87700 25.19100
O  -1.56300 22.65100 24.00200
C  -2.06700 24.30700 25.52300
N  -2.11300 17.37500 25.14800
C  -2.10500 18.42400 24.35700
C  -2.12900 18.01900 22.83300
C  -1.94800 16.43000 22.92900
C  -2.10100 16.16200 24.47300
C  -3.41500 18.38700 22.00100
C  -0.60100 15.95500 22.38300
C  0.61300 16.27300 23.29700
N  -2.37000 15.57800 27.32300
C  -2.36000 14.59400 26.34600
C  -2.53800 13.31700 26.88300
C  -2.66900 13.53600 28.21000
C  -2.54800 14.91000 28.47600
C  -2.86200 11.97900 26.25000
C  -2.88000 12.90600 29.50200
O  -3.14800 11.74600 29.78400
C  -2.79000 13.98700 30.58600
C  -1.53200 13.66600 31.33400
O  -0.34100 13.88900 31.03800
O  -1.90000 13.08200 32.48700
C  -0.86600 12.66400 33.43000
H  -2.41500 21.03000 30.27000
H  -2.00100 20.39000 23.83300
H  -2.36900 13.99900 24.32200
H  -3.67300 16.65400 32.21900
H  -1.95400 19.03500 32.10000
H  -4.87300 18.98800 32.64300
H  -4.49100 20.02500 31.21900
H  -3.81100 20.24800 32.87500
H  -0.84700 16.35400 32.20200
H  -2.08700 15.70600 33.19300
H  -1.98500 18.23600 34.37400
H  -0.47700 18.20600 33.60100
H  -1.28700 23.70400 28.44300
H  -2.29200 22.95300 29.52400
H  -2.95500 23.89500 28.12400
H  -2.08800 25.05300 24.72800
H  -1.39300 24.66500 26.30200
H  -3.07900 24.47800 25.88900
H  -1.22300 18.40900 22.36900
H  -2.81400 15.91400 22.51400
H  -4.18800 18.81600 22.63900
H  -3.92700 17.57700 21.48100
H  -3.19600 19.21500 21.32700
H  -0.53300 16.45800 21.41800
H  -0.64000 14.87000 22.28300
H  0.98300 15.29400 23.60100
H  0.51500 16.76600 24.26400
H  1.30400 16.88900 22.72100
H  -1.98600 11.33300 26.30100
H  -3.10700 12.12900 25.19800
H  -3.67100 11.48700 26.78900
H  -3.55900 13.88600 31.35100
H  -1.42800 12.52300 34.35300
H  -0.11500 13.43000 33.62400
H  -0.39800 11.71000 33.19200
Mg 29.88600 57.95300 38.81400
C  27.31800 55.65000 37.85400
C  32.11000 55.57800 38.30900
C  32.30800 60.34200 38.93300
C  27.41500 60.57700 38.29900
N  29.67700 55.87500 38.20200
C  28.59100 55.08000 37.95800
C  28.97500 53.62100 37.85500
C  30.45700 53.58100 38.27100
C  30.79900 55.12700 38.22100
C  30.92600 52.97300 39.61500
C  28.61800 52.99900 36.42700
C  29.07000 53.79300 35.25800
H  28.05000 54.13500 34.14400
N  31.97100 57.92900 38.86700
C  32.67900 56.83500 38.59400
C  34.11300 57.12100 38.61500
C  34.23900 58.53600 38.83000
C  32.81700 59.02400 38.92200
C  35.13000 56.12400 38.46600
C  35.57500 59.31300 38.83800
O  36.68000 58.79000 38.73200
C  35.59400 60.77000 39.02700
N  29.93600 60.14700 38.48700
C  31.01700 60.85200 38.71200
C  30.80000 62.35100 38.66000
C  29.25400 62.44900 38.45800
C  28.83000 60.93700 38.47000
C  31.21800 63.21000 39.99000
C  28.69600 63.12000 37.14500
C  27.62200 64.19400 37.39200
N  27.75200 58.13800 38.29100
C  26.89200 59.20900 38.15900
C  25.56700 58.72200 37.78300
C  25.72900 57.36900 37.65100
C  27.04100 57.02900 38.04000
C  24.34900 59.52700 37.53800
C  24.95600 56.16000 37.41300
O  23.79700 55.96800 37.07800
C  25.99500 55.02500 37.60500
C  25.58400 54.08700 38.64400
O  25.59900 54.36700 39.82200
O  25.15000 52.88200 38.16800
C  25.02000 51.84300 39.16900
H  32.78500 54.77100 38.01600
H  33.11300 61.08000 38.95100
H  26.66500 61.36600 38.21400
H  28.32100 53.13400 38.57900
H  31.03500 53.14300 37.45700
H  31.47700 52.03700 39.52400
H  30.04600 52.73500 40.21200
H  31.56500 53.65500 40.17600
H  27.53700 52.85800 36.40700
H  29.15100 52.05000 36.37000
H  29.88600 53.25000 34.78000
H  29.58300 54.74500 35.39600
H  35.47900 55.98900 37.44200
H  34.73100 55.13100 38.67600
H  36.01100 56.30500 39.08200
H  35.08800 61.03100 39.95700
H  35.02100 61.36300 38.31500
H  36.62400 61.10000 39.16200
H  31.37600 62.59100 37.76600
H  28.80000 62.86800 39.35600
H  32.00500 62.66800 40.51500
H  30.34800 63.26900 40.64400
H  31.68400 64.14600 39.68200
H  28.34800 62.48700 36.32800
H  29.54100 63.67700 36.74300
H  26.64400 63.79300 37.12500
H  27.84300 65.13100 36.88000
H  27.55800 64.43700 38.45200
H  23.59500 59.26100 38.27900
H  24.03400 59.32500 36.51400
H  24.48500 60.60600 37.61000
H  26.15600 54.49600 36.66600
H  24.27800 52.13300 39.91300
H  25.95900 51.69300 39.70200
H  24.72600 50.90900 38.69000

