158

Mg 40.40500 9.19600 29.56000
C  42.36400 10.56200 32.21300
C  38.26100 7.93000 32.00100
C  38.64400 7.70200 27.19000
C  42.81700 10.17400 27.43700
N  40.31200 9.28300 31.84300
C  41.16300 10.02900 32.64400
C  40.66300 10.02000 34.14200
C  39.49300 8.99500 34.06200
C  39.31000 8.72900 32.52700
C  39.56800 7.65900 34.88100
C  40.36100 11.43300 34.66500
C  39.32700 11.59900 35.75400
H  39.57200 12.32200 37.12500
N  38.63800 7.99700 29.56700
C  37.90900 7.60500 30.66800
C  36.71100 6.91400 30.21500
C  36.84800 6.79200 28.80900
C  38.08600 7.49100 28.44100
C  35.54500 6.46500 31.12700
C  35.92600 6.07400 27.87100
O  36.16700 6.14300 26.67200
C  34.72400 5.25400 28.39900
N  40.53800 9.13000 27.58700
C  39.76700 8.37300 26.74000
C  40.20000 8.51600 25.24000
C  41.60000 9.22000 25.38600
C  41.67800 9.51100 26.89100
C  40.25700 7.26500 24.36000
C  41.83600 10.45200 24.48000
C  41.03500 11.73800 24.90900
N  42.23200 10.09500 29.70200
C  43.11200 10.46100 28.75000
C  44.27500 11.18000 29.31200
C  44.05900 11.23400 30.67800
C  42.83400 10.49700 30.88500
C  45.40900 11.79400 28.55100
C  44.49700 11.67300 32.01700
O  45.48400 12.28800 32.39600
C  43.40200 11.23400 33.09600
C  43.87200 10.32100 34.16500
O  43.89900 9.11300 34.05700
O  44.21300 10.98100 35.28600
C  44.35600 10.08400 36.41700
H  37.60600 7.52500 32.77600
H  38.20600 7.26900 26.28800
H  43.59400 10.45500 26.72300
H  41.46900 9.62600 34.76200
H  38.52600 9.41600 34.33800
H  38.65900 7.54100 35.47000
H  40.41600 7.64200 35.56600
H  39.77200 6.73500 34.34100
H  40.03000 12.10400 33.87300
H  41.26400 11.75100 35.18500
H  39.14800 10.65400 36.26700
H  38.37700 11.80000 35.26000
H  34.75100 7.18400 30.92500
H  35.85100 6.64000 32.15900
H  35.15400 5.46400 30.94600
H  35.11100 4.42000 28.98600
H  34.36100 4.75700 27.50000
H  34.19900 5.95400 29.04900
H  39.48200 9.22300 24.82400
H  42.52600 8.66100 25.25100
H  39.83700 7.48900 23.37900
H  39.65700 6.50400 24.86000
H  41.23400 6.86700 24.08500
H  41.41600 10.18000 23.51200
H  42.91400 10.58900 24.38900
H  40.39200 11.42900 25.73300
H  40.42000 12.20700 24.14100
H  41.77600 12.46700 25.23500
H  45.08300 12.14200 27.57200
H  46.21000 11.05700 28.48900
H  45.85100 12.64600 29.06800
H  42.98300 12.08800 33.62700
H  45.16800 9.38400 36.22500
H  43.39700 9.64000 36.68700
H  44.64400 10.64800 37.30400
Mg 16.98900 51.39500 26.20800
C  19.06400 50.42900 28.92400
C  14.71600 52.68000 28.41400
C  15.15800 52.26500 23.62600
C  19.51000 50.10900 24.15100
N  16.98900 51.71000 28.40600
C  17.89800 51.14700 29.37600
C  17.44700 51.47300 30.81700
C  16.00300 52.01000 30.54800
C  15.87100 52.11200 29.02900
C  14.89700 51.24000 31.31000
C  18.33100 52.58400 31.40100
C  18.09200 52.97800 32.88300
H  17.26500 52.19700 33.93100
N  15.15000 52.53700 26.07800
C  14.37200 52.97500 27.08600
C  13.33300 53.68500 26.51900
C  13.39700 53.60800 25.12800
C  14.57100 52.70100 24.89100
C  12.30500 54.41100 27.34000
C  12.48500 54.13500 24.03600
O  12.76000 54.01800 22.85900
C  11.21600 54.87600 24.40400
N  17.26900 51.21800 24.22100
C  16.35800 51.60600 23.28000
C  16.84100 51.42400 21.84400
C  18.28700 50.93300 22.03400
C  18.34500 50.67700 23.58000
C  15.89500 50.50300 21.04500
C  19.37700 51.93400 21.49400
C  20.02500 53.01900 22.47200
N  18.90700 50.40500 26.41500
C  19.85000 49.97700 25.49500
C  20.99100 49.49200 26.16900
C  20.72600 49.64600 27.57100
C  19.42500 50.16500 27.64500
C  22.41900 49.00900 25.53400
C  21.18800 49.50800 28.85000
O  22.26800 49.11600 29.22800
C  20.09600 49.93400 29.80700
C  19.62800 48.80300 30.70200
O  18.80000 47.93800 30.47100
O  20.24600 49.06200 31.86700
C  19.73800 48.23100 32.97400
H  14.01100 52.90800 29.21600
H  14.69500 52.63000 22.70700
H  20.22100 49.77300 23.39300
H  17.57100 50.53300 31.35600
H  15.98500 53.01300 30.97400
H  15.22000 50.54800 32.08800
H  14.31300 50.62200 30.62800
H  14.22900 51.95600 31.79000
H  18.28300 53.51600 30.83900
H  19.37800 52.28900 31.32600
H  17.64300 53.97100 32.89500
H  19.06400 53.07000 33.36800
H  11.31100 54.11100 27.00900
H  12.51800 55.47900 27.38100
H  12.46600 54.08700 28.36800
H  11.41200 55.68800 25.10300
H  10.39800 54.27900 24.80800
H  10.94200 55.44300 23.51500
H  16.90300 52.41300 21.39000
H  18.42800 49.99500 21.49600
H  14.90600 50.47800 21.50300
H  16.22800 49.46600 21.01000
H  15.87800 50.97100 20.06100
H  18.86300 52.58000 20.78200
H  20.14900 51.32100 21.02900
H  19.61600 53.06400 23.48200
H  19.76300 54.01700 22.12300
H  21.11100 52.92700 22.48700
H  22.43700 49.47400 24.54900
H  22.29700 47.93900 25.36500
H  23.35000 49.30100 26.01900
H  20.51900 50.76300 30.37500
H  18.78900 48.65600 33.29900
H  20.46800 48.24800 33.78300
H  19.60400 47.19300 32.67100

