158

Mg -2.36700 17.43500 26.54800
C  -3.18300 15.15400 29.17600
C  -2.45500 19.95700 28.79500
C  -2.20200 19.47800 23.92800
C  -2.92900 14.64100 24.22200
N  -2.77500 17.52700 28.76300
C  -3.03000 16.50500 29.62100
C  -3.00000 17.09200 31.03600
C  -2.82200 18.64800 30.83500
C  -2.75100 18.72100 29.40400
C  -3.98900 19.57300 31.40300
C  -1.96300 16.45400 31.99800
C  -1.57700 17.19100 33.23300
H  -1.11200 16.34100 34.43900
N  -2.23700 19.47400 26.38100
C  -2.28000 20.34300 27.42500
C  -2.06700 21.65500 26.85300
C  -1.99100 21.56700 25.39900
C  -2.17300 20.14000 25.20100
C  -1.97100 22.97200 27.75600
C  -1.77500 22.62200 24.42100
O  -1.71000 22.40800 23.22700
C  -1.72700 24.08200 24.79200
N  -2.73200 17.07100 24.36200
C  -2.48000 18.15700 23.55500
C  -2.53600 17.77300 22.05500
C  -2.67200 16.20800 22.13500
C  -2.76800 15.92400 23.69000
C  -3.70800 18.53200 21.32400
C  -1.50000 15.47500 21.54400
C  -0.16000 15.70000 22.30100
N  -2.97000 15.31900 26.61200
C  -3.04400 14.32000 25.59800
C  -3.33800 13.09400 26.25900
C  -3.41500 13.31500 27.66500
C  -3.20900 14.71300 27.82400
C  -3.46300 11.76700 25.55300
C  -3.56200 12.72800 28.97600
O  -3.78300 11.61300 29.36200
C  -3.54000 13.90700 30.01100
C  -2.34200 13.53400 30.85800
O  -1.17200 13.58100 30.50100
O  -2.72400 12.87400 32.01100
C  -1.70900 12.37800 32.90300
H  -2.35200 20.76000 29.52800
H  -2.00200 20.05600 23.02400
H  -2.98800 13.79900 23.53000
H  -4.00600 17.00900 31.44700
H  -1.96400 19.12000 31.31300
H  -4.51000 19.86000 30.48900
H  -3.55500 20.42300 31.92800
H  -4.69600 19.06900 32.06200
H  -1.00200 16.41600 31.48400
H  -2.35800 15.49200 32.32500
H  -2.33300 17.93500 33.48600
H  -0.71900 17.78900 32.92500
H  -1.04000 23.52900 27.64700
H  -1.93600 22.67100 28.80300
H  -2.80200 23.62800 27.49400
H  -2.60500 24.21700 25.42400
H  -1.79600 24.67300 23.87900
H  -0.80000 24.25500 25.33900
H  -1.55500 18.03300 21.65800
H  -3.53300 15.85900 21.56500
H  -4.51200 17.79600 21.32700
H  -3.51600 18.76000 20.27600
H  -4.03400 19.36400 21.94900
H  -1.36800 15.84000 20.52500
H  -1.75000 14.43400 21.34000
H  -0.06300 16.60900 22.89600
H  0.44800 15.93600 21.42800
H  0.26000 14.90200 22.91300
H  -4.12400 11.87300 24.69300
H  -3.79600 10.99200 26.24400
H  -2.62100 11.26700 25.07400
H  -4.44300 13.94200 30.62100
H  -2.11100 11.90000 33.79600
H  -1.20800 13.29900 33.20200
H  -0.97100 11.70600 32.46500
Mg 43.07200 42.82700 26.67900
C  41.78100 45.19100 28.87900
C  44.27600 40.94000 29.26600
C  44.29800 40.75800 24.43700
C  42.16900 45.01900 23.95600
N  43.00200 43.04600 28.81400
C  42.36900 44.05700 29.53700
C  42.42300 43.69900 31.03600
C  43.52300 42.62500 31.14700
C  43.54500 42.08400 29.68200
C  44.84700 43.01100 31.80800
C  41.03300 43.08600 31.45100
C  40.40100 43.43300 32.77200
H  41.25300 43.83700 33.93300
N  44.07000 41.06300 26.80200
C  44.43500 40.44800 27.92400
C  45.02500 39.20700 27.63900
C  44.98200 39.07200 26.19700
C  44.42900 40.34900 25.75500
C  45.67300 38.30500 28.66800
C  45.34900 37.90700 25.36400
O  45.24600 37.87200 24.15800
C  45.82200 36.73800 25.99800
N  43.46400 43.00100 24.52300
C  43.87300 41.92700 23.86800
C  43.88000 42.02000 22.40700
C  42.98800 43.33100 22.25600
C  42.84100 43.83300 23.68400
C  45.28800 42.13100 21.72800
C  41.66400 43.08500 21.34900
C  40.26400 43.00200 22.00200
N  42.28100 44.77300 26.40800
C  42.04300 45.56000 25.24200
C  41.33500 46.75900 25.64700
C  41.26900 46.64500 27.07400
C  41.85900 45.44800 27.48400
C  40.71900 47.84900 24.70900
C  40.76200 47.31300 28.23700
O  40.06400 48.34500 28.34900
C  40.97200 46.32600 29.59000
C  41.85400 47.08300 30.41500
O  42.97100 47.36500 30.13400
O  41.21500 47.25500 31.63300
C  41.99800 47.94200 32.65100
H  44.66200 40.26700 30.03400
H  44.57000 39.91600 23.79800
H  41.78400 45.68500 23.18200
H  42.72800 44.54200 31.65500
H  43.15000 41.88200 31.85200
H  45.12100 42.31700 32.60300
H  44.79600 44.00500 32.25300
H  45.59600 43.08600 31.02000
H  41.02200 41.99600 31.40800
H  40.22100 43.32800 30.76500
H  39.87700 42.51000 33.02200
H  39.63700 44.19900 32.64200
H  45.83400 38.72400 29.66200
H  46.68800 38.13700 28.30800
H  45.20800 37.31900 28.68700
H  46.71900 37.10300 26.49900
H  46.07600 35.99500 25.24200
H  45.01800 36.34400 26.62000
H  43.32100 41.11800 22.15500
H  43.63600 44.08200 21.80400
H  45.49800 43.06100 21.20000
H  45.26300 41.31700 21.00300
H  46.13400 42.06900 22.41300
H  41.70100 42.17100 20.75600
H  41.78600 43.84700 20.57900
H  39.69700 43.87400 21.67500
H  40.29000 42.86800 23.08300
H  39.86400 42.03000 21.71300
H  40.29300 47.29300 23.87400
H  41.49900 48.47200 24.27000
H  39.99500 48.46400 25.24400
H  40.03900 46.00100 30.05200
H  42.74200 48.70000 32.40400
H  42.48400 47.24000 33.32800
H  41.17000 48.45600 33.14000

