158

Mg 49.35200 44.90700 42.67600
C  45.91200 45.08200 42.35300
C  49.08600 41.48700 42.17300
C  52.70500 44.72000 42.14000
C  49.43500 48.28500 42.93400
N  47.60000 43.42200 42.06000
C  46.30200 43.77300 42.19500
C  45.47100 42.47000 42.13700
C  46.57300 41.33500 42.42100
C  47.82800 42.10900 42.25300
C  46.41900 40.53900 43.77000
C  44.62700 42.30800 40.78600
C  44.61800 43.32700 39.64800
H  44.65100 42.66900 38.26700
N  50.77200 43.30800 42.28700
C  50.45600 42.04400 42.19400
C  51.68500 41.21200 42.28600
C  52.76700 42.07300 42.25600
C  52.13800 43.41700 42.23900
C  51.80200 39.69100 42.25000
C  54.27800 41.75300 42.14900
O  54.62500 40.59300 42.08500
C  55.37500 42.79300 42.26700
N  50.78300 46.31200 42.33300
C  52.10300 45.99000 42.16200
C  52.88500 47.29100 41.89500
C  51.93400 48.45000 42.33000
C  50.63300 47.64300 42.53800
C  54.23600 47.32700 42.60400
C  51.84000 49.63900 41.34200
C  52.17300 51.12600 41.83100
N  48.01600 46.44600 42.70400
C  48.16800 47.75500 42.90600
C  46.87800 48.39900 42.94500
C  45.97400 47.37500 42.69300
C  46.71100 46.21400 42.56800
C  46.49000 49.85700 43.12300
C  44.55200 47.09800 42.46300
O  43.57900 47.80300 42.38100
C  44.55600 45.65500 42.11800
C  43.43900 44.98600 42.77000
O  42.58700 44.36100 42.15000
O  43.33800 45.30900 44.13900
C  42.07800 45.00200 44.87100
H  49.05800 40.40300 42.29900
H  53.78700 44.66100 42.01200
H  49.47800 49.33900 43.21600
H  44.79800 42.40400 42.99200
H  46.66400 40.60600 41.61500
H  47.32100 40.32200 44.34300
H  45.79400 39.67000 43.56300
H  45.82900 41.09200 44.50100
H  43.60600 42.22800 41.16000
H  44.73200 41.31800 40.34200
H  45.31300 44.16600 39.68700
H  43.61900 43.76200 39.61100
H  52.29100 39.41400 41.31600
H  50.75800 39.39900 42.36500
H  52.45400 39.34700 43.05300
H  56.25100 42.22000 42.57100
H  55.03800 43.50800 43.01700
H  55.56700 43.17400 41.26400
H  53.02800 47.43400 40.82400
H  52.23900 48.89200 43.27800
H  54.15500 46.68500 43.48000
H  54.41600 48.36300 42.89300
H  55.02300 47.05000 41.90200
H  50.86600 49.59400 40.85300
H  52.43900 49.44800 40.45200
H  52.27000 51.21500 42.91300
H  51.24000 51.63200 41.58200
H  53.00100 51.56300 41.27300
H  45.97800 50.05500 42.18200
H  47.30900 50.57300 43.19500
H  45.92100 49.84800 44.05300
H  44.38400 45.59800 41.04300
H  41.30700 44.52700 44.26400
H  41.58200 45.80600 45.41600
H  42.43600 44.29900 45.62300
Mg 37.21100 49.95300 25.15700
C  37.47600 47.90700 28.02400
C  36.26100 52.63400 27.15400
C  36.40600 51.43400 22.36400
C  37.96600 47.03800 23.25100
N  36.88700 50.20900 27.28400
C  37.07400 49.23500 28.27600
C  36.89500 49.81100 29.69700
C  36.36600 51.26500 29.43500
C  36.48700 51.35800 27.89600
C  34.96700 51.62700 30.08300
C  38.23100 49.82400 30.48600
C  38.25500 49.14900 31.87500
H  37.06000 49.53200 32.76900
N  36.48900 51.75300 24.78600
C  36.16100 52.79200 25.74000
C  35.70300 53.92000 25.03600
C  35.67800 53.54600 23.62500
C  36.26500 52.20600 23.52800
C  35.08600 55.12100 25.67900
C  35.34200 54.42100 22.49600
O  35.38700 54.00900 21.36300
C  35.01400 55.87800 22.65900
N  37.21800 49.33400 23.12300
C  36.92200 50.18500 22.11000
C  37.14900 49.58000 20.70500
C  37.94800 48.27500 21.00600
C  37.69300 48.18400 22.59400
C  35.73700 49.40800 19.93700
C  39.50400 48.30200 20.84100
C  40.10900 47.01600 20.25400
N  37.68300 47.86200 25.54400
C  37.97300 46.87200 24.64900
C  38.12800 45.60300 25.37700
C  37.99000 45.95400 26.73900
C  37.67800 47.33100 26.81300
C  38.24500 44.25700 24.64700
C  38.08500 45.45100 28.10300
O  38.32500 44.36600 28.64700
C  37.58100 46.71700 28.96500
C  36.28400 46.36000 29.49700
O  35.18000 46.43700 28.93600
O  36.43300 46.03600 30.85000
C  35.27800 45.66000 31.59400
H  36.00600 53.57700 27.64200
H  36.11600 52.02900 21.49400
H  38.20900 46.20500 22.58700
H  36.14800 49.22500 30.23200
H  37.02400 51.98100 29.92800
H  35.07300 52.47000 30.76500
H  34.52300 50.77300 30.59500
H  34.21100 51.86000 29.33300
H  38.65400 50.79400 30.74700
H  38.98400 49.25000 29.94600
H  39.20300 49.35600 32.37200
H  38.28900 48.08800 31.62800
H  34.21100 55.50600 25.15500
H  35.82700 55.85400 25.99800
H  34.58900 54.75000 26.57400
H  34.02400 56.02400 23.09100
H  35.08900 56.36700 21.68800
H  35.73900 56.37600 23.30300
H  37.77900 50.29500 20.17600
H  37.50200 47.43100 20.47900
H  35.81900 49.72400 18.89700
H  34.99000 49.97900 20.48800
H  35.42200 48.36800 20.01600
H  39.97800 48.50500 21.80100
H  39.71700 49.15900 20.20300
H  39.48400 46.14200 20.43800
H  41.04300 46.78800 20.76800
H  40.31500 47.30100 19.22200
H  37.93800 43.48200 25.35000
H  39.32500 44.24000 24.50300
H  37.73500 44.10600 23.69500
H  38.31600 46.84800 29.75900
H  35.48800 45.36500 32.62200
H  34.86900 44.87800 30.95300
H  34.63800 46.53900 31.52600

