158

Mg 25.19100 1.18700 29.87600
C  27.31000 1.05100 32.64400
C  22.41100 1.04300 31.89600
C  23.08200 0.99200 27.17300
C  27.82800 0.45600 27.83400
N  24.96400 1.21800 32.05900
C  25.93700 1.15600 33.00200
C  25.26000 1.25600 34.36200
C  23.71000 1.00200 34.09000
C  23.68100 1.07400 32.57200
C  23.15600 -0.25900 34.68200
C  25.67400 2.51000 35.15800
C  26.11400 2.22700 36.60500
H  25.49500 3.17000 37.68600
N  23.03700 1.18900 29.55100
C  22.09400 1.12100 30.53600
C  20.75200 1.09300 29.97000
C  20.93300 1.09100 28.56200
C  22.40400 1.05500 28.35900
C  19.46800 1.09400 30.83300
C  19.86600 1.03000 27.54900
O  20.07800 0.87100 26.35300
C  18.38900 0.74600 27.94400
N  25.38400 0.68700 27.86500
C  24.41100 0.85900 26.92600
C  24.95600 1.01000 25.49300
C  26.54300 0.94800 25.79300
C  26.60200 0.71000 27.24800
C  24.40200 -0.04500 24.58600
C  27.27400 2.24400 25.39400
C  26.93400 3.50100 26.15200
N  27.10400 0.72100 30.14500
C  28.03000 0.42400 29.20800
C  29.30800 0.24100 29.81100
C  29.09600 0.50900 31.23800
C  27.74700 0.84100 31.36400
C  30.60500 -0.24800 28.98600
C  29.71600 0.61400 32.53100
O  30.90900 0.38900 32.80800
C  28.62800 1.05500 33.49500
C  28.65000 0.03300 34.49100
O  28.30400 -1.12700 34.37600
O  29.09900 0.51700 35.72000
C  29.04300 -0.41800 36.86100
H  21.65700 0.89200 32.67200
H  22.43600 1.05700 26.29500
H  28.72500 0.55900 27.22000
H  25.74800 0.38300 34.79400
H  23.04500 1.80000 34.42400
H  22.99800 -1.00000 33.89800
H  22.29700 0.01100 35.29700
H  23.81000 -0.81100 35.35700
H  24.90700 3.28300 35.10400
H  26.47700 3.03100 34.63500
H  27.20000 2.31000 36.62900
H  26.03900 1.15100 36.75700
H  19.77900 0.81000 31.83800
H  18.67900 0.41800 30.50200
H  18.99200 2.07200 30.75600
H  18.53000 -0.08700 28.63200
H  17.87400 0.38900 27.05200
H  17.93700 1.64200 28.37100
H  24.68000 2.03200 25.23400
H  26.91500 0.03400 25.32900
H  23.31900 -0.12200 24.67600
H  24.74600 -1.04400 24.85400
H  24.64800 0.09800 23.53300
H  26.91800 2.43700 24.38200
H  28.36000 2.18200 25.32800
H  25.93300 3.43600 26.57900
H  26.88500 4.36500 25.49000
H  27.65400 3.53100 26.97000
H  31.25900 0.61300 28.84300
H  30.34300 -0.65200 28.00800
H  31.15600 -0.99200 29.56200
H  28.82100 1.98300 34.03400
H  29.91500 -0.17800 37.47000
H  28.94300 -1.48500 36.66300
H  28.17200 -0.19200 37.47600
Mg 48.76000 36.30500 27.73000
C  46.60600 34.76800 30.11200
C  49.04700 38.87500 29.82600
C  50.35300 37.82900 25.22800
C  47.88200 33.67700 25.53100
N  48.21500 36.56500 29.93500
C  47.27500 35.83500 30.65100
C  47.15900 36.41300 32.10500
C  47.64500 37.96000 31.89200
C  48.34700 37.80200 30.44900
C  46.47800 39.01800 31.84000
C  48.00100 35.62100 33.12400
C  49.38400 36.13400 33.53400
H  49.47200 36.92100 34.88700
N  49.64300 38.03900 27.57600
C  49.66000 38.96000 28.52700
C  50.46200 40.06600 28.11800
C  50.88000 39.76800 26.79600
C  50.32400 38.46900 26.46500
C  50.96000 41.17000 29.03300
C  51.66800 40.68400 25.85200
O  52.08000 40.26900 24.78800
C  51.85100 42.15600 26.21500
N  48.83600 35.88700 25.56600
C  49.67000 36.67400 24.78600
C  50.15000 35.90400 23.52500
C  49.39000 34.50000 23.62500
C  48.64100 34.64400 24.99300
C  49.99800 36.65200 22.16400
C  50.18400 33.09600 23.65200
C  51.31700 32.94900 22.60600
N  47.65600 34.57600 27.79900
C  47.31100 33.60700 26.75100
C  46.46000 32.64400 27.30000
C  46.20200 33.02600 28.56300
C  46.90200 34.21300 28.83800
C  46.00000 31.38400 26.60400
C  45.39900 32.68300 29.78900
O  44.89700 31.67100 30.16400
C  45.53400 33.88100 30.75200
C  45.80100 33.42300 32.11700
O  46.69600 32.67600 32.48800
O  44.71700 33.71000 32.90900
C  44.71500 33.05800 34.22200
H  49.05100 39.78100 30.43600
H  50.99100 38.22800 24.43700
H  47.58200 32.87000 24.85900
H  46.09800 36.47700 32.34500
H  48.42800 38.30500 32.56800
H  46.10100 39.17600 32.85000
H  45.74200 38.66300 31.11900
H  46.85300 39.97100 31.46700
H  48.12700 34.65000 32.64400
H  47.46600 35.51100 34.06700
H  49.85400 36.75600 32.77200
H  49.99900 35.25500 33.72300
H  50.70500 40.91100 30.06000
H  50.54100 42.11700 28.69500
H  52.03500 41.35200 29.03200
H  52.01000 42.72600 25.29900
H  52.69500 42.30500 26.88900
H  50.89800 42.47600 26.63600
H  51.19600 35.74600 23.78800
H  48.71900 34.38200 22.77400
H  49.51400 37.61200 22.34400
H  49.62400 35.99100 21.38200
H  51.02700 36.80900 21.84000
H  49.51200 32.25300 23.49100
H  50.62200 32.98800 24.64400
H  52.30100 32.96400 23.07500
H  51.17600 33.76700 21.90000
H  51.11800 32.06800 21.99600
H  45.51600 30.73200 27.33200
H  46.80500 30.74900 26.23300
H  45.37000 31.68800 25.76900
H  44.61300 34.46400 30.77900
H  45.27100 33.74900 34.85500
H  45.10200 32.04000 34.24000
H  43.71100 33.15900 34.63400

