158

Mg 48.98600 35.18800 26.91500
C  46.85200 33.83900 29.52800
C  49.08500 38.10200 28.51100
C  50.34900 36.49100 24.10800
C  47.95600 32.34400 25.00500
N  48.23600 35.76400 28.85600
C  47.48900 35.13700 29.83900
C  47.65400 35.85900 31.18700
C  47.96000 37.29600 30.71800
C  48.41800 37.07100 29.28400
C  46.64900 38.23100 30.73200
C  48.84300 35.26900 32.08000
C  48.57700 35.26800 33.59100
H  47.61000 36.22300 34.18300
N  49.88100 36.98800 26.46500
C  49.73100 38.08200 27.24700
C  50.43500 39.17600 26.51900
C  50.77600 38.71500 25.18800
C  50.27900 37.33100 25.20200
C  50.71300 40.49800 27.19400
C  51.47700 39.38100 24.09200
O  51.57000 38.88500 22.96400
C  52.09800 40.77900 24.36200
N  49.16800 34.49100 24.82100
C  49.85800 35.17800 23.86000
C  49.76800 34.47800 22.50000
C  49.24800 33.08700 22.88400
C  48.81700 33.30800 24.35300
C  48.84900 35.14300 21.45200
C  50.23800 31.82600 22.73600
C  49.50000 30.59900 22.12800
N  47.72800 33.51800 27.15700
C  47.45800 32.44800 26.28900
C  46.55100 31.57200 26.92100
C  46.35700 32.04100 28.22600
C  46.99400 33.25900 28.27600
C  46.11200 30.23700 26.37200
C  45.67000 31.74100 29.50300
O  45.01000 30.80300 29.84900
C  45.91200 32.96900 30.31800
C  46.32700 32.62200 31.63900
O  47.42400 32.19300 31.98300
O  45.20500 32.64300 32.46300
C  45.58900 32.26000 33.86200
H  49.20300 39.03800 29.06100
H  50.68600 36.81100 23.12000
H  47.62900 31.52100 24.36600
H  46.67000 35.76700 31.64700
H  48.69300 37.75200 31.38400
H  45.71900 37.70100 30.93600
H  46.52800 38.68100 29.74700
H  46.71200 39.08300 31.40900
H  49.68200 35.96400 32.03800
H  49.17000 34.30700 31.68800
H  49.47000 35.50900 34.16600
H  48.25000 34.24000 33.74400
H  51.64700 40.37400 27.74300
H  50.07400 40.64000 28.06500
H  50.55200 41.42400 26.64300
H  51.23600 41.40600 24.58600
H  52.63700 41.12600 23.48000
H  52.76000 40.85000 25.22500
H  50.72900 34.35100 22.00300
H  48.27300 32.92400 22.42600
H  48.69900 36.20100 21.66800
H  47.84800 34.72300 21.35300
H  49.42600 35.06800 20.53100
H  50.69700 31.52400 23.67800
H  50.96900 32.17700 22.00800
H  50.08700 30.21500 21.29400
H  48.46400 30.79000 21.84700
H  49.51000 29.85900 22.92900
H  46.95400 29.76100 25.87000
H  45.30200 30.49300 25.68900
H  45.73200 29.58800 27.16100
H  44.98800 33.54100 30.39200
H  45.81700 31.19500 33.89700
H  44.78300 32.46700 34.56700
H  46.43000 32.83400 34.25300
Mg 0.76200 42.52600 25.90700
C  2.49300 42.29800 28.97800
C  -2.13000 41.43100 27.57400
C  -0.84500 42.31500 22.96800
C  3.66400 43.41800 24.31800
N  0.27800 42.00300 28.02800
C  1.11600 42.10900 29.17800
C  0.26100 41.91900 30.45400
C  -1.14800 41.66300 29.91400
C  -1.02900 41.67300 28.37500
C  -1.85000 40.35600 30.48400
C  0.38300 43.22100 31.42000
C  0.44300 43.01000 32.96600
H  0.17800 41.68300 33.61200
N  -1.19500 41.85100 25.35000
C  -2.20300 41.46300 26.15800
C  -3.42600 41.26200 25.37600
C  -3.09000 41.59300 24.03200
C  -1.64600 41.91100 24.04700
C  -4.66400 40.66500 26.06200
C  -4.02600 41.65600 22.85100
O  -3.63300 41.85800 21.76900
C  -5.52200 41.51600 23.12400
N  1.46100 42.51100 23.86300
C  0.52300 42.60900 22.87400
C  1.27200 42.75300 21.50500
C  2.52000 43.54300 22.01000
C  2.61000 43.08900 23.48300
C  1.53800 41.39200 20.92200
C  2.53400 45.11000 21.79100
C  3.66600 45.71200 20.90400
N  2.70800 42.84500 26.50600
C  3.75800 43.19300 25.72900
C  4.88700 43.22100 26.53400
C  4.47600 43.00000 27.85500
C  3.15300 42.65200 27.76900
C  6.29100 43.52600 26.01500
C  4.89800 42.92100 29.24300
O  5.98300 42.99000 29.83200
C  3.57800 42.55100 30.03400
C  4.00700 41.35700 30.78200
O  4.21700 40.22700 30.37800
O  3.95400 41.65500 32.20100
C  4.10500 40.55600 33.07500
H  -3.06000 41.15800 28.07700
H  -1.32100 42.38800 21.98800
H  4.56100 43.77200 23.80600
H  0.57100 41.04100 31.02100
H  -1.83800 42.45300 30.21300
H  -1.52300 40.20600 31.51200
H  -1.66200 39.46400 29.88700
H  -2.92200 40.52400 30.38000
H  -0.42600 43.92000 31.20800
H  1.27200 43.77300 31.11500
H  -0.24000 43.72600 33.42300
H  1.35700 43.35100 33.45300
H  -4.55400 40.32900 27.09300
H  -5.02400 39.84200 25.44600
H  -5.38200 41.48100 25.98100
H  -5.85100 40.66500 23.72000
H  -6.06300 41.41400 22.18400
H  -5.73100 42.46900 23.61000
H  0.63900 43.33300 20.83400
H  3.42400 43.18100 21.52100
H  1.78200 40.64800 21.68100
H  2.46200 41.54600 20.36400
H  0.78700 40.92500 20.28400
H  2.72100 45.48300 22.79800
H  1.59700 45.38500 21.30600
H  4.22500 46.38700 21.55300
H  3.34300 46.42600 20.14700
H  4.35600 44.98200 20.48000
H  7.01400 43.07600 26.69600
H  6.47700 44.56200 25.73200
H  6.51800 42.95300 25.11600
H  3.37500 43.37600 30.71700
H  4.94800 39.91100 32.82900
H  3.24500 39.89100 33.00300
H  4.25800 41.01000 34.05500

