158

Mg 44.11800 3.68500 46.81400
C  42.17300 6.51400 47.14300
C  41.19400 1.89800 46.47200
C  45.88900 1.03600 45.57400
C  46.99300 5.59100 46.75000
N  41.91400 4.22200 46.64600
C  41.34500 5.40600 46.99600
C  39.80800 5.20800 47.28400
C  39.57300 3.66800 47.14900
C  40.99400 3.23100 46.87100
C  38.98000 3.06100 48.40400
C  38.87000 6.16600 46.47600
C  38.93800 5.88300 44.95600
H  39.13400 7.08100 43.96400
N  43.59100 1.63700 46.22600
C  42.30600 1.08700 46.13900
C  42.43200 -0.25700 45.79100
C  43.79400 -0.50700 45.52900
C  44.50400 0.77400 45.79900
C  41.19100 -1.14000 45.58500
C  44.25900 -1.81400 44.95200
O  43.47900 -2.75500 44.79000
C  45.70700 -2.16700 44.63800
N  46.25400 3.32000 46.43000
C  46.69000 2.11000 45.97600
C  48.16300 2.31200 45.60000
C  48.66100 3.67600 46.26900
C  47.24200 4.21600 46.62500
C  49.07700 1.16700 45.71800
C  49.44500 4.50500 45.18300
C  50.87300 4.98500 45.63700
N  44.56200 5.60500 46.86500
C  45.75300 6.24800 46.79800
C  45.50900 7.67300 47.08800
C  44.13400 7.81800 47.15400
C  43.57900 6.56300 47.02600
C  46.47500 8.67100 47.21000
C  43.04900 8.70400 47.43300
O  43.13000 9.90400 47.78500
C  41.77600 7.91200 47.49100
C  41.01900 8.14800 48.78400
O  41.32900 7.68600 49.88200
O  39.84800 8.85000 48.46100
C  38.98500 9.08400 49.68800
H  40.25600 1.33800 46.46200
H  46.39800 0.25100 45.01100
H  47.87400 6.23000 46.66500
H  39.62400 5.56100 48.29900
H  38.93700 3.34100 46.32600
H  38.65600 3.68900 49.23500
H  39.66300 2.42900 48.97200
H  38.05500 2.50900 48.23700
H  39.25800 7.17300 46.63000
H  37.82600 6.10100 46.78000
H  38.03300 5.43600 44.54400
H  39.74200 5.15100 44.88300
H  41.19200 -1.97900 46.28100
H  41.20700 -1.63300 44.61300
H  40.22900 -0.62800 45.59100
H  46.29100 -1.80900 45.48600
H  46.05000 -1.75900 43.68700
H  45.86900 -3.23600 44.50000
H  48.00500 2.59500 44.55900
H  49.11200 3.47100 47.24000
H  49.24400 0.86700 44.68400
H  48.66800 0.40000 46.37600
H  50.02400 1.48400 46.15600
H  48.86500 5.39000 44.92000
H  49.60300 3.97000 44.24600
H  50.68500 6.00800 45.96500
H  51.46700 5.05200 44.72600
H  51.44000 4.43400 46.38700
H  47.24400 8.51800 46.45300
H  46.91100 8.67200 48.20900
H  46.09200 9.65800 46.94700
H  41.08400 8.26600 46.72600
H  39.17100 10.13900 49.88800
H  39.18900 8.56800 50.62600
H  37.94300 8.90500 49.42200
Mg 40.50500 9.67500 30.62600
C  42.48200 11.06800 33.19700
C  38.40200 8.38400 33.00500
C  38.82300 8.31100 28.10100
C  43.09900 10.67900 28.33500
N  40.42700 9.80300 32.76100
C  41.30700 10.41500 33.63600
C  40.80800 10.33800 35.10100
C  39.46600 9.55600 35.04400
C  39.42000 9.21900 33.54000
C  39.50600 8.31600 36.02200
C  40.55000 11.75300 35.82300
C  41.18600 11.82800 37.24100
H  40.51000 12.54100 38.35200
N  38.85100 8.59200 30.53700
C  38.11000 8.15500 31.64700
C  36.97600 7.36600 31.17300
C  36.97700 7.48900 29.73800
C  38.30700 8.13800 29.41800
C  36.07300 6.67900 32.14600
C  35.95500 6.95400 28.75500
O  36.04600 6.94300 27.50000
C  34.62800 6.40900 29.31000
N  40.98700 9.34700 28.57400
C  40.04000 8.87000 27.66600
C  40.52700 9.07100 26.20800
C  41.89100 9.84700 26.31700
C  42.02200 9.95200 27.83500
C  40.50000 7.85500 25.29500
C  41.99400 11.06900 25.49300
C  41.06600 12.18200 25.89200
N  42.40700 10.62600 30.65100
C  43.32100 10.89200 29.68000
C  44.44300 11.60800 30.31100
C  44.20700 11.66300 31.64500
C  42.90900 11.09600 31.79500
C  45.56200 12.33000 29.71200
C  44.60600 12.21200 32.98900
O  45.57400 12.90100 33.31500
C  43.53600 11.78500 33.98100
C  44.17100 10.99900 34.99500
O  44.36000 9.82300 35.03100
O  44.52400 11.78900 36.03100
C  45.38500 11.22800 37.02000
H  37.63200 8.08500 33.72000
H  38.19300 7.81500 27.36000
H  43.76800 11.23700 27.67600
H  41.57900 9.75200 35.60100
H  38.68600 10.27000 35.30900
H  39.66700 7.37300 35.50000
H  38.56900 8.34100 36.57800
H  40.36800 8.39000 36.68500
H  39.51700 12.02300 36.04400
H  41.00000 12.51400 35.18500
H  42.21300 12.16000 37.08900
H  41.34000 10.85000 37.69600
H  35.48700 5.85800 31.73300
H  35.40100 7.41000 32.59600
H  36.74700 6.26400 32.89600
H  33.86500 6.35400 28.53300
H  34.39300 7.26400 29.94500
H  34.74200 5.53200 29.94800
H  39.87100 9.74300 25.65600
H  42.65000 9.14900 25.96400
H  40.14200 6.94600 25.77900
H  41.45800 7.58500 24.85100
H  39.75600 8.10100 24.53700
H  41.89000 10.92200 24.41800
H  43.04100 11.37100 25.53000
H  40.45700 11.73900 26.67900
H  40.26400 12.25400 25.15800
H  41.39300 13.17600 26.19600
H  46.45600 11.97600 30.22600
H  45.36500 13.39600 29.82700
H  45.73900 12.13600 28.65400
H  43.00800 12.60900 34.46100
H  44.86700 10.40200 37.50800
H  45.60000 12.05000 37.70300
H  46.35200 11.00800 36.56800

