158

Mg 41.14200 41.53600 26.41000
C  40.43100 43.63100 28.95400
C  42.48400 39.31800 28.62800
C  41.74600 39.31900 23.82500
C  40.46000 44.06700 24.07700
N  41.49900 41.60000 28.50800
C  40.99700 42.51400 29.44900
C  41.15100 42.05500 30.95500
C  42.00600 40.78100 30.72600
C  42.03900 40.53000 29.18300
C  43.48100 41.00400 31.34100
C  39.66800 41.80800 31.55300
C  39.40800 42.48700 32.90100
H  39.10100 41.60800 34.07800
N  41.97600 39.59000 26.22500
C  42.46300 38.85800 27.29700
C  43.06200 37.60500 26.79300
C  42.87600 37.64400 25.39500
C  42.12800 38.91200 25.07600
C  43.85800 36.58700 27.66100
C  43.37800 36.63600 24.30700
O  42.96400 36.70600 23.13600
C  44.26200 35.58500 24.65600
N  41.42100 41.78300 24.21100
C  41.34300 40.62500 23.39300
C  41.02900 41.00200 21.90400
C  40.80300 42.51700 22.02700
C  40.90800 42.85900 23.56500
C  42.22600 40.68300 20.98500
C  39.53400 43.14400 21.33300
C  38.15000 43.14100 22.07500
N  40.53100 43.40900 26.43700
C  40.34400 44.37600 25.41900
C  39.96000 45.61600 26.08500
C  39.93200 45.34400 27.47600
C  40.31600 44.03100 27.59400
C  39.61600 46.94400 25.42300
C  39.60100 45.96200 28.75400
O  39.12400 47.03400 29.09900
C  39.91200 44.79300 29.76000
C  40.92000 45.39700 30.62800
O  42.04500 45.69500 30.39300
O  40.34500 45.60200 31.86300
C  41.19800 46.08700 32.94300
H  43.02500 38.63600 29.28800
H  41.76400 38.59700 23.00600
H  40.03600 44.84000 23.43300
H  41.70000 42.77600 31.56000
H  41.52500 39.95600 31.25100
H  44.30100 40.87800 30.63400
H  43.54000 40.15600 32.02300
H  43.64500 41.86400 31.99000
H  39.57600 40.73300 31.71200
H  38.96600 42.12400 30.78200
H  38.60800 43.22700 32.86200
H  40.26200 43.10300 33.18100
H  44.13400 36.94100 28.65400
H  44.85800 36.45500 27.24700
H  43.26400 35.67500 27.59500
H  43.64300 34.83100 25.14400
H  45.03900 36.02500 25.28100
H  44.79200 35.24900 23.76500
H  40.13900 40.43100 21.64100
H  41.68500 42.97800 21.58100
H  42.65600 41.48200 20.38000
H  41.93100 39.84200 20.35800
H  42.99700 40.26600 21.63300
H  39.48300 42.55800 20.41600
H  39.82300 44.18300 21.17400
H  38.25900 42.42000 22.88600
H  37.37300 43.05100 21.31600
H  37.90800 44.09000 22.55300
H  38.54900 47.05200 25.22800
H  40.16400 46.99100 24.48200
H  39.94800 47.85100 25.92900
H  39.06200 44.50300 30.37800
H  41.90900 46.80700 32.53600
H  41.51200 45.19300 33.48100
H  40.47800 46.62600 33.55900
Mg -5.62500 25.69700 25.94500
C  -4.36300 27.26400 28.90800
C  -7.38900 23.50100 27.88500
C  -6.29500 23.93900 23.26200
C  -3.30400 27.63300 24.26300
N  -5.75200 25.33700 28.09900
C  -5.22800 26.18300 29.18000
C  -5.81900 25.70000 30.48600
C  -6.44700 24.31000 30.10100
C  -6.60300 24.37700 28.61700
C  -5.48800 23.09000 30.45500
C  -6.77600 26.73900 31.03000
C  -6.86100 27.02800 32.55300
H  -6.27200 26.02900 33.57900
N  -6.78300 24.08700 25.55600
C  -7.48500 23.28200 26.48300
C  -8.12700 22.23200 25.80200
C  -7.85400 22.35800 24.39300
C  -6.96200 23.52800 24.32600
C  -8.86300 21.06200 26.46300
C  -8.21600 21.50300 23.13800
O  -7.80600 21.63300 22.02200
C  -9.29200 20.47000 23.29800
N  -4.87400 25.70700 24.11100
C  -5.24600 24.84600 23.11800
C  -4.54100 25.12800 21.80300
C  -3.57900 26.31100 22.09400
C  -3.94600 26.62400 23.57100
C  -3.84800 23.78500 21.21200
C  -3.58600 27.44000 20.97500
C  -4.64800 28.55400 21.08400
N  -4.19100 27.27200 26.43200
C  -3.40300 27.98500 25.57500
C  -2.77300 29.05100 26.29900
C  -3.07200 28.77900 27.66300
C  -3.93300 27.66800 27.66000
C  -1.96200 30.16500 25.78400
C  -2.84400 29.11000 29.04400
O  -2.19100 30.02200 29.47500
C  -3.63500 28.14200 29.94000
C  -2.66800 27.44200 30.79600
O  -1.50200 27.25000 30.47600
O  -3.16000 27.36600 32.11700
C  -2.11900 27.31000 33.18500
H  -7.78800 22.72500 28.54100
H  -6.62100 23.58400 22.28200
H  -2.50800 28.12900 23.70400
H  -5.07000 25.60400 31.27200
H  -7.41300 24.06600 30.54300
H  -4.65600 23.46900 31.04800
H  -5.05100 22.72700 29.52500
H  -5.96800 22.30700 31.04200
H  -7.77400 26.34900 30.83000
H  -6.71300 27.69300 30.50600
H  -7.89600 27.10700 32.88300
H  -6.31500 27.95800 32.70900
H  -9.84600 21.53100 26.46500
H  -8.57600 20.89500 27.50200
H  -9.01800 20.08500 26.00400
H  -9.92700 20.43400 22.41200
H  -9.99900 20.77600 24.06900
H  -8.84800 19.48300 23.42200
H  -5.31900 25.50100 21.13700
H  -2.56500 25.92600 22.19700
H  -4.21600 23.70100 20.18900
H  -4.25700 22.90200 21.70400
H  -2.77000 23.92800 21.27900
H  -3.75300 27.01500 19.98500
H  -2.57500 27.84600 20.95700
H  -4.93600 28.86100 22.09000
H  -5.46700 28.22400 20.44500
H  -4.19100 29.40100 20.57300
H  -1.63100 30.88300 26.53400
H  -2.72800 30.68200 25.20500
H  -1.13900 29.96600 25.09700
H  -4.36800 28.73500 30.48800
H  -2.10400 26.36500 33.72800
H  -2.36700 28.11200 33.88000
H  -1.18900 27.59000 32.69100

