158

Mg 35.49200 1.17100 29.04100
C  33.44300 2.49300 31.60000
C  38.09000 0.97200 31.45400
C  37.52300 0.44000 26.56000
C  32.84700 1.77700 26.77700
N  35.75500 1.72200 31.30500
C  34.72500 2.17000 32.07800
C  35.14100 2.24800 33.55900
C  36.63600 1.78800 33.53800
C  36.88200 1.50400 32.05100
C  37.67300 2.65400 34.25500
C  34.38000 1.55100 34.67700
C  34.18300 2.15000 36.11200
H  35.07700 3.29500 36.62300
N  37.47600 0.58600 29.00400
C  38.37000 0.56900 30.11100
C  39.66600 0.13200 29.57600
C  39.53100 0.07500 28.13100
C  38.14600 0.39200 27.82400
C  40.89700 -0.10900 30.45900
C  40.67200 -0.17000 27.05900
O  40.39900 -0.34400 25.84900
C  42.06100 -0.44900 27.42800
N  35.29600 1.06300 26.97700
C  36.29000 0.84300 26.15700
C  35.82100 0.71500 24.72400
C  34.30200 0.91700 24.73300
C  34.07100 1.28800 26.24500
C  36.50600 1.71200 23.73000
C  33.44800 -0.30600 24.27900
C  32.51600 -0.17100 23.07100
N  33.55700 1.84900 29.12800
C  32.62200 2.13600 28.10400
C  31.45000 2.78900 28.62300
C  31.76400 2.89700 29.99900
C  33.03200 2.39000 30.26200
C  30.34300 3.27700 27.87900
C  31.19700 3.32700 31.20800
O  30.10400 3.88000 31.44000
C  32.22200 3.00600 32.31800
C  32.55600 4.25300 33.02900
O  33.24300 5.19500 32.60700
O  31.82300 4.33100 34.17000
C  31.91600 5.54600 35.00700
H  38.90900 0.97800 32.17700
H  38.17400 0.06700 25.76600
H  32.00500 1.91500 26.09500
H  35.12200 3.31200 33.79600
H  36.75100 0.83000 34.04500
H  37.21900 3.59300 34.57200
H  38.49000 2.90500 33.57900
H  38.24300 2.23800 35.08600
H  34.71400 0.53300 34.87800
H  33.40500 1.24300 34.29900
H  34.36900 1.25100 36.70100
H  33.16000 2.46600 36.31500
H  41.43800 -0.92500 29.98000
H  40.58400 -0.39200 31.46400
H  41.45300 0.81300 30.63300
H  42.20900 -1.42600 27.88600
H  42.32400 0.34600 28.12500
H  42.65400 -0.33900 26.52000
H  36.14600 -0.26800 24.38400
H  34.01900 1.70200 24.03200
H  37.01900 2.52200 24.25000
H  35.77900 2.31500 23.18500
H  37.00800 1.13500 22.95400
H  32.83800 -0.56100 25.14600
H  34.02600 -1.21400 24.10800
H  31.51200 -0.46700 23.37600
H  32.81200 -0.80900 22.23800
H  32.48000 0.87900 22.78100
H  29.48700 2.62100 28.03300
H  30.53300 3.29300 26.80500
H  30.07100 4.30600 28.11300
H  31.66300 2.34500 32.98000
H  30.91800 5.94400 35.19500
H  32.55100 6.32800 34.59100
H  32.31800 5.04200 35.88600
Mg 47.20900 16.00400 28.35700
C  45.09000 15.94800 31.26000
C  49.44900 17.89800 30.38000
C  49.19700 16.15400 25.77000
C  44.71100 14.49900 26.57300
N  47.19400 16.94400 30.50700
C  46.38000 16.52400 31.52000
C  46.81100 17.01900 32.84100
C  48.06400 17.89500 32.57200
C  48.27000 17.59100 31.06700
C  48.03500 19.37400 32.96800
C  47.07300 15.84300 33.82300
C  46.64200 16.00000 35.29000
H  46.10300 17.38300 35.80800
N  49.07900 16.84400 28.10100
C  49.83700 17.63900 29.02400
C  51.04500 18.02600 28.37500
C  51.00900 17.58100 27.03400
C  49.71600 16.85200 26.87400
C  52.23700 18.72900 29.05900
C  52.02200 17.78300 25.91600
O  51.91600 17.18900 24.86800
C  53.10400 18.80300 25.94400
N  46.95000 15.37900 26.48200
C  47.89000 15.61400 25.53300
C  47.47100 15.16400 24.14100
C  46.08100 14.59800 24.42600
C  45.88800 14.78900 25.94600
C  47.46600 16.28900 23.03700
C  45.90100 13.08200 24.05200
C  46.36300 12.03700 25.07700
N  45.26300 15.26600 28.80600
C  44.36600 14.64500 27.90600
C  43.29600 14.24800 28.73100
C  43.47300 14.76500 30.03700
C  44.74400 15.39400 30.01200
C  42.11800 13.49700 28.12600
C  42.83100 14.99100 31.28800
O  41.72100 14.73800 31.66000
C  43.89300 15.69300 32.18400
C  43.32200 16.99000 32.66500
O  43.42600 18.05600 32.06700
O  42.60400 16.69800 33.81300
C  41.87200 17.81300 34.36600
H  50.31700 18.31400 30.89500
H  49.79500 16.26800 24.86400
H  43.92200 13.98700 26.01900
H  46.09300 17.73100 33.24800
H  48.88200 17.41300 33.10700
H  47.18200 19.67400 33.57600
H  48.07400 20.11000 32.16500
H  48.90100 19.56200 33.60300
H  48.12800 15.56900 33.83300
H  46.50600 15.01500 33.39700
H  47.50300 15.79500 35.92700
H  45.91100 15.23400 35.54700
H  52.96700 17.92100 29.10100
H  52.11300 18.81300 30.13900
H  52.73600 19.61200 28.65900
H  53.91800 18.32500 26.49000
H  52.77200 19.75400 26.36000
H  53.53500 19.03600 24.97100
H  48.08900 14.32800 23.81300
H  45.36100 15.21900 23.89200
H  47.01400 15.88600 22.13100
H  48.49700 16.53700 22.78400
H  47.09000 17.25800 23.36500
H  46.11400 12.91200 22.99700
H  44.83500 12.87400 24.14700
H  45.55600 11.48900 25.56300
H  46.95700 12.45900 25.88900
H  47.10000 11.35000 24.66100
H  41.88400 12.71000 28.84300
H  42.39200 13.05600 27.16800
H  41.27300 14.16500 27.96000
H  44.11600 15.02600 33.01700
H  41.41500 18.48700 33.64100
H  42.35000 18.46300 35.09800
H  41.09300 17.35200 34.97400

