158

Mg 46.89400 17.14000 28.26100
C  44.86400 16.75000 31.24600
C  48.93000 19.16200 30.10800
C  48.47500 17.86100 25.38800
C  44.29800 15.48700 26.44000
N  46.92700 17.82800 30.45700
C  46.09800 17.51400 31.49200
C  46.60200 17.99800 32.85300
C  47.82100 18.93000 32.43800
C  47.90100 18.63800 30.91300
C  47.67400 20.47000 32.71500
C  46.93900 16.78900 33.74400
C  46.26400 16.64500 35.07300
H  46.02900 18.02700 35.81400
N  48.55000 18.27900 27.78600
C  49.24800 19.06300 28.70900
C  50.30400 19.77500 27.92400
C  50.15600 19.41200 26.59300
C  49.11300 18.42700 26.54600
C  51.18200 20.74600 28.56300
C  50.85700 19.87300 25.28800
O  50.65500 19.39400 24.20300
C  51.93600 21.01900 25.32200
N  46.59400 16.56300 26.25300
C  47.36400 17.01700 25.25000
C  46.76500 16.72900 23.83600
C  45.36600 16.14400 24.21400
C  45.44100 15.93900 25.72900
C  46.60200 18.04900 22.99500
C  45.00400 14.86800 23.48300
C  44.85400 14.93100 22.00100
N  45.00200 16.37600 28.65000
C  44.10400 15.63600 27.85600
C  42.94900 15.26200 28.62300
C  43.25700 15.61900 29.94800
C  44.46600 16.33300 29.95600
C  41.78200 14.46600 28.02500
C  42.77700 15.47900 31.29800
O  41.77300 14.90500 31.78800
C  43.78300 16.32600 32.17200
C  43.08000 17.47900 32.71500
O  43.13200 18.63100 32.30100
O  42.60700 17.09400 33.96300
C  42.14600 18.17000 34.86500
H  49.63200 19.64200 30.79300
H  48.76300 18.19100 24.38800
H  43.43100 15.14400 25.87200
H  45.79900 18.63300 33.22700
H  48.72700 18.67900 32.98900
H  46.60500 20.66400 32.79300
H  48.16700 21.14800 32.01800
H  48.25000 20.72000 33.60600
H  48.01200 16.71500 33.92200
H  46.66700 15.84600 33.27000
H  46.83900 16.02800 35.76400
H  45.31100 16.12500 34.97100
H  50.83800 21.19300 29.49500
H  51.25800 21.59400 27.88300
H  52.13600 20.25200 28.75100
H  51.63500 21.97100 25.75900
H  52.14700 21.38800 24.31900
H  52.83400 20.69600 25.85000
H  47.27700 15.86500 23.41500
H  44.61800 16.93300 24.13900
H  47.08500 17.88400 22.03100
H  47.00200 18.86900 23.59200
H  45.56700 18.32100 22.78800
H  44.00800 14.58600 23.82300
H  45.71600 14.06900 23.69000
H  45.77800 14.51800 21.59500
H  44.81500 15.97900 21.70500
H  43.90400 14.55100 21.62500
H  41.99500 13.40100 28.11200
H  41.67200 14.69500 26.96500
H  40.85800 14.66700 28.56700
H  44.12100 15.62200 32.93300
H  41.14900 18.50600 34.58000
H  42.77600 19.05800 34.82500
H  42.07100 17.74000 35.86400
Mg -11.91800 16.52700 42.58700
C  -8.58300 15.26400 42.06100
C  -10.94800 19.34900 40.89600
C  -15.05300 17.56100 42.90500
C  -12.70600 13.44800 43.89100
N  -9.99200 17.19500 41.48500
C  -8.75500 16.55100 41.42800
C  -7.76800 17.44800 40.56900
C  -8.67300 18.68700 40.20800
C  -9.91500 18.42900 41.03700
C  -7.96400 20.07600 40.33100
C  -7.25000 16.63300 39.33300
C  -5.74200 16.47700 39.20100
H  -5.08500 17.10000 37.96900
N  -12.91900 18.21100 41.87500
C  -12.36200 19.30300 41.29000
C  -13.31900 20.33700 41.15000
C  -14.47700 19.94000 41.83300
C  -14.24100 18.51900 42.15000
C  -12.99300 21.67100 40.51000
C  -15.73600 20.77000 42.02600
O  -15.86400 21.92400 41.54700
C  -16.88200 20.24400 42.75300
N  -13.68800 15.53400 43.02200
C  -14.80400 16.26800 43.31100
C  -15.77200 15.44400 44.14900
C  -15.01100 14.09400 44.42100
C  -13.68600 14.34300 43.69500
C  -16.36100 16.12300 45.41600
C  -15.76600 12.74300 43.89000
C  -15.61200 11.56800 44.87500
N  -10.88000 14.76800 43.05800
C  -11.33600 13.57400 43.60500
C  -10.25600 12.67500 43.93100
C  -9.10100 13.27200 43.28900
C  -9.58800 14.52400 42.74900
C  -10.40300 11.35600 44.56000
C  -7.65400 13.15700 42.92500
O  -6.82800 12.26700 43.17400
C  -7.25600 14.43600 42.11700
C  -6.18400 15.07000 42.89100
O  -6.31300 15.40800 44.02000
O  -4.94600 14.96800 42.27800
C  -3.67600 15.17200 43.02400
H  -10.77700 20.34900 40.49200
H  -16.09400 17.87800 42.99500
H  -13.07700 12.51000 44.30900
H  -6.96400 17.77000 41.23200
H  -8.90800 18.49900 39.16100
H  -8.24300 20.56300 41.26500
H  -8.23800 20.68600 39.47100
H  -6.88500 19.92000 40.31500
H  -7.72200 16.89500 38.38600
H  -7.58100 15.60400 39.46800
H  -5.44800 15.42800 39.18400
H  -5.31100 16.95100 40.08300
H  -13.82500 22.37300 40.56000
H  -12.80600 21.63000 39.43700
H  -12.13000 22.18500 40.93100
H  -17.64200 20.99500 42.97200
H  -16.61300 19.89100 43.74800
H  -17.32800 19.44000 42.16700
H  -16.56500 15.16500 43.45500
H  -14.86000 14.05700 45.49900
H  -16.13200 17.18200 45.29800
H  -16.03400 15.64900 46.34200
H  -17.44600 16.07600 45.50400
H  -15.21400 12.45400 42.99500
H  -16.81600 12.91800 43.65900
H  -16.53400 11.05600 45.15200
H  -15.27700 11.94200 45.84200
H  -15.01800 10.69300 44.61100
H  -10.36600 11.61100 45.61900
H  -9.61000 10.63500 44.36400
H  -11.36800 10.91400 44.31200
H  -6.97400 14.15600 41.10200
H  -2.90600 14.41300 42.88500
H  -3.93000 14.99400 44.06900
H  -3.23600 16.16800 42.97200

