158

Mg 46.84700 16.86300 28.04800
C  45.10100 16.20400 31.10500
C  49.10300 18.58200 30.02700
C  48.34300 17.90200 25.28000
C  44.16800 15.69200 26.34900
N  46.98600 17.33900 30.32800
C  46.27800 16.83700 31.42200
C  46.85400 17.38400 32.82200
C  48.00200 18.32700 32.31800
C  48.07300 18.03200 30.81000
C  48.01500 19.82700 32.82900
C  47.24500 16.15600 33.65600
C  46.55300 16.06100 35.06300
H  46.73300 17.21300 36.05900
N  48.49400 17.97200 27.69500
C  49.32100 18.51200 28.62400
C  50.50500 19.04200 27.96700
C  50.39300 18.87600 26.57600
C  49.06100 18.22600 26.43600
C  51.72200 19.51600 28.73900
C  51.30300 19.24200 25.44500
O  51.09900 19.09500 24.23100
C  52.53800 20.02200 25.73000
N  46.45000 16.68000 26.11400
C  47.09900 17.33300 25.11600
C  46.29700 17.20100 23.79200
C  45.10300 16.24600 24.07700
C  45.22500 16.22100 25.61200
C  45.96100 18.60500 23.24700
C  45.35000 14.82400 23.49300
C  44.59200 14.54600 22.23200
N  45.09000 15.94700 28.50600
C  44.09300 15.59300 27.72300
C  42.92800 15.15900 28.50400
C  43.30200 15.34800 29.87400
C  44.63300 15.82800 29.79800
C  41.65200 14.62000 27.89300
C  42.87300 15.22700 31.22300
O  41.82500 14.80900 31.64400
C  44.04700 15.82600 32.10300
C  43.50600 17.00500 32.81400
O  43.15300 18.00900 32.18200
O  43.24600 16.72200 34.13500
C  42.82100 17.91700 34.88400
H  49.83500 19.08300 30.66400
H  48.80300 18.11900 24.31300
H  43.35400 15.25500 25.76700
H  46.08200 17.98400 33.30400
H  48.85500 17.78600 32.72900
H  48.52700 20.14200 33.73800
H  46.96400 20.00400 33.05800
H  48.12200 20.46300 31.95000
H  48.29600 16.12000 33.94300
H  46.97300 15.23100 33.14800
H  47.00500 15.18700 35.53200
H  45.48200 15.86100 35.09400
H  52.59400 18.88600 28.56600
H  51.62000 19.51700 29.82400
H  51.92500 20.53800 28.41900
H  53.17100 19.64200 26.53200
H  52.34300 21.01600 26.13200
H  53.21300 20.18600 24.88900
H  46.97500 16.84000 23.01900
H  44.13000 16.66300 23.81700
H  46.49100 19.32000 23.87700
H  44.88600 18.78200 23.20700
H  46.30300 18.70300 22.21700
H  44.99200 14.07700 24.20200
H  46.43400 14.72500 23.42900
H  44.06000 13.61400 22.42400
H  45.24300 14.39300 21.37100
H  43.94800 15.36600 21.91500
H  40.95100 14.48700 28.71700
H  41.90600 13.65500 27.45500
H  41.25100 15.38100 27.22400
H  44.34400 15.12300 32.88100
H  41.89200 18.31100 34.47200
H  43.55700 18.71400 34.77600
H  42.55100 17.76700 35.93000
Mg -13.02500 16.56300 41.26700
C  -10.22700 14.45800 40.75300
C  -11.13200 19.10900 40.03400
C  -15.82200 18.21500 41.12500
C  -14.92600 13.59800 42.00500
N  -10.82000 16.74800 40.40600
C  -9.88700 15.77500 40.38400
C  -8.56900 16.27400 39.81400
C  -8.88800 17.83800 39.58600
C  -10.33900 17.93200 40.05100
C  -8.00300 18.92300 40.38200
C  -8.18600 15.52800 38.56900
C  -6.72300 15.13100 38.45900
H  -6.02900 15.59300 37.16100
N  -13.39600 18.46200 40.71300
C  -12.52900 19.41400 40.31100
C  -13.19200 20.71700 40.29000
C  -14.55800 20.43300 40.35200
C  -14.70800 18.92900 40.69700
C  -12.41600 22.01500 40.14100
C  -15.54200 21.50100 40.25900
O  -15.25200 22.69700 40.19300
C  -16.98300 21.16100 39.96500
N  -15.14000 15.93200 41.40700
C  -16.06700 16.88400 41.44600
C  -17.47000 16.25600 41.60400
C  -17.17500 14.84900 42.01200
C  -15.72300 14.80500 41.82800
C  -18.38500 16.94500 42.60900
C  -17.94300 13.72000 41.20900
C  -19.07900 13.08500 41.96800
N  -12.66000 14.53000 41.51800
C  -13.52200 13.46400 41.80400
C  -12.73700 12.22700 42.06700
C  -11.47900 12.53700 41.55600
C  -11.48400 13.93400 41.25400
C  -13.20600 10.86000 42.51300
C  -10.14000 12.03400 41.25100
O  -9.67200 10.92100 41.31100
C  -9.27300 13.31000 40.78700
C  -8.12300 13.55700 41.65100
O  -8.10400 14.26100 42.63800
O  -6.97600 12.92200 41.15300
C  -5.73100 13.09800 41.88500
H  -10.48900 19.96800 39.83200
H  -16.76800 18.74900 41.00800
H  -15.41700 12.67300 42.31600
H  -7.84800 16.24100 40.63000
H  -8.83100 18.09700 38.52900
H  -7.35500 18.45500 41.12400
H  -8.63600 19.50100 41.05600
H  -7.43600 19.52700 39.67400
H  -8.41300 16.10700 37.67400
H  -8.76800 14.63600 38.33900
H  -6.58400 14.05200 38.53400
H  -6.21000 15.52200 39.33800
H  -12.21200 22.48400 41.10300
H  -12.80500 22.70800 39.39400
H  -11.42700 21.75600 39.76500
H  -17.43400 20.80000 40.88900
H  -17.08600 20.41900 39.17300
H  -17.31300 22.13200 39.59700
H  -17.88300 16.32800 40.59800
H  -17.40200 14.77500 43.07600
H  -19.20500 17.49700 42.15100
H  -17.77400 17.67100 43.14500
H  -18.85700 16.42600 43.44400
H  -17.21200 12.92000 41.09000
H  -18.16000 14.05400 40.19400
H  -19.27700 13.66300 42.87100
H  -18.76400 12.07100 42.21500
H  -19.97200 13.07700 41.34400
H  -12.69400 10.27200 41.75100
H  -14.27400 10.64500 42.47400
H  -12.82000 10.56700 43.48900
H  -8.79400 13.12700 39.82500
H  -5.05200 12.66000 41.15300
H  -5.70600 12.39800 42.72000
H  -5.48300 14.13300 42.12000

