158

Mg 36.43500 49.38600 25.24600
C  36.69500 47.61000 28.12700
C  35.34400 51.99500 26.99800
C  36.00300 51.02900 22.23600
C  37.68500 46.61100 23.43200
N  35.89700 49.64300 27.29500
C  36.29200 48.85200 28.32200
C  36.06200 49.43500 29.74500
C  35.28400 50.77300 29.28300
C  35.56300 50.85300 27.77700
C  33.79300 50.64200 29.69400
C  37.41400 49.77900 30.46900
C  37.47200 49.55700 31.97100
H  36.20200 49.67200 32.82100
N  35.56600 51.22300 24.71100
C  35.31800 52.20900 25.61200
C  34.81800 53.39300 24.87300
C  34.95600 53.03800 23.45600
C  35.49400 51.67000 23.41000
C  34.50200 54.70300 25.53300
C  34.59000 53.89200 22.17900
O  34.78600 53.54600 21.01500
C  33.92900 55.23800 22.37600
N  36.68700 48.86000 23.08400
C  36.44900 49.70800 22.07000
C  36.73700 49.07500 20.67300
C  37.67600 47.89100 21.17200
C  37.29600 47.74200 22.67100
C  35.42100 48.55300 20.03400
C  39.24500 47.99200 20.88300
C  39.74700 46.78400 20.09200
N  37.07300 47.53500 25.66000
C  37.46900 46.51800 24.80000
C  37.87900 45.41100 25.62200
C  37.62500 45.78700 26.95200
C  37.03900 47.06400 26.89200
C  38.48600 44.11800 25.17300
C  37.74000 45.48900 28.38300
O  38.28100 44.63300 29.04300
C  36.98100 46.63000 29.27200
C  35.71100 46.00100 29.88000
O  34.64500 45.90700 29.35200
O  36.08200 45.76800 31.16300
C  34.94500 45.30300 31.95400
H  35.03900 52.82900 27.63500
H  35.95600 51.55600 21.28100
H  38.15300 45.79700 22.87500
H  35.45300 48.76000 30.34600
H  35.58600 51.68400 29.79900
H  33.29800 50.65600 28.72300
H  33.54100 51.54800 30.24700
H  33.51400 49.72600 30.21600
H  37.55100 50.84700 30.30000
H  38.19100 49.26100 29.90600
H  38.09000 50.35100 32.39100
H  38.06800 48.68500 32.23800
H  34.99900 55.56500 25.09000
H  34.59000 54.66000 26.61800
H  33.41700 54.79400 25.48300
H  33.24100 55.31200 23.21800
H  33.32400 55.44600 21.49400
H  34.71900 55.95400 22.60100
H  37.34300 49.76900 20.09100
H  37.39800 46.89300 20.83400
H  35.69500 47.77000 19.32700
H  34.88200 49.43700 19.69400
H  34.83200 48.01800 20.77900
H  39.81200 47.98000 21.81400
H  39.55800 48.89200 20.35300
H  38.97300 46.10500 19.73500
H  40.55200 46.29900 20.64500
H  40.16200 47.13000 19.14500
H  39.30300 44.39700 24.50700
H  37.78100 43.37400 24.80400
H  38.93400 43.69900 26.07400
H  37.62700 46.98900 30.07300
H  33.94900 45.68800 31.73400
H  35.17600 45.81600 32.88800
H  34.96300 44.22800 32.12800
Mg 9.56100 48.07000 26.18000
C  7.74300 48.25100 29.23100
C  12.41600 49.04600 27.77900
C  11.16700 47.99400 23.19400
C  6.54500 47.57800 24.54400
N  10.00900 48.61300 28.28700
C  9.15400 48.50600 29.32500
C  9.95400 48.86700 30.67300
C  11.23000 49.56300 30.14200
C  11.24300 49.06900 28.67200
C  11.27600 51.10700 30.11300
C  10.22000 47.63600 31.57700
C  10.03500 47.95400 33.10000
H  10.14200 46.76600 34.08300
N  11.54200 48.37300 25.64800
C  12.61500 48.74800 26.39700
C  13.77500 48.72700 25.60400
C  13.44300 48.37000 24.26300
C  11.93800 48.19800 24.33800
C  15.18600 48.99300 26.18700
C  14.36400 48.16100 23.01900
O  13.96100 47.87700 21.88500
C  15.80000 48.37200 23.18500
N  8.92800 48.05400 24.13400
C  9.76800 48.05800 23.05500
C  9.08400 47.77200 21.67400
C  7.68800 47.25500 22.21600
C  7.69500 47.59400 23.77800
C  8.89400 49.06200 20.80700
C  7.36800 45.77400 21.93000
C  6.51100 45.35400 20.72200
N  7.53600 47.85200 26.73000
C  6.42400 47.73200 25.90900
C  5.29500 47.45700 26.77100
C  5.74400 47.85200 28.05000
C  7.12400 47.95600 27.99900
C  3.98600 46.90400 26.39500
C  5.33900 47.95000 29.43300
O  4.24400 47.94700 29.97900
C  6.65700 48.11000 30.29500
C  6.77800 46.78900 30.96100
O  6.91500 45.69700 30.36000
O  6.57600 46.89300 32.30500
C  6.38000 45.60000 32.97600
H  13.27400 49.49800 28.28200
H  11.65300 47.75600 22.24500
H  5.63400 47.17400 24.09800
H  9.53000 49.66300 31.28500
H  12.14100 49.09200 30.51100
H  12.04600 51.57300 30.72900
H  10.34300 51.56200 30.44400
H  11.51800 51.37400 29.08400
H  11.23900 47.27400 31.43800
H  9.42100 46.91200 31.41800
H  8.98400 48.24300 33.13500
H  10.68400 48.73700 33.49200
H  15.09900 49.15900 27.26100
H  15.80800 49.77800 25.75700
H  15.81100 48.11600 26.02200
H  16.06200 49.25200 23.77400
H  16.22500 48.51200 22.19100
H  16.12300 47.48600 23.73300
H  9.54300 46.95700 21.11500
H  6.93600 47.89400 21.75200
H  9.70900 49.02000 20.08500
H  9.02700 49.84000 21.55900
H  7.92000 49.20800 20.33900
H  7.00300 45.43200 22.89800
H  8.30900 45.26500 21.71900
H  6.21100 46.28400 20.23800
H  5.64400 44.72600 20.92600
H  7.14800 44.88800 19.97100
H  3.93000 46.40100 25.43000
H  3.19500 47.65300 26.36800
H  3.74800 46.15300 27.14800
H  6.61000 48.91400 31.03000
H  6.12000 45.91100 33.98800
H  7.26300 44.96200 32.95800
H  5.46900 45.16100 32.56900

