158

Mg 46.95500 24.84500 28.00800
C  47.75900 26.93300 30.71000
C  46.17800 22.27400 30.34600
C  47.09000 22.52300 25.58800
C  48.19900 27.20700 25.86600
N  46.89100 24.63800 30.21500
C  47.23500 25.62300 31.11600
C  46.96200 25.15100 32.62400
C  46.70300 23.60300 32.39100
C  46.60200 23.48400 30.85600
C  47.86400 22.66100 32.92200
C  45.78800 25.95800 33.39100
C  46.27100 26.68000 34.67800
H  45.28100 27.00400 35.76600
N  46.51700 22.75800 27.93600
C  46.15000 21.91700 28.97800
C  45.91200 20.52500 28.44300
C  46.27500 20.54800 27.08600
C  46.61800 21.98500 26.78000
C  45.40900 19.35300 29.31800
C  46.45000 19.42800 26.03500
O  46.93700 19.57700 24.92300
C  46.12000 18.00900 26.52500
N  47.39500 24.84900 26.00200
C  47.44700 23.80700 25.19200
C  47.97100 24.24100 23.79700
C  47.84300 25.83100 23.91400
C  47.81200 25.99300 25.35400
C  49.43000 23.66600 23.60500
C  46.50800 26.34600 23.32600
C  46.72600 27.35600 22.09700
N  47.73300 26.76300 28.18000
C  48.28100 27.60500 27.24900
C  48.64500 28.88500 27.80600
C  48.40900 28.64900 29.21700
C  47.97900 27.34400 29.37900
C  49.17000 29.95600 27.05000
C  48.46400 29.24000 30.48300
O  48.79900 30.34700 30.84700
C  48.13100 28.10300 31.53000
C  49.28300 27.76800 32.37700
O  50.33800 27.21800 31.97900
O  49.07500 28.27500 33.59300
C  50.03700 27.88800 34.67300
H  45.87600 21.42900 30.96700
H  47.24800 21.89900 24.70600
H  48.61600 27.94600 25.18000
H  47.89200 25.18500 33.19100
H  45.73200 23.28400 32.76900
H  47.44000 21.83700 33.49600
H  48.62600 23.15500 33.52600
H  48.26900 22.15700 32.04400
H  45.05800 25.22400 33.73200
H  45.35000 26.65600 32.67800
H  46.85300 27.49800 34.25300
H  47.11200 26.07500 35.01700
H  44.67500 18.82700 28.70800
H  45.10200 19.72400 30.29600
H  46.24800 18.69300 29.53700
H  46.63200 17.77700 27.45900
H  46.60000 17.36900 25.78500
H  45.05300 17.83300 26.66600
H  47.32500 23.76400 23.06000
H  48.69000 26.28200 23.39600
H  49.92700 23.52200 24.56400
H  50.12300 24.30700 23.06000
H  49.39700 22.67200 23.16000
H  45.89200 26.90500 24.03100
H  45.84200 25.52200 23.07000
H  47.77000 27.65500 22.00300
H  46.15400 28.21700 22.44200
H  46.28500 26.90800 21.20700
H  48.71300 29.98500 26.06100
H  50.25500 29.90300 26.96200
H  48.98500 30.85300 27.64100
H  47.30100 28.61100 32.02100
H  50.40700 28.75000 35.22900
H  50.84500 27.34800 34.17800
H  49.57100 27.16600 35.34400
Mg 29.74900 58.17300 38.51200
C  26.75500 56.46200 37.95900
C  31.50300 55.40000 37.40000
C  32.48100 60.15800 38.25800
C  27.77300 61.08900 39.09800
N  29.17400 56.19400 37.56800
C  27.87500 55.65800 37.62900
C  27.98600 54.15700 37.11000
C  29.48200 53.82000 37.35600
C  30.10000 55.21100 37.42000
C  29.93300 52.90000 38.48600
C  27.60200 54.24700 35.59300
C  26.12300 53.74600 35.28400
H  25.47000 54.37200 34.08300
N  31.73900 57.78100 38.00600
C  32.27800 56.59900 37.63800
C  33.76100 56.75400 37.47100
C  34.10500 58.09400 37.59800
C  32.75700 58.77500 37.96800
C  34.54400 55.52700 37.22400
C  35.51800 58.66700 37.46400
O  36.55000 58.04800 37.09500
C  35.81000 60.04200 37.91800
N  30.06900 60.40300 38.47400
C  31.30100 60.86800 38.65700
C  31.33100 62.40500 38.89700
C  29.86000 62.65900 39.31800
C  29.16900 61.30200 38.95100
C  32.48700 62.91000 39.80800
C  29.16100 63.96600 38.72100
C  28.40900 64.81700 39.77400
N  27.70400 58.73300 38.47300
C  27.04000 59.91800 38.74900
C  25.61600 59.74400 38.64000
C  25.44000 58.38300 38.39100
C  26.75700 57.79400 38.26900
C  24.54200 60.86400 38.68400
C  24.45800 57.36100 38.19500
O  23.22600 57.38900 38.21500
C  25.27500 56.05200 37.95200
C  24.93800 54.96800 38.91200
O  25.63900 54.55700 39.87500
O  23.76800 54.33000 38.45000
C  23.50500 53.09400 39.21900
H  32.06900 54.52100 37.08500
H  33.33000 60.84200 38.19600
H  27.10200 61.86700 39.46800
H  27.33100 53.37900 37.50200
H  29.98800 53.36100 36.50700
H  29.31700 53.11300 39.36000
H  31.01300 52.90600 38.63100
H  29.62800 51.86500 38.33300
H  28.35000 53.65900 35.06000
H  27.64000 55.28700 35.26700
H  25.51400 53.95900 36.16200
H  26.25900 52.67600 35.12000
H  34.38000 55.17900 36.20500
H  34.13500 54.69800 37.80300
H  35.61200 55.56900 37.44100
H  36.89200 60.14600 37.99600
H  35.35100 60.24500 38.88500
H  35.50400 60.82100 37.21900
H  31.46900 62.94000 37.95700
H  29.81300 62.75600 40.40300
H  32.15400 63.23100 40.79500
H  32.91200 63.80100 39.34500
H  33.25200 62.15600 39.99700
H  28.43400 63.55600 38.02000
H  29.82500 64.68100 38.23600
H  28.81100 64.60300 40.76500
H  27.33000 64.67000 39.81100
H  28.63900 65.84100 39.48000
H  24.34300 61.21500 39.69600
H  23.59800 60.45300 38.32600
H  24.85200 61.67900 38.03000
H  24.87600 55.72400 36.99200
H  22.73000 52.49500 38.74200
H  23.22400 53.41400 40.22300
H  24.43400 52.52800 39.28800

