158

Mg -1.54800 17.31300 26.54000
C  -1.85100 15.22500 29.41900
C  -1.97600 20.02900 28.48300
C  -1.37400 19.09300 23.78000
C  -1.57000 14.39800 24.56400
N  -1.68100 17.56000 28.62300
C  -1.82900 16.63100 29.66200
C  -1.85600 17.20000 31.04000
C  -2.28800 18.73500 30.74500
C  -1.96000 18.81900 29.20000
C  -3.76900 19.11000 31.31500
C  -0.47300 17.00100 31.62900
C  -0.32700 17.60500 33.01000
H  -0.40400 16.61200 34.19400
N  -1.58700 19.27600 26.17200
C  -1.78700 20.22600 27.07500
C  -1.81300 21.54900 26.35400
C  -1.40600 21.27600 25.00300
C  -1.35000 19.82300 24.95100
C  -2.10000 22.90100 26.93200
C  -1.11500 22.22500 23.82200
O  -0.95200 21.83000 22.70600
C  -0.94400 23.65800 24.14300
N  -1.53400 16.81000 24.43800
C  -1.42800 17.73700 23.48600
C  -1.64300 17.24200 22.08600
C  -1.34800 15.72700 22.41700
C  -1.52900 15.63300 23.90400
C  -3.02200 17.63200 21.43100
C  -0.04300 15.08200 21.96300
C  -0.27300 13.80800 21.05900
N  -1.80400 15.24700 26.83200
C  -1.73800 14.19500 25.94400
C  -1.93500 12.95200 26.64500
C  -1.97600 13.30000 27.99400
C  -1.91000 14.69800 28.04100
C  -1.88400 11.59700 26.07900
C  -2.09700 12.73700 29.35300
O  -2.17200 11.59200 29.73600
C  -2.08700 14.03100 30.29700
C  -1.04300 13.68100 31.32000
O  0.16100 13.52100 31.07100
O  -1.72100 13.49400 32.56400
C  -0.85900 13.08600 33.64800
H  -2.11000 20.91300 29.11000
H  -1.33300 19.56600 22.79600
H  -1.57800 13.58200 23.83800
H  -2.52700 16.67000 31.71600
H  -1.48900 19.27500 31.25300
H  -3.79800 19.73400 32.20900
H  -4.25700 18.15700 31.51800
H  -4.27700 19.63800 30.50800
H  0.20300 17.62900 31.05000
H  -0.08500 15.98300 31.65700
H  -1.21000 18.21800 33.19500
H  0.56300 18.18000 33.26400
H  -2.30100 22.87900 28.00300
H  -2.90200 23.46300 26.45400
H  -1.16600 23.46200 26.92300
H  -0.19400 23.63000 24.93400
H  -1.91800 24.08900 24.37200
H  -0.52500 24.16400 23.27300
H  -0.81400 17.74900 21.59200
H  -2.11900 15.13200 21.92800
H  -2.88600 18.57700 20.90500
H  -3.76000 17.83000 22.20800
H  -3.41600 16.91500 20.71000
H  0.56200 14.81800 22.83100
H  0.53000 15.81300 21.39300
H  0.40300 13.83000 20.20300
H  -1.26400 13.55000 20.68700
H  0.13200 13.03400 21.71100
H  -0.89600 11.14800 26.17500
H  -2.17100 11.65500 25.02900
H  -2.57900 10.98400 26.65300
H  -3.06200 14.12800 30.77300
H  -1.50500 12.97000 34.51800
H  -0.01400 13.74300 33.85000
H  -0.28600 12.19500 33.39300
Mg 35.27100 0.92000 29.19000
C  33.35600 1.99900 31.93300
C  38.04200 1.08900 31.38700
C  37.25300 0.76800 26.55200
C  32.44700 1.22100 27.17300
N  35.65300 1.50900 31.41300
C  34.65900 1.80300 32.26500
C  35.28300 1.79500 33.64100
C  36.83300 1.69400 33.48000
C  36.79600 1.24000 32.00800
C  37.58800 3.00000 33.76600
C  34.60200 0.67100 34.48200
C  33.98800 1.01200 35.85000
H  34.64300 2.17200 36.64500
N  37.41600 0.87400 28.96500
C  38.35600 0.92600 29.98900
C  39.71300 0.85300 29.43500
C  39.44100 0.77300 27.99000
C  38.00600 0.84900 27.73500
C  41.04800 0.88000 30.23400
C  40.51800 0.42700 26.96900
O  40.21200 0.07500 25.83900
C  41.96800 0.39300 27.32700
N  34.88300 0.63000 27.22500
C  35.85700 0.69300 26.23800
C  35.26700 0.52900 24.83600
C  33.75500 0.54000 25.07400
C  33.66200 0.76200 26.60500
C  35.78200 1.48600 23.71000
C  32.90300 -0.76300 24.63300
C  32.82000 -0.99100 23.12600
N  33.31300 1.48400 29.41400
C  32.25500 1.55800 28.50300
C  31.05700 1.88000 29.17900
C  31.40600 2.05100 30.53500
C  32.80100 1.85200 30.65100
C  29.72300 2.08800 28.52100
C  30.87000 2.43100 31.82400
O  29.74700 2.69400 32.14800
C  32.12200 2.36100 32.76700
C  32.25600 3.64600 33.51900
O  33.09000 4.53900 33.30300
O  31.33500 3.56700 34.58100
C  31.50900 4.67900 35.53200
H  38.92600 0.98200 32.02000
H  37.87700 0.76300 25.65600
H  31.67500 1.57500 26.48700
H  34.95400 2.71800 34.11700
H  37.24700 0.89800 34.10000
H  36.99200 3.87500 34.02500
H  38.22300 3.28700 32.92700
H  38.33400 2.87300 34.55000
H  35.25300 -0.19200 34.62600
H  33.78600 0.26600 33.88400
H  34.13200 0.16600 36.52200
H  32.90900 1.09200 35.72400
H  41.25100 -0.17100 30.43700
H  40.99300 1.41700 31.18100
H  41.82300 1.37300 29.64700
H  42.34800 1.32400 27.74800
H  42.44300 0.09500 26.39200
H  42.06000 -0.49300 27.95600
H  35.53300 -0.47200 24.49700
H  33.30400 1.35300 24.50400
H  36.11100 2.43600 24.13200
H  34.99500 1.67900 22.98100
H  36.60500 0.94100 23.24700
H  31.86200 -0.57600 24.89700
H  33.27300 -1.70100 25.04700
H  33.07700 -2.00700 22.82500
H  33.48000 -0.27500 22.63600
H  31.78200 -0.78600 22.86600
H  29.77200 1.34700 27.72300
H  29.51200 3.01900 27.99600
H  28.98300 1.66400 29.20000
H  31.81000 1.61500 33.49800
H  31.40100 4.32200 36.55600
H  30.82000 5.52000 35.44700
H  32.50900 5.11300 35.50900

