158

Mg 49.32100 47.02500 42.53400
C  46.05500 47.61000 41.24800
C  49.24300 43.95900 40.71300
C  52.61900 46.62000 43.00300
C  49.41000 50.32200 43.54600
N  47.81400 45.96500 41.08800
C  46.56000 46.37600 40.75100
C  45.75100 45.34600 39.89200
C  46.80800 44.15700 39.93200
C  48.03800 44.66600 40.68800
C  46.29500 42.66800 40.18600
C  45.34400 45.81200 38.42400
C  44.20900 45.02500 37.72300
H  44.48600 43.88400 36.77200
N  50.70800 45.38200 42.12200
C  50.49800 44.28700 41.29300
C  51.75700 43.55700 41.10100
C  52.76100 44.35200 41.71100
C  52.04100 45.51500 42.32400
C  51.85400 42.28800 40.34300
C  54.31300 44.02300 41.72100
O  54.68300 42.89000 41.28700
C  55.36400 44.97300 42.35100
N  50.87200 48.29000 43.15100
C  52.08600 47.84500 43.49700
C  52.93600 49.08200 44.01800
C  51.87700 50.18000 44.19800
C  50.57800 49.54200 43.61700
C  53.83300 48.91900 45.29600
C  52.23100 51.47100 43.50100
C  52.12500 52.62000 44.48600
N  48.03400 48.62000 42.52700
C  48.14400 49.80200 43.12800
C  46.94900 50.59000 43.00100
C  46.06600 49.72600 42.32900
C  46.78000 48.57800 41.96400
C  46.85700 52.03000 43.32700
C  44.78800 49.56200 41.76800
O  43.86500 50.36200 41.94900
C  44.69300 48.29800 40.89900
C  43.57000 47.57200 41.40300
O  43.27600 47.42200 42.55500
O  43.01500 46.97600 40.31200
C  41.91300 46.03800 40.51200
H  49.14600 43.07000 40.08600
H  53.68900 46.65500 43.22100
H  49.46800 51.28800 44.05200
H  44.83200 45.07400 40.41200
H  47.12500 44.09900 38.89000
H  46.74100 42.26300 41.09400
H  46.59200 42.03000 39.35400
H  45.22300 42.82100 40.31500
H  46.26200 45.75500 37.83900
H  45.02500 46.85300 38.46900
H  43.54800 45.82400 37.38900
H  43.58100 44.68100 38.54500
H  51.97800 41.44400 41.02200
H  52.74800 42.33600 39.72200
H  51.04500 42.05700 39.65000
H  56.37900 44.57800 42.31900
H  55.03600 44.88200 43.38600
H  55.26300 45.99300 41.98200
H  53.51900 49.29500 43.12300
H  51.64700 50.40500 45.24000
H  54.02600 47.84700 45.28400
H  53.40800 49.30200 46.22400
H  54.81500 49.38500 45.20500
H  51.57600 51.63500 42.64500
H  53.23700 51.50400 43.08300
H  53.13600 52.88900 44.79200
H  51.43900 52.36600 45.29400
H  51.69900 53.48000 43.96900
H  47.13100 52.33500 44.33700
H  45.79900 52.29400 43.31400
H  47.30800 52.70700 42.60200
H  44.65100 48.53700 39.83600
H  41.91700 45.69900 41.54800
H  41.94200 45.16400 39.86200
H  40.99400 46.58800 40.31300
Mg -11.22500 37.86400 42.43000
C  -9.01200 35.30400 41.43800
C  -9.29100 40.18500 40.66700
C  -13.57300 40.13100 42.87800
C  -13.27100 35.38600 43.69300
N  -9.30500 37.77300 41.19400
C  -8.70700 36.56200 40.79100
C  -7.55600 36.75800 39.78400
C  -7.50900 38.35900 39.75300
C  -8.75600 38.79000 40.61000
C  -6.21000 39.07200 40.34600
C  -7.85000 36.02700 38.45600
C  -6.69900 35.31400 37.85900
H  -5.74000 36.10700 36.87400
N  -11.30500 39.95500 41.98200
C  -10.45700 40.69500 41.24900
C  -10.96000 42.05400 41.15700
C  -12.20400 42.07500 41.76200
C  -12.48000 40.68500 42.21500
C  -10.16500 43.21700 40.60600
C  -13.09500 43.33200 41.96900
O  -12.63000 44.34400 41.47400
C  -14.41700 43.29200 42.74600
N  -13.40600 37.74300 42.82200
C  -13.92100 38.84800 43.26100
C  -15.16100 38.51900 44.11000
C  -15.10400 37.04600 44.35500
C  -13.89400 36.65700 43.53800
C  -15.26500 39.43900 45.38300
C  -16.36800 36.17300 44.08200
C  -17.08700 35.59800 45.36400
N  -11.24600 35.75000 42.52800
C  -12.11200 34.89300 43.18100
C  -11.62000 33.57800 43.15600
C  -10.37800 33.63900 42.52500
C  -10.21100 35.01000 42.14600
C  -12.16700 32.43300 43.91500
C  -9.20800 32.93200 41.99100
O  -9.04200 31.71800 42.01400
C  -8.32300 33.95900 41.21200
C  -6.97200 33.89300 41.72700
O  -5.98600 33.23000 41.34100
O  -6.84300 34.88300 42.66900
C  -5.54800 35.02800 43.26300
H  -8.66400 40.83900 40.05700
H  -14.37400 40.79900 43.20200
H  -13.95500 34.70300 44.20200
H  -6.64800 36.37300 40.24900
H  -7.64900 38.70200 38.72700
H  -6.52500 39.88600 40.99900
H  -5.47200 39.38100 39.60700
H  -5.67800 38.39400 41.01300
H  -8.25700 36.79900 37.80300
H  -8.73600 35.40000 38.56200
H  -7.18800 34.50900 37.31200
H  -6.14700 34.80400 38.64800
H  -10.72400 43.72800 39.82200
H  -9.26500 42.84900 40.11500
H  -9.83200 43.94000 41.35000
H  -14.29800 42.77500 43.69800
H  -15.18800 42.97800 42.04200
H  -14.68100 44.32300 42.97800
H  -16.04700 38.72500 43.50900
H  -14.75000 36.91900 45.37800
H  -14.55500 40.26600 45.35400
H  -15.18100 38.78400 46.25100
H  -16.18600 40.01200 45.48900
H  -16.10900 35.34400 43.42300
H  -16.99900 36.89100 43.55900
H  -16.98200 36.22100 46.25300
H  -16.66300 34.59900 45.46700
H  -18.15800 35.48200 45.19600
H  -13.23500 32.63300 43.83300
H  -11.90900 32.52000 44.97000
H  -11.86200 31.44200 43.57900
H  -8.35200 33.59800 40.18400
H  -4.96500 35.71900 42.65300
H  -4.99400 34.09600 43.38000
H  -5.72400 35.47300 44.24200

