158

Mg -2.58900 35.13700 26.68000
C  -4.28600 33.44200 29.05600
C  -1.15300 37.26600 29.19900
C  -0.85600 36.68100 24.37200
C  -4.28300 33.31000 24.20800
N  -2.79100 35.36900 28.89400
C  -3.47400 34.45100 29.65100
C  -3.34800 34.78300 31.12600
C  -2.41000 36.03000 31.16100
C  -2.08400 36.28800 29.65500
C  -2.86400 37.37700 31.78100
C  -3.09000 33.63400 32.16300
C  -2.30200 34.01300 33.41700
H  -2.64700 33.26100 34.69300
N  -1.40900 36.94600 26.72300
C  -0.90700 37.58500 27.86300
C  -0.02500 38.68500 27.36200
C  -0.06700 38.59000 25.95500
C  -0.79100 37.35500 25.61500
C  0.65400 39.71600 28.28700
C  0.50800 39.61400 24.96000
O  0.44700 39.36600 23.73800
C  1.25800 40.74600 25.39300
N  -2.60200 35.05300 24.46600
C  -1.72600 35.74600 23.77200
C  -1.75500 35.25900 22.26900
C  -2.97500 34.25600 22.27000
C  -3.31200 34.19600 23.76300
C  -1.74400 36.35800 21.15000
C  -2.72200 32.81500 21.71800
C  -1.68800 31.92100 22.34400
N  -3.89400 33.61500 26.57500
C  -4.55200 32.99600 25.52900
C  -5.31400 31.90400 26.02300
C  -5.30800 32.05200 27.40100
C  -4.40500 33.13100 27.66800
C  -6.01900 30.92700 25.19600
C  -5.74500 31.50100 28.65600
O  -6.52300 30.54900 28.76600
C  -5.14500 32.39400 29.76800
C  -6.17500 33.03000 30.52900
O  -6.73700 34.04100 30.22200
O  -6.47300 32.22400 31.66900
C  -7.70200 32.54700 32.41200
H  -0.40600 37.70900 29.86200
H  -0.29400 37.13600 23.55300
H  -4.77400 32.68400 23.46000
H  -4.37600 35.11600 31.26800
H  -1.51500 35.66400 31.66400
H  -3.88500 37.60800 31.47700
H  -2.11100 38.14800 31.61800
H  -2.84800 37.16500 32.85000
H  -2.68900 32.77500 31.62400
H  -4.07100 33.51400 32.62200
H  -2.69800 35.01600 33.58100
H  -1.21800 33.93700 33.33700
H  0.49400 40.73400 27.93200
H  1.70600 39.43100 28.28200
H  0.26100 39.63500 29.30000
H  0.67600 41.51400 25.90300
H  1.75100 41.19300 24.53100
H  2.03100 40.36000 26.05700
H  -0.89600 34.63800 22.01200
H  -3.85500 34.57400 21.71100
H  -0.83100 36.34500 20.55300
H  -2.07200 37.34600 21.47200
H  -2.51800 36.05900 20.44300
H  -2.41300 33.00000 20.68900
H  -3.76300 32.49400 21.69300
H  -1.00000 31.66500 21.53800
H  -2.04900 30.95500 22.69500
H  -1.21400 32.40900 23.19600
H  -6.05100 29.98200 25.73800
H  -5.56100 30.82500 24.21200
H  -7.08400 31.13600 25.09100
H  -4.52100 31.83900 30.46800
H  -8.50200 32.36600 31.69400
H  -7.65400 33.53100 32.87800
H  -7.72200 31.81200 33.21700
Mg -13.02500 15.90700 41.93400
C  -9.83500 14.63800 41.39900
C  -12.19500 18.89900 40.46700
C  -16.25300 17.00100 42.21500
C  -14.07400 12.73200 42.70500
N  -11.24900 16.58600 40.81000
C  -10.05900 15.97200 40.90000
C  -9.00200 16.90900 40.26600
C  -9.69800 18.34500 40.12400
C  -11.14600 17.96800 40.51000
C  -9.13400 19.39700 41.10300
C  -8.42200 16.39300 38.88100
C  -6.87000 16.11300 38.82300
H  -5.98900 16.82000 37.73100
N  -14.10800 17.76700 41.43200
C  -13.55900 18.86800 40.89900
C  -14.50200 19.86000 40.69900
C  -15.70200 19.44400 41.33700
C  -15.40900 18.00700 41.66400
C  -14.30500 21.17600 40.13900
C  -17.01200 20.18300 41.38900
O  -17.15200 21.30300 40.81500
C  -18.15700 19.66500 42.18900
N  -14.87200 14.92800 42.20200
C  -16.06000 15.60400 42.41000
C  -17.16500 14.71500 43.01300
C  -16.51000 13.33000 42.84500
C  -15.04500 13.68900 42.56100
C  -17.68600 15.05900 44.52300
C  -17.13400 12.35900 41.72900
C  -17.44400 10.93800 42.24100
N  -12.08200 14.06300 42.26000
C  -12.67900 12.85300 42.58400
C  -11.61400 11.85400 42.78800
C  -10.47100 12.53100 42.28500
C  -10.83600 13.80500 41.90400
C  -11.83800 10.50900 43.34400
C  -9.03600 12.37000 41.98600
O  -8.24500 11.41900 42.12300
C  -8.60700 13.76700 41.41100
C  -7.49200 14.27800 42.38000
O  -7.56100 14.51000 43.55600
O  -6.30800 14.49200 41.70100
C  -5.17300 15.18900 42.42300
H  -11.80000 19.76500 39.93200
H  -17.19200 17.40600 42.59900
H  -14.48500 11.74500 42.92900
H  -8.21900 17.08400 41.00400
H  -9.69700 18.78300 39.12500
H  -8.80400 20.25800 40.52200
H  -8.37100 18.98400 41.76400
H  -9.85100 19.74300 41.84700
H  -8.71800 16.98300 38.01400
H  -8.92800 15.43500 38.76600
H  -6.67900 15.05200 38.66500
H  -6.48600 16.48100 39.77400
H  -15.06600 21.31900 39.37200
H  -13.35200 21.24800 39.61400
H  -14.40500 22.01000 40.83300
H  -18.64100 18.79500 41.74500
H  -18.88400 20.45200 42.38800
H  -17.79600 19.35200 43.16900
H  -18.00900 14.81700 42.33100
H  -16.58300 12.76800 43.77600
H  -18.28900 14.25300 44.94100
H  -18.34200 15.91700 44.38100
H  -16.75200 15.23900 45.05500
H  -16.36600 12.24600 40.96300
H  -18.09500 12.82400 41.51300
H  -18.47700 10.71400 41.97400
H  -17.40200 10.87200 43.32800
H  -16.74700 10.19600 41.85200
H  -12.77900 10.44600 43.89100
H  -10.98500 10.26200 43.97600
H  -11.86800 9.78000 42.53400
H  -8.21000 13.62500 40.40600
H  -5.06100 14.75400 43.41600
H  -5.22500 16.27800 42.42300
H  -4.26100 14.91200 41.89400

