158

Mg 41.68700 9.37700 29.75500
C  42.91600 10.64600 32.84800
C  39.38600 7.64500 31.47500
C  40.62900 8.15000 26.80000
C  44.18400 11.34900 28.11100
N  41.38800 9.09300 31.97000
C  41.89200 9.73800 33.03300
C  41.26200 9.21700 34.32800
C  40.17900 8.14000 33.83800
C  40.33000 8.27600 32.32100
C  40.34100 6.66400 34.34800
C  40.64000 10.33900 35.23600
C  40.98400 10.30800 36.78900
H  41.32100 11.60400 37.42900
N  40.23000 8.08300 29.25300
C  39.34400 7.47400 30.07000
C  38.37700 6.66700 29.34100
C  38.75900 6.79200 27.98900
C  39.90800 7.64300 27.94300
C  37.25800 5.80600 30.00100
C  38.09400 6.19200 26.77500
O  38.48600 6.33800 25.64800
C  36.84200 5.35800 26.89800
N  42.31300 9.73700 27.70400
C  41.77200 9.01900 26.70900
C  42.40500 9.50300 25.33000
C  43.27800 10.73200 25.73300
C  43.29800 10.53600 27.25100
C  43.05100 8.37400 24.52500
C  42.72900 12.16800 25.22200
C  41.30000 12.76800 25.62500
N  43.37600 10.53100 30.36900
C  44.29900 11.30000 29.53400
C  45.21500 12.01200 30.41900
C  44.64000 11.77800 31.72200
C  43.59500 10.83900 31.63200
C  46.37400 12.84100 29.91600
C  44.78600 12.09200 33.13100
O  45.59200 12.81100 33.68200
C  43.71700 11.38000 33.90500
C  44.44800 10.37100 34.83400
O  45.29100 9.57400 34.54700
O  44.01600 10.56400 36.27300
C  44.79300 9.67200 37.21600
H  38.68800 6.93800 31.92800
H  40.20100 7.92200 25.82200
H  44.93700 11.94200 27.58600
H  42.09200 8.73600 34.84700
H  39.20000 8.47500 34.18000
H  41.17400 6.66100 35.05100
H  40.51500 6.06500 33.45300
H  39.45100 6.24200 34.81400
H  39.55200 10.32800 35.17500
H  41.04600 11.29800 34.91300
H  41.65500 9.46600 36.96200
H  40.03100 9.95900 37.18600
H  37.28400 4.85900 29.46200
H  36.29200 6.27000 29.79900
H  37.38200 5.63700 31.07100
H  36.32200 5.13000 25.96800
H  36.19700 5.78300 27.66800
H  37.08200 4.38500 27.32600
H  41.58300 9.88200 24.72200
H  44.26800 10.48000 25.35100
H  42.94200 8.48800 23.44600
H  42.48900 7.51100 24.88300
H  44.09000 8.16100 24.77300
H  42.92200 12.32300 24.16000
H  43.36300 12.83200 25.80900
H  40.93200 12.22700 26.49700
H  40.61300 12.80800 24.78000
H  41.47000 13.81500 25.87800
H  45.96000 13.36300 29.05300
H  47.15500 12.10400 29.72900
H  46.61200 13.58800 30.67300
H  43.12500 12.14000 34.41500
H  45.84300 9.96000 37.25700
H  44.69900 8.62300 36.93600
H  44.37400 9.86700 38.20300
Mg -5.95400 24.68400 26.18300
C  -4.39300 26.10500 28.96000
C  -7.58200 22.52200 28.12500
C  -7.40100 23.50700 23.42900
C  -4.06600 26.83700 24.10200
N  -5.80600 24.24800 28.21500
C  -5.31800 25.05900 29.23100
C  -5.80700 24.67300 30.62800
C  -6.55800 23.32700 30.31900
C  -6.61700 23.29200 28.76500
C  -5.89400 22.01000 30.93300
C  -6.68000 25.81600 31.42200
C  -6.51700 25.89900 32.95400
H  -5.90900 24.63100 33.56300
N  -7.45100 23.30800 25.82600
C  -7.91600 22.47600 26.80000
C  -8.84400 21.57600 26.24200
C  -8.89300 21.93500 24.82000
C  -7.87700 22.91100 24.62500
C  -9.52400 20.43100 27.00600
C  -9.77500 21.35700 23.72900
O  -9.66100 21.72300 22.57900
C  -10.79200 20.32300 24.02000
N  -5.71300 24.99400 24.06200
C  -6.41300 24.36800 23.12900
C  -5.99900 24.64700 21.64500
C  -4.91600 25.73600 21.83200
C  -4.86800 25.89700 23.44300
C  -5.37000 23.44600 20.86700
C  -5.17200 27.07600 21.07600
C  -4.33500 27.22400 19.71100
N  -4.45700 26.13500 26.38900
C  -3.82500 26.96700 25.51400
C  -3.00400 27.97800 26.27400
C  -3.19300 27.63900 27.64700
C  -4.06000 26.53900 27.64900
C  -2.33300 29.31200 25.78800
C  -2.88700 28.00900 29.05900
O  -2.30500 28.96800 29.52600
C  -3.63700 27.02000 29.93200
C  -2.65700 26.27100 30.75000
O  -1.87500 25.39200 30.32900
O  -2.70600 26.65300 32.15100
C  -1.76300 25.93700 33.01700
H  -8.08400 21.87300 28.84500
H  -7.90400 23.17700 22.51700
H  -3.41500 27.43900 23.46500
H  -4.88900 24.46000 31.17700
H  -7.56200 23.36400 30.74000
H  -5.24900 21.51400 30.20700
H  -6.67300 21.34200 31.30000
H  -5.14800 22.27700 31.68200
H  -7.71900 25.52000 31.27900
H  -6.48000 26.77700 30.94800
H  -7.46000 26.12500 33.45300
H  -5.77700 26.68200 33.11700
H  -10.59300 20.62400 26.91400
H  -9.26800 20.30100 28.05800
H  -9.35200 19.56800 26.36300
H  -10.31600 19.47500 24.51200
H  -11.18200 19.95500 23.07100
H  -11.70400 20.66700 24.50900
H  -6.83500 24.99500 21.03700
H  -3.98600 25.36200 21.40400
H  -5.56100 22.51000 21.39000
H  -4.28800 23.43900 20.73600
H  -5.80800 23.47100 19.86900
H  -4.80900 27.77000 21.83400
H  -6.21000 27.30600 20.83300
H  -5.05600 27.55700 18.96500
H  -3.87600 26.26100 19.48600
H  -3.43600 27.83500 19.79300
H  -1.42700 29.19600 25.19400
H  -1.90000 29.89100 26.60400
H  -3.05400 29.92100 25.24200
H  -4.21600 27.65900 30.59800
H  -0.81700 25.75800 32.50600
H  -2.26500 25.02300 33.33600
H  -1.55200 26.57000 33.88000

