158

Mg 53.65800 24.82400 45.52700
C  51.17400 27.03500 44.41700
C  52.02800 22.20200 43.88200
C  56.54400 22.86400 45.78100
C  55.51600 27.62800 46.49800
N  51.80300 24.74600 44.18100
C  50.95800 25.72500 43.89800
C  49.79700 25.10200 43.03500
C  49.89100 23.57200 43.30800
C  51.32400 23.53600 43.84700
C  48.78400 22.95100 44.26500
C  49.70400 25.52800 41.53300
C  50.99300 25.52700 40.69200
H  52.17300 24.59700 41.03500
N  54.12900 22.77200 44.95900
C  53.27900 21.85200 44.35000
C  53.96000 20.54500 44.41800
C  55.27200 20.74300 44.99500
C  55.35500 22.19600 45.25600
C  53.31500 19.39600 43.70900
C  56.31700 19.66400 45.25000
O  56.10600 18.51500 44.91500
C  57.58500 19.83900 45.95400
N  55.73900 25.19500 45.92500
C  56.70000 24.24200 46.03400
C  58.02700 24.76300 46.59600
C  57.74300 26.32600 46.51700
C  56.20800 26.40500 46.33100
C  58.29100 24.22800 48.00900
C  58.55600 27.13600 45.48900
C  58.69700 28.64200 45.71100
N  53.36700 26.88800 45.60700
C  54.19400 27.85600 46.17400
C  53.41400 29.02100 46.32400
C  52.26700 28.82300 45.57400
C  52.32100 27.48700 45.07600
C  53.79500 30.23100 47.05200
C  51.04800 29.41900 45.11800
O  50.57400 30.55500 45.28000
C  50.29500 28.30500 44.29600
C  50.03500 28.72400 42.90400
O  50.88800 28.93800 42.03800
O  48.65000 28.82800 42.71900
C  48.28900 29.18400 41.31600
H  51.56500 21.37200 43.34400
H  57.49000 22.33600 45.91600
H  56.02200 28.53600 46.83300
H  48.88200 25.54100 43.43400
H  49.88800 22.92600 42.43000
H  47.86800 23.54200 44.23000
H  49.12600 22.76400 45.28300
H  48.69700 21.96200 43.81600
H  49.18100 26.47100 41.37400
H  49.08400 24.80200 41.00800
H  51.33700 26.55200 40.55300
H  50.67500 25.32500 39.67000
H  53.11000 19.64800 42.66800
H  52.29800 19.18100 44.03800
H  53.84500 18.44400 43.73900
H  57.81400 18.83700 46.31500
H  57.50700 20.44000 46.86100
H  58.36700 20.25900 45.32200
H  58.81500 24.46700 45.90400
H  58.05300 26.78300 47.45700
H  58.05200 23.17500 48.15800
H  57.83600 24.86800 48.76500
H  59.37800 24.21900 47.93800
H  58.07200 27.02900 44.51800
H  59.54500 26.67800 45.45300
H  59.73900 28.70500 46.02400
H  57.99800 28.98000 46.47600
H  58.53100 29.17600 44.77600
H  54.37000 30.08200 47.96600
H  52.89200 30.78700 47.30400
H  54.45100 30.85900 46.45100
H  49.34000 28.10800 44.78400
H  48.76800 28.55200 40.56800
H  48.37600 30.24800 41.09300
H  47.27200 28.96500 40.98900
Mg -2.62800 33.78200 25.80300
C  -4.31200 32.46800 28.58700
C  -1.02600 36.08000 27.80800
C  -1.11200 34.94700 23.04000
C  -4.56300 31.54600 23.72800
N  -2.84900 34.39200 27.91700
C  -3.48500 33.55800 28.91300
C  -2.96700 33.86000 30.32000
C  -2.15500 35.28500 30.08400
C  -2.01200 35.30900 28.49800
C  -3.01100 36.52100 30.50200
C  -2.12600 32.79900 31.15600
C  -1.71200 33.24500 32.59000
H  -2.04300 32.36000 33.82300
N  -1.33900 35.33600 25.46900
C  -0.68800 36.11200 26.44500
C  0.34400 36.80700 25.85400
C  0.42300 36.48200 24.49500
C  -0.64800 35.50900 24.30200
C  1.13100 37.88700 26.47400
C  1.39000 36.97600 23.41500
O  1.21000 36.70900 22.21800
C  2.62900 37.76800 23.73900
N  -2.95500 33.37700 23.67800
C  -2.16000 34.00100 22.77900
C  -2.41400 33.55400 21.33900
C  -3.43700 32.42700 21.57700
C  -3.58100 32.31100 23.05300
C  -2.96100 34.74600 20.54500
C  -3.19200 31.02300 20.84700
C  -2.40700 29.88400 21.57900
N  -4.03100 32.18300 26.05000
C  -4.76900 31.41000 25.11900
C  -5.66700 30.49600 25.91800
C  -5.45700 30.85900 27.24800
C  -4.48100 31.88900 27.30300
C  -6.70000 29.53500 25.37800
C  -5.88100 30.52300 28.56900
O  -6.66200 29.67300 29.00600
C  -5.05600 31.58200 29.53000
C  -6.02800 32.16000 30.44900
O  -6.84300 33.08000 30.31000
O  -6.00700 31.37600 31.60200
C  -6.95200 31.69400 32.62700
H  -0.33500 36.55900 28.50400
H  -0.56600 35.21000 22.13100
H  -5.18000 30.93800 23.06300
H  -3.74900 34.09700 31.04100
H  -1.20500 35.35700 30.61400
H  -2.41500 37.00100 31.27800
H  -4.02400 36.20000 30.74400
H  -3.24100 37.37600 29.86700
H  -1.25600 32.47000 30.58900
H  -2.76900 31.93200 31.30600
H  -2.08600 34.23300 32.86000
H  -0.62500 33.30200 32.52600
H  0.78900 38.06800 27.49300
H  1.01000 38.83300 25.94800
H  2.17100 37.57600 26.57300
H  2.47300 38.79700 24.06400
H  3.24800 37.83900 22.84500
H  3.28100 37.18300 24.38800
H  -1.52200 33.17900 20.83800
H  -4.46300 32.64400 21.28200
H  -3.49900 35.44500 21.18500
H  -3.72600 34.39800 19.85100
H  -2.12600 35.17200 19.98800
H  -2.81300 31.18700 19.83800
H  -4.15500 30.59200 20.57300
H  -1.75000 30.16800 22.40100
H  -1.63200 29.55700 20.88600
H  -3.03600 29.06600 21.93100
H  -7.64100 30.02600 25.62700
H  -6.54900 28.54200 25.80300
H  -6.71400 29.47700 24.29000
H  -4.38600 30.89300 30.04400
H  -6.92800 32.77000 32.80200
H  -6.69100 31.31400 33.61500
H  -7.93900 31.29800 32.38900

