158

Mg 1.60300 -0.92900 44.12800
C  4.89100 0.10900 43.62000
C  0.46500 1.79400 42.52000
C  -1.43900 -2.51500 44.00900
C  3.04300 -4.11300 45.05300
N  2.55700 0.63200 43.10200
C  3.88600 0.96000 43.21400
C  4.11300 2.48200 42.76300
C  2.65500 2.98300 42.47300
C  1.82800 1.71600 42.70200
C  2.22400 4.25200 43.20700
C  4.98500 2.51100 41.45500
C  5.15300 1.32100 40.41600
H  6.45900 1.25200 39.68600
N  -0.28100 -0.37600 43.35400
C  -0.49500 0.82100 42.80000
C  -1.91400 0.82300 42.46500
C  -2.52100 -0.33900 42.93000
C  -1.38200 -1.15500 43.42000
C  -2.46200 1.95100 41.81600
C  -3.97400 -0.75500 42.75800
O  -4.80000 0.00800 42.30800
C  -4.52600 -2.11800 43.01700
N  0.92500 -2.95700 44.50300
C  -0.39700 -3.31300 44.45000
C  -0.60600 -4.76400 44.97300
C  0.80300 -5.25000 45.19200
C  1.64900 -4.04200 44.88100
C  -1.49700 -4.83700 46.24100
C  1.16600 -6.60100 44.55100
C  0.88300 -7.86100 45.43200
N  3.61000 -1.90600 44.28700
C  3.97200 -3.14700 44.72700
C  5.39600 -3.15400 44.83700
C  5.80300 -1.85400 44.47700
C  4.70100 -1.18900 43.95300
C  6.19800 -4.23300 45.31700
C  6.95200 -0.93700 44.40600
O  8.12600 -1.16300 44.82500
C  6.36100 0.41100 43.87200
C  6.40400 1.38700 44.99900
O  5.85200 1.38200 46.07600
O  7.29900 2.45500 44.64300
C  7.65400 3.48300 45.61100
H  0.16400 2.73100 42.04800
H  -2.42000 -2.97700 44.13800
H  3.42800 -5.05800 45.44000
H  4.57500 3.05900 43.56400
H  2.53800 3.23300 41.41800
H  1.45300 4.03500 43.94600
H  1.80200 4.95600 42.49000
H  3.04600 4.65500 43.79900
H  5.89200 2.86400 41.94600
H  4.70900 3.44500 40.96500
H  4.38400 1.54300 39.67700
H  4.86000 0.39700 40.91500
H  -2.08700 1.80500 40.80300
H  -2.27300 2.86900 42.37100
H  -3.52700 1.86100 41.60200
H  -4.07400 -2.93600 42.45600
H  -5.57600 -2.10300 42.72400
H  -4.45000 -2.36900 44.07500
H  -0.98800 -5.29900 44.10300
H  0.95600 -5.39700 46.26100
H  -2.13900 -3.96100 46.32500
H  -0.96900 -4.86100 47.19400
H  -2.29000 -5.58300 46.18800
H  2.22800 -6.64700 44.30800
H  0.70200 -6.74400 43.57500
H  0.48900 -8.74900 44.93700
H  0.13100 -7.61000 46.18000
H  1.81500 -8.13100 45.92800
H  5.67900 -4.53500 46.22600
H  7.17300 -3.80900 45.56000
H  6.26300 -5.12200 44.69100
H  7.05500 0.75900 43.10700
H  6.92500 3.51300 46.42100
H  7.65100 4.39700 45.01800
H  8.64700 3.23300 45.98300
Mg 41.00100 8.57200 30.34600
C  42.81900 9.75300 33.02100
C  38.48400 7.71500 32.53200
C  39.30900 7.52600 27.65400
C  43.56900 9.54000 28.19900
N  40.74800 8.53200 32.57200
C  41.60800 9.26600 33.42000
C  40.97700 9.42200 34.80800
C  39.74400 8.40700 34.73100
C  39.64000 8.16600 33.19100
C  39.75300 7.09800 35.57600
C  40.50200 10.82200 35.19900
C  40.04400 11.02400 36.66100
H  40.60200 12.16100 37.51600
N  39.20000 7.67800 30.13200
C  38.27800 7.40800 31.15500
C  37.10300 6.74200 30.55100
C  37.22700 6.84400 29.18800
C  38.60100 7.38100 28.91400
C  35.88000 6.28300 31.32700
C  36.22400 6.51300 28.08100
O  36.49300 6.76600 26.90500
C  34.90500 5.90200 28.32800
N  41.46400 8.31900 28.20700
C  40.56000 7.92000 27.33500
C  41.13200 7.94900 25.92700
C  42.38400 8.90400 26.07200
C  42.45200 8.97900 27.57000
C  41.53600 6.55400 25.33600
C  42.36700 10.24600 25.37300
C  41.87400 11.53700 26.04400
N  42.86000 9.42100 30.52300
C  43.82700 9.72400 29.59100
C  44.88600 10.47200 30.21200
C  44.54200 10.54600 31.55500
C  43.29900 9.84100 31.74400
C  46.07400 11.00800 29.53500
C  44.95400 11.03200 32.81600
O  45.93300 11.71800 33.20500
C  43.87000 10.52000 33.82200
C  44.60200 9.90200 34.93000
O  45.05400 8.76100 34.91300
O  44.82100 10.77200 35.97200
C  45.68200 10.31900 37.06700
H  37.66000 7.44600 33.19800
H  38.80700 7.25000 26.72500
H  44.35900 10.08100 27.67300
H  41.67100 9.01500 35.54400
H  38.83800 8.93200 35.03300
H  40.06500 6.38400 34.81400
H  38.80900 6.79000 36.02600
H  40.50300 7.10600 36.36700
H  39.67700 11.06100 34.52800
H  41.27100 11.57100 35.01400
H  40.27200 10.13500 37.25000
H  38.97900 11.20900 36.52100
H  36.15700 6.09400 32.36400
H  35.47100 5.35400 30.92900
H  35.09300 7.03400 31.39600
H  35.01600 4.91400 28.77500
H  34.41100 5.80900 27.36000
H  34.23200 6.41300 29.01600
H  40.53500 8.35300 25.10900
H  43.37800 8.54100 25.80800
H  42.61500 6.47800 25.47000
H  41.24900 6.40900 24.29500
H  41.10600 5.71200 25.87800
H  41.77900 10.12800 24.46300
H  43.37100 10.41600 24.98700
H  42.73600 12.19800 25.95500
H  41.43600 11.48000 27.04100
H  41.02600 11.91900 25.47600
H  45.83500 11.54100 28.61400
H  46.65800 10.16600 29.16300
H  46.76000 11.58600 30.15400
H  43.49600 11.51900 34.04400
H  45.00400 9.79800 37.74200
H  46.03500 11.20000 37.60300
H  46.51100 9.65700 36.81600

