158

Mg -0.02400 7.19600 26.29400
C  0.88900 9.15100 29.02800
C  0.11600 4.33200 28.22300
C  -0.32700 5.41400 23.47200
C  0.49600 10.03400 24.31700
N  0.49700 6.84100 28.32200
C  0.64600 7.77800 29.32500
C  0.59800 7.14900 30.66100
C  0.28200 5.65400 30.42500
C  0.25100 5.61000 28.89000
C  1.25100 4.54100 31.06200
C  -0.56300 7.84900 31.54500
C  -0.19200 8.13200 33.01700
H  1.01500 7.27500 33.53700
N  -0.05000 5.10400 25.91500
C  0.05400 4.10200 26.82500
C  -0.15400 2.87400 26.10500
C  -0.35000 3.19100 24.74500
C  -0.21700 4.60100 24.63500
C  -0.32700 1.52900 26.80800
C  -0.58100 2.23100 23.55600
O  -0.71300 2.55600 22.36300
C  -0.87300 0.79400 23.86300
N  0.02200 7.68600 24.27500
C  -0.20500 6.78600 23.30100
C  -0.17300 7.39600 21.88800
C  -0.24700 8.91700 22.21600
C  0.17800 8.89100 23.65300
C  0.99400 7.05500 20.93900
C  -1.59800 9.66800 21.86300
C  -2.92900 9.08800 22.40100
N  0.46900 9.25100 26.62400
C  0.63500 10.22900 25.71900
C  1.12400 11.49300 26.31700
C  1.12600 11.11100 27.68600
C  0.83400 9.71600 27.77600
C  1.45600 12.76600 25.72500
C  1.39600 11.70700 28.96600
O  1.73500 12.82000 29.35700
C  1.22200 10.41000 29.92300
C  2.35700 10.22400 30.85900
O  3.38400 9.71000 30.41300
O  2.09400 10.75600 32.11200
C  3.36100 11.10400 32.77800
H  -0.01200 3.39000 28.76100
H  -0.29700 4.96800 22.47600
H  0.61800 10.95700 23.74700
H  1.49800 7.51300 31.15700
H  -0.72200 5.45200 30.79800
H  1.83400 3.99200 30.32200
H  0.82200 3.70600 31.61600
H  2.03000 5.03300 31.64400
H  -1.45800 7.23200 31.61400
H  -0.87300 8.78500 31.08000
H  -1.10300 8.02300 33.60600
H  0.05500 9.18600 33.15200
H  -1.27400 1.22200 26.36200
H  -0.52300 1.61500 27.87700
H  0.52100 0.90400 26.53000
H  -1.71900 0.58700 24.51900
H  -0.00100 0.26900 24.25200
H  -1.05400 0.26700 22.92600
H  -1.16100 7.13700 21.50800
H  0.53500 9.45500 21.68100
H  1.44600 7.92900 20.47000
H  0.73500 6.35100 20.14800
H  1.76500 6.65700 21.59900
H  -1.77000 9.93000 20.81900
H  -1.63900 10.53900 22.51800
H  -3.60800 9.11900 21.55000
H  -3.41900 9.62600 23.21300
H  -2.95200 8.04200 22.70800
H  2.05300 12.52200 24.84700
H  1.99400 13.47100 26.35800
H  0.53200 13.25200 25.41200
H  0.44800 10.67500 30.64400
H  3.51200 10.46200 33.64500
H  3.16100 12.12600 33.10000
H  4.29000 11.07400 32.20900
Mg 1.45000 42.13700 26.18000
C  3.52400 42.19000 28.90900
C  -1.13400 41.48700 28.37100
C  -0.56100 41.31800 23.48500
C  4.08400 42.66600 24.12600
N  1.25700 41.85300 28.36100
C  2.22200 42.10100 29.29100
C  1.63300 42.18000 30.67100
C  0.17100 41.57600 30.54400
C  0.05400 41.67800 29.00200
C  -0.02100 40.17900 31.16400
C  1.63800 43.60500 31.22300
C  1.26400 43.73500 32.69400
H  1.19000 42.52900 33.66500
N  -0.45500 41.54200 25.95800
C  -1.36200 41.34500 27.00100
C  -2.64200 40.82400 26.55700
C  -2.40300 40.53300 25.16400
C  -1.08700 41.14100 24.78500
C  -3.71800 40.48400 27.51600
C  -3.19400 39.65300 24.20500
O  -2.76500 39.43700 23.06400
C  -4.41900 38.91100 24.69500
N  1.73100 41.96100 24.05000
C  0.77400 41.66200 23.19100
C  1.41600 41.67800 21.66600
C  2.74400 42.44200 21.97900
C  2.87200 42.40700 23.47300
C  1.28800 40.38200 20.95600
C  2.81200 43.93500 21.57300
C  4.12800 44.37500 20.88700
N  3.44000 42.23800 26.34500
C  4.43800 42.46000 25.40900
C  5.67700 42.52500 26.03500
C  5.35300 42.38800 27.44200
C  4.00600 42.23600 27.56800
C  6.95900 42.85000 25.46600
C  5.92000 42.39100 28.81500
O  7.07900 42.35000 29.17700
C  4.75000 42.35300 29.73100
C  4.88500 41.10300 30.51400
O  4.99700 39.96100 30.10700
O  4.93700 41.42400 31.90100
C  4.98700 40.29700 32.76500
H  -1.94700 41.24000 29.05600
H  -1.18400 40.97600 22.65600
H  4.89600 42.99200 23.47200
H  2.35900 41.60300 31.24400
H  -0.61000 42.18000 31.00500
H  -0.46600 40.46400 32.11800
H  0.96000 39.72900 31.31600
H  -0.50200 39.48200 30.47800
H  0.86700 44.16400 30.69300
H  2.55000 44.15000 30.98000
H  0.28700 44.21500 32.65700
H  2.06800 44.29900 33.16800
H  -4.70400 40.47500 27.05200
H  -3.79100 41.24100 28.29800
H  -3.52900 39.51500 27.97900
H  -4.11100 38.30600 25.54800
H  -4.80700 38.25600 23.91500
H  -5.12800 39.66000 25.04600
H  0.80500 42.34900 21.06300
H  3.65600 41.96000 21.62600
H  0.82500 39.69200 21.66200
H  2.21400 39.98800 20.53800
H  0.85400 40.57200 19.97400
H  2.81100 44.60500 22.43400
H  2.01000 44.13300 20.86200
H  4.69100 43.60100 20.36500
H  4.87100 44.80200 21.56100
H  3.87000 45.11600 20.13200
H  7.18000 42.03600 24.77700
H  7.72000 42.86500 26.24600
H  6.94600 43.82000 24.96800
H  4.81000 43.18000 30.43800
H  5.73900 39.56900 32.46100
H  4.04000 39.79100 32.57700
H  4.96300 40.52100 33.83200

