158

Mg 46.10700 25.06600 28.11800
C  46.78200 27.23400 30.88000
C  45.15600 22.71500 30.38800
C  46.02100 22.84600 25.57800
C  47.82500 27.20900 26.09000
N  45.90300 25.08800 30.33800
C  46.11700 26.09300 31.27700
C  45.66700 25.74500 32.75300
C  45.37200 24.21300 32.55000
C  45.51500 23.97700 31.00200
C  46.31200 23.35200 33.32800
C  44.47400 26.57000 33.32400
C  44.63300 27.26700 34.68200
H  43.61600 27.13600 35.84500
N  45.55700 23.05300 27.99300
C  45.06600 22.25800 28.99900
C  44.67700 20.88100 28.52700
C  45.11200 20.86700 27.09200
C  45.62600 22.28500 26.83600
C  44.18500 19.80800 29.32600
C  45.09700 19.70900 26.15200
O  45.53800 19.77300 25.01500
C  44.67800 18.35300 26.63500
N  46.78800 25.04000 26.16200
C  46.47800 24.09100 25.23800
C  46.87600 24.57800 23.82900
C  47.14400 26.09900 24.02300
C  47.18300 26.18200 25.49600
C  48.09300 23.83500 23.20300
C  45.96500 27.02700 23.50500
C  46.32300 28.00200 22.33700
N  47.25900 26.77500 28.34800
C  47.87700 27.58600 27.39300
C  48.38300 28.82700 28.01900
C  47.94800 28.69100 29.37900
C  47.27000 27.51000 29.56900
C  49.04900 29.92400 27.30600
C  47.93700 29.30600 30.66200
O  48.48800 30.38900 30.94100
C  47.23700 28.36200 31.77400
C  48.19800 27.83500 32.85200
O  49.01100 26.98600 32.58400
O  48.11900 28.54300 34.05700
C  48.85800 28.06800 35.24900
H  44.76800 22.07900 31.18600
H  46.00600 22.07100 24.80900
H  48.22100 27.91000 25.35300
H  46.56800 25.91000 33.34300
H  44.36800 23.89100 32.82700
H  47.05400 22.87000 32.69200
H  45.75100 22.58700 33.86500
H  46.89900 23.87600 34.08200
H  43.58100 25.95000 33.40200
H  44.21200 27.29300 32.55200
H  44.77400 28.31100 34.40200
H  45.62900 26.96800 35.00900
H  43.36700 19.33600 28.78200
H  44.07200 20.19600 30.33800
H  44.97800 19.08300 29.50600
H  45.45000 18.03200 27.33500
H  44.53000 17.77500 25.72300
H  43.69900 18.38600 27.11200
H  46.09100 24.56000 23.07200
H  48.09900 26.48200 23.66200
H  48.32100 22.92900 23.76400
H  49.01200 24.41400 23.10800
H  47.77800 23.47200 22.22500
H  45.70200 27.64600 24.36300
H  45.03200 26.50100 23.30100
H  46.31300 28.99600 22.78300
H  45.47000 27.94800 21.66000
H  47.26200 27.76900 21.83400
H  48.38600 30.74100 27.02300
H  49.56900 29.52700 26.43400
H  49.86500 30.30300 27.92100
H  46.36100 28.83900 32.21200
H  48.49200 27.04600 35.35000
H  48.71400 28.58000 36.20000
H  49.91700 28.09200 34.99300
Mg 47.31000 34.80600 28.51500
C  45.43600 33.28500 30.94500
C  47.56600 37.51100 30.73200
C  48.28600 36.80800 25.94500
C  46.36700 32.34400 26.23900
N  46.52500 35.31300 30.57700
C  45.94800 34.45100 31.41800
C  45.99400 34.98800 32.86000
C  46.18400 36.53200 32.65600
C  46.76200 36.47700 31.20700
C  44.83300 37.33000 32.66100
C  47.15700 34.39900 33.64600
C  47.13000 34.06000 35.13700
H  46.44600 35.04100 36.11300
N  47.92900 36.80800 28.38800
C  48.14600 37.70600 29.44400
C  48.98200 38.82200 29.01800
C  48.97000 38.68100 27.57600
C  48.39200 37.42300 27.22400
C  49.59000 39.86700 30.03700
C  49.70700 39.55700 26.61000
O  49.90500 39.27200 25.46000
C  50.27800 40.94600 27.08800
N  47.41800 34.44500 26.43200
C  47.88200 35.53900 25.62800
C  47.93500 34.98800 24.14600
C  47.46900 33.53900 24.17800
C  47.12000 33.37100 25.64700
C  47.27300 35.90500 23.11000
C  48.48700 32.51000 23.79500
C  48.14600 31.32700 22.90800
N  46.29800 33.06600 28.51500
C  46.01400 32.17500 27.55100
C  45.32900 30.98800 28.18200
C  45.06000 31.38800 29.52800
C  45.62400 32.70100 29.64600
C  44.79100 29.72300 27.42300
C  44.42200 31.06500 30.80400
O  43.90500 30.03800 31.15700
C  44.53100 32.35300 31.68900
C  44.73700 32.11200 33.14000
O  45.40100 31.24300 33.66200
O  43.73500 32.69900 33.77800
C  43.51500 32.57400 35.25200
H  47.85000 38.30100 31.43000
H  48.27200 37.45500 25.06500
H  46.03700 31.52900 25.59300
H  45.10500 34.78400 33.45600
H  46.91000 36.97400 33.33800
H  43.99700 36.64000 32.54900
H  44.90700 38.01300 31.81500
H  44.64500 37.92700 33.55400
H  47.94700 35.14700 33.71200
H  47.67300 33.56000 33.17900
H  48.04300 33.70700 35.61700
H  46.49200 33.17600 35.09900
H  49.98800 39.31000 30.88600
H  48.89800 40.63800 30.37500
H  50.46700 40.37200 29.63400
H  51.23600 40.87300 27.60300
H  49.50600 41.38600 27.71900
H  50.56800 41.55800 26.23400
H  49.02200 34.97600 24.06700
H  46.51200 33.44200 23.66500
H  46.62800 35.31200 22.46100
H  47.98800 36.47800 22.52000
H  46.66600 36.65700 23.61500
H  48.83200 31.96900 24.67600
H  49.34600 32.99600 23.33300
H  48.95700 31.00500 22.25600
H  47.21100 31.42100 22.35600
H  48.02600 30.47400 23.57600
H  44.51000 29.82000 26.37400
H  43.95100 29.48300 28.07400
H  45.45300 28.86800 27.55700
H  43.49600 32.68200 31.60300
H  42.72900 31.83400 35.40300
H  43.16500 33.53000 35.64200
H  44.43700 32.30800 35.76800

