158

Mg 36.13500 1.60600 28.90000
C  34.06700 2.74900 31.48900
C  38.82200 1.80600 31.09900
C  38.20200 0.96700 26.30800
C  33.44500 2.11900 26.68200
N  36.48300 2.41400 30.92500
C  35.39900 2.58800 31.84800
C  35.91900 2.53900 33.25300
C  37.45500 2.44100 33.16000
C  37.60600 2.14700 31.64500
C  38.18900 3.71600 33.63000
C  35.25600 1.32400 33.93400
C  34.68000 1.57900 35.39200
H  35.02100 2.85800 36.20700
N  38.19500 1.37100 28.74700
C  39.15900 1.48200 29.71100
C  40.39600 1.10900 29.21100
C  40.25300 0.83400 27.81900
C  38.80400 1.03800 27.59300
C  41.67000 1.08800 30.07500
C  41.36500 0.38900 26.80100
O  41.20100 0.17100 25.63000
C  42.82700 0.29500 27.32900
N  35.89600 1.60500 26.84700
C  36.85100 1.17100 25.95100
C  36.24500 0.75000 24.56200
C  34.74400 1.12600 24.79600
C  34.68100 1.70800 26.22000
C  36.91300 1.37100 23.27200
C  33.69700 -0.01100 24.44700
C  34.15600 -1.07900 23.37400
N  34.13000 2.19700 29.01600
C  33.15900 2.33100 28.05700
C  31.91200 2.62800 28.60400
C  32.14100 2.80100 30.02600
C  33.52800 2.54800 30.21100
C  30.67200 2.76300 27.90000
C  31.54900 2.99500 31.35300
O  30.38900 3.24600 31.70700
C  32.78200 2.84000 32.32100
C  32.68000 4.21200 32.97800
O  33.22200 5.20100 32.55300
O  31.85600 4.05900 34.10800
C  31.68000 5.26700 34.92900
H  39.63200 1.60200 31.80200
H  38.76700 0.50500 25.49600
H  32.53300 2.17800 26.08400
H  35.42900 3.41000 33.68900
H  37.83900 1.68000 33.83900
H  39.13000 3.40100 34.08100
H  37.61100 4.17900 34.43000
H  38.45100 4.38800 32.81200
H  35.94200 0.48300 34.03100
H  34.42900 0.96500 33.32100
H  34.73500 0.69000 36.02000
H  33.59000 1.62200 35.38000
H  42.61100 1.48700 29.69700
H  41.79500 0.06900 30.44100
H  41.56400 1.67900 30.98500
H  43.45000 -0.03300 26.49800
H  42.98200 -0.41700 28.14000
H  43.07000 1.31900 27.61500
H  36.29800 -0.33900 24.57100
H  34.45000 2.02100 24.24800
H  36.81100 0.65200 22.45900
H  37.95500 1.66900 23.38700
H  36.35800 2.29300 23.09600
H  32.79100 0.43900 24.04300
H  33.35900 -0.60200 25.29800
H  34.72800 -1.94600 23.70400
H  34.80800 -0.69800 22.58800
H  33.21200 -1.43500 22.96100
H  30.50600 2.17400 26.99700
H  30.76000 3.78500 27.53400
H  29.81400 2.69900 28.56900
H  32.54400 2.04500 33.02800
H  30.91200 5.92600 34.52600
H  32.62000 5.81800 34.91900
H  31.37800 5.10200 35.96400
Mg 47.54000 33.87000 26.75400
C  45.49100 33.09400 29.51500
C  48.17200 36.81400 28.46700
C  48.97300 35.04100 24.00400
C  46.20700 31.24000 25.02700
N  47.17100 34.65000 28.94500
C  46.37700 34.09000 29.88500
C  46.59700 34.76900 31.26100
C  47.07200 36.19800 30.71600
C  47.50400 35.92100 29.29500
C  46.07100 37.36200 30.78600
C  47.61400 34.00800 32.19000
C  47.28200 33.78300 33.63800
H  46.31400 34.78600 34.19400
N  48.50000 35.62100 26.36300
C  48.72400 36.72200 27.15600
C  49.45000 37.74500 26.50200
C  49.76600 37.19800 25.20900
C  49.09000 35.87500 25.15800
C  49.92900 39.04600 27.18700
C  50.61300 37.83200 24.05500
O  51.01700 37.20700 23.08100
C  51.02300 39.29300 24.14200
N  47.44000 33.27400 24.67400
C  48.30200 33.83000 23.85200
C  48.31100 33.07600 22.51700
C  47.46300 31.80100 22.85400
C  47.01700 32.09000 24.27300
C  47.89600 33.81900 21.24100
C  48.14600 30.42600 22.57100
C  48.97200 29.84600 23.71500
N  46.08300 32.47300 27.12300
C  45.68200 31.41900 26.33400
C  44.72100 30.56200 27.07300
C  44.56000 31.17700 28.27600
C  45.44900 32.30800 28.29900
C  44.11000 29.29800 26.64100
C  43.90300 31.13500 29.56600
O  43.04300 30.41300 30.06000
C  44.36000 32.46400 30.23900
C  44.61500 31.98700 31.63100
O  45.27900 30.94800 31.93500
O  43.87300 32.69100 32.59400
C  43.80500 32.06600 33.96400
H  48.36300 37.81900 28.84900
H  49.51800 35.42800 23.14000
H  45.90500 30.30700 24.54600
H  45.62500 34.88200 31.74000
H  47.87900 36.59200 31.33200
H  46.36800 38.15000 31.47900
H  45.13400 36.87200 31.05000
H  45.94000 37.85200 29.82100
H  48.56600 34.53700 32.15100
H  47.72000 33.05400 31.67400
H  48.11900 33.82700 34.33500
H  46.90500 32.76100 33.59000
H  50.84200 39.48300 26.78400
H  50.22400 38.62000 28.14600
H  49.09000 39.72600 27.33700
H  50.33700 39.97100 24.64900
H  51.30200 39.75800 23.19700
H  52.00000 39.29700 24.62500
H  49.35600 32.82300 22.34000
H  46.50500 31.86500 22.34000
H  47.45100 34.79700 21.42800
H  47.24500 33.23200 20.59400
H  48.83100 33.92400 20.69000
H  48.85900 30.37800 21.74800
H  47.30400 29.78600 22.31100
H  49.08000 30.57100 24.52200
H  49.96900 29.67300 23.30900
H  48.44300 28.97400 24.10100
H  43.21800 29.52600 26.05700
H  43.80500 28.74900 27.53200
H  44.65500 28.66100 25.94500
H  43.47900 33.10100 30.16600
H  44.85300 31.92300 34.22700
H  43.20600 31.15600 33.98700
H  43.23500 32.75600 34.58700

