158

Mg 8.78800 48.23400 25.94700
C  6.81900 48.21000 28.73200
C  11.48400 48.75200 27.90000
C  10.53500 47.57800 23.18700
C  5.84600 48.24200 23.91200
N  9.03500 48.59600 28.12100
C  8.11000 48.48700 29.05500
C  8.75200 48.77200 30.46400
C  10.14400 49.44000 30.11600
C  10.26900 48.91200 28.65200
C  10.23600 50.97200 30.07800
C  8.91000 47.44300 31.31800
C  8.50200 47.60800 32.85400
H  8.73700 46.33500 33.72900
N  10.77300 48.29800 25.59800
C  11.74600 48.42800 26.55900
C  13.07400 48.21200 25.83800
C  12.80700 47.80800 24.51100
C  11.30800 47.87700 24.37700
C  14.47700 48.22500 26.56900
C  13.76000 47.46800 23.35800
O  13.39000 47.29600 22.20000
C  15.24200 47.53200 23.56200
N  8.19800 48.21600 23.72900
C  9.13900 47.73400 22.86700
C  8.52200 47.49200 21.45300
C  7.06100 47.81800 21.66200
C  7.00500 48.21400 23.12400
C  9.24900 48.05900 20.26400
C  6.01600 46.82600 21.17100
C  5.25800 47.13800 19.82500
N  6.79500 48.18000 26.20600
C  5.68300 48.22600 25.32100
C  4.46900 48.11600 26.09300
C  4.89500 48.00400 27.47000
C  6.27800 48.03200 27.43200
C  3.10700 48.16700 25.53300
C  4.36500 47.95800 28.85400
O  3.18800 47.81600 29.28000
C  5.66300 48.09800 29.75300
C  5.66000 46.84600 30.47000
O  6.06200 45.80500 30.01500
O  5.06800 46.89700 31.69700
C  5.08600 45.68000 32.54800
H  12.35200 48.99600 28.51600
H  11.16100 47.20900 22.37200
H  4.92200 48.35600 23.34100
H  8.12900 49.48000 31.00900
H  10.93300 49.15400 30.81200
H  10.76500 51.40700 30.92600
H  9.22800 51.38000 30.00700
H  10.57200 51.32900 29.10500
H  9.92200 47.05100 31.21400
H  8.27900 46.62200 30.97900
H  7.48100 47.97300 32.96900
H  9.18000 48.38700 33.20100
H  14.35800 48.18100 27.65200
H  15.03000 49.10400 26.23900
H  14.98600 47.29500 26.31600
H  15.97000 47.47400 22.75300
H  15.53000 46.74200 24.25600
H  15.34900 48.47700 24.09500
H  8.68300 46.46000 21.14200
H  6.93000 48.68100 21.00800
H  9.49000 47.32500 19.49500
H  10.16700 48.46500 20.69000
H  8.67300 48.83900 19.76700
H  5.19000 46.61700 21.85000
H  6.62900 46.00500 20.79800
H  4.18500 47.04000 19.99200
H  5.66600 46.50000 19.04100
H  5.48600 48.16200 19.52900
H  2.86200 49.05500 24.95200
H  2.37100 48.19300 26.33700
H  2.95900 47.31100 24.87500
H  5.64400 48.93100 30.45600
H  5.77600 44.92200 32.17800
H  4.08500 45.27100 32.68500
H  5.53100 45.99300 33.49200
Mg -10.70400 17.66700 41.22800
C  -7.11100 17.52600 41.07600
C  -10.43000 21.05400 40.53900
C  -13.96300 17.84600 40.35100
C  -10.73000 14.21900 40.95900
N  -8.92100 19.05100 40.77200
C  -7.58300 18.77800 40.87000
C  -6.82200 20.05200 40.64000
C  -7.87800 21.15700 41.08400
C  -9.17100 20.38500 40.77100
C  -7.74000 21.59600 42.52400
C  -6.36200 20.24600 39.11900
C  -4.83600 20.16100 38.80100
H  -4.41700 19.25500 37.75800
N  -11.98500 19.22800 40.63900
C  -11.69600 20.50100 40.43100
C  -12.85200 21.28300 40.00500
C  -13.98100 20.39500 40.01200
C  -13.33800 19.07500 40.36500
C  -12.90400 22.78100 39.72100
C  -15.34300 20.82100 39.79100
O  -15.59600 22.03700 39.66900
C  -16.38900 19.81100 39.82000
N  -12.09000 16.31300 40.61900
C  -13.41200 16.59600 40.48700
C  -14.30500 15.38000 40.63200
C  -13.27800 14.24900 40.63200
C  -11.93500 14.95200 40.72900
C  -15.13400 15.55700 41.87900
C  -13.33000 13.39100 39.23500
C  -13.65700 11.88100 39.27800
N  -9.20500 16.14100 41.19200
C  -9.40100 14.71100 41.10400
C  -8.15600 14.10600 41.29200
C  -7.24100 15.11700 41.34800
C  -7.95500 16.33500 41.15200
C  -7.91300 12.64700 41.32500
C  -5.83600 15.54600 41.38600
O  -4.82900 14.87400 41.66900
C  -5.67800 17.12000 41.21300
C  -5.06900 17.65600 42.44200
O  -5.68300 17.98800 43.44900
O  -3.76400 17.88500 42.17200
C  -3.02900 18.57800 43.22600
H  -10.33600 22.13900 40.46200
H  -15.00600 17.77100 40.03400
H  -10.93300 13.14600 40.97100
H  -6.02700 20.07800 41.38500
H  -7.78500 22.13200 40.60600
H  -6.71300 21.55800 42.88700
H  -8.44300 21.07800 43.17700
H  -7.98600 22.64900 42.65900
H  -6.67700 21.16800 38.63000
H  -6.85700 19.40400 38.63600
H  -4.22400 19.91100 39.66800
H  -4.58900 21.17800 38.49500
H  -13.34600 23.00800 38.75100
H  -11.91400 23.23700 39.73600
H  -13.50600 23.38600 40.39800
H  -16.29100 19.21200 38.91400
H  -17.27600 20.44200 39.77700
H  -16.45100 19.22700 40.73800
H  -14.94000 15.28800 39.75100
H  -13.55600 13.55100 41.42200
H  -15.65700 14.63500 42.13700
H  -15.88400 16.34600 41.82600
H  -14.54100 15.84800 42.74700
H  -12.36800 13.50700 38.73500
H  -14.01600 13.78400 38.48400
H  -14.61400 11.65300 38.80900
H  -13.72000 11.57100 40.32100
H  -12.79600 11.40800 38.80800
H  -7.36900 12.23400 40.47500
H  -8.88800 12.16000 41.30600
H  -7.49500 12.35700 42.28900
H  -5.04600 17.37200 40.36200
H  -1.98000 18.74700 42.98600
H  -2.90800 18.04500 44.16900
H  -3.70900 19.41400 43.39000

