158

Mg 54.06500 23.97000 44.17100
C  51.28700 26.13300 43.26900
C  52.31000 21.47100 42.42400
C  56.68700 22.10100 44.34700
C  55.90600 26.86200 45.07600
N  52.07600 23.89700 42.92600
C  51.14700 24.85600 42.69100
C  50.08800 24.27300 41.77300
C  50.18600 22.74000 41.97300
C  51.65200 22.69100 42.34400
C  49.24700 22.20200 43.12400
C  50.03800 24.78400 40.29000
C  51.37700 25.18900 39.77300
H  51.39900 25.93500 38.45500
N  54.41700 22.06800 43.61500
C  53.54200 21.18900 43.02300
C  54.17300 19.91300 43.02200
C  55.41500 19.97200 43.70500
C  55.52600 21.35100 44.00200
C  53.56200 18.58700 42.52500
C  56.35600 18.78500 44.15100
O  56.10200 17.64000 43.81200
C  57.69300 19.10600 44.85900
N  56.07200 24.41700 44.59700
C  56.97300 23.44700 44.61100
C  58.35600 24.03300 45.00600
C  58.09500 25.62700 44.99800
C  56.62500 25.65400 44.88600
C  58.84500 23.53400 46.35600
C  58.83300 26.35100 43.87800
C  60.04200 27.20100 44.26900
N  53.73400 26.05300 44.24200
C  54.52700 27.05700 44.74000
C  53.71900 28.32300 44.78700
C  52.51000 27.95500 44.19800
C  52.53600 26.61900 43.91900
C  54.14400 29.61000 45.30500
C  51.23200 28.50400 43.80600
O  50.77400 29.57400 43.79900
C  50.39800 27.29900 43.28800
C  49.77300 27.70500 41.97700
O  50.37100 28.06800 40.96800
O  48.40400 27.56400 41.97800
C  47.64500 28.38000 41.04400
H  51.89000 20.61600 41.88900
H  57.54900 21.43600 44.42400
H  56.37400 27.81200 45.34200
H  49.07800 24.53900 42.08600
H  49.91100 22.26200 41.03300
H  48.85800 21.25100 42.75800
H  48.35100 22.73700 43.43700
H  49.88600 21.84800 43.93300
H  49.43400 25.68400 40.17200
H  49.62100 24.06500 39.58300
H  51.97600 24.28100 39.69100
H  51.88900 25.85500 40.46800
H  53.77400 17.75500 43.19700
H  53.87000 18.45400 41.48900
H  52.47600 18.56100 42.43800
H  58.11700 18.13600 45.11700
H  57.42900 19.71300 45.72600
H  58.31000 19.59300 44.10400
H  59.05900 23.80400 44.20500
H  58.28600 25.99000 46.00800
H  58.89800 22.45400 46.21600
H  58.12800 23.74800 47.14800
H  59.70500 24.13600 46.64800
H  58.05800 27.03200 43.52500
H  59.11200 25.66000 43.08300
H  60.31800 27.10900 45.31900
H  59.86500 28.24700 44.01600
H  60.90500 26.79700 43.73900
H  54.10200 29.64700 46.39300
H  53.50300 30.34900 44.82400
H  55.16900 29.70600 44.94600
H  49.63000 27.27200 44.06000
H  48.00500 29.40800 40.98700
H  46.62900 28.53500 41.40700
H  47.61700 28.01800 40.01700
Mg 36.78000 49.16000 25.28100
C  37.02200 47.09000 28.21800
C  35.47900 51.57600 27.27000
C  36.41200 50.90500 22.51200
C  37.79100 46.34100 23.51800
N  36.40700 49.31300 27.48700
C  36.53700 48.38300 28.49800
C  36.36400 49.03000 29.84800
C  35.73900 50.43600 29.45100
C  35.86900 50.46000 27.94200
C  34.29300 50.69600 29.96800
C  37.69700 49.14100 30.61900
C  37.59700 48.44600 32.05300
H  36.29200 48.60700 32.82000
N  36.04700 51.00800 24.94900
C  35.57200 51.89600 25.90200
C  35.18100 53.15300 25.22500
C  35.38300 52.90700 23.77700
C  35.89600 51.58800 23.68600
C  34.50900 54.27900 26.00700
C  35.06100 53.76700 22.62100
O  35.19400 53.45400 21.42700
C  34.72900 55.22800 22.85900
N  37.08800 48.73300 23.31100
C  36.85100 49.59800 22.31000
C  37.09200 48.88600 20.95400
C  37.70000 47.50400 21.28600
C  37.60200 47.56600 22.83100
C  35.75000 48.76500 20.15600
C  39.18900 47.40800 20.83500
C  40.27900 48.34100 21.32800
N  37.29200 47.10700 25.71500
C  37.68000 46.06900 24.89100
C  37.92900 44.84000 25.59000
C  37.61800 45.25500 26.89200
C  37.28600 46.64800 26.93200
C  38.44100 43.46900 25.18300
C  37.63900 44.74800 28.26200
O  37.94100 43.69300 28.68100
C  37.25400 45.91400 29.19300
C  36.00100 45.59600 29.90800
O  34.89600 45.84000 29.53400
O  36.28200 44.98500 31.13300
C  35.14500 44.56000 31.96300
H  35.02400 52.41400 27.80300
H  36.36500 51.39100 21.53500
H  38.04000 45.39500 23.03300
H  35.63000 48.33300 30.25400
H  36.30500 51.28700 29.83100
H  33.87200 49.83400 30.48500
H  33.56400 50.98200 29.20900
H  34.34400 51.61600 30.55100
H  37.99900 50.17000 30.81300
H  38.37800 48.58000 29.97800
H  38.34500 48.92200 32.68600
H  37.81800 47.38000 31.98400
H  34.59200 55.29900 25.63100
H  34.95600 54.41300 26.99200
H  33.52300 53.88000 26.24600
H  35.42700 55.67500 23.56700
H  33.73900 55.32000 23.30600
H  34.72300 55.68900 21.87200
H  37.76200 49.53400 20.39000
H  37.09300 46.66600 20.94300
H  34.99600 49.42900 20.57900
H  35.39500 47.74000 20.04700
H  35.86900 49.22200 19.17400
H  39.10500 47.41400 19.74800
H  39.63800 46.44800 21.08600
H  39.78600 49.23600 21.70600
H  40.97600 48.43000 20.49500
H  40.91700 47.89200 22.09000
H  38.80700 43.50000 24.15600
H  37.48100 42.95800 25.27000
H  39.17900 43.02600 25.85200
H  38.00000 46.05300 29.97600
H  34.18300 45.05200 31.82300
H  35.44200 44.86500 32.96600
H  35.12100 43.47100 31.92400

