158

Mg 46.96300 25.23600 27.49500
C  48.06400 27.40800 30.02100
C  45.67800 23.18300 29.89500
C  46.17200 23.02100 25.08000
C  48.70200 27.19100 25.22900
N  46.90200 25.35200 29.66400
C  47.29400 26.37800 30.53300
C  46.96000 26.03600 32.00000
C  46.29700 24.66400 31.94600
C  46.29000 24.35700 30.40700
C  46.94600 23.60300 32.80900
C  46.23300 27.08700 32.79300
C  46.70800 27.39600 34.29400
H  45.51100 27.32700 35.35700
N  45.94200 23.40700 27.46900
C  45.46400 22.72700 28.57000
C  44.81300 21.56900 28.09600
C  44.82200 21.55600 26.64400
C  45.70600 22.72200 26.27600
C  44.21600 20.52200 28.99600
C  44.09700 20.70100 25.69500
O  44.24900 20.76700 24.48900
C  42.89600 19.99300 26.15800
N  47.47800 24.98200 25.48200
C  47.01600 24.05600 24.65600
C  47.65400 24.18400 23.26900
C  48.12600 25.66300 23.21100
C  48.03300 26.02400 24.68700
C  48.78200 22.99300 23.06500
C  47.38000 26.64200 22.22300
C  48.17900 27.23200 21.01500
N  48.09000 26.99300 27.53400
C  48.67200 27.70800 26.53200
C  49.30800 28.87100 27.02400
C  49.24900 28.77500 28.43600
C  48.41900 27.64200 28.69000
C  49.89400 29.95300 26.25600
C  49.49900 29.39200 29.66600
O  49.98800 30.43100 29.98600
C  48.82800 28.43600 30.80900
C  49.88800 27.96100 31.72200
O  51.05900 27.81600 31.39500
O  49.46900 27.95700 33.07900
C  50.45000 27.46200 34.02500
H  45.20400 22.51400 30.61600
H  46.03200 22.33100 24.24600
H  49.14100 27.81400 24.44800
H  47.94100 25.96800 32.47000
H  45.24200 24.70800 32.21700
H  46.18600 23.04100 33.35100
H  47.57600 24.06700 33.56900
H  47.43500 22.84500 32.19800
H  45.16000 26.94500 32.65800
H  46.47100 28.02600 32.29200
H  47.11400 28.40600 34.34700
H  47.51000 26.72500 34.60000
H  43.13400 20.52100 29.12800
H  44.63700 20.43400 29.99800
H  44.42300 19.52300 28.61100
H  42.39200 20.49900 26.98100
H  43.11800 18.95100 26.38800
H  42.27600 20.03600 25.26300
H  46.86700 24.02400 22.53200
H  49.19700 25.73800 23.02300
H  48.85100 22.49200 24.03100
H  49.68200 23.47500 22.68200
H  48.47000 22.20700 22.37800
H  46.94400 27.48400 22.76200
H  46.47500 26.18200 21.82700
H  47.64400 26.98300 20.09900
H  49.24400 27.01000 20.94500
H  48.30500 28.31300 21.07100
H  50.89400 30.10500 26.66100
H  49.24700 30.80600 26.46400
H  49.95600 29.66400 25.20700
H  48.09500 29.05400 31.32700
H  51.04800 28.20500 34.55400
H  51.18100 26.82900 33.52200
H  49.93700 26.87200 34.78400
Mg 26.36100 49.73400 27.16800
C  24.37500 50.85500 29.90100
C  28.96900 49.32600 29.43200
C  28.37900 49.25000 24.61300
C  23.84600 50.86500 25.00000
N  26.65400 50.24200 29.41000
C  25.65700 50.50200 30.31100
C  26.16400 50.37900 31.78400
C  27.65900 50.04000 31.56000
C  27.78600 49.85200 30.03500
C  28.71300 51.03100 32.25900
C  25.28500 49.31200 32.55000
C  24.56500 49.79500 33.89500
H  25.54900 50.31500 34.95600
N  28.36400 49.27500 27.01200
C  29.21800 49.07400 28.06000
C  30.45300 48.61400 27.59000
C  30.36100 48.69100 26.17000
C  28.97600 49.12100 25.83900
C  31.64700 48.21000 28.50300
C  31.46400 48.48700 25.16700
O  31.27400 48.59500 23.94700
C  32.87100 48.25200 25.51100
N  26.11300 50.01600 25.14800
C  27.09200 49.65000 24.29900
C  26.66100 49.67300 22.84700
C  25.16800 50.10100 22.98000
C  25.00500 50.24700 24.48900
C  27.49400 50.30800 21.65300
C  24.15600 49.07500 22.28800
C  23.09200 49.73500 21.37600
N  24.48600 50.78100 27.39700
C  23.62400 51.16000 26.40400
C  22.47800 51.75900 27.01000
C  22.67500 51.68000 28.37500
C  23.95100 51.06900 28.54300
C  21.31900 52.38300 26.28600
C  22.11300 52.00900 29.72000
O  21.09200 52.59600 30.00100
C  23.21800 51.49400 30.72600
C  23.59900 52.72400 31.53300
O  24.71700 53.24900 31.61800
O  22.64200 53.00800 32.50200
C  23.05000 53.93300 33.60300
H  29.77300 49.13000 30.14300
H  28.99600 49.02000 23.74200
H  23.06800 51.15200 24.29000
H  26.12100 51.30600 32.35500
H  27.86300 49.05200 31.97400
H  28.32200 51.96500 32.66400
H  29.49300 51.11000 31.50200
H  29.02800 50.45800 33.13000
H  25.98700 48.53600 32.85500
H  24.63300 48.74200 31.88800
H  24.00200 48.94900 34.29000
H  23.92900 50.67000 33.76200
H  31.34800 47.66800 29.40100
H  32.29600 49.04200 28.77500
H  32.32200 47.54100 27.96900
H  33.17400 48.94300 26.29800
H  33.42600 48.38400 24.58300
H  32.88300 47.21200 25.83900
H  26.56400 48.62300 22.57200
H  25.12100 51.13400 22.63500
H  28.44800 50.52600 22.13400
H  26.98100 51.18900 21.26500
H  27.58600 49.50200 20.92500
H  23.63100 48.45600 23.01600
H  24.71300 48.38100 21.65900
H  22.07700 49.40900 21.60600
H  23.30200 49.35900 20.37500
H  23.14500 50.81700 21.49900
H  20.42400 52.27500 26.89900
H  21.07900 52.17600 25.24300
H  21.59100 53.43700 26.23700
H  22.61200 50.84200 31.35500
H  23.26900 54.93400 33.23100
H  24.05300 53.76700 33.99700
H  22.34800 53.97000 34.43600

