158

Mg -0.15100 6.74300 26.06100
C  1.00800 9.08500 28.53600
C  -0.36100 4.31700 28.56100
C  -1.41900 4.65100 23.82800
C  0.70900 8.97500 23.52500
N  0.12800 6.80400 28.31100
C  0.68000 7.82700 29.12200
C  0.84200 7.39500 30.60600
C  0.73100 5.80600 30.44000
C  0.18300 5.55700 28.98000
C  2.10500 5.06400 30.73800
C  -0.18900 8.28700 31.52600
C  -0.60300 7.53000 32.83800
H  0.34600 7.61700 34.02500
N  -0.98200 4.77700 26.24300
C  -0.89600 3.96200 27.27600
C  -1.70200 2.81100 27.02800
C  -2.06600 2.83800 25.70400
C  -1.47300 4.09400 25.19000
C  -1.95400 1.73300 28.05900
C  -3.04900 1.91100 25.04500
O  -3.40500 2.08300 23.87100
C  -3.55400 0.66700 25.62400
N  -0.15500 6.71900 23.96000
C  -0.86900 5.79700 23.28000
C  -1.04300 6.16700 21.81600
C  -0.27700 7.54500 21.72300
C  0.15000 7.77500 23.14700
C  -0.48700 5.00400 20.90800
C  -1.16600 8.81100 21.18800
C  -0.45400 9.67500 20.14200
N  0.72700 8.57600 26.01400
C  0.91000 9.40700 24.91000
C  1.27100 10.73700 25.40000
C  1.44800 10.62800 26.76100
C  1.01600 9.30400 27.12000
C  1.54500 11.98400 24.47900
C  1.83600 11.31200 28.00200
O  2.28400 12.43600 28.17600
C  1.49600 10.31400 29.19900
C  2.78700 10.13500 29.87300
O  3.69200 9.39400 29.51800
O  2.81300 10.99000 30.97000
C  4.13000 11.23100 31.48500
H  -0.41700 3.53000 29.31600
H  -1.99400 4.04700 23.12400
H  0.90000 9.74000 22.77000
H  1.88100 7.67400 30.77800
H  -0.03300 5.42600 31.11800
H  2.10100 4.62400 31.73500
H  2.95400 5.74500 30.67800
H  2.29800 4.26000 30.02800
H  -1.00800 8.65600 30.90800
H  0.41500 9.14100 31.83300
H  -0.81500 6.46700 32.72300
H  -1.58100 7.94400 33.08600
H  -1.09200 1.59600 28.71100
H  -2.04600 0.75500 27.58700
H  -2.80200 1.93300 28.71300
H  -4.24400 0.21300 24.91300
H  -4.05800 0.79000 26.58300
H  -2.78400 -0.10300 25.67600
H  -2.08700 6.22300 21.50600
H  0.65000 7.42000 21.16400
H  -0.27700 4.10000 21.48000
H  0.45000 5.37000 20.48900
H  -1.12200 4.79800 20.04600
H  -1.46100 9.41300 22.04800
H  -2.02600 8.33500 20.71600
H  -0.98000 9.65600 19.18800
H  0.59700 9.39900 20.05800
H  -0.33500 10.67800 20.55200
H  0.72200 12.46000 23.94600
H  2.20900 11.62800 23.69100
H  2.10800 12.68900 25.09100
H  0.82100 10.86900 29.85100
H  4.92300 10.60900 31.07000
H  4.13000 11.06800 32.56200
H  4.31500 12.26800 31.20400
Mg 40.30800 8.35900 29.65900
C  42.28400 9.71500 32.23200
C  37.95900 7.53700 31.98000
C  38.55700 6.78800 27.19100
C  42.90700 9.03100 27.45000
N  40.27500 8.51100 31.82900
C  41.10300 9.24500 32.70600
C  40.50200 9.36200 34.03800
C  39.31100 8.40400 34.09500
C  39.12800 8.14500 32.50300
C  39.54200 7.07300 34.84900
C  40.04300 10.82800 34.47900
C  39.60000 10.93500 35.97000
H  40.52300 11.68500 36.86200
N  38.45500 7.35200 29.64600
C  37.61500 7.19200 30.67100
C  36.44800 6.37900 30.20700
C  36.57000 6.38600 28.80700
C  37.90600 6.86900 28.48900
C  35.32500 6.00200 31.12500
C  35.54900 6.00300 27.67000
O  35.71700 6.17500 26.48400
C  34.23100 5.39200 28.10000
N  40.74400 7.84100 27.63700
C  39.88200 7.16600 26.85400
C  40.36300 7.14300 25.38100
C  41.70900 7.95600 25.40700
C  41.83100 8.36000 26.94700
C  40.59300 5.65200 24.90200
C  41.74800 9.14400 24.39000
C  40.90300 10.28200 24.58900
N  42.26800 9.13000 29.72800
C  43.19900 9.42700 28.75600
C  44.39100 9.95400 29.31600
C  44.03700 10.24100 30.69300
C  42.72300 9.64900 30.88900
C  45.61300 10.20700 28.57100
C  44.46800 10.76200 31.96400
O  45.53100 11.27300 32.34300
C  43.30600 10.52100 32.90900
C  43.83700 9.81100 34.08500
O  44.28600 8.68100 33.94400
O  43.59400 10.51600 35.22400
C  44.01900 9.87700 36.45400
H  37.22400 7.43800 32.78200
H  38.11000 6.20800 26.38200
H  43.68800 9.17900 26.70100
H  41.27300 9.00700 34.72300
H  38.43400 8.89900 34.51100
H  40.49100 7.05400 35.38500
H  39.51500 6.16600 34.24500
H  38.86800 7.07000 35.70600
H  39.28100 11.20400 33.79600
H  40.89100 11.46200 34.22300
H  39.48900 9.94300 36.40900
H  38.62300 11.41700 35.94500
H  35.57400 6.23900 32.15900
H  35.22900 4.91600 31.10200
H  34.40500 6.53100 30.87700
H  33.77200 6.09000 28.80000
H  34.54400 4.47800 28.60400
H  33.59100 5.25600 27.22800
H  39.56300 7.39800 24.68600
H  42.57200 7.37800 25.07800
H  40.58700 5.69800 23.81300
H  39.74500 5.03500 25.20000
H  41.48700 5.21100 25.34200
H  41.69200 8.56000 23.47100
H  42.75500 9.53100 24.54700
H  40.16200 10.13500 23.80300
H  41.40700 11.21000 24.31800
H  40.46800 10.34400 25.58600
H  45.56800 11.17400 28.07000
H  45.74100 9.46600 27.78200
H  46.45300 10.25700 29.26400
H  42.83200 11.41100 33.32400
H  45.06700 10.08300 36.67300
H  43.80600 8.81200 36.54400
H  43.41300 10.29300 37.25900

