158

Mg 25.30800 1.30200 29.92600
C  27.29600 0.90500 32.87500
C  22.62400 1.54400 31.79900
C  23.54900 1.46100 27.01200
C  28.15200 0.68900 28.05400
N  25.04300 1.16000 32.04300
C  25.94600 1.09800 33.09600
C  25.29800 1.34000 34.49900
C  23.75100 1.40500 34.07100
C  23.79500 1.31500 32.51700
C  22.85700 0.33900 34.70500
C  25.88200 2.60500 35.22300
C  26.31200 2.41700 36.73600
H  25.61700 3.25700 37.82300
N  23.29800 1.41700 29.48000
C  22.35100 1.59200 30.42600
C  21.07700 1.90600 29.73900
C  21.36200 1.71300 28.34800
C  22.80300 1.58100 28.26200
C  19.78200 2.30300 30.52400
C  20.36500 1.61800 27.18900
O  20.78800 1.50500 26.01400
C  18.88400 1.72100 27.44100
N  25.77200 1.01100 27.81400
C  24.90900 1.23100 26.85900
C  25.59500 1.28900 25.43800
C  27.03100 1.33000 25.78600
C  27.03000 0.93300 27.27500
C  25.12400 0.21400 24.35400
C  27.74600 2.60600 25.30700
C  27.58300 3.89500 26.17200
N  27.29900 0.77000 30.31500
C  28.29800 0.54700 29.42800
C  29.52300 0.23000 30.18100
C  29.19800 0.36500 31.53200
C  27.82300 0.67400 31.57200
C  30.84000 -0.25800 29.62100
C  29.63200 0.32500 32.92300
O  30.76100 0.08900 33.33800
C  28.44100 0.75600 33.85100
C  28.09600 -0.30500 34.82400
O  27.31700 -1.16900 34.67700
O  28.88900 -0.11700 35.92800
C  28.62800 -1.05200 36.99500
H  21.72400 1.58300 32.41700
H  23.13300 1.57300 26.00800
H  29.09400 0.62800 27.50400
H  25.52900 0.48600 35.13500
H  23.28300 2.35100 34.34100
H  23.51100 -0.52200 34.84500
H  22.05900 0.02600 34.03200
H  22.52000 0.66300 35.69000
H  25.07300 3.33300 35.27300
H  26.73800 3.12400 34.79100
H  27.36200 2.70300 36.80000
H  26.22300 1.37600 37.04800
H  19.38300 3.21800 30.08700
H  19.96700 2.46000 31.58700
H  19.09900 1.47100 30.35700
H  18.54200 1.37400 28.41600
H  18.44200 1.12100 26.64600
H  18.58700 2.76000 27.29800
H  25.43100 2.19800 24.86000
H  27.47800 0.43900 25.34400
H  24.46700 -0.46500 24.89800
H  25.91300 -0.37100 23.88200
H  24.48500 0.72600 23.63400
H  27.47000 2.80100 24.27100
H  28.78400 2.27300 25.34500
H  28.53600 4.19100 26.61200
H  26.99700 3.68000 27.06600
H  27.18500 4.70500 25.56200
H  31.52700 -0.19000 30.46400
H  30.98400 0.37500 28.74500
H  30.80100 -1.26900 29.21500
H  28.68900 1.60200 34.49100
H  29.06100 -0.80600 37.96500
H  28.90900 -2.06200 36.69800
H  27.57200 -1.11900 37.25900
Mg 30.03600 58.04200 40.58000
C  27.10300 56.04100 39.75000
C  31.88100 55.51600 39.50900
C  32.51800 60.12600 40.43000
C  27.85100 60.52200 41.49600
N  29.47400 55.97800 39.66500
C  28.29900 55.40900 39.33100
C  28.50400 54.26700 38.32500
C  29.97000 53.95800 38.59400
C  30.51200 55.22500 39.30400
C  30.32700 52.64500 39.39300
C  28.18000 54.76500 36.88500
C  27.64300 53.65900 35.96400
H  27.96200 53.62400 34.45800
N  32.00100 57.81700 40.08400
C  32.63200 56.70900 39.74600
C  34.01400 56.89400 39.67200
C  34.18200 58.25400 39.90600
C  32.87200 58.80000 40.18300
C  34.98500 55.83100 39.36700
C  35.57900 58.96200 39.94100
O  36.64600 58.32700 39.82900
C  35.75800 60.44400 40.11400
N  30.11600 60.02100 40.84300
C  31.27400 60.68800 40.69500
C  31.11700 62.21200 40.78500
C  29.71700 62.22500 41.54200
C  29.20100 60.84000 41.34900
C  32.17900 62.86000 41.73800
C  28.73400 63.41100 41.21500
C  28.19400 64.21100 42.37400
N  27.81800 58.31900 40.63800
C  27.16600 59.39600 41.12400
C  25.73600 59.05400 41.05200
C  25.67000 57.75800 40.44700
C  26.99800 57.33300 40.29500
C  24.62800 59.91300 41.40300
C  24.73300 56.69100 40.03600
O  23.49200 56.66100 40.10900
C  25.66100 55.56700 39.53000
C  25.32600 54.35700 40.29500
O  25.95100 53.88200 41.24800
O  24.19500 53.75200 39.69900
C  23.77600 52.41300 40.12600
H  32.48100 54.76300 38.99300
H  33.29700 60.89100 40.45100
H  27.23500 61.37500 41.78800
H  27.85400 53.45100 38.64100
H  30.41800 53.78800 37.61500
H  29.45800 52.20000 39.87800
H  31.14500 52.84300 40.08400
H  30.70400 51.91700 38.67400
H  29.10100 55.11200 36.41700
H  27.27100 55.36700 36.85000
H  26.56300 53.80200 35.98400
H  27.73500 52.66500 36.40300
H  35.96500 56.21100 39.07900
H  34.54600 55.05800 38.73600
H  35.07100 55.32100 40.32600
H  35.24200 60.98900 39.32300
H  36.81400 60.66300 39.96100
H  35.46700 60.72000 41.12800
H  30.97800 62.74000 39.84100
H  29.87900 62.25000 42.62000
H  31.66200 63.56100 42.39400
H  32.86100 63.41700 41.09500
H  32.70500 62.23500 42.45900
H  27.90700 63.06800 40.59300
H  29.35900 64.07900 40.62200
H  28.68300 63.84300 43.27600
H  27.11500 64.21400 42.53200
H  28.56200 65.23500 42.31800
H  23.93100 60.19600 40.61300
H  25.06200 60.84200 41.77200
H  24.06500 59.42600 42.19900
H  25.35300 55.44000 38.49200
H  22.88500 52.59200 40.72800
H  24.53000 51.81400 40.63800
H  23.47300 51.75700 39.31000

