158

Mg 17.33500 -0.59100 27.59200
C  16.41200 1.37300 30.55500
C  19.08300 -2.52900 29.78900
C  18.74900 -1.90000 24.89500
C  15.93400 1.94500 25.64700
N  17.87000 -0.45400 29.94900
C  17.24600 0.28200 30.89800
C  17.63500 -0.14600 32.29200
C  18.80200 -1.18800 32.07300
C  18.54500 -1.44300 30.52300
C  20.24700 -0.77000 32.32700
C  16.52100 -0.87000 33.01100
C  16.59500 -0.89000 34.57200
H  17.87400 -0.31500 35.24800
N  18.73200 -2.02300 27.34900
C  19.30300 -2.80000 28.40500
C  20.04900 -3.89500 27.78300
C  19.89900 -3.80100 26.35200
C  19.14700 -2.56100 26.11300
C  20.89600 -4.96100 28.62900
C  20.45700 -4.70100 25.25500
O  20.31500 -4.50100 24.10900
C  21.06500 -5.98300 25.71800
N  17.18800 -0.11000 25.65100
C  18.01000 -0.71300 24.70800
C  18.02700 -0.05200 23.27500
C  16.81600 0.93400 23.48200
C  16.61600 0.97200 24.98700
C  19.38700 0.70000 22.90100
C  15.48100 0.65500 22.72900
C  15.17500 1.43700 21.49300
N  16.22600 1.16000 27.98700
C  15.79000 2.03900 27.02600
C  15.03500 3.03300 27.67300
C  15.16600 2.74600 29.07100
C  15.97600 1.68100 29.24200
C  14.33800 4.15700 27.04400
C  14.85600 3.30800 30.42100
O  14.22400 4.30800 30.71200
C  15.53700 2.37200 31.43900
C  16.33400 3.22400 32.41500
O  17.51500 3.53700 32.40300
O  15.44500 3.69100 33.37000
C  15.85900 4.85300 34.13700
H  19.57900 -3.26200 30.42900
H  19.28800 -2.25000 24.01200
H  15.49000 2.70700 25.00200
H  17.96800 0.75400 32.80900
H  18.75200 -2.16500 32.55300
H  20.35900 0.20400 32.80400
H  20.74600 -0.78000 31.35800
H  20.72900 -1.39600 33.07800
H  16.60100 -1.89400 32.64700
H  15.56000 -0.47700 32.68000
H  16.49900 -1.96300 34.73600
H  15.67000 -0.37700 34.83600
H  21.01600 -4.53600 29.62500
H  21.86200 -5.22500 28.19800
H  20.35100 -5.90100 28.71300
H  21.09200 -6.62600 24.83900
H  20.34100 -6.42600 26.40100
H  22.02800 -5.80800 26.19900
H  17.80900 -0.82800 22.54100
H  17.20000 1.92400 23.23400
H  19.22400 1.76600 22.74100
H  19.88800 0.15400 22.10200
H  19.94800 0.52000 23.81800
H  14.65300 0.76400 23.43000
H  15.48800 -0.40900 22.49300
H  16.01800 2.11300 21.34700
H  14.24000 1.93000 21.75900
H  15.11900 0.76400 20.63700
H  14.90100 4.67500 26.26700
H  13.99300 4.75700 27.88600
H  13.44900 3.79400 26.52900
H  14.80700 1.88100 32.08400
H  16.66900 4.58400 34.81500
H  14.97500 5.22300 34.65700
H  16.39500 5.57100 33.51600
Mg -13.04900 16.00000 42.37300
C  -9.99200 14.47500 41.69500
C  -11.75400 18.82500 40.45200
C  -16.13200 17.30200 41.92500
C  -14.40300 12.90100 43.18200
N  -11.15200 16.53700 41.16700
C  -10.00700 15.73500 41.12000
C  -8.82300 16.49600 40.38100
C  -9.40900 17.94300 40.21100
C  -10.89600 17.73600 40.59200
C  -8.73600 19.06500 41.06400
C  -8.30700 15.93400 39.01100
C  -6.78400 16.26300 38.91400
H  -6.39300 16.88400 37.66300
N  -13.82800 17.85900 41.61000
C  -13.08300 18.84200 40.88000
C  -14.08800 19.88500 40.42800
C  -15.39200 19.30400 40.46100
C  -15.17100 18.09700 41.34800
C  -13.77900 21.21000 39.86700
C  -16.65000 19.95700 40.01200
O  -16.60900 20.99200 39.39200
C  -17.94900 19.33500 40.28700
N  -14.96600 15.15800 42.37800
C  -16.04800 15.97400 42.39200
C  -17.30000 15.16000 42.77300
C  -16.82600 13.64600 42.81000
C  -15.31600 13.87700 42.80200
C  -17.83900 15.65900 44.13200
C  -17.41800 12.75800 41.67100
C  -18.03700 11.41300 42.19500
N  -12.33600 14.06700 42.75700
C  -12.94800 12.98000 43.12400
C  -11.96000 11.98200 43.27500
C  -10.77300 12.48200 42.74500
C  -11.05900 13.76100 42.38700
C  -12.19700 10.56000 43.66600
C  -9.38200 12.27100 42.47200
O  -8.69500 11.26400 42.61900
C  -8.83200 13.58300 41.76500
C  -7.72500 14.05700 42.60900
O  -7.79200 14.19700 43.82200
O  -6.63400 14.23600 41.75100
C  -5.29300 14.66900 42.31300
H  -11.51100 19.76200 39.94600
H  -17.08900 17.82600 41.96500
H  -14.81900 11.95500 43.53500
H  -8.03600 16.56400 41.13200
H  -9.42000 18.20900 39.15400
H  -7.93700 18.69400 41.70500
H  -9.40400 19.51200 41.80000
H  -8.38000 19.75200 40.29600
H  -8.84700 16.37600 38.17300
H  -8.45800 14.85900 39.11300
H  -6.17600 15.38100 39.11400
H  -6.55500 17.01400 39.67000
H  -14.18400 22.04900 40.43300
H  -14.13400 21.16600 38.83700
H  -12.72400 21.45000 39.73300
H  -18.02200 18.26800 40.07600
H  -18.63700 19.87800 39.63900
H  -18.26800 19.52200 41.31300
H  -17.91000 15.45200 41.91800
H  -17.02600 13.26700 43.81100
H  -17.01600 16.16400 44.63800
H  -17.92200 14.80800 44.80700
H  -18.75200 16.23700 43.99000
H  -16.54000 12.37400 41.15200
H  -18.05800 13.24800 40.93600
H  -19.12600 11.43800 42.16200
H  -17.86600 11.23900 43.25700
H  -17.69200 10.49000 41.73000
H  -12.89600 10.19300 42.91400
H  -12.70700 10.53500 44.62800
H  -11.30800 9.93000 43.69100
H  -8.64200 13.26300 40.74000
H  -4.61200 14.78400 41.46900
H  -4.88200 13.93400 43.00500
H  -5.40300 15.63400 42.80800

