158

Mg 2.30100 -0.82500 43.56600
C  5.56800 0.46000 43.65200
C  1.26900 2.23600 42.40000
C  -0.46600 -2.22900 42.67500
C  3.70100 -3.95400 44.29000
N  3.30300 1.00800 42.99800
C  4.62300 1.30900 43.18000
C  4.86500 2.84300 42.95800
C  3.41300 3.41400 42.81100
C  2.56200 2.13100 42.73800
C  2.99400 4.35700 43.96800
C  5.88600 3.26900 41.84700
C  6.09100 2.48900 40.52900
H  5.68100 3.24200 39.24800
N  0.54800 -0.09600 42.73500
C  0.31300 1.19200 42.37500
C  -1.08200 1.27400 42.04600
C  -1.70600 0.01200 42.06500
C  -0.50300 -0.87300 42.46800
C  -1.66000 2.64500 41.89200
C  -3.16100 -0.26600 41.62400
O  -3.96500 0.59700 41.39400
C  -3.60900 -1.70800 41.54100
N  1.81000 -2.95500 43.16400
C  0.53200 -3.15500 43.06000
C  0.13400 -4.61800 43.41400
C  1.57700 -5.19000 43.81600
C  2.42200 -3.97800 43.73400
C  -0.95000 -4.64000 44.56900
C  2.08200 -6.36900 42.92800
C  1.66500 -7.76100 43.47000
N  4.25000 -1.67200 43.97600
C  4.71200 -2.89900 44.27200
C  6.08900 -2.88500 44.63100
C  6.44200 -1.55700 44.42600
C  5.32800 -0.87500 43.95800
C  6.93100 -4.04100 44.93900
C  7.56600 -0.59200 44.43800
O  8.77400 -0.77000 44.68800
C  7.03200 0.77500 44.00800
C  7.29800 1.76000 45.09900
O  8.15000 2.58000 44.99600
O  6.34900 1.70200 46.08500
C  6.48100 2.67500 47.15300
H  1.01000 3.18100 41.91800
H  -1.45000 -2.67100 42.50500
H  4.01200 -4.88100 44.77600
H  5.44800 3.09600 43.84400
H  3.27700 3.91500 41.85300
H  3.78300 4.30900 44.71900
H  2.03400 4.10500 44.42000
H  2.87400 5.39900 43.67200
H  6.82000 3.48000 42.36700
H  5.55200 4.27900 41.60700
H  5.33700 1.70200 40.53900
H  7.14300 2.22700 40.41300
H  -2.70100 2.74100 42.20000
H  -1.53200 2.89200 40.83800
H  -1.12700 3.36700 42.51200
H  -4.66700 -1.67000 41.27900
H  -3.58300 -2.17800 42.52400
H  -3.04800 -2.28400 40.80500
H  -0.36900 -5.25400 42.68600
H  1.64000 -5.36900 44.88900
H  -1.85700 -5.16300 44.26500
H  -1.15400 -3.65400 44.98700
H  -0.55900 -5.31700 45.32800
H  3.17000 -6.42400 42.96000
H  1.88200 -6.34000 41.85700
H  1.26000 -8.37700 42.66700
H  0.93700 -7.75600 44.28100
H  2.59200 -8.24900 43.76900
H  6.53900 -4.69700 45.71600
H  7.89500 -3.59100 45.17800
H  7.17300 -4.66500 44.08000
H  7.68800 1.01200 43.17000
H  6.30500 3.67900 46.76600
H  7.44200 2.65700 47.66600
H  5.69600 2.58000 47.90400
Mg 40.79500 40.98900 26.69900
C  40.38500 43.38000 29.18100
C  41.58000 38.71900 29.09400
C  41.58000 38.78200 24.32800
C  40.28600 43.43100 24.32900
N  41.09700 41.13400 28.90200
C  40.58300 42.09100 29.74800
C  40.57400 41.70000 31.27600
C  41.06800 40.23700 31.10300
C  41.25100 40.01300 29.56500
C  42.34500 39.96200 31.94100
C  39.11500 41.89600 31.93300
C  39.00000 41.26200 33.31300
H  39.19100 42.22600 34.48900
N  41.59700 39.02000 26.73200
C  41.83100 38.24700 27.80100
C  42.26700 36.95800 27.40200
C  42.35900 36.90700 26.01100
C  41.87100 38.30400 25.62700
C  42.58900 35.89900 28.48500
C  42.86200 35.87400 25.05500
O  42.75900 35.92600 23.77200
C  43.46500 34.66700 25.71200
N  40.85200 41.08500 24.64100
C  41.23200 40.00500 23.82600
C  41.07400 40.34700 22.30100
C  40.47100 41.85100 22.36000
C  40.49500 42.14700 23.83800
C  42.29500 40.17400 21.37400
C  39.12300 42.06100 21.58000
C  39.26400 42.15400 20.04700
N  40.37600 42.98900 26.67600
C  40.19600 43.86700 25.64000
C  40.00400 45.17800 26.12500
C  40.08000 45.03500 27.46400
C  40.28500 43.67800 27.79600
C  40.04300 46.38000 25.29700
C  39.92300 45.76100 28.70900
O  39.65900 46.91200 29.01400
C  40.06100 44.68100 29.87700
C  41.15900 45.19400 30.80800
O  42.32200 45.34400 30.47400
O  40.76600 45.45400 32.10400
C  41.76200 45.98300 33.06400
H  41.55200 38.00900 29.92400
H  41.63300 37.98600 23.58300
H  40.06000 44.15800 23.54600
H  41.26300 42.35900 31.80400
H  40.33100 39.51800 31.46100
H  42.45900 40.64300 32.78400
H  43.24300 40.11800 31.34300
H  42.24700 38.96700 32.37500
H  38.29500 41.54000 31.30900
H  38.99300 42.97200 32.06100
H  39.65100 40.41100 33.51500
H  38.02000 40.80600 33.17700
H  42.05000 35.05700 28.05200
H  42.10900 36.01700 29.45600
H  43.65700 35.68100 28.48600
H  42.69900 34.04400 26.17300
H  44.29900 35.02400 26.31700
H  43.92000 34.03400 24.95100
H  40.25900 39.74700 21.89800
H  41.16700 42.57500 21.93600
H  41.99600 39.48100 20.58800
H  43.02900 39.53800 21.86900
H  42.74400 40.99200 20.81100
H  38.58200 42.95100 21.90400
H  38.57400 41.14200 21.78700
H  38.63000 42.97300 19.70800
H  38.93300 41.23200 19.56900
H  40.25800 42.24900 19.60900
H  40.58000 47.08500 25.93300
H  39.10200 46.84100 24.99800
H  40.68400 46.28900 24.42000
H  39.15600 44.40900 30.42000
H  41.46100 45.44900 33.96500
H  41.71000 47.03800 33.33500
H  42.79600 45.75900 32.80500

