158

Mg 0.10900 43.44600 25.34700
C  2.41300 43.00000 27.90000
C  -2.43500 42.58400 27.46700
C  -2.08400 43.71000 22.83000
C  2.80400 43.65500 23.09800
N  0.03400 42.83900 27.48000
C  1.05400 42.86800 28.37000
C  0.47100 42.78200 29.84800
C  -0.96000 42.22400 29.54900
C  -1.16500 42.55200 28.06800
C  -1.21000 40.69100 29.96500
C  0.56100 44.18600 30.52900
C  0.50000 44.13000 32.09900
H  0.39000 42.76900 32.67800
N  -2.03100 43.31600 25.16100
C  -2.85700 42.93100 26.13800
C  -4.19500 42.95500 25.65700
C  -4.14700 43.42300 24.32500
C  -2.73000 43.55100 24.05900
C  -5.41000 42.71300 26.50500
C  -5.20500 43.93200 23.33200
O  -4.84500 44.48400 22.25700
C  -6.72500 43.81500 23.65300
N  0.35200 43.70000 23.26500
C  -0.74300 43.73200 22.43100
C  -0.26600 43.67200 20.94600
C  1.26500 43.98500 21.10400
C  1.51900 43.73800 22.56900
C  -0.57700 42.28800 20.24200
C  1.68300 45.33600 20.54700
C  1.09800 46.56200 21.13800
N  2.26000 43.27400 25.37500
C  3.18100 43.39500 24.41800
C  4.59100 43.37100 25.03700
C  4.27300 43.13100 26.37700
C  2.87300 43.09900 26.56200
C  5.87400 43.54600 24.34200
C  4.91500 42.92300 27.69700
O  6.06900 42.92700 28.04400
C  3.70400 42.81300 28.76000
C  3.79100 41.57000 29.50000
O  3.36800 40.51400 29.05200
O  4.36000 41.74700 30.77000
C  4.29200 40.61300 31.68600
H  -3.29100 42.34700 28.10200
H  -2.72200 43.66300 21.94500
H  3.57700 43.85400 22.35400
H  1.12700 42.06700 30.34400
H  -1.63900 42.79400 30.18400
H  -1.11500 39.87900 29.24500
H  -2.07500 40.71000 30.62700
H  -0.36900 40.45300 30.61600
H  -0.30500 44.74300 30.17300
H  1.50900 44.64200 30.24300
H  -0.31800 44.73900 32.48400
H  1.38500 44.63800 32.48400
H  -6.20900 42.15200 26.02000
H  -5.83900 43.68200 26.76000
H  -5.12300 42.12100 27.37300
H  -7.39000 44.23700 22.90100
H  -6.96200 44.30400 24.59800
H  -7.01500 42.77500 23.80800
H  -0.74600 44.56900 20.55500
H  1.89000 43.22100 20.64100
H  -0.82200 41.53000 20.98600
H  0.28300 41.90800 19.69100
H  -1.48600 42.24000 19.64200
H  1.22600 45.40400 19.56000
H  2.77200 45.39400 20.54200
H  0.75900 47.20000 20.32200
H  1.90100 47.10300 21.63900
H  0.21300 46.36400 21.74300
H  5.90400 44.38200 23.64300
H  6.27900 42.63600 23.89900
H  6.60500 43.89500 25.07100
H  3.82100 43.59100 29.51400
H  5.16200 40.71200 32.33500
H  4.34200 39.66000 31.16000
H  3.45400 40.82600 32.35100
Mg -9.11500 18.43400 42.37000
C  -5.61800 18.14600 42.48400
C  -8.81400 21.75000 41.60200
C  -12.36100 18.58800 41.89800
C  -9.23500 14.86600 42.12200
N  -7.45700 19.78200 42.08500
C  -6.07400 19.47400 42.16900
C  -5.22100 20.71300 42.03700
C  -6.30200 21.86200 42.02600
C  -7.64000 21.08500 41.89600
C  -6.13900 22.84700 43.23100
C  -4.11900 20.75700 40.95100
C  -4.49300 20.13400 39.62200
H  -4.56400 21.01300 38.37000
N  -10.47800 19.96000 41.90100
C  -10.08700 21.23500 41.66800
C  -11.26800 22.00400 41.33900
C  -12.39600 21.20100 41.56800
C  -11.78300 19.88700 41.85000
C  -11.23000 23.42100 40.89900
C  -13.82700 21.53700 41.42100
O  -14.13800 22.60300 40.91200
C  -14.84100 20.54400 41.80000
N  -10.62000 16.95800 42.09200
C  -11.91800 17.27800 42.07700
C  -12.83100 16.05200 42.11800
C  -11.81500 14.87700 42.10700
C  -10.43900 15.58600 42.02400
C  -13.72800 15.96500 43.35700
C  -12.00700 14.02500 40.84900
C  -12.99100 12.85600 41.00000
N  -7.74800 16.82400 42.47400
C  -7.99000 15.48300 42.29900
C  -6.75900 14.77300 42.33600
C  -5.78700 15.82600 42.53300
C  -6.46400 17.02400 42.55900
C  -6.56400 13.24100 42.12500
C  -4.32300 16.07700 42.58500
O  -3.43500 15.24800 42.62700
C  -4.13000 17.66300 42.55300
C  -3.25900 18.23100 43.66800
O  -2.26500 18.93400 43.57200
O  -3.84900 17.75900 44.88300
C  -3.38100 18.18400 46.23900
H  -8.67600 22.81900 41.42500
H  -13.40800 18.55700 41.58700
H  -9.04000 13.79300 42.18300
H  -4.79000 20.74900 43.03800
H  -6.27300 22.49300 41.13800
H  -5.13800 22.85200 43.66200
H  -6.71100 22.53000 44.10300
H  -6.36200 23.87200 42.93700
H  -3.21100 20.25600 41.28400
H  -3.77700 21.77800 40.78100
H  -5.38500 19.52100 39.75500
H  -3.73600 19.37600 39.42200
H  -10.90200 24.07700 41.70400
H  -12.10500 23.81000 40.37800
H  -10.43300 23.45000 40.15500
H  -14.48200 20.15500 42.75300
H  -14.90300 19.74000 41.06600
H  -15.80900 21.00400 42.00300
H  -13.44300 16.13600 41.22000
H  -11.79500 14.33400 43.05100
H  -13.32700 16.58200 44.16100
H  -13.85900 14.92900 43.66900
H  -14.73300 16.34400 43.16800
H  -10.99500 13.73500 40.56600
H  -12.39200 14.75200 40.13400
H  -13.79800 13.06400 40.29700
H  -13.48500 12.62600 41.94400
H  -12.47400 11.95000 40.68500
H  -6.78900 12.90600 41.11300
H  -7.10900 12.67500 42.88100
H  -5.48200 13.18000 42.24600
H  -3.63000 17.87800 41.60800
H  -2.50300 18.82600 46.17200
H  -3.21000 17.28400 46.83000
H  -4.26600 18.72200 46.57900

