158

Mg 24.41400 -5.42700 45.85000
C  26.79800 -3.02800 44.47700
C  22.16700 -4.01000 43.63100
C  22.62800 -8.15800 46.31700
C  27.23800 -6.85500 47.51200
N  24.48700 -3.72900 44.28200
C  25.55400 -2.95000 43.90000
C  25.20400 -2.07500 42.71800
C  23.65300 -2.04600 42.64200
C  23.39600 -3.28300 43.64700
C  23.10000 -0.76300 43.07800
C  25.76800 -2.77300 41.43800
C  26.65500 -1.86000 40.45200
H  26.00700 -1.56600 39.08900
N  22.53000 -5.96200 45.21100
C  21.81100 -5.30400 44.23400
C  20.55700 -6.01500 44.11700
C  20.69200 -7.16900 44.93600
C  21.97000 -7.13000 45.56600
C  19.47500 -5.62800 43.18400
C  19.52500 -8.15100 45.14200
O  18.55800 -8.14200 44.38900
C  19.42600 -9.14100 46.37200
N  24.86400 -7.17300 46.86700
C  23.91800 -8.12100 47.01300
C  24.46300 -9.31400 47.83800
C  25.87300 -8.84300 48.31900
C  26.01800 -7.60300 47.50200
C  23.53200 -9.76700 48.99800
C  26.96800 -9.89000 47.98800
C  28.05100 -10.17000 49.13000
N  26.64800 -4.94900 46.17200
C  27.51500 -5.62300 46.89200
C  28.74000 -4.86400 46.76500
C  28.48900 -3.85400 45.85300
C  27.22900 -3.98300 45.47000
C  29.93300 -5.39400 47.53100
C  29.13100 -2.74600 45.24300
O  30.29700 -2.35400 45.27300
C  28.01500 -2.11800 44.26900
C  27.87700 -0.66900 44.70800
O  28.46000 0.27800 44.26600
O  26.94300 -0.58200 45.78500
C  26.95600 0.71500 46.46000
H  21.40400 -3.61300 42.95800
H  22.15400 -9.13800 46.40400
H  28.06900 -7.42000 47.94000
H  25.55600 -1.05500 42.87500
H  23.30500 -2.30400 41.64200
H  22.19900 -0.85700 43.68400
H  22.69900 -0.22500 42.21900
H  23.77300 -0.11200 43.63600
H  25.06800 -3.35200 40.83600
H  26.54600 -3.43200 41.82300
H  27.57700 -2.40500 40.24800
H  26.87200 -0.91700 40.95400
H  19.52700 -6.29600 42.32400
H  19.62600 -4.59500 42.87000
H  18.49300 -5.64900 43.65600
H  20.01100 -8.86000 47.24800
H  19.69600 -10.17900 46.18100
H  18.35100 -9.20000 46.54200
H  24.50300 -10.15400 47.14400
H  25.80500 -8.67600 49.39400
H  22.56900 -9.26500 48.90600
H  23.79500 -9.57000 50.03800
H  23.24500 -10.81700 48.94200
H  27.54300 -9.38400 47.21200
H  26.65600 -10.85100 47.58000
H  28.15800 -11.23900 49.31400
H  27.78700 -9.60200 50.02200
H  28.93900 -9.62100 48.81600
H  30.29900 -6.29900 47.04700
H  29.68300 -5.59400 48.57300
H  30.73000 -4.68200 47.31500
H  28.25200 -2.10700 43.20500
H  26.02400 0.89000 46.99700
H  27.09000 1.51200 45.72900
H  27.80200 0.81900 47.14000
Mg 17.22000 51.99000 26.46800
C  18.79700 50.45800 29.09700
C  14.71100 53.00600 28.63200
C  15.65200 53.56100 23.79500
C  19.51000 50.58400 24.37900
N  16.74100 51.58000 28.57900
C  17.63800 51.12400 29.46900
C  17.28500 51.46800 30.90100
C  15.80700 51.90100 30.73900
C  15.73000 52.20400 29.24400
C  14.70700 50.92300 31.37900
C  18.26200 52.41100 31.55700
C  18.60900 52.22300 33.04700
H  17.57800 51.60300 33.93500
N  15.50800 53.10800 26.28100
C  14.63200 53.44600 27.33000
C  13.64700 54.42200 26.81400
C  13.85600 54.57600 25.38500
C  15.03300 53.71200 25.09300
C  12.53800 55.08600 27.73400
C  13.13700 55.43200 24.33600
O  13.53000 55.51000 23.15700
C  12.05100 56.36600 24.75000
N  17.42100 51.91500 24.34000
C  16.77100 52.77000 23.47900
C  17.30900 52.61600 21.98700
C  18.40200 51.53400 22.17800
C  18.48500 51.32400 23.68100
C  16.15000 52.43500 20.99200
C  19.74800 51.99400 21.53000
C  20.42700 53.20100 22.16800
N  18.69800 50.72100 26.60700
C  19.58200 50.23000 25.68000
C  20.67600 49.37300 26.25500
C  20.41200 49.50600 27.57100
C  19.19500 50.28000 27.75700
C  21.69400 48.55600 25.58700
C  20.82600 49.17400 28.91100
O  21.82100 48.47200 29.20900
C  19.87100 49.76600 29.99900
C  19.36000 48.73400 30.99300
O  18.67100 47.77500 30.76300
O  19.92000 48.98400 32.26800
C  19.57300 48.08300 33.32700
H  13.95200 53.33600 29.34500
H  15.29100 54.06100 22.89300
H  20.34100 50.22500 23.76800
H  17.41000 50.45800 31.29100
H  15.64800 52.80800 31.32100
H  15.25800 50.01500 31.62400
H  13.93900 50.72800 30.63000
H  14.15000 51.36300 32.20600
H  17.72600 53.36000 31.57000
H  19.18200 52.44700 30.97300
H  18.65200 53.17300 33.57800
H  19.55000 51.69800 33.21000
H  11.52600 55.13600 27.33400
H  12.98000 56.06300 27.93200
H  12.45300 54.47300 28.63100
H  11.64400 56.95900 23.93100
H  12.34100 57.00500 25.58400
H  11.23900 55.69900 25.04000
H  17.72700 53.60000 21.77300
H  18.07200 50.58600 21.75500
H  15.26700 52.04400 21.49800
H  16.38300 51.67700 20.24500
H  15.84800 53.35200 20.48500
H  19.59000 52.18600 20.46900
H  20.57100 51.29100 21.65900
H  19.94100 53.48000 23.10400
H  20.36900 54.11200 21.57200
H  21.50400 53.04600 22.23400
H  21.28700 48.17300 24.65100
H  21.98900 47.66500 26.14100
H  22.63000 49.09200 25.42900
H  20.39000 50.56900 30.52200
H  20.16700 48.35000 34.20000
H  19.83900 47.09200 32.95900
H  18.48900 48.14300 33.42500

