158

Mg 7.45800 52.92200 41.84400
C  7.43900 49.43600 41.79100
C  10.70000 52.77200 40.48400
C  7.10500 56.14000 41.04400
C  3.98700 52.67700 42.64100
N  8.84000 51.34500 41.20500
C  8.64500 49.96200 41.31500
C  9.94900 49.20000 40.90600
C  10.96500 50.26700 41.08600
C  10.14300 51.55700 40.88800
C  11.74500 50.29400 42.41000
C  9.95800 48.50700 39.49700
C  9.59900 49.26800 38.17500
H  8.25300 48.98000 37.47400
N  8.80100 54.29200 40.94400
C  10.05200 54.04600 40.49200
C  10.56200 55.26900 39.96600
C  9.59800 56.36800 40.23900
C  8.43400 55.66400 40.78200
C  11.99400 55.37700 39.44300
C  9.95800 57.83700 40.10900
O  10.98900 58.15600 39.56800
C  8.95800 58.88300 40.54900
N  5.84100 54.14600 41.80100
C  5.92300 55.45100 41.41300
C  4.42200 56.06600 41.44800
C  3.56700 55.00700 42.10500
C  4.53500 53.88700 42.26000
C  4.41700 57.53200 42.00300
C  2.25500 54.69700 41.37400
C  1.02900 54.55100 42.33400
N  6.11200 51.37100 42.34100
C  4.78700 51.47800 42.75000
C  4.31600 50.15400 43.09700
C  5.31900 49.31500 42.81400
C  6.35900 50.10100 42.27500
C  2.96400 49.86600 43.71500
C  5.68400 47.90100 42.82900
O  5.08700 46.89800 43.24100
C  7.08900 47.91700 42.12900
C  7.00200 46.88700 41.01800
O  6.30200 46.94500 39.97700
O  7.71400 45.71000 41.44900
C  7.59500 44.55300 40.58700
H  11.76700 52.67600 40.27200
H  7.05500 57.17900 40.71200
H  2.92200 52.59500 42.87000
H  10.06900 48.40600 41.64200
H  11.62900 50.28800 40.22200
H  11.37200 49.55000 43.11400
H  11.54000 51.24500 42.90100
H  12.82300 50.20500 42.27100
H  9.41300 47.56500 39.55100
H  10.99100 48.16400 39.43900
H  10.40000 49.07900 37.46000
H  9.45900 50.32900 38.37800
H  11.88200 55.62200 38.38700
H  12.67000 54.53600 39.60300
H  12.48000 56.27100 39.83500
H  8.24400 58.92800 39.72600
H  9.43300 59.86300 40.60500
H  8.47900 58.76200 41.52100
H  4.29400 56.16600 40.37000
H  3.50300 55.47600 43.08700
H  4.45500 58.24200 41.17700
H  5.24800 57.71200 42.68500
H  3.41900 57.73500 42.39000
H  2.28300 53.79200 40.76700
H  2.06200 55.60100 40.79700
H  0.39500 55.42900 42.20600
H  1.46600 54.51900 43.33200
H  0.37600 53.69300 42.17200
H  2.70900 48.81000 43.80500
H  2.21500 50.24900 43.02100
H  2.78500 50.46900 44.60500
H  7.90800 47.53300 42.73700
H  7.72300 44.73900 39.52000
H  6.58600 44.16600 40.73100
H  8.27700 43.76600 40.90900
Mg -2.09000 34.63600 26.06800
C  -3.65900 32.86700 28.60200
C  -0.86000 36.81000 28.43600
C  -0.85200 36.54900 23.57800
C  -3.74000 32.58600 23.74600
N  -2.21400 34.80600 28.25600
C  -2.80700 33.93100 29.09000
C  -2.51100 34.27400 30.54100
C  -1.80100 35.67100 30.43100
C  -1.58300 35.77300 28.90400
C  -2.66700 36.85600 31.02700
C  -1.72500 33.18200 31.37200
C  -2.37100 32.75000 32.74500
H  -1.44100 33.00800 33.99200
N  -0.87300 36.17600 26.02000
C  -0.40000 36.89800 27.10700
C  0.57900 37.88300 26.62200
C  0.64300 37.79000 25.20700
C  -0.39500 36.81700 24.87200
C  1.29900 38.76400 27.64200
C  1.57800 38.38300 24.20700
O  1.57900 38.05900 23.01100
C  2.73500 39.34600 24.56400
N  -2.49200 34.70900 23.94300
C  -1.79900 35.58400 23.16000
C  -1.90700 35.11100 21.68000
C  -2.76900 33.82200 21.74700
C  -3.05300 33.68100 23.19500
C  -2.53500 36.27300 20.84900
C  -2.00700 32.53300 21.20100
C  -1.21400 31.63900 22.07200
N  -3.46500 33.10500 26.06900
C  -4.03100 32.35300 25.06000
C  -4.80400 31.29700 25.60500
C  -4.71500 31.50700 26.95600
C  -3.89800 32.58100 27.22100
C  -5.62700 30.28500 24.77600
C  -5.22900 30.97600 28.20300
O  -6.02300 30.08900 28.48700
C  -4.57600 31.88500 29.32900
C  -5.64000 32.54800 30.14300
O  -6.04700 33.66200 29.87800
O  -5.94900 31.81800 31.27700
C  -6.90600 32.55100 32.18800
H  -0.51600 37.55000 29.16200
H  -0.59900 37.22100 22.75600
H  -4.13900 31.85600 23.03900
H  -3.49500 34.25300 31.00700
H  -0.86100 35.78900 30.96800
H  -3.17500 37.30000 30.17100
H  -1.92100 37.51500 31.47200
H  -3.43200 36.47900 31.70600
H  -0.70900 33.48500 31.62600
H  -1.84600 32.34900 30.67900
H  -2.67100 31.70200 32.75800
H  -3.33600 33.25200 32.81900
H  1.48500 39.77200 27.27000
H  2.26900 38.26900 27.69400
H  0.84900 38.83300 28.63200
H  3.07700 39.90500 23.69300
H  3.57200 38.77700 24.96900
H  2.29700 40.12000 25.19400
H  -0.89200 34.87600 21.36000
H  -3.72500 33.97600 21.24600
H  -2.74400 37.11000 21.51600
H  -3.45500 36.02300 20.32200
H  -1.77300 36.70300 20.19900
H  -1.34200 32.96900 20.45600
H  -2.76400 31.92400 20.70800
H  -1.63600 30.63500 22.03100
H  -1.13500 32.00600 23.09500
H  -0.15500 31.53300 21.83900
H  -5.51200 29.35200 25.32700
H  -5.04600 30.16400 23.86200
H  -6.62300 30.70800 24.64200
H  -4.05100 31.18000 29.97400
H  -6.43900 33.50600 32.42900
H  -7.17600 32.01300 33.09600
H  -7.78800 32.72000 31.57000

