158

Mg 0.37400 8.03800 26.66400
C  1.36000 9.82200 29.49900
C  0.75800 5.11000 28.45700
C  0.46900 6.30900 23.74000
C  0.71900 10.99900 24.84100
N  1.05300 7.59300 28.80000
C  1.19000 8.41700 29.81300
C  1.10900 7.69200 31.21600
C  1.22400 6.23500 30.74800
C  0.85600 6.29200 29.23700
C  2.50300 5.43900 30.98700
C  -0.22400 7.90300 32.00900
C  -0.19300 8.35500 33.45800
H  0.95000 7.90300 34.33800
N  0.41100 5.93900 26.20600
C  0.48700 4.89600 27.08700
C  0.40900 3.67700 26.35800
C  0.30000 4.02300 24.98900
C  0.34500 5.50600 24.92600
C  0.47500 2.28900 26.97800
C  -0.14300 3.07100 23.82900
O  -0.38600 3.54000 22.76200
C  -0.32900 1.54000 23.96800
N  0.40900 8.59900 24.60900
C  0.41400 7.67600 23.53400
C  0.50400 8.36300 22.25700
C  0.03700 9.76800 22.65000
C  0.38600 9.84500 24.14800
C  1.89600 8.31200 21.67700
C  -1.54300 9.92100 22.41500
C  -1.94100 10.41400 21.05100
N  0.87200 10.00200 27.02900
C  1.02400 11.08700 26.18800
C  1.30900 12.24600 26.93200
C  1.50300 11.75000 28.23700
C  1.13500 10.42800 28.23900
C  1.54200 13.71400 26.43600
C  1.96500 12.15200 29.57200
O  2.44300 13.20400 30.01100
C  1.65600 10.87600 30.51800
C  2.78800 10.57300 31.26400
O  3.90900 10.18100 30.90200
O  2.51400 11.08200 32.54900
C  3.72100 11.44100 33.33000
H  0.91400 4.21100 29.05700
H  0.60500 5.72700 22.82600
H  0.86400 11.80100 24.11400
H  1.93200 8.03100 31.84400
H  0.46400 5.72400 31.34000
H  3.22500 5.46700 30.17100
H  2.19300 4.47400 31.38800
H  2.95800 5.91900 31.85400
H  -0.86400 7.02500 32.09000
H  -0.78000 8.59900 31.38000
H  -1.09600 8.18100 34.04400
H  -0.18400 9.44400 33.50400
H  0.91600 2.39700 27.96800
H  0.98000 1.52100 26.39300
H  -0.53300 1.93500 27.19600
H  -0.86800 1.29500 23.05300
H  -0.89200 1.18700 24.83300
H  0.65900 1.10400 23.82300
H  -0.22900 7.88800 21.60500
H  0.50000 10.62200 22.15500
H  2.12200 9.32200 21.33400
H  1.95800 7.71800 20.76600
H  2.57800 8.00900 22.47100
H  -1.93300 10.67100 23.10300
H  -2.14700 9.04600 22.65500
H  -1.06600 10.47500 20.40300
H  -2.47700 11.36300 21.08800
H  -2.59600 9.62200 20.69000
H  1.82800 13.74900 25.38500
H  2.25900 14.25700 27.05200
H  0.56400 14.17600 26.57400
H  0.73400 11.08000 31.06300
H  4.28900 12.21400 32.81000
H  4.52800 10.73100 33.51400
H  3.46500 11.92500 34.27200
Mg 36.05500 2.48700 30.28600
C  33.41300 3.44900 32.34800
C  38.22500 2.48100 32.99900
C  38.56400 1.34900 28.26900
C  33.80200 2.31800 27.59200
N  35.82900 2.88000 32.39700
C  34.62500 3.21300 33.01400
C  34.86300 3.31300 34.53800
C  36.40300 3.40300 34.63800
C  36.90200 2.88000 33.21300
C  36.74400 4.89100 34.74100
C  34.19500 2.03000 35.20400
C  33.69100 2.05100 36.65100
H  34.34100 3.07500 37.66200
N  38.11300 2.00800 30.54400
C  38.78800 2.08500 31.73700
C  40.14700 1.72900 31.55700
C  40.24800 1.40300 30.19900
C  38.96700 1.57600 29.59300
C  41.12400 1.57300 32.70900
C  41.45300 0.91200 29.44000
O  41.43000 0.64300 28.23400
C  42.77900 0.76400 30.13100
N  36.21600 2.12500 28.15800
C  37.27900 1.51200 27.63800
C  37.02000 1.07100 26.17400
C  35.48100 1.09900 26.09200
C  35.16400 1.92200 27.35700
C  37.68000 2.03700 25.10800
C  34.78100 -0.25400 26.17800
C  33.95000 -0.57900 24.89700
N  34.10700 3.05700 29.89300
C  33.32000 2.92300 28.80200
C  31.90600 3.23300 29.17300
C  31.94700 3.47700 30.57500
C  33.29200 3.37600 30.91400
C  30.70800 3.13300 28.30100
C  31.15000 3.88700 31.71900
O  29.99200 4.23900 31.85200
C  32.11400 3.80000 32.91400
C  31.98100 5.14300 33.58600
O  32.38900 6.16300 33.21500
O  31.55100 4.91900 34.84600
C  31.79500 6.01500 35.79800
H  38.83100 2.61400 33.89800
H  39.23700 0.87000 27.55500
H  32.99400 2.04300 26.91100
H  34.35800 4.18600 34.95300
H  36.69800 2.88400 35.55100
H  37.54500 5.16100 34.05200
H  36.97800 5.17100 35.76800
H  35.89300 5.54100 34.53600
H  34.88200 1.20600 35.01500
H  33.36800 1.70800 34.57000
H  33.58100 1.06300 37.09600
H  32.69000 2.41800 36.42200
H  40.61700 1.36100 33.65100
H  41.53100 2.55900 32.93100
H  42.02400 0.98100 32.54900
H  43.08700 1.63500 30.70800
H  43.53000 0.59600 29.36000
H  42.81000 -0.18600 30.66500
H  37.38400 0.05400 26.03300
H  35.11800 1.71400 25.26800
H  37.08500 2.09800 24.19700
H  38.64500 1.67300 24.75600
H  37.61500 3.06100 25.47700
H  33.95900 -0.19700 26.89300
H  35.47400 -1.04000 26.47700
H  33.82000 -1.64400 24.70600
H  34.52800 -0.17600 24.06500
H  33.03300 -0.00000 24.77700
H  30.68900 2.18600 27.76200
H  30.81300 3.93200 27.56700
H  29.76700 3.17700 28.85000
H  31.68000 2.93500 33.41500
H  30.94000 6.68700 35.86200
H  32.70400 6.56000 35.54500
H  31.94500 5.55900 36.77700

