158

Mg 26.12000 1.56100 29.22900
C  28.04900 1.22200 32.14400
C  23.42800 2.25000 31.30300
C  24.21600 1.40100 26.64100
C  28.84700 0.27800 27.39000
N  25.86700 1.77700 31.51900
C  26.74600 1.53200 32.47400
C  26.24200 1.95800 33.85000
C  24.71600 2.19800 33.63100
C  24.64300 2.00600 32.02800
C  23.78700 1.25300 34.55200
C  26.88800 3.20500 34.39600
C  27.19400 3.07100 35.91900
H  26.77200 4.16400 36.97400
N  24.11800 1.87600 28.98900
C  23.16100 2.21000 29.92800
C  21.83000 2.32200 29.33900
C  22.01800 2.00200 27.99400
C  23.49800 1.80900 27.82500
C  20.48000 2.63800 30.04600
C  21.05800 1.98000 26.85500
O  21.36000 1.76900 25.69600
C  19.66100 2.39000 27.14700
N  26.51500 0.85800 27.27600
C  25.50300 0.93900 26.40200
C  25.99100 0.74100 24.95300
C  27.55200 0.66000 25.16700
C  27.64800 0.55300 26.65500
C  25.25500 -0.37100 24.11700
C  28.40000 1.89700 24.68100
C  29.58500 1.48800 23.74300
N  28.09400 0.80900 29.60500
C  29.11900 0.42300 28.77100
C  30.34700 0.29600 29.53300
C  30.02700 0.54400 30.89700
C  28.59500 0.84700 30.89300
C  31.60000 -0.14300 28.84500
C  30.49000 0.58400 32.24700
O  31.56200 0.41400 32.81700
C  29.26800 1.00900 33.08600
C  28.94000 -0.07600 34.16300
O  28.36800 -1.07500 33.94500
O  29.28500 0.35600 35.43900
C  29.15000 -0.58900 36.47200
H  22.52900 2.35800 31.91400
H  23.64500 1.42900 25.71000
H  29.68400 0.05900 26.72400
H  26.19300 1.18000 34.61200
H  24.41400 3.22200 33.85500
H  22.83300 1.02600 34.07600
H  23.70600 1.79100 35.49600
H  24.14700 0.24700 34.77200
H  26.33400 4.12400 34.20700
H  27.86100 3.45800 33.97500
H  28.28400 3.09600 35.90700
H  26.76200 2.12000 36.23000
H  20.60400 2.95100 31.08300
H  19.77400 1.81100 30.10700
H  19.95100 3.37200 29.43800
H  19.25700 1.77500 27.95100
H  19.07800 2.20200 26.24600
H  19.50500 3.46700 27.20900
H  25.69200 1.66500 24.46000
H  28.00300 -0.28000 24.84800
H  24.80400 0.04100 23.21400
H  24.42500 -0.76900 24.70100
H  25.95100 -1.15400 23.81600
H  28.81000 2.42300 25.54300
H  27.80800 2.60100 24.09600
H  30.58100 1.60800 24.16900
H  29.52800 2.04600 22.80800
H  29.48600 0.45800 23.40200
H  32.17800 0.63900 28.35200
H  31.41300 -0.85800 28.04400
H  32.23300 -0.72200 29.51700
H  29.51600 1.88400 33.68600
H  30.12000 -0.65300 36.96500
H  28.87600 -1.62000 36.24900
H  28.42700 -0.38000 37.26100
Mg 41.58000 8.99500 29.88000
C  43.51400 10.04900 32.51300
C  39.36600 7.48800 31.98700
C  39.78500 7.69300 27.22000
C  44.11000 9.76700 27.66400
N  41.52400 8.71100 31.98900
C  42.32000 9.40900 32.93400
C  41.67800 9.21400 34.35800
C  40.44500 8.25700 34.08900
C  40.38400 8.27100 32.63100
C  40.54500 6.88000 34.73300
C  41.33400 10.51000 35.16300
C  41.43200 10.28400 36.75300
H  41.38600 11.50800 37.67600
N  39.73300 7.81300 29.61100
C  39.07000 7.25600 30.68200
C  38.02200 6.51200 30.17200
C  37.93600 6.69300 28.78700
C  39.17100 7.42900 28.46700
C  37.03000 5.74800 31.04200
C  36.86400 6.33100 27.75700
O  37.10300 6.44400 26.54500
C  35.46500 5.96500 28.19200
N  41.89400 8.72800 27.75700
C  41.05900 8.21500 26.92800
C  41.62900 8.06000 25.52500
C  43.00500 8.83900 25.61200
C  42.97400 9.15200 27.06600
C  41.66400 6.59200 25.03000
C  43.19700 9.95700 24.60000
C  42.65700 11.30200 25.08500
N  43.33300 9.87900 30.00300
C  44.33200 10.02500 29.05100
C  45.52600 10.65900 29.61900
C  45.17900 10.73900 30.99500
C  43.90400 10.15300 31.16800
C  46.84000 10.96100 28.89200
C  45.74700 10.98200 32.33900
O  46.88800 11.33900 32.64300
C  44.58600 10.70500 33.37600
C  45.10900 9.78300 34.41000
O  45.82600 8.77900 34.18200
O  44.78300 10.23900 35.68700
C  45.15800 9.27900 36.74900
H  38.47000 7.21900 32.55000
H  39.36600 7.29800 26.29200
H  44.91500 9.94600 26.94800
H  42.37300 8.61500 34.94600
H  39.52500 8.68300 34.49000
H  41.33000 6.78400 35.48200
H  40.80600 6.15000 33.96700
H  39.56100 6.59600 35.10600
H  40.34900 10.85100 34.84300
H  41.94400 11.37000 34.88600
H  42.41600 9.85000 36.93100
H  40.72900 9.52600 37.09900
H  37.41700 5.41400 32.00500
H  36.68600 4.82700 30.57200
H  36.17400 6.34400 31.35900
H  35.02800 6.67900 28.88900
H  35.51100 4.96500 28.62500
H  34.81900 6.03500 27.31700
H  40.97600 8.64600 24.87800
H  43.78100 8.10000 25.41300
H  42.67100 6.23000 24.82100
H  41.05500 6.48100 24.13300
H  41.29100 5.95200 25.83000
H  42.78300 9.74900 23.61300
H  44.28300 10.03900 24.57100
H  43.46200 11.94500 25.44300
H  41.86500 11.11000 25.80800
H  42.16600 11.68200 24.18900
H  47.36000 11.55100 29.64700
H  46.65600 11.54800 27.99200
H  47.43400 10.05400 28.77500
H  44.27700 11.67200 33.77300
H  46.22800 9.07200 36.76800
H  44.65600 8.32000 36.61800
H  44.71400 9.69300 37.65400

