158

Mg 47.57800 25.56100 28.14300
C  48.80100 27.65000 30.68200
C  46.90000 23.21500 30.49300
C  47.06200 23.44600 25.68000
C  49.24400 27.65500 25.74700
N  47.98600 25.39600 30.31900
C  48.27900 26.43900 31.18000
C  47.98600 26.06600 32.68900
C  47.53900 24.53000 32.59800
C  47.45100 24.34600 31.03900
C  48.60200 23.64600 33.28300
C  47.11200 27.12700 33.43300
C  46.24600 26.65700 34.60000
H  46.16300 27.61300 35.71400
N  46.96200 23.57000 28.07300
C  46.69800 22.76200 29.14500
C  46.11600 21.50000 28.67000
C  46.14900 21.55800 27.28500
C  46.71700 22.90600 26.90200
C  45.63700 20.50400 29.60500
C  45.59100 20.54900 26.33200
O  45.62800 20.75900 25.13200
C  45.03100 19.19100 26.93100
N  48.30800 25.48000 25.99000
C  47.76400 24.51900 25.21300
C  48.05600 24.73500 23.69900
C  48.68400 26.20400 23.73900
C  48.73600 26.50700 25.21700
C  48.96800 23.66100 23.04300
C  47.99700 27.28500 22.88900
C  48.68500 27.82900 21.60600
N  48.68300 27.32700 28.14500
C  49.21500 28.09200 27.14200
C  49.74700 29.30300 27.75400
C  49.62500 29.14600 29.10800
C  48.98500 27.97100 29.33300
C  50.50300 30.46500 27.02200
C  49.85700 29.87000 30.40600
O  50.35000 30.96400 30.65800
C  49.29300 28.87200 31.44700
C  50.48500 28.51200 32.29200
O  51.27000 27.61100 32.06200
O  50.40700 29.22700 33.44500
C  51.30000 28.88200 34.55600
H  46.72600 22.55200 31.34300
H  46.77000 22.91500 24.77200
H  49.85700 28.27500 25.09000
H  48.93900 26.31000 33.15700
H  46.60900 24.41900 33.15500
H  49.29300 24.25100 33.87200
H  49.21400 23.09600 32.56800
H  48.16500 22.93000 33.97900
H  46.56200 27.65800 32.65600
H  47.78000 27.87900 33.85300
H  46.55900 25.69000 34.99200
H  45.25700 26.49600 34.17100
H  46.41500 19.74200 29.65600
H  44.61900 20.24700 29.31300
H  45.30700 20.89400 30.56800
H  45.78700 18.77300 27.59600
H  44.87200 18.53800 26.07300
H  44.09600 19.30400 27.48000
H  47.08600 24.67800 23.20500
H  49.74300 26.21400 23.48000
H  49.72500 24.19200 22.46500
H  48.34600 23.14600 22.31200
H  49.38600 23.01500 23.81600
H  47.86400 28.18500 23.48900
H  47.06200 26.87500 22.50700
H  48.96300 28.87700 21.70900
H  47.87400 27.83900 20.87700
H  49.53900 27.28300 21.20500
H  49.90500 30.98400 26.27200
H  51.45600 30.11800 26.62400
H  50.71100 31.17500 27.82300
H  48.44100 29.18300 32.05200
H  50.83300 28.03000 35.05200
H  51.36800 29.74000 35.22500
H  52.28900 28.64400 34.16600
Mg 17.38600 52.33900 26.34200
C  19.33900 50.68200 28.82500
C  15.01200 52.85100 28.89600
C  15.39500 53.57900 24.11500
C  19.68300 51.43500 23.93700
N  17.17400 51.78500 28.56100
C  18.09700 51.10900 29.36900
C  17.74100 51.38900 30.83800
C  16.20200 51.63000 30.70400
C  16.06300 52.08100 29.26100
C  15.32600 50.41200 31.06200
C  18.56200 52.55000 31.43200
C  18.80700 52.39200 32.96100
H  17.92600 51.46800 33.79400
N  15.40400 53.09800 26.47600
C  14.67600 53.30200 27.60800
C  13.53000 54.16100 27.33600
C  13.62900 54.39200 25.93100
C  14.82700 53.74900 25.39300
C  12.52700 54.70000 28.51200
C  12.70000 55.21400 25.13100
O  12.92600 55.44800 23.95400
C  11.40200 55.82200 25.69700
N  17.32500 52.14900 24.23400
C  16.49500 52.89300 23.55400
C  16.87400 53.08400 22.05200
C  18.35900 52.48900 22.01400
C  18.46300 51.96200 23.51100
C  15.80900 52.39400 21.13900
C  19.35900 53.54400 21.44200
C  20.12700 54.52500 22.27300
N  19.10500 51.26000 26.32500
C  19.95200 51.01900 25.27100
C  21.15300 50.34900 25.70100
C  20.98200 50.15700 27.07900
C  19.70500 50.72500 27.41200
C  22.27900 49.84500 24.84400
C  21.55500 49.62000 28.32000
O  22.59200 48.94200 28.43700
C  20.54200 50.00100 29.51900
C  20.15800 48.76700 30.25200
O  19.45200 47.85400 29.80400
O  20.58800 48.98600 31.56200
C  20.05600 47.89200 32.44200
H  14.26900 52.99500 29.68400
H  14.80100 54.07700 23.34500
H  20.42300 51.38200 23.13600
H  17.98200 50.45000 31.33600
H  15.84900 52.52100 31.22300
H  15.09500 49.82500 30.17400
H  14.45600 50.82300 31.57400
H  15.84500 49.81600 31.81400
H  18.09400 53.50400 31.18800
H  19.49700 52.47400 30.87700
H  18.79000 53.34100 33.49700
H  19.83600 52.07600 33.13400
H  12.76500 54.40600 29.53400
H  11.58500 54.19200 28.30300
H  12.46300 55.78700 28.47300
H  10.84100 56.22200 24.85200
H  11.70400 56.67100 26.30900
H  10.79800 55.19600 26.35400
H  16.85100 54.17000 21.96600
H  18.50000 51.66700 21.31200
H  16.37000 51.89100 20.35200
H  15.09900 53.13600 20.77400
H  15.30800 51.55300 21.61900
H  18.87000 54.14100 20.67200
H  20.15900 53.05200 20.89000
H  20.40400 55.45400 21.77300
H  21.05000 54.11600 22.68300
H  19.52600 54.78700 23.14400
H  22.30600 50.35100 23.87900
H  21.96300 48.82900 24.60700
H  23.20600 49.94800 25.40800
H  20.90500 50.76900 30.20200
H  18.97200 47.96100 32.35000
H  20.31000 48.18300 33.46100
H  20.49800 46.94700 32.12800

