158

Mg 34.55300 2.71800 28.61500
C  32.88500 3.51500 31.50700
C  37.52600 2.36300 30.51500
C  36.30400 2.54300 25.78500
C  31.61000 3.54200 26.73800
N  35.12000 2.85800 30.75600
C  34.24300 3.18600 31.80600
C  34.93700 3.13200 33.18800
C  36.43900 2.82400 32.79900
C  36.38400 2.65500 31.22800
C  37.56000 3.85600 33.15400
C  34.25600 2.12600 34.16700
C  33.79300 2.61600 35.51600
H  34.49400 3.84700 36.20000
N  36.62600 2.36100 28.24300
C  37.67900 2.28300 29.14900
C  38.85600 1.96300 28.42700
C  38.48000 2.01500 27.00300
C  37.11400 2.33500 26.94400
C  40.26000 1.83300 29.06500
C  39.40300 1.90700 25.73300
O  38.96100 1.93700 24.58700
C  40.82700 1.59900 25.84300
N  34.03700 3.06500 26.57000
C  34.98000 2.89500 25.60200
C  34.35400 2.99900 24.28400
C  32.83400 2.85000 24.52800
C  32.81500 3.23300 26.07200
C  34.83200 4.36400 23.62300
C  32.27700 1.42400 24.29400
C  30.73000 1.37700 24.15100
N  32.64900 3.41800 28.93500
C  31.52800 3.58100 28.14600
C  30.35300 3.76800 29.01200
C  30.87800 3.84300 30.30800
C  32.22700 3.56400 30.23700
C  28.91700 4.07600 28.56600
C  30.48900 3.98600 31.69300
O  29.43500 4.13500 32.24000
C  31.76100 3.93700 32.46300
C  32.07700 5.15300 33.26100
O  32.81900 6.07500 32.98500
O  31.29000 5.24600 34.43000
C  31.08200 6.59900 34.92300
H  38.38900 2.16200 31.15400
H  36.68500 2.34800 24.78000
H  30.65700 3.61100 26.20900
H  34.99100 4.07400 33.73400
H  36.64700 1.83800 33.21500
H  37.28700 4.50500 33.98700
H  37.78200 4.31400 32.19000
H  38.43400 3.32200 33.52900
H  34.90100 1.28000 34.40600
H  33.40800 1.74400 33.59800
H  33.89800 1.79900 36.23000
H  32.74100 2.86200 35.37000
H  40.96400 2.42200 28.47800
H  40.65000 0.81700 29.01200
H  40.29100 2.20400 30.08900
H  40.94100 0.59800 26.26000
H  41.37400 2.38600 26.36200
H  41.11500 1.41800 24.80800
H  34.82100 2.21200 23.69200
H  32.35200 3.65200 23.96900
H  34.01500 5.03000 23.34400
H  35.27900 4.07300 22.67200
H  35.55100 4.97700 24.16500
H  32.50800 0.91900 25.23200
H  32.81700 0.94300 23.47900
H  30.47900 0.84100 23.23600
H  30.28500 2.36400 24.02300
H  30.16400 0.85200 24.92000
H  28.40100 4.47300 29.44100
H  28.41000 3.18000 28.20900
H  28.90800 4.77300 27.72900
H  31.62300 3.13400 33.18700
H  31.00200 7.39100 34.17800
H  31.80700 6.93700 35.66300
H  30.10200 6.47200 35.38200
Mg 49.11700 47.36000 42.12700
C  45.78200 47.49000 41.25100
C  49.31900 44.18600 40.75100
C  52.42200 47.70900 41.87100
C  48.85400 50.73800 43.11900
N  47.67900 45.96900 41.05000
C  46.34400 46.24400 40.90300
C  45.69900 45.05000 40.11200
C  46.79800 43.88900 40.16200
C  48.02400 44.68300 40.65300
C  46.48800 42.71900 41.20800
C  45.31200 45.54300 38.69200
C  43.90600 45.07500 38.16400
H  43.80800 44.57100 36.78900
N  50.66000 46.04000 41.57500
C  50.50000 44.75200 41.15200
C  51.87400 44.18600 41.00000
C  52.82800 45.22500 41.22000
C  51.97500 46.40700 41.59900
C  52.19900 42.78100 40.44600
C  54.37800 45.11400 41.12000
O  54.89700 44.05700 40.87000
C  55.20800 46.28700 41.30300
N  50.38100 48.97900 42.33400
C  51.77100 48.81000 42.26300
C  52.54500 50.11500 42.62800
C  51.37800 51.07000 43.07900
C  50.08400 50.18800 42.85400
C  53.65700 49.94200 43.68400
C  51.19700 52.32800 42.25100
C  51.02900 53.59600 43.11100
N  47.67700 48.89000 42.19600
C  47.68800 50.21000 42.72600
C  46.39700 50.82300 42.60700
C  45.58200 49.75100 42.03200
C  46.42300 48.62900 41.82200
C  45.80900 52.14300 42.91400
C  44.32600 49.37200 41.67800
O  43.26900 49.93700 41.74900
C  44.32500 47.96400 41.18200
C  43.42600 47.09100 41.96600
O  43.54100 46.81000 43.10900
O  42.54900 46.56700 41.10200
C  41.51200 45.62200 41.50200
H  49.31200 43.14100 40.43600
H  53.44600 48.00300 41.63000
H  48.85300 51.66800 43.69000
H  44.77300 44.77100 40.61500
H  47.03300 43.47500 39.18200
H  45.68000 42.86900 41.92500
H  47.38700 42.63600 41.81800
H  46.20700 41.77200 40.74700
H  46.06400 45.25600 37.95700
H  45.22500 46.62900 38.68400
H  43.15800 45.86300 38.24100
H  43.57200 44.30800 38.86300
H  51.30300 42.16100 40.46200
H  52.76200 42.10300 41.08700
H  52.61300 42.82100 39.43900
H  54.84400 47.05500 40.62100
H  56.26000 46.07200 41.11900
H  55.10400 46.53200 42.36000
H  53.02500 50.45100 41.70800
H  51.39700 51.28700 44.14700
H  53.31800 49.04100 44.19500
H  53.63400 50.86600 44.26100
H  54.57500 49.74400 43.12900
H  50.38400 52.29900 41.52600
H  52.11200 52.40700 41.66300
H  52.01400 53.98300 43.37200
H  50.26500 53.35000 43.84900
H  50.51300 54.38400 42.56300
H  45.77000 52.27100 43.99600
H  44.74800 52.13800 42.66600
H  46.34300 53.02600 42.56300
H  43.96100 48.02200 40.15600
H  42.04500 44.70200 41.74400
H  40.78200 45.42500 40.71800
H  40.99800 46.03300 42.37000

