158

Mg 2.09600 -0.30100 41.95600
C  5.43200 0.63300 41.63400
C  1.26200 2.87400 40.76800
C  -0.99400 -1.25900 41.84800
C  3.20900 -3.41500 43.04100
N  3.26200 1.43700 41.26600
C  4.60000 1.64600 41.22300
C  5.06100 2.92600 40.54300
C  3.69700 3.73700 40.47700
C  2.64000 2.61200 40.91300
C  3.58900 4.93300 41.37500
C  5.89800 3.02200 39.18800
C  5.84900 1.77600 38.26400
H  5.58000 1.98000 36.81800
N  0.31800 0.68900 41.43200
C  0.15900 1.97900 40.98900
C  -1.14900 2.22700 40.59600
C  -1.85900 1.05300 41.07900
C  -0.86300 0.11900 41.49200
C  -1.61600 3.57400 40.27100
C  -3.34000 0.87200 40.89000
O  -4.02700 1.78400 40.31700
C  -4.05500 -0.41800 41.35100
N  1.21500 -2.10500 42.30300
C  -0.09800 -2.21200 42.22400
C  -0.53600 -3.70600 42.47800
C  0.83300 -4.40200 42.73400
C  1.83500 -3.25500 42.65900
C  -1.72000 -4.00200 43.50700
C  1.19100 -5.69400 41.85100
C  1.28900 -7.04500 42.56900
N  3.96100 -1.25100 42.46700
C  4.23000 -2.47900 42.91600
C  5.64800 -2.63700 43.01200
C  6.18900 -1.49300 42.51700
C  5.10900 -0.65600 42.21300
C  6.37500 -3.78600 43.42700
C  7.34700 -0.77900 42.28700
O  8.51400 -1.10200 42.56400
C  6.94000 0.61600 41.64900
C  7.61600 1.63600 42.44900
O  8.19900 2.61800 41.92200
O  7.49200 1.45200 43.78300
C  8.22800 2.53900 44.61100
H  1.17300 3.93100 40.51300
H  -1.96100 -1.76400 41.80300
H  3.57400 -4.40900 43.30800
H  5.88300 3.35600 41.11500
H  3.57500 4.09000 39.45300
H  2.65300 4.87300 41.93000
H  3.57300 5.77100 40.67900
H  4.50600 5.09500 41.94100
H  6.97600 3.08200 39.33500
H  5.65700 3.98600 38.74000
H  5.13100 1.02600 38.59400
H  6.88100 1.43000 38.19600
H  -1.94100 3.70000 39.23800
H  -0.76900 4.25100 40.38200
H  -2.43100 3.99600 40.86000
H  -3.65500 -0.68300 42.33000
H  -4.10100 -1.20100 40.59400
H  -5.08900 -0.22600 41.64000
H  -0.87500 -4.05100 41.50100
H  0.76200 -4.73100 43.77100
H  -1.27000 -4.58800 44.30800
H  -2.48200 -4.61000 43.02100
H  -1.96500 -3.00900 43.88500
H  2.20100 -5.54500 41.46700
H  0.42500 -5.75400 41.07800
H  1.14600 -6.90300 43.64000
H  2.12800 -7.69500 42.31900
H  0.34600 -7.51400 42.28800
H  6.93800 -4.08600 42.54300
H  5.68500 -4.57500 43.72500
H  7.05900 -3.71900 44.27300
H  7.20200 0.64500 40.59100
H  7.84400 3.52600 44.35100
H  9.30700 2.49000 44.46400
H  8.02200 2.33200 45.66100
Mg -9.56700 18.34700 42.11600
C  -6.20800 17.58900 42.27600
C  -8.73100 21.67100 41.45300
C  -12.80600 18.86100 41.21000
C  -10.16400 14.79500 42.39400
N  -7.72700 19.48000 41.74500
C  -6.49500 18.97000 42.01900
C  -5.44500 19.99100 41.73200
C  -6.20300 21.35500 41.81700
C  -7.70600 20.79300 41.77100
C  -6.00300 22.34900 42.96800
C  -4.60900 19.89500 40.30100
C  -5.34000 19.28200 39.18300
H  -5.07400 19.78700 37.69000
N  -10.68200 20.03700 41.49100
C  -10.12400 21.29800 41.29600
C  -11.21300 22.21700 40.94400
C  -12.46400 21.50200 40.85800
C  -12.03000 20.07900 41.19800
C  -10.98500 23.71200 40.80500
C  -13.80700 22.08000 40.51200
O  -13.90300 23.28900 40.42400
C  -15.00000 21.22300 40.29100
N  -11.14500 17.00400 41.66500
C  -12.41000 17.48600 41.50200
C  -13.48000 16.37800 41.44500
C  -12.56000 15.08400 41.63800
C  -11.16400 15.62900 41.93900
C  -14.59100 16.47600 42.50500
C  -12.65200 14.09100 40.43800
C  -12.57900 12.57900 40.72100
N  -8.47600 16.45000 42.49600
C  -8.77000 15.13500 42.56900
C  -7.53700 14.32200 42.90600
C  -6.57200 15.35800 42.74000
C  -7.15400 16.59700 42.52800
C  -7.39500 12.91400 43.12600
C  -5.13800 15.43000 42.75100
O  -4.26400 14.58500 42.86700
C  -4.83800 16.90100 42.47000
C  -3.99900 17.35400 43.62100
O  -2.95400 17.99400 43.53000
O  -4.51200 16.94700 44.82600
C  -3.76200 17.26800 46.04100
H  -8.43300 22.70300 41.25200
H  -13.83800 19.06800 40.91800
H  -10.34000 13.73400 42.58500
H  -4.76300 19.91100 42.57800
H  -6.13300 21.84200 40.84400
H  -6.87400 22.79100 43.45100
H  -5.41700 23.19800 42.61500
H  -5.55500 21.80000 43.79600
H  -3.72000 19.31600 40.54700
H  -4.27300 20.87200 39.95200
H  -6.37400 19.43500 39.49000
H  -5.03400 18.23600 39.16000
H  -11.51800 24.05600 39.91800
H  -9.94000 24.00900 40.72300
H  -11.35400 24.25700 41.67300
H  -15.28300 20.67400 41.18900
H  -14.84700 20.49600 39.49300
H  -15.86700 21.84100 40.05300
H  -14.04600 16.33100 40.51500
H  -12.77100 14.50100 42.53400
H  -14.72900 17.55600 42.55300
H  -14.18900 16.08800 43.44200
H  -15.55200 16.10500 42.14900
H  -11.74900 14.37600 39.89700
H  -13.52300 14.26100 39.80500
H  -13.27600 12.11300 40.02500
H  -12.91900 12.36100 41.73400
H  -11.62600 12.05400 40.64800
H  -6.56500 12.56900 42.50900
H  -8.32800 12.38700 42.92500
H  -7.11500 12.71200 44.15900
H  -4.33200 16.84700 41.50600
H  -3.66200 16.35400 46.62600
H  -4.35100 18.02900 46.55300
H  -2.77600 17.68700 45.84100

