158

Mg 53.77700 23.94500 45.45000
C  51.22200 26.08400 44.28700
C  52.45500 21.39800 43.90400
C  56.59200 22.20000 45.88400
C  55.41900 26.96400 46.59600
N  52.19300 23.81300 44.07500
C  51.22900 24.76400 43.74900
C  50.11500 24.17000 42.85900
C  50.46400 22.65300 43.02100
C  51.83800 22.60800 43.69700
C  49.27300 21.75700 43.58100
C  50.30700 24.68700 41.37700
C  49.00400 25.02700 40.67000
H  49.05200 25.69800 39.33700
N  54.45400 21.99600 45.03200
C  53.71200 21.04800 44.44300
C  54.42800 19.71600 44.27800
C  55.59400 19.96500 45.05800
C  55.59000 21.42800 45.36200
C  53.89200 18.52200 43.60000
C  56.57300 18.90500 45.50700
O  56.42300 17.80500 45.05500
C  57.66900 19.21100 46.47700
N  55.71000 24.56000 46.12200
C  56.63400 23.58000 46.16800
C  57.83500 24.12300 46.89600
C  57.70400 25.74700 46.82100
C  56.20200 25.77400 46.50500
C  58.04500 23.55700 48.34300
C  58.68700 26.45700 45.79100
C  59.34700 27.75300 46.31400
N  53.35100 26.10900 45.51900
C  54.13200 27.12000 46.13200
C  53.24800 28.32300 46.29400
C  52.06800 27.99100 45.60700
C  52.23500 26.62700 45.10000
C  53.56400 29.51700 47.12500
C  50.74500 28.36100 45.17200
O  50.03300 29.31400 45.39300
C  50.10600 27.09000 44.36300
C  49.52500 27.70300 43.13300
O  50.22300 28.04700 42.20900
O  48.14600 27.78400 43.07100
C  47.49000 28.26200 41.88000
H  51.89600 20.59600 43.41800
H  57.51800 21.65400 46.07300
H  55.85100 27.85700 47.05200
H  49.07200 24.31100 43.14400
H  50.54800 22.15700 42.05400
H  49.36000 21.41000 44.61100
H  49.09500 20.91400 42.91300
H  48.37200 22.37100 43.59600
H  50.77400 23.92900 40.74800
H  50.98000 25.54200 41.31000
H  48.39900 25.68400 41.29600
H  48.50200 24.07400 40.50400
H  53.04400 18.84700 42.99700
H  53.64900 17.76200 44.34200
H  54.71400 18.14900 42.98900
H  57.20100 19.72800 47.31500
H  58.36100 19.90900 46.00600
H  58.20600 18.34600 46.86700
H  58.71900 23.85900 46.31600
H  57.67100 26.19700 47.81300
H  57.88800 24.28700 49.13700
H  59.07800 23.22200 48.44300
H  57.46300 22.66500 48.57200
H  58.22700 26.71800 44.83800
H  59.54600 25.82000 45.57600
H  59.00600 28.38000 45.48900
H  60.43400 27.83500 46.30800
H  58.92800 28.09000 47.26200
H  54.22000 29.34400 47.97800
H  52.65000 29.89500 47.58400
H  53.98500 30.30700 46.50300
H  49.39200 26.64500 45.05500
H  46.96900 29.17400 42.16900
H  46.72700 27.53300 41.60500
H  48.08000 28.48700 40.99200
Mg 47.66100 34.42400 27.00600
C  46.05800 33.33800 30.00400
C  48.54900 37.19900 28.57500
C  49.03800 35.22800 24.12700
C  46.43800 31.43100 25.50600
N  47.34800 35.07300 29.09600
C  46.75100 34.55500 30.17200
C  46.96800 35.45500 31.44200
C  47.35500 36.82000 30.74300
C  47.81600 36.34100 29.39300
C  46.19000 37.88300 30.51800
C  48.12900 34.86600 32.37200
C  47.72700 34.56600 33.88900
H  48.52800 35.40500 34.90700
N  48.58200 36.08200 26.40000
C  48.92200 37.15600 27.19900
C  49.58800 38.15900 26.32600
C  49.65900 37.61400 25.05500
C  49.05500 36.26200 25.12900
C  50.00600 39.46500 26.82800
C  50.12600 38.24300 23.85900
O  50.07000 37.73000 22.75400
C  50.63000 39.63200 23.90100
N  47.67100 33.41300 25.02000
C  48.43400 33.99200 24.04200
C  48.50800 33.01700 22.85500
C  47.64800 31.83200 23.24200
C  47.26700 32.18400 24.68200
C  48.09800 33.72000 21.49600
C  48.36300 30.48900 22.97500
C  49.46300 29.99800 24.02700
N  46.48700 32.75900 27.53700
C  46.15800 31.63700 26.85400
C  45.34200 30.77000 27.75500
C  45.24400 31.46700 28.91700
C  46.07700 32.58600 28.78100
C  44.73000 29.46000 27.50500
C  44.65200 31.34200 30.25300
O  43.98600 30.44400 30.74300
C  45.00400 32.68200 30.88900
C  45.18200 32.55800 32.33600
O  46.19400 32.20800 32.85300
O  43.91600 32.78500 32.92000
C  43.64300 32.34500 34.25000
H  48.89400 38.11300 29.06300
H  49.69500 35.40000 23.27200
H  46.14900 30.49300 25.02700
H  45.98900 35.44400 31.91900
H  48.14800 37.33600 31.28500
H  45.89700 38.02300 29.47700
H  46.60100 38.83900 30.84100
H  45.29000 37.81100 31.12900
H  48.93900 35.59000 32.46100
H  48.53400 33.96200 31.91900
H  47.98000 33.56300 34.23100
H  46.65400 34.71500 34.00700
H  50.95900 39.81100 26.42700
H  50.08400 39.30800 27.90400
H  49.20600 40.19000 26.67500
H  51.65500 39.61500 24.27100
H  49.87000 40.22400 24.41100
H  50.60200 40.01500 22.88100
H  49.54600 32.70000 22.75400
H  46.74400 31.82400 22.63300
H  47.31100 33.09700 21.07200
H  48.96600 33.67500 20.83800
H  47.81100 34.74000 21.75100
H  48.87400 30.55000 22.01400
H  47.62800 29.68400 22.98000
H  49.72000 30.72200 24.79900
H  50.32200 29.53100 23.54300
H  48.99300 29.20600 24.61000
H  43.68100 29.45000 27.80300
H  45.32000 28.61500 27.86100
H  44.69300 29.32500 26.42400
H  44.12000 33.31600 30.83200
H  43.02200 31.45100 34.29500
H  43.18400 33.15000 34.82400
H  44.58800 32.04000 34.70100

