158

Mg 49.31500 35.30000 27.43600
C  47.34800 33.85900 29.87400
C  49.70600 38.08100 29.25700
C  51.26800 36.55200 24.89300
C  48.54300 32.55200 25.32800
N  48.67000 35.85800 29.37400
C  47.97400 35.11400 30.30800
C  47.71200 35.89700 31.62400
C  48.03700 37.37900 31.22100
C  48.89400 37.14500 29.93000
C  46.81100 38.37900 31.31200
C  48.64200 35.36500 32.73400
C  48.11000 34.72900 34.00800
H  48.77200 35.22200 35.29300
N  50.18300 37.14000 27.05800
C  50.31700 38.12800 27.94900
C  51.01100 39.33400 27.38600
C  51.53400 38.88300 26.12300
C  51.04500 37.42700 25.92600
C  51.12100 40.70100 28.10400
C  52.35400 39.67700 25.09400
O  52.70700 39.23400 24.01500
C  52.71900 41.07500 25.40400
N  49.86800 34.61800 25.46100
C  50.71100 35.31900 24.61400
C  51.08900 34.56000 23.33600
C  50.13900 33.30700 23.40600
C  49.37200 33.51800 24.80000
C  51.00600 35.27000 21.99300
C  50.73500 31.87400 23.14700
C  51.95200 31.76200 22.34000
N  48.20500 33.52700 27.51600
C  47.92800 32.52800 26.59900
C  47.01200 31.53900 27.20300
C  46.80300 31.99800 28.52700
C  47.56100 33.22000 28.62400
C  46.44300 30.32100 26.60700
C  46.04300 31.80100 29.79800
O  45.23500 30.92600 30.14100
C  46.55300 32.94700 30.68800
C  47.11200 32.24200 31.82900
O  48.30100 31.98200 31.94800
O  46.14200 31.85900 32.70600
C  46.59900 30.99500 33.87700
H  49.73200 39.05700 29.74500
H  51.92800 36.90700 24.09800
H  48.39100 31.70300 24.65800
H  46.69100 35.84400 32.00300
H  48.82500 37.78500 31.85500
H  45.87500 37.83700 31.17700
H  46.99200 39.11300 30.52700
H  46.82600 38.93600 32.24800
H  49.37800 36.11500 33.02100
H  49.22800 34.59800 32.22800
H  48.36600 33.67000 33.96700
H  47.02300 34.74800 33.91900
H  52.09800 40.69700 28.58800
H  50.36800 40.62600 28.88800
H  50.92500 41.62100 27.55300
H  53.28100 41.07400 26.33700
H  51.85100 41.68500 25.65700
H  53.36400 41.52500 24.64900
H  52.14400 34.36200 23.52400
H  49.33300 33.46100 22.68900
H  50.60500 36.28000 22.07700
H  50.46500 34.80600 21.16800
H  52.02600 35.44700 21.65300
H  50.00900 31.25100 22.62500
H  50.79200 31.35400 24.10300
H  52.73200 31.83600 23.09800
H  51.88200 32.51100 21.55100
H  52.02000 30.77400 21.88500
H  47.27300 29.75000 26.19000
H  45.88200 30.69500 25.75100
H  45.80800 29.83700 27.34900
H  45.72300 33.47600 31.15600
H  45.69900 30.93300 34.48900
H  47.41900 31.51600 34.37200
H  46.95900 30.01100 33.57800
Mg 35.60300 49.06500 25.28400
C  35.96000 47.08500 28.01500
C  34.29600 51.63000 27.02700
C  34.98400 50.82600 22.28100
C  36.94000 46.52500 23.28600
N  35.01400 49.30800 27.25100
C  35.31000 48.35200 28.26800
C  35.17600 49.07600 29.65300
C  34.48300 50.46500 29.34800
C  34.65700 50.53400 27.81400
C  33.07400 50.65900 29.81000
C  36.59700 49.29500 30.32600
C  36.59800 48.71600 31.76700
H  35.21400 48.53900 32.39000
N  34.81700 50.97100 24.74400
C  34.35000 51.84500 25.63900
C  33.98000 53.09500 25.02100
C  34.03400 52.81400 23.58400
C  34.54900 51.48500 23.46100
C  33.66300 54.35800 25.84400
C  33.64600 53.75200 22.45200
O  33.87500 53.45800 21.31200
C  32.99400 55.06200 22.62900
N  36.06900 48.75500 23.06000
C  35.66400 49.55300 22.14200
C  36.01100 48.91500 20.73000
C  36.82600 47.63400 21.03800
C  36.51500 47.59200 22.57100
C  34.76300 48.77600 19.88100
C  38.34900 47.85100 20.82400
C  39.12600 46.62600 20.33900
N  36.27600 47.16400 25.49400
C  36.76400 46.27800 24.63600
C  37.16800 45.10100 25.34500
C  36.80500 45.29800 26.65800
C  36.34000 46.60700 26.75000
C  37.76200 43.89800 24.68400
C  36.72100 44.66500 27.95300
O  36.98800 43.54800 28.36800
C  36.24200 45.84700 28.92200
C  35.07100 45.40100 29.66400
O  33.90900 45.39500 29.30400
O  35.51800 45.01500 30.89500
C  34.58700 44.18600 31.62800
H  33.98800 52.51800 27.58200
H  34.79800 51.31600 21.32300
H  37.30700 45.73100 22.63200
H  34.53600 48.36900 30.18200
H  35.10800 51.22800 29.81300
H  33.01100 51.63600 30.29000
H  32.69700 49.91200 30.50800
H  32.33500 50.66800 29.00900
H  36.76900 50.36300 30.45600
H  37.32500 48.81900 29.66900
H  37.10400 49.43400 32.41300
H  37.06200 47.73100 31.83700
H  33.60100 55.28500 25.27400
H  34.43400 54.45500 26.60800
H  32.70900 54.15100 26.33000
H  32.36900 55.23500 23.50500
H  32.41700 55.14000 21.70800
H  33.84800 55.72600 22.49500
H  36.51200 49.64800 20.09700
H  36.38900 46.73200 20.60900
H  33.84600 48.54800 20.42600
H  34.94000 47.93400 19.21200
H  34.49700 49.71100 19.38800
H  38.74100 48.18600 21.78400
H  38.47900 48.73500 20.20000
H  38.46900 45.80500 20.05300
H  39.77900 46.31000 21.15200
H  39.68600 46.99600 19.48000
H  37.27900 43.68200 23.73100
H  37.54900 42.97000 25.21400
H  38.83300 44.02400 24.52400
H  37.00600 46.11700 29.65100
H  35.15600 43.66700 32.39900
H  34.15400 43.43400 30.96900
H  33.62300 44.56300 31.97000

