158

Mg 25.47700 0.52500 28.85500
C  27.46200 0.34000 31.62200
C  22.70700 0.99400 30.82300
C  23.75800 0.46000 25.96600
C  28.38600 -0.38100 26.87100
N  25.12400 0.55900 31.00600
C  26.10100 0.64000 31.93300
C  25.51200 1.01500 33.35000
C  23.94600 1.10800 33.00900
C  23.89700 0.87200 31.52000
C  23.05600 0.21500 33.90400
C  26.14800 2.32000 33.98300
C  25.59500 2.71500 35.38400
H  26.42000 2.36700 36.64200
N  23.51400 0.64800 28.43000
C  22.52100 0.91300 29.38700
C  21.21000 1.01900 28.73300
C  21.46000 0.62100 27.36700
C  22.98900 0.57300 27.19200
C  19.99800 1.37200 29.50400
C  20.48200 0.41100 26.21900
O  20.80100 -0.10400 25.12700
C  19.07500 0.72800 26.48100
N  26.03200 0.23000 26.67800
C  25.11100 0.37700 25.64700
C  25.66700 0.19400 24.26000
C  27.13500 0.04300 24.61500
C  27.25500 -0.12000 26.10600
C  25.02200 -0.90200 23.33700
C  28.19500 1.05400 24.07800
C  29.48600 0.51200 23.46700
N  27.50800 0.06600 29.13900
C  28.47900 -0.33400 28.23900
C  29.62400 -0.79800 29.06300
C  29.29300 -0.39200 30.35600
C  27.96300 0.05700 30.35400
C  30.81900 -1.42300 28.55500
C  29.80000 -0.42100 31.72000
O  30.90700 -0.73700 32.15900
C  28.59100 -0.05300 32.61000
C  28.09200 -1.22200 33.39700
O  27.19200 -1.91000 33.04100
O  28.55500 -1.11800 34.64700
C  28.13200 -2.11900 35.63100
H  21.94800 1.21700 31.57600
H  23.00900 0.48600 25.17200
H  29.25100 -0.67500 26.27200
H  25.64100 0.21700 34.08200
H  23.65200 2.15400 33.09400
H  22.45400 -0.50500 33.35000
H  22.36900 0.89500 34.40800
H  23.56600 -0.24100 34.75300
H  25.94400 3.20200 33.37600
H  27.22800 2.20100 34.07800
H  24.59800 2.31300 35.56600
H  25.53100 3.80000 35.46100
H  19.34300 2.08400 29.00300
H  20.28900 1.87100 30.42800
H  19.35400 0.50600 29.65800
H  18.87200 0.04800 27.30800
H  18.40500 0.53700 25.64300
H  18.97800 1.67100 27.01900
H  25.60400 1.16500 23.76700
H  27.40900 -0.94800 24.25400
H  24.64600 -1.76200 23.89200
H  25.69100 -1.36000 22.60900
H  24.26700 -0.50500 22.65900
H  28.46200 1.78900 24.83800
H  27.80200 1.67100 23.27000
H  29.60600 0.94600 22.47400
H  29.35200 -0.57000 23.46700
H  30.37000 0.77800 24.04700
H  30.49000 -2.25100 27.92600
H  31.51200 -1.83100 29.29000
H  31.23400 -0.60000 27.97400
H  28.85100 0.83900 33.18100
H  28.96200 -2.57100 36.17500
H  27.66700 -2.99100 35.17200
H  27.44000 -1.72900 36.37700
Mg 47.07100 44.47500 43.52000
C  43.52000 44.13800 43.14400
C  47.19500 41.06900 42.58900
C  50.41400 44.76700 43.25200
C  46.70100 47.92100 43.58600
N  45.53200 42.84600 42.92000
C  44.22000 42.95200 42.88200
C  43.60800 41.60300 42.68200
C  44.72600 40.54000 42.77800
C  45.92500 41.54900 42.75700
C  44.68200 39.44400 43.88400
C  42.61400 41.34500 41.45500
C  42.86600 42.14800 40.15700
H  42.89700 41.44700 38.85100
N  48.66400 43.14400 43.00200
C  48.43300 41.84700 42.54900
C  49.73700 41.25500 42.27600
C  50.71000 42.25200 42.52600
C  49.97000 43.45000 42.96400
C  49.89600 39.75800 42.01300
C  52.16500 42.04000 42.49700
O  52.62200 41.04900 41.92500
C  53.15600 43.05300 43.05500
N  48.44900 46.12800 43.58800
C  49.76000 46.02200 43.51000
C  50.46300 47.34600 43.45600
C  49.26700 48.30200 43.15400
C  48.06200 47.41900 43.44800
C  51.18000 47.62900 44.74000
C  49.26600 48.97600 41.78600
C  49.66700 50.45000 41.77600
N  45.49300 45.83200 43.47900
C  45.44300 47.19100 43.61800
C  44.07300 47.59900 43.94600
C  43.31700 46.43800 43.70100
C  44.16600 45.36000 43.44800
C  43.64300 49.09600 44.25300
C  41.98600 45.93100 43.65100
O  40.94100 46.52000 43.78500
C  42.01300 44.43300 43.26700
C  41.35300 43.58900 44.22600
O  40.71300 42.63200 43.95600
O  41.43100 44.00900 45.49500
C  41.16000 42.99600 46.47100
H  47.12500 40.01400 42.31500
H  51.49800 44.89300 43.21600
H  46.77600 49.00900 43.64300
H  43.06400 41.56400 43.62600
H  44.76500 40.04200 41.80800
H  43.66400 39.40700 44.27300
H  45.33400 39.60100 44.74300
H  44.91000 38.60500 43.22600
H  41.59100 41.47900 41.80700
H  42.74200 40.26700 41.36000
H  43.76800 42.75900 40.16400
H  42.09700 42.91900 40.10900
H  50.00600 39.52800 40.95300
H  49.11400 39.17300 42.49800
H  50.81700 39.48900 42.53000
H  53.33000 43.87000 42.35400
H  54.09000 42.52400 43.24200
H  52.78200 43.38700 44.02300
H  51.16800 47.31600 42.62600
H  49.33500 49.15000 43.83500
H  51.44200 46.73500 45.30500
H  50.72100 48.37100 45.39400
H  52.17500 48.02900 44.55000
H  48.28900 48.88700 41.31000
H  49.91000 48.42400 41.10100
H  50.11400 50.75800 42.72200
H  48.75900 51.04500 41.67000
H  50.35900 50.70200 40.97300
H  43.29100 49.59300 43.34900
H  44.42400 49.73300 44.66800
H  42.78100 49.01900 44.91500
H  41.56300 44.36600 42.27600
H  41.41300 41.97700 46.17900
H  40.08300 42.98800 46.63400
H  41.66700 43.24900 47.40200

