158

Mg 28.71900 60.01600 41.87400
C  25.89000 58.12000 41.02900
C  30.64500 57.74400 40.03200
C  31.50300 62.13700 42.14600
C  26.61000 62.47100 43.03900
N  28.28500 58.30700 40.55500
C  27.08300 57.69300 40.46900
C  27.10600 56.55400 39.49800
C  28.72100 56.28200 39.27900
C  29.24000 57.47400 40.05000
C  29.31300 54.90800 39.63900
C  26.28100 56.90300 38.19200
C  25.45500 55.76400 37.69600
H  25.96500 55.29000 36.38400
N  30.81100 59.91300 41.28300
C  31.34400 58.82800 40.61100
C  32.78500 58.99800 40.57800
C  33.11100 60.22100 41.23400
C  31.79500 60.87100 41.55400
C  33.76200 58.09500 39.92700
C  34.55700 60.83800 41.47600
O  35.58700 60.14200 41.13900
C  34.71100 62.19400 42.05400
N  29.01900 62.00000 42.30000
C  30.24500 62.67500 42.39000
C  30.05500 64.06100 43.02900
C  28.58900 64.05600 43.51400
C  27.97700 62.78600 42.83400
C  30.98300 64.57200 44.24200
C  27.64600 65.33800 43.26900
C  27.39700 66.15200 44.55900
N  26.68400 60.29300 42.16000
C  25.95400 61.28000 42.62800
C  24.55500 60.96000 42.67100
C  24.54100 59.73100 42.10400
C  25.81500 59.36300 41.73100
C  23.43000 61.80100 43.23800
C  23.58100 58.68100 41.78200
O  22.33600 58.57300 42.02700
C  24.46700 57.66100 41.07600
C  24.27700 56.38300 41.81600
O  24.62600 56.25800 42.97600
O  23.56700 55.45900 41.13500
C  23.48400 54.01800 41.64800
H  31.19300 56.95300 39.51600
H  32.31700 62.85000 42.29100
H  25.95100 63.17200 43.55600
H  26.59100 55.71000 39.95800
H  29.06600 56.35800 38.24800
H  29.87000 55.27300 40.50200
H  30.07700 54.44500 39.01500
H  28.52600 54.22200 39.95300
H  27.04300 57.22800 37.48400
H  25.59100 57.73200 38.35100
H  24.39800 55.98800 37.55300
H  25.46900 54.84800 38.28600
H  34.35900 58.70600 39.25000
H  33.40600 57.21200 39.39600
H  34.44900 57.65500 40.65000
H  34.33400 62.89500 41.31000
H  35.78000 62.27900 42.24600
H  34.17700 62.35400 42.99000
H  30.10800 64.78300 42.21500
H  28.55200 63.76400 44.56400
H  31.63300 65.39000 43.93200
H  31.68300 63.74100 44.32200
H  30.52700 64.86700 45.18700
H  26.67900 65.22400 42.78100
H  28.28400 65.97500 42.65600
H  26.33800 66.39700 44.64500
H  27.89700 67.11600 44.46700
H  27.63500 65.57900 45.45500
H  23.20700 62.48900 42.42300
H  23.78400 62.34700 44.11300
H  22.54300 61.19700 43.42800
H  24.01300 57.60100 40.08600
H  24.40400 53.70000 42.13800
H  23.31400 53.25600 40.88800
H  22.73900 53.97300 42.44300
Mg 7.32200 57.15200 42.09400
C  5.54000 54.10800 41.73400
C  10.00800 55.62700 40.71800
C  8.57400 60.30000 41.59500
C  4.21400 58.73100 43.06500
N  7.63400 55.10000 41.26400
C  6.79300 54.03600 41.14800
C  7.44500 52.84000 40.51900
C  9.02100 53.23600 40.71000
C  8.87800 54.73100 40.78600
C  9.72500 52.64200 41.99600
C  7.00200 52.74900 39.07100
C  7.38300 51.48900 38.32500
H  6.43000 50.94300 37.32300
N  8.99000 57.82900 41.30700
C  9.98700 57.06500 40.83900
C  11.15200 57.87100 40.43900
C  10.75600 59.26000 40.54600
C  9.38600 59.20700 41.16900
C  12.50700 57.33300 40.06500
C  11.64400 60.42100 40.24900
O  12.71500 60.20900 39.67300
C  11.20600 61.78200 40.55900
N  6.49600 59.27300 42.48600
C  7.25600 60.29700 42.11900
C  6.39100 61.59400 42.27500
C  5.01700 61.09000 42.75100
C  5.24200 59.60700 42.84200
C  7.06900 62.58700 43.20800
C  3.72100 61.44300 41.89800
C  2.80900 62.45700 42.52000
N  5.29000 56.59000 42.40600
C  4.19900 57.28800 42.85800
C  3.04600 56.37000 43.00600
C  3.54600 55.11900 42.61100
C  4.89300 55.29700 42.20400
C  1.64700 56.55900 43.58400
C  3.16300 53.70300 42.51100
O  2.19600 53.05800 42.81700
C  4.50100 53.01100 41.93800
C  3.98600 52.42000 40.65300
O  3.56200 53.06600 39.67000
O  4.01800 51.08900 40.72400
C  3.12900 50.40100 39.81400
H  10.93700 55.09800 40.49400
H  8.91800 61.28200 41.26300
H  3.28000 59.11600 43.47900
H  7.26100 51.90300 41.04500
H  9.61100 52.89800 39.85800
H  8.98300 52.08000 42.56300
H  10.14900 53.37300 42.68600
H  10.45900 51.89100 41.70400
H  7.57300 53.51100 38.54100
H  5.92100 52.87200 38.99600
H  7.64600 50.67700 39.00300
H  8.25400 51.68900 37.70100
H  12.66100 56.36100 40.53400
H  13.22000 58.04100 40.48700
H  12.60400 57.25900 38.98200
H  11.03500 61.78700 41.63600
H  10.32200 62.07600 39.99400
H  12.05700 62.42700 40.34000
H  6.25900 62.14100 41.34100
H  4.99600 61.40400 43.79400
H  8.04000 62.86400 42.79600
H  7.30700 62.05500 44.12900
H  6.49800 63.50700 43.33700
H  3.26100 60.49700 41.61300
H  4.15900 61.92600 41.02500
H  2.18900 61.90900 43.23000
H  2.34400 63.03200 41.71900
H  3.40100 63.16600 43.09800
H  0.86200 56.27100 42.88500
H  1.58000 57.56700 43.99500
H  1.48700 55.94100 44.46700
H  4.83100 52.22600 42.61800
H  2.09400 50.59600 40.09600
H  3.28100 49.32200 39.84800
H  3.27500 50.61000 38.75400

