158

Mg 27.26700 50.57000 25.93800
C  25.40900 51.49800 28.56600
C  29.70200 49.40800 27.86100
C  28.94300 49.74300 23.06900
C  24.59700 51.66100 23.80600
N  27.59400 50.57000 28.02800
C  26.62300 50.80400 28.92200
C  27.04200 50.40300 30.35700
C  28.54800 49.98900 30.08200
C  28.69600 50.07800 28.60200
C  29.56400 50.98000 30.63400
C  26.02400 49.29500 30.83000
C  25.51800 49.34900 32.31400
H  26.46000 49.91300 33.39600
N  29.09300 49.65400 25.49600
C  29.88800 49.16700 26.50000
C  31.05400 48.44600 25.88300
C  30.88200 48.64300 24.40500
C  29.60300 49.40500 24.27600
C  32.14900 47.60600 26.64500
C  31.75000 48.15200 23.27800
O  31.44200 48.26000 22.11100
C  33.04400 47.64000 23.65500
N  26.79100 50.63700 23.74400
C  27.71000 50.31800 22.81100
C  27.18100 50.56300 21.32300
C  25.68300 50.82100 21.66400
C  25.67500 51.02000 23.13500
C  27.82700 51.69200 20.50500
C  24.58200 49.78400 21.27000
C  23.45900 50.11600 20.32200
N  25.45200 51.57100 26.15000
C  24.49200 51.90800 25.20600
C  23.36400 52.56600 25.86900
C  23.68500 52.42600 27.21200
C  24.95900 51.80500 27.31600
C  22.18600 53.02400 25.13500
C  23.25100 52.64000 28.58000
O  22.28100 53.19100 29.03800
C  24.32900 52.00000 29.49000
C  24.82500 53.06900 30.41500
O  25.59800 54.06100 30.12600
O  24.10100 52.90400 31.61900
C  24.51300 53.97400 32.53600
H  30.37200 48.89800 28.55700
H  29.44200 49.35500 22.17900
H  23.63500 51.90000 23.34600
H  27.00500 51.30300 30.97100
H  28.80500 49.00300 30.47000
H  29.11000 51.56300 31.43600
H  29.85100 51.63400 29.81100
H  30.37000 50.44800 31.14000
H  26.45800 48.30700 30.66900
H  25.25000 49.29000 30.06300
H  25.28000 48.32800 32.61400
H  24.64500 49.99400 32.41300
H  31.86400 47.55000 27.69500
H  33.03100 48.23100 26.50500
H  32.13500 46.66600 26.09300
H  32.96700 46.59800 23.96400
H  33.35500 48.42500 24.34500
H  33.67300 47.62300 22.76400
H  27.30800 49.69700 20.67500
H  25.38300 51.79100 21.26800
H  28.06000 51.34900 19.49700
H  28.71200 52.07700 21.01200
H  27.28300 52.63200 20.41600
H  24.05300 49.47100 22.17000
H  25.06600 48.86900 20.92900
H  23.64600 51.16000 20.07200
H  22.54200 49.95000 20.88700
H  23.52400 49.43100 19.47700
H  21.65300 52.36600 24.44900
H  22.50500 53.84600 24.49400
H  21.49600 53.25300 25.94700
H  23.87500 51.18800 30.05900
H  24.20200 54.97000 32.22300
H  25.58400 54.01400 32.73300
H  24.00800 53.73100 33.47100
Mg 10.07900 47.90600 26.74500
C  8.35300 47.78400 29.90300
C  12.76600 48.85100 28.41200
C  11.63200 47.62700 23.73700
C  7.01500 46.92500 25.31100
N  10.45100 48.34300 28.91500
C  9.69400 48.18500 30.00800
C  10.38900 48.49200 31.32500
C  11.63500 49.31700 30.72900
C  11.66100 48.87400 29.28400
C  11.68000 50.81600 30.77500
C  10.84700 47.17700 32.17500
C  10.50000 47.24200 33.71200
H  10.41400 45.95600 34.56600
N  11.88900 48.33000 26.13000
C  12.92700 48.64500 26.98600
C  14.17900 48.64100 26.22100
C  13.74800 48.39300 24.84600
C  12.32200 48.12200 24.82000
C  15.52700 48.95600 26.86800
C  14.62700 48.31300 23.65200
O  14.21600 48.16400 22.46700
C  16.14500 48.33900 23.66500
N  9.40100 47.39800 24.87700
C  10.21000 47.25200 23.75400
C  9.44300 47.05700 22.52000
C  8.01500 46.58500 23.08900
C  8.15700 46.96100 24.51100
C  9.37800 48.36300 21.63300
C  7.88900 45.00900 22.96900
C  9.06100 44.10300 23.43700
N  8.03800 47.68700 27.34300
C  6.91700 47.25600 26.65200
C  5.71200 47.31800 27.48900
C  6.33200 47.41700 28.78700
C  7.69400 47.62300 28.65400
C  4.24900 46.83400 27.13900
C  5.95600 47.23400 30.11900
O  4.96100 46.79600 30.57900
C  7.31800 47.57300 30.98300
C  7.47300 46.33100 31.83300
O  7.98800 45.29600 31.42200
O  6.80800 46.50200 32.94900
C  6.60000 45.28300 33.78600
H  13.61500 49.23700 28.98100
H  12.09100 47.49800 22.75500
H  6.07300 46.73700 24.79200
H  9.82900 49.16100 31.97900
H  12.56600 48.87900 31.09000
H  12.57400 51.16800 31.29000
H  10.88300 51.41500 31.21600
H  11.73000 51.21900 29.76300
H  11.89700 46.89300 32.10200
H  10.39200 46.24800 31.83200
H  9.53900 47.73600 33.85000
H  11.26100 47.84600 34.20500
H  15.51200 48.87300 27.95500
H  15.81600 49.97900 26.63000
H  16.30400 48.36700 26.38000
H  16.61000 49.24700 24.04900
H  16.43400 48.10400 22.64100
H  16.39600 47.50200 24.31600
H  9.89100 46.26400 21.92100
H  7.20900 47.09300 22.56000
H  10.08400 49.11700 21.98200
H  8.39000 48.82200 21.66600
H  9.62700 48.08200 20.61000
H  7.75200 44.58300 21.97500
H  7.01200 44.72300 23.55000
H  9.44600 43.54400 22.58500
H  8.54900 43.40100 24.09600
H  9.85600 44.53400 24.04500
H  4.05200 46.89900 26.06900
H  3.54400 47.39900 27.74800
H  4.08300 45.79600 27.42600
H  7.08000 48.40900 31.64100
H  6.75700 45.57200 34.82500
H  7.08000 44.35600 33.47100
H  5.52400 45.11400 33.74200

