158

Mg 9.44300 48.92800 25.82300
C  7.40600 48.66900 28.74400
C  12.15300 49.52600 27.60800
C  11.23300 48.81700 22.96500
C  6.51900 48.01400 23.91800
N  9.69200 49.23400 27.90700
C  8.75100 49.12800 28.96900
C  9.49400 49.43700 30.26600
C  10.85300 49.99300 29.78000
C  10.93700 49.48100 28.31800
C  10.98200 51.50400 29.79500
C  9.59400 48.21400 31.27600
C  8.81000 48.53300 32.64700
H  8.87000 47.61500 33.88700
N  11.41400 49.27300 25.34600
C  12.40000 49.42600 26.27500
C  13.66700 49.48700 25.58800
C  13.39900 49.37700 24.22500
C  11.97800 49.09900 24.11400
C  15.06100 49.72500 26.33900
C  14.28600 49.37800 23.02500
O  13.93600 49.21900 21.87800
C  15.80000 49.54300 23.16200
N  8.90000 48.51100 23.78600
C  9.88000 48.53100 22.81700
C  9.40400 47.89100 21.52300
C  8.03300 47.43800 21.93400
C  7.76800 48.04800 23.27800
C  9.46100 48.73300 20.20500
C  7.89900 45.82500 21.95100
C  7.83200 44.96300 23.21300
N  7.31300 48.48900 26.21600
C  6.23900 48.19300 25.28100
C  5.07100 47.89600 26.08000
C  5.44600 48.08300 27.40000
C  6.84500 48.42000 27.43600
C  3.78200 47.47900 25.59500
C  4.99900 47.98300 28.79300
O  3.88200 47.63900 29.21900
C  6.21300 48.30400 29.77800
C  6.35500 47.07800 30.51700
O  6.95300 46.11600 30.11200
O  5.67700 47.26400 31.70700
C  5.80700 46.35400 32.79700
H  12.94800 49.98200 28.20100
H  11.74900 48.83500 22.00300
H  5.76600 47.49600 23.32000
H  9.04700 50.25900 30.82500
H  11.66100 49.67900 30.44000
H  10.03400 51.92200 30.13300
H  11.16400 51.98100 28.83200
H  11.75900 51.79200 30.50300
H  10.62800 47.96900 31.51800
H  9.20600 47.36200 30.71700
H  7.79600 48.61300 32.25600
H  9.10400 49.53100 32.97000
H  15.77500 48.99800 25.95300
H  14.87600 49.64000 27.41000
H  15.47800 50.71400 26.14900
H  16.18600 49.71700 22.15800
H  16.24000 48.58600 23.44400
H  16.17100 50.37100 23.76600
H  10.17800 47.13800 21.37700
H  7.36800 47.87500 21.18900
H  9.22100 49.74500 20.53400
H  8.71800 48.40500 19.47900
H  10.44400 48.82800 19.74500
H  8.74100 45.32500 21.47300
H  7.04700 45.54400 21.33200
H  7.84600 45.67500 24.03800
H  8.67600 44.28100 23.30900
H  6.92600 44.35700 23.21200
H  3.74800 46.39100 25.52800
H  3.58800 47.98500 24.64900
H  3.03000 47.64900 26.36600
H  6.08900 49.10500 30.50700
H  5.07100 45.59800 32.52400
H  5.56800 46.77800 33.77200
H  6.79000 45.88700 32.74000
Mg -11.30900 37.77500 41.97800
C  -9.31000 35.04600 41.21000
C  -9.12200 39.71400 40.12800
C  -13.41900 40.33700 42.34500
C  -13.70300 35.61600 43.22000
N  -9.63400 37.29500 40.46700
C  -8.89400 36.17100 40.57400
C  -7.64600 36.30300 39.65400
C  -7.39700 37.83600 39.73500
C  -8.79800 38.35300 40.08000
C  -6.23600 38.28700 40.69400
C  -7.85200 35.68900 38.21700
C  -6.73500 34.68800 37.92200
H  -5.52900 35.32900 37.14300
N  -11.29700 39.78400 41.22100
C  -10.28300 40.37000 40.58500
C  -10.68100 41.72700 40.39200
C  -11.86900 41.97300 41.10600
C  -12.23400 40.65300 41.62300
C  -9.90900 42.74000 39.71800
C  -12.54200 43.43100 41.09500
O  -12.02800 44.43900 40.64900
C  -13.99400 43.50400 41.61500
N  -13.40600 37.87900 42.34100
C  -13.89900 39.05500 42.68700
C  -15.42600 38.90900 43.08600
C  -15.60000 37.33300 43.21000
C  -14.14600 36.88200 42.86100
C  -15.74100 39.69400 44.43400
C  -16.70400 36.57400 42.37600
C  -16.82100 36.92000 40.97700
N  -11.51600 35.71100 42.22800
C  -12.46000 35.07200 42.89600
C  -11.94600 33.72500 43.09500
C  -10.72600 33.64300 42.48700
C  -10.58300 34.88500 41.86400
C  -12.51400 32.69900 43.98000
C  -9.60300 32.82400 42.16000
O  -9.48100 31.57800 42.32900
C  -8.65300 33.60800 41.20500
C  -7.21800 33.62100 41.78700
O  -6.44400 32.69400 41.64500
O  -6.96400 34.74000 42.47300
C  -5.71300 34.85200 43.20400
H  -8.40200 40.37700 39.64400
H  -14.10400 41.12300 42.66900
H  -14.41900 34.96900 43.73100
H  -6.73700 35.88500 40.08800
H  -7.05900 38.17000 38.75400
H  -6.68100 38.91500 41.46600
H  -5.55200 38.93600 40.14700
H  -5.51700 37.56500 41.08200
H  -7.98500 36.48400 37.48400
H  -8.72500 35.03500 38.20100
H  -7.07800 33.83900 37.33000
H  -6.34900 34.21500 38.82500
H  -9.68900 43.45900 40.50800
H  -10.65400 43.08000 39.00000
H  -9.00200 42.54000 39.14800
H  -13.94300 43.29800 42.68400
H  -14.51300 42.76900 41.00000
H  -14.31700 44.52300 41.40600
H  -16.08300 39.18300 42.26100
H  -15.89000 37.07800 44.23000
H  -15.71800 40.74900 44.16100
H  -14.89300 39.36500 45.03500
H  -16.69300 39.33800 44.82600
H  -17.63800 36.84400 42.86900
H  -16.64500 35.49000 42.46400
H  -15.93200 37.42200 40.59500
H  -17.62600 37.64500 40.85700
H  -17.01200 36.01600 40.39900
H  -13.01800 31.86300 43.49400
H  -13.19000 33.15800 44.70200
H  -11.67900 32.26600 44.53100
H  -8.55700 33.22700 40.18900
H  -4.88400 35.10500 42.54400
H  -5.46100 33.87200 43.60900
H  -5.93100 35.57200 43.99300

