158

Mg 54.56500 25.26900 44.24000
C  51.80200 27.45800 43.95900
C  52.53400 22.71400 43.28600
C  57.26600 23.29800 43.67300
C  56.57200 27.97700 44.71900
N  52.49400 25.19300 43.56400
C  51.51500 26.08600 43.57600
C  50.15900 25.45600 43.21800
C  50.39000 23.96400 43.36400
C  51.92700 23.97700 43.47200
C  49.68100 23.28700 44.61400
C  49.53000 25.83200 41.84400
C  50.43900 26.60300 40.82200
H  50.64100 25.98300 39.48400
N  54.89900 23.23200 43.66600
C  53.84500 22.30500 43.36500
C  54.43100 21.03800 43.04900
C  55.84800 21.16000 43.09300
C  56.08900 22.58200 43.46000
C  53.61200 19.81200 42.74000
C  56.84800 20.01100 42.91700
O  56.45000 18.90400 42.58300
C  58.36100 20.27500 43.04400
N  56.62200 25.65500 43.91200
C  57.52400 24.66000 43.90400
C  58.92200 25.12500 44.12100
C  58.76700 26.65100 44.25300
C  57.15300 26.76500 44.35500
C  59.59400 24.47700 45.37700
C  59.32700 27.46700 43.10500
C  59.71700 28.94900 43.53500
N  54.28500 27.33800 44.29800
C  55.17200 28.31200 44.67400
C  54.50600 29.56900 44.88400
C  53.15300 29.30700 44.64600
C  53.10900 27.93900 44.31100
C  55.03600 30.92500 45.31500
C  51.79300 29.78800 44.67300
O  51.42000 30.84900 45.09000
C  50.85100 28.69400 44.05200
C  50.29100 29.26300 42.79200
O  50.90800 29.67800 41.81600
O  48.86000 29.17800 42.91200
C  48.24000 29.80600 41.69100
H  51.81100 22.05500 42.79900
H  58.18900 22.71700 43.62800
H  57.10300 28.88900 44.99900
H  49.42800 25.81300 43.94200
H  50.03800 23.41300 42.49200
H  50.40200 23.00900 45.38300
H  49.27300 22.29100 44.43800
H  48.89600 23.93000 45.01200
H  48.64300 26.44600 42.00300
H  49.10200 24.99800 41.28800
H  51.41900 26.89900 41.19600
H  49.86700 27.51500 40.65000
H  52.57700 19.95900 42.43400
H  53.72300 19.16100 43.60700
H  54.04000 19.35500 41.84800
H  58.83900 19.36700 42.67600
H  58.61400 20.40900 44.09600
H  58.77300 21.04000 42.38500
H  59.36500 24.74100 43.20200
H  58.98700 26.99200 45.26500
H  60.06000 25.14800 46.09900
H  60.48100 23.91900 45.07700
H  58.96900 23.68300 45.78500
H  58.57200 27.48500 42.31900
H  60.27000 27.07900 42.71800
H  58.94600 29.57000 43.07900
H  60.71500 29.24500 43.21000
H  59.61200 28.96900 44.61900
H  54.99700 30.83200 46.40000
H  54.44100 31.80100 45.05500
H  56.05700 31.11800 44.98400
H  49.98500 28.62500 44.71100
H  48.15600 29.14100 40.83000
H  48.68900 30.72500 41.31400
H  47.31400 30.19900 42.10900
Mg 50.12600 47.24700 43.40900
C  46.60600 47.19600 42.60200
C  50.24200 43.98500 42.53000
C  53.51200 47.37300 43.44800
C  49.82400 50.69700 43.56800
N  48.55900 45.86400 42.56600
C  47.26300 45.98400 42.38300
C  46.53700 44.70800 41.99700
C  47.64600 43.65700 42.32700
C  48.92200 44.58000 42.44700
C  47.44200 42.77200 43.58900
C  45.87500 44.57900 40.58000
C  46.68300 45.32600 39.47000
H  46.76200 44.58500 38.09600
N  51.72700 45.79200 43.15400
C  51.50300 44.48000 42.86500
C  52.73600 43.79200 42.79000
C  53.77400 44.72300 42.90900
C  53.05100 46.04000 43.27000
C  52.78800 42.34300 42.53600
C  55.29900 44.34500 42.85600
O  55.69400 43.21300 42.73100
C  56.26900 45.35000 43.32000
N  51.51400 48.79400 43.53900
C  52.83900 48.58800 43.60900
C  53.50700 49.97200 43.75400
C  52.36200 50.98800 43.91900
C  51.12600 50.09700 43.72500
C  54.71500 50.10700 44.80700
C  52.40600 52.16900 42.87700
C  52.03700 53.58500 43.39700
N  48.58300 48.75000 43.10600
C  48.58300 50.10800 43.30500
C  47.28000 50.64400 43.30000
C  46.44100 49.54900 42.98200
C  47.33000 48.41900 42.85900
C  46.84300 52.10600 43.51200
C  45.04000 49.13700 42.72600
O  43.97100 49.69300 42.73300
C  45.13600 47.58300 42.40400
C  44.19600 46.96600 43.34200
O  44.41700 46.65700 44.53600
O  42.99900 46.81200 42.68700
C  41.99100 45.91600 43.31100
H  50.08600 42.92800 42.30400
H  54.59500 47.39800 43.31300
H  49.76500 51.78200 43.68200
H  45.76500 44.57500 42.75500
H  47.66100 42.94200 41.50400
H  48.40700 42.72800 44.09300
H  47.20800 41.73600 43.34300
H  46.73700 43.15900 44.32600
H  44.81500 44.79800 40.71000
H  45.84800 43.52900 40.28900
H  47.67700 45.64200 39.78800
H  46.10200 46.22700 39.27300
H  52.04900 41.73800 43.06200
H  53.67100 41.84200 42.93400
H  52.70700 42.30100 41.45000
H  55.75400 45.60000 44.24800
H  56.38200 46.25900 42.73000
H  57.19400 44.84200 43.59300
H  54.10200 50.14600 42.85700
H  52.30900 51.44000 44.90900
H  55.09100 49.10700 45.02200
H  54.57600 50.57100 45.78400
H  55.54500 50.63400 44.33600
H  51.73100 52.03700 42.03100
H  53.39600 52.16300 42.42200
H  51.13100 53.90300 42.88100
H  52.81600 54.31900 43.19100
H  51.83000 53.60000 44.46700
H  47.34300 52.48200 44.40500
H  45.75600 52.09000 43.58800
H  47.20500 52.77800 42.73400
H  44.81400 47.35200 41.38800
H  42.21800 44.86400 43.13800
H  40.98200 46.07800 42.93000
H  41.90300 46.12200 44.37800

