158

Mg 44.40700 4.48300 46.78800
C  42.27700 7.21800 46.28800
C  41.83300 2.39500 46.21400
C  46.68300 1.97600 46.79000
C  47.11500 6.81000 46.39800
N  42.33900 4.79500 46.26200
C  41.66600 5.98200 46.13400
C  40.13900 5.71400 46.01900
C  40.01800 4.15000 46.14800
C  41.50300 3.77100 46.27100
C  39.22500 3.63800 47.39600
C  39.37900 6.26200 44.80900
C  40.04400 6.13700 43.44200
H  40.68200 7.31900 42.67500
N  44.31700 2.39700 46.69600
C  43.11000 1.70000 46.41200
C  43.38400 0.31900 46.40600
C  44.77100 0.16200 46.53500
C  45.34200 1.55000 46.70500
C  42.27000 -0.66300 46.13900
C  45.57000 -1.15200 46.57000
O  44.98500 -2.26700 46.31000
C  46.99900 -1.23200 46.97800
N  46.62200 4.39900 46.78100
C  47.26100 3.25000 46.78300
C  48.75600 3.42400 46.55500
C  48.79000 4.96000 46.18100
C  47.41800 5.43000 46.37700
C  49.69800 3.00900 47.67100
C  49.40400 5.20900 44.76600
C  50.91600 5.48500 44.80300
N  44.68600 6.58700 46.49300
C  45.81100 7.34100 46.38500
C  45.47700 8.72400 46.14600
C  44.09400 8.74800 46.25200
C  43.63200 7.38300 46.46100
C  46.32300 9.84800 46.01200
C  42.92400 9.64700 46.42300
O  42.83400 10.89700 46.51700
C  41.71300 8.60300 46.31200
C  40.87600 8.92200 47.41600
O  41.00800 8.38200 48.50600
O  39.95200 9.77000 47.07800
C  39.06100 10.12000 48.19800
H  40.91900 1.80800 46.10500
H  47.53200 1.29200 46.85100
H  47.95300 7.47700 46.18500
H  39.74600 6.17500 46.92500
H  39.64300 3.65700 45.25100
H  38.40100 4.34000 47.52800
H  39.92400 3.55400 48.22800
H  38.82000 2.64900 47.18000
H  39.25300 7.32400 45.02100
H  38.42900 5.74500 44.68000
H  39.28900 5.80200 42.73100
H  40.76900 5.32600 43.50200
H  41.98400 -0.68800 45.08700
H  41.30800 -0.30200 46.50300
H  42.50400 -1.65900 46.51700
H  47.13500 -2.19400 47.47200
H  47.14300 -0.51200 47.78300
H  47.65900 -0.91400 46.17100
H  49.08800 2.88600 45.66700
H  49.36900 5.55500 46.88800
H  50.25400 2.11800 47.38100
H  49.09700 2.67700 48.51700
H  50.43400 3.73600 48.01500
H  48.89400 6.04600 44.28800
H  49.20400 4.39100 44.07400
H  51.43400 5.00700 45.63400
H  50.98400 6.56200 44.95800
H  51.44300 5.28300 43.87000
H  47.30100 9.40400 45.82700
H  46.30800 10.48600 46.89600
H  45.97300 10.59100 45.29500
H  41.26400 8.84200 45.34800
H  38.46900 9.25900 48.50900
H  38.29900 10.81400 47.84400
H  39.51200 10.60900 49.06100
Mg 27.11500 50.27400 25.46500
C  25.09100 51.45900 28.17200
C  29.25300 49.05600 27.71300
C  29.27600 49.70700 22.93500
C  25.05400 52.12100 23.34700
N  27.13500 50.16000 27.72900
C  26.17000 50.72000 28.64400
C  26.52800 50.24300 30.03200
C  28.03600 49.71800 29.87300
C  28.17800 49.61400 28.32900
C  29.09000 50.70200 30.48300
C  25.50500 49.12000 30.49900
C  25.04700 49.29500 31.98300
H  25.87900 49.99700 33.04300
N  28.99700 49.40300 25.35400
C  29.72200 48.94100 26.39800
C  31.04600 48.49100 25.90500
C  31.04900 48.62800 24.47800
C  29.75800 49.34700 24.20900
C  31.97000 47.76200 26.78800
C  32.08300 48.21000 23.43900
O  31.92000 48.48900 22.26100
C  33.37200 47.44800 23.81600
N  27.22900 50.94000 23.42200
C  28.17200 50.47400 22.52300
C  27.80700 50.74800 21.03700
C  26.39700 51.30000 21.20700
C  26.15400 51.46500 22.75100
C  28.91900 51.64200 20.28500
C  25.32400 50.34600 20.48100
C  24.75700 51.01500 19.25100
N  25.42600 51.52900 25.65300
C  24.67100 52.18100 24.70700
C  23.52000 52.85900 25.32200
C  23.69700 52.64100 26.69800
C  24.84300 51.79300 26.84100
C  22.39700 53.63600 24.55900
C  23.15900 52.95100 27.96800
O  22.06300 53.52600 28.17800
C  23.98800 52.15000 28.94300
C  24.39400 53.01800 30.00400
O  25.36700 53.75100 30.02900
O  23.52600 52.78800 31.06700
C  23.83400 53.39900 32.38900
H  30.02400 48.75600 28.42500
H  29.82500 49.57700 22.00000
H  24.31100 52.49800 22.64100
H  26.50600 51.11700 30.68400
H  28.07400 48.78600 30.43800
H  29.41400 50.30000 31.44200
H  28.66200 51.67200 30.73600
H  29.93500 50.71900 29.79400
H  25.97000 48.14500 30.35000
H  24.59200 49.22700 29.91300
H  24.88100 48.35300 32.50600
H  24.06900 49.77400 31.93400
H  31.74300 47.65000 27.84900
H  32.93000 48.27300 26.71200
H  32.15100 46.77000 26.37400
H  33.08000 46.43000 24.07500
H  33.93900 47.87800 24.64100
H  33.97800 47.27600 22.92600
H  27.76500 49.77300 20.55100
H  26.34500 52.32300 20.83600
H  28.53600 52.65900 20.20200
H  29.18300 51.21600 19.31700
H  29.85600 51.73300 20.83500
H  24.46100 50.28200 21.14500
H  25.57200 49.34700 20.12300
H  25.31300 51.90900 18.96900
H  23.84300 51.43400 19.67400
H  24.55500 50.43200 18.35300
H  22.64300 53.86000 23.52100
H  22.45500 54.57700 25.10600
H  21.50900 53.00700 24.61800
H  23.44100 51.32700 29.40200
H  24.80000 53.04700 32.75100
H  22.99500 53.10700 33.02100
H  23.83700 54.48800 32.34200

