158

Mg 8.57200 3.23400 27.98100
C  10.00400 1.63600 30.86100
C  6.40000 4.89300 30.27300
C  7.37600 4.77900 25.41700
C  10.48200 1.16400 25.87100
N  8.34300 3.26600 30.28900
C  9.02500 2.55300 31.20600
C  8.64700 3.00700 32.68700
C  7.23900 3.69300 32.38000
C  7.33700 3.95800 30.90200
C  6.03700 2.85100 32.75900
C  9.72200 3.86200 33.39400
C  9.30500 4.75500 34.57300
H  10.15300 4.52500 35.84900
N  7.21600 4.60000 27.83700
C  6.36600 5.15800 28.83800
C  5.54600 6.20900 28.22100
C  5.72500 6.11700 26.80600
C  6.78000 5.10200 26.63500
C  4.54100 7.07400 29.03300
C  5.07500 6.97200 25.71900
O  5.35500 6.80200 24.56100
C  3.95100 7.88000 26.06600
N  8.77300 2.99400 25.87400
C  8.28000 3.86800 25.01900
C  8.76200 3.62800 23.58700
C  9.72800 2.42400 23.81900
C  9.63100 2.13600 25.27800
C  7.73900 3.52800 22.46000
C  11.25900 2.65900 23.32700
C  12.36900 3.16200 24.30000
N  9.87700 1.62800 28.22000
C  10.63400 0.89400 27.28700
C  11.52000 0.00700 27.92800
C  11.35300 0.31200 29.28600
C  10.33100 1.21900 29.44700
C  12.42100 -0.97500 27.20500
C  11.89100 0.02100 30.61100
O  12.81600 -0.77000 30.85300
C  11.15700 0.90700 31.59700
C  10.78000 0.08400 32.73600
O  9.91600 -0.76100 32.73500
O  11.35900 0.56000 33.87600
C  10.88700 -0.03500 35.09200
H  5.75900 5.48100 30.93300
H  7.07400 5.30700 24.50900
H  10.99800 0.56700 25.11600
H  8.61900 2.10700 33.30100
H  7.20100 4.67300 32.85600
H  5.22500 3.07600 32.06800
H  5.66100 2.99200 33.77200
H  6.37600 1.84100 32.52800
H  10.00600 4.60300 32.64700
H  10.56400 3.23900 33.69400
H  8.29500 4.42700 34.81700
H  9.38700 5.79700 34.26400
H  4.41600 6.71000 30.05300
H  3.55500 7.03000 28.56900
H  4.75100 8.14300 29.02100
H  3.14600 7.27200 26.47900
H  3.61400 8.37400 25.15500
H  4.16500 8.62100 26.83700
H  9.38300 4.50800 23.41900
H  9.34200 1.59500 23.22600
H  6.78900 3.89400 22.85000
H  7.62300 2.46900 22.22600
H  7.92600 4.19100 21.61500
H  11.28300 3.40100 22.52800
H  11.50600 1.73100 22.81200
H  12.03000 3.20500 25.33500
H  12.75800 4.14700 24.04200
H  13.09300 2.35300 24.21100
H  12.84500 -0.32600 26.43900
H  11.95800 -1.78600 26.64300
H  13.21500 -1.35000 27.85100
H  11.76900 1.77800 31.83200
H  10.44000 0.78800 35.64800
H  11.62800 -0.52900 35.72200
H  10.01900 -0.69400 35.06100
Mg 54.72400 22.87400 45.00400
C  52.64600 25.64100 44.39900
C  52.23200 20.77500 44.00800
C  57.06900 20.46800 44.81400
C  57.34700 25.27100 45.81100
N  52.79500 23.18400 44.07600
C  52.01700 24.37700 44.05200
C  50.56300 24.05400 43.48700
C  50.42700 22.58800 44.02200
C  51.90400 22.08800 44.00000
C  49.63400 22.31400 45.33400
C  50.39200 24.19200 41.95800
C  49.01600 24.81700 41.58000
H  48.19800 24.26800 40.39000
N  54.61200 20.89700 44.50000
C  53.52800 20.19700 44.13500
C  53.79000 18.80900 44.14300
C  55.18700 18.68100 44.30900
C  55.70700 20.07100 44.49600
C  52.71200 17.81500 43.98600
C  55.97900 17.33000 44.30500
O  55.45300 16.21300 44.19900
C  57.53300 17.34400 44.27200
N  56.94000 22.89300 45.21300
C  57.60200 21.70700 45.20700
C  58.99100 21.88400 45.74500
C  59.13100 23.46500 45.93200
C  57.71900 23.91800 45.62200
C  59.47200 20.89800 46.88900
C  60.23500 24.15700 45.08700
C  61.39900 24.91800 45.75300
N  55.02300 24.96700 45.11800
C  56.07400 25.79700 45.59600
C  55.65200 27.11500 45.58700
C  54.31700 27.08500 45.27000
C  53.99400 25.77000 44.85400
C  56.47100 28.37700 45.85200
C  53.19200 27.92800 45.13400
O  53.03100 29.09100 45.41800
C  52.07200 27.00400 44.42600
C  51.93300 27.57400 43.08700
O  52.62900 27.54200 42.12300
O  50.65100 28.10400 43.02400
C  50.19500 28.68600 41.80600
H  51.39000 20.10300 43.83000
H  57.88500 19.74300 44.81000
H  58.08700 26.03600 46.05500
H  49.92100 24.79000 43.97100
H  49.81700 22.03400 43.30700
H  49.09700 23.19700 45.68200
H  50.25000 21.97100 46.16500
H  48.93600 21.50700 45.10900
H  50.55700 23.19800 41.54100
H  51.19300 24.83300 41.59000
H  49.15200 25.87900 41.37800
H  48.29300 24.79900 42.39400
H  52.99400 16.77900 43.80000
H  52.00000 18.14200 43.22800
H  52.16000 17.87900 44.92300
H  57.85100 17.96600 43.43600
H  57.90400 16.32600 44.15100
H  57.93800 17.82800 45.16000
H  59.65000 21.62800 44.91600
H  59.30400 23.62700 46.99600
H  59.91600 21.36200 47.77000
H  60.30100 20.23700 46.63800
H  58.60900 20.34500 47.26300
H  59.85000 24.82500 44.31700
H  60.79600 23.39500 44.54500
H  61.20100 25.02200 46.82000
H  61.49000 25.86600 45.22300
H  62.34300 24.37800 45.68500
H  55.75000 29.04600 46.32100
H  57.09600 28.74700 45.03800
H  57.29500 28.09000 46.50600
H  51.08300 26.88600 44.86900
H  50.39900 27.97400 41.00600
H  50.68000 29.65200 41.66900
H  49.11800 28.82000 41.89900

