158

Mg 53.88800 24.07100 46.21200
C  51.19300 26.08000 45.01100
C  52.01700 21.28000 45.03500
C  56.50600 22.22600 46.68700
C  55.64300 26.97400 46.91800
N  51.81500 23.79700 45.14400
C  50.93800 24.76400 44.76700
C  49.71500 24.14600 44.08000
C  49.79300 22.71600 44.69500
C  51.31200 22.57300 44.94000
C  49.08900 22.51900 46.04800
C  49.73700 24.13600 42.47900
C  48.40800 24.70800 41.96500
H  47.96900 24.43700 40.47500
N  54.26800 22.03900 45.93800
C  53.34900 21.12500 45.31500
C  54.08900 19.86300 45.25000
C  55.35300 20.07300 45.81900
C  55.44800 21.45600 46.21400
C  53.47200 18.61300 44.58900
C  56.37100 18.95700 46.01500
O  56.24600 17.80800 45.53100
C  57.55100 19.13500 46.90000
N  55.75700 24.53300 46.70400
C  56.70700 23.55600 46.95300
C  58.01700 24.05100 47.52300
C  57.73000 25.63100 47.55000
C  56.27900 25.74100 47.08500
C  58.52800 23.41600 48.80300
C  58.66700 26.51900 46.68900
C  59.15400 27.87300 47.24800
N  53.48200 26.09800 46.13100
C  54.30000 27.12700 46.49700
C  53.52600 28.35300 46.48800
C  52.37000 28.05800 45.80600
C  52.31400 26.67500 45.64900
C  53.80600 29.64000 47.24600
C  51.05600 28.56500 45.36200
O  50.56100 29.68000 45.43900
C  50.36300 27.35100 44.67200
C  50.35400 27.65400 43.21700
O  51.22500 27.44600 42.39400
O  49.09500 27.97000 42.84900
C  48.87000 28.28100 41.46900
H  51.31100 20.45600 44.91300
H  57.44400 21.69300 46.85700
H  56.13700 27.91700 47.16300
H  48.78100 24.58400 44.43100
H  49.49700 21.89100 44.04600
H  48.41900 21.65900 46.05200
H  48.45600 23.36500 46.31400
H  49.82100 22.33300 46.83400
H  49.80300 23.07800 42.22500
H  50.53800 24.75300 42.07100
H  48.40100 25.76900 42.21300
H  47.54600 24.26800 42.46700
H  54.07700 18.31100 43.73500
H  52.50000 18.86700 44.16600
H  53.29100 17.86900 45.36500
H  57.43000 19.88600 47.68100
H  58.37400 19.40300 46.23600
H  57.66200 18.16300 47.37900
H  58.80500 23.88400 46.78800
H  57.85600 25.92200 48.59300
H  57.95100 22.51000 48.98700
H  58.40300 24.00300 49.71300
H  59.58900 23.21200 48.65300
H  58.04100 26.92100 45.89200
H  59.52800 25.94200 46.35200
H  60.24100 27.87100 47.16000
H  58.98800 27.95000 48.32300
H  58.60000 28.70800 46.82100
H  52.84000 30.14300 47.28200
H  54.47300 30.21100 46.60000
H  54.27900 29.51200 48.21900
H  49.34100 27.31100 45.05100
H  49.61800 28.12900 40.69100
H  48.61500 29.34100 41.44000
H  47.98200 27.67000 41.30900
Mg 8.07400 53.12100 40.76100
C  7.14500 49.71000 40.65700
C  11.34800 52.23800 39.92800
C  8.84000 56.45600 40.00000
C  4.70500 53.96000 40.63500
N  9.04800 51.18000 40.14600
C  8.54800 49.94500 40.34300
C  9.60600 48.84300 40.07800
C  10.85400 49.70500 40.33500
C  10.45900 51.19500 40.10800
C  11.64500 49.48900 41.65100
C  9.51300 48.31400 38.64500
C  9.27700 49.17000 37.36600
H  7.87800 49.38600 36.78700
N  9.86800 54.15100 40.29100
C  11.13000 53.58700 40.12000
C  12.04800 54.61700 39.95500
C  11.38500 55.85600 39.97400
C  9.89800 55.53000 40.11500
C  13.57000 54.34900 39.78500
C  12.00200 57.27100 39.83800
O  13.21400 57.34200 39.88300
C  11.22200 58.56400 39.66100
N  6.99000 54.94200 40.22000
C  7.46900 56.20600 40.17000
C  6.35800 57.25700 40.25200
C  5.05100 56.39400 40.43500
C  5.61100 54.96300 40.39200
C  6.47300 58.40700 41.29900
C  3.93500 56.60100 39.43500
C  3.58000 58.01800 39.11600
N  6.24700 52.13200 40.76500
C  4.92700 52.59500 40.80400
C  4.04900 51.52800 41.14600
C  4.87600 50.35100 41.16800
C  6.21500 50.77100 40.82900
C  2.56600 51.55700 41.38500
C  4.90800 48.93200 41.28600
O  3.96300 48.18700 41.60800
C  6.29900 48.42300 40.89200
C  6.20200 47.58600 39.71300
O  6.05900 47.89500 38.50900
O  6.17500 46.26300 40.10600
C  5.99800 45.19000 39.09300
H  12.40000 51.95500 39.85000
H  9.03300 57.53100 39.97000
H  3.66300 54.28200 40.66700
H  9.56300 47.97400 40.73400
H  11.58600 49.54500 39.54200
H  12.70900 49.69500 41.53700
H  11.58800 48.43800 41.93400
H  11.26900 50.09800 42.47300
H  8.59600 47.73800 38.77600
H  10.37100 47.69400 38.38800
H  9.82300 48.65100 36.57900
H  9.87400 50.07800 37.44800
H  13.96500 54.80800 38.87800
H  13.91200 53.32100 39.67000
H  14.19400 54.83900 40.53200
H  10.60800 58.34900 38.78600
H  11.95500 59.36900 39.62800
H  10.62000 58.79000 40.54100
H  6.41300 57.83000 39.32700
H  4.47300 56.42500 41.35900
H  6.18500 59.31500 40.76800
H  7.47400 58.38000 41.73000
H  5.69200 58.26300 42.04500
H  2.97100 56.21900 39.76900
H  4.17100 56.05200 38.52300
H  3.74200 58.74900 39.90900
H  2.53600 58.08800 38.81100
H  4.30100 58.27100 38.33800
H  2.19300 52.54400 41.11300
H  2.46200 51.44600 42.46500
H  2.09500 50.71700 40.87500
H  6.79800 47.87700 41.69300
H  6.96100 44.68300 39.04500
H  5.72500 45.48600 38.08000
H  5.23600 44.44200 39.31400

