158

Mg 35.20300 48.87500 24.93200
C  35.29100 47.35300 28.06500
C  33.84000 51.64100 26.45300
C  35.09600 50.32100 21.84100
C  36.21300 45.92300 23.48400
N  34.70900 49.43600 27.06500
C  34.81300 48.67600 28.13600
C  34.38000 49.37600 29.38600
C  34.01100 50.80600 28.87000
C  34.19600 50.61900 27.36200
C  32.65500 51.28600 29.28600
C  35.48700 49.47300 30.50500
C  34.97900 48.86900 31.90800
H  34.71200 49.90200 33.01600
N  34.52100 50.77100 24.25300
C  33.96900 51.72800 25.06700
C  33.75700 52.84500 24.18600
C  34.11900 52.56100 22.83400
C  34.57800 51.18600 22.92600
C  33.08300 54.12000 24.70700
C  33.87600 53.33200 21.53400
O  34.14900 52.90600 20.41400
C  33.22800 54.67800 21.59700
N  35.60000 48.15500 22.92700
C  35.53400 48.98800 21.82800
C  36.00900 48.22600 20.50300
C  36.57600 46.95500 21.12000
C  36.05600 46.96500 22.61600
C  35.05200 47.93600 19.47600
C  38.13600 46.78000 21.05300
C  38.61700 45.33500 20.86700
N  35.55700 47.00900 25.60200
C  35.89900 45.86500 24.82900
C  36.27500 44.84800 25.83100
C  35.98200 45.39500 27.07300
C  35.52000 46.71700 26.87700
C  36.80400 43.43300 25.65300
C  36.03500 45.05600 28.44700
O  36.40300 44.07500 29.08900
C  35.51300 46.29500 29.12300
C  34.22900 45.90400 29.84200
O  33.22400 45.53500 29.22400
O  34.31700 45.82600 31.19400
C  33.16700 45.34300 32.00200
H  33.65800 52.58300 26.97400
H  35.17000 50.68000 20.81200
H  36.78600 45.05500 23.15000
H  33.43200 49.03000 29.79900
H  34.68700 51.62800 29.10300
H  31.87800 51.08400 28.54900
H  32.63500 52.36100 29.46700
H  32.31800 50.76800 30.18400
H  35.68100 50.53800 30.63400
H  36.44400 49.03700 30.22100
H  35.68900 48.09400 32.19700
H  34.08800 48.26000 31.75300
H  32.26700 54.47000 24.07500
H  33.78800 54.95100 24.74600
H  32.66300 54.06800 25.71100
H  33.90400 55.28800 22.19700
H  32.18800 54.48500 21.85900
H  33.22600 54.96300 20.54500
H  36.86400 48.73800 20.06200
H  35.99800 46.12700 20.71100
H  35.25100 48.69900 18.72300
H  34.01300 48.00900 19.79700
H  35.27700 47.02200 18.92700
H  38.58200 47.10600 21.99300
H  38.55200 47.40400 20.26100
H  37.88700 44.64400 20.44400
H  38.83600 44.92900 21.85400
H  39.49500 45.25800 20.22600
H  37.55300 43.23200 26.41800
H  37.12700 43.33300 24.61700
H  35.93000 42.84400 25.93000
H  36.28700 46.52100 29.85700
H  33.27100 44.31100 32.33500
H  32.20600 45.45000 31.50000
H  33.18400 45.92800 32.92200
Mg 16.46400 52.25800 24.75100
C  18.02400 51.03500 27.69600
C  13.79400 53.04800 26.67600
C  15.08400 53.25700 21.97800
C  19.10200 50.71800 23.02300
N  15.95600 52.09200 26.99400
C  16.76000 51.59200 28.03300
C  16.20800 51.99100 29.38500
C  14.76100 52.51900 29.02400
C  14.86500 52.51600 27.43600
C  13.64100 51.68700 29.68500
C  17.19500 52.93500 30.16200
C  17.71800 52.43800 31.53300
H  16.83500 51.47900 32.39700
N  14.68300 53.06100 24.36800
C  13.69600 53.33700 25.25300
C  12.60100 53.95100 24.51700
C  12.91400 54.09000 23.15600
C  14.29200 53.47700 23.11800
C  11.34700 54.29300 25.29500
C  12.09900 54.76100 22.06000
O  12.54100 54.84100 20.91600
C  10.80200 55.33900 22.29100
N  17.00000 52.13400 22.83800
C  16.31500 52.59700 21.81300
C  16.56900 51.80000 20.54600
C  17.91400 51.09000 20.80400
C  18.04300 51.33100 22.31300
C  15.27700 50.87200 20.28500
C  19.16500 51.68300 19.97200
C  19.64700 50.92000 18.80900
N  18.20500 51.14700 25.22600
C  19.25100 50.63100 24.40200
C  20.31800 50.00600 25.15100
C  19.84100 50.11200 26.44600
C  18.54600 50.77000 26.43100
C  21.58000 49.40800 24.68300
C  20.17900 49.81200 27.80500
O  21.12600 49.19600 28.18900
C  19.08800 50.47400 28.69600
C  18.52000 49.39900 29.64000
O  17.53600 48.76800 29.37500
O  19.31400 49.20800 30.75500
C  18.87500 48.16500 31.62900
H  13.03000 53.47700 27.32800
H  14.63500 53.55900 21.03000
H  19.74700 50.04000 22.46000
H  16.15800 51.02600 29.88900
H  14.58000 53.52800 29.39400
H  14.10000 50.89700 30.27900
H  13.06900 51.22900 28.87900
H  13.04600 52.27800 30.38200
H  16.76100 53.93000 30.25300
H  18.12400 53.04900 29.60400
H  17.83900 53.31100 32.17400
H  18.66300 51.94700 31.30000
H  11.35200 53.70400 26.21200
H  10.50000 53.96900 24.69000
H  11.18100 55.31500 25.63600
H  10.67100 56.29500 22.79700
H  10.06900 54.63100 22.67800
H  10.40600 55.63200 21.31900
H  16.51300 52.37100 19.62000
H  17.84200 50.04300 20.51000
H  14.86700 51.25500 19.35000
H  14.61100 50.94500 21.14500
H  15.52300 49.83000 20.08000
H  19.99600 51.88400 20.64900
H  18.73700 52.64100 19.67500
H  19.24500 51.31700 17.87700
H  19.37100 49.86600 18.84000
H  20.73300 50.96100 18.72500
H  22.31100 50.17300 24.94400
H  21.55000 49.30500 23.59800
H  21.67900 48.44500 25.18300
H  19.52800 51.28100 29.28300
H  19.46300 48.28100 32.53900
H  19.02200 47.19900 31.14400
H  17.87400 48.26100 32.04900

