158

Mg 53.19300 24.58200 45.13300
C  50.68600 26.87100 44.13500
C  51.50300 22.07100 43.50100
C  55.86600 22.62500 45.59500
C  55.11600 27.36000 46.01700
N  51.30300 24.57000 43.82700
C  50.38200 25.56500 43.67000
C  49.14900 25.03200 42.87000
C  49.28800 23.48200 43.03000
C  50.81100 23.35400 43.49700
C  48.45100 22.60500 44.04200
C  49.12700 25.55500 41.37000
C  50.48200 25.81000 40.70400
H  50.40600 26.23000 39.28500
N  53.51800 22.66200 44.78200
C  52.73000 21.73900 44.13100
C  53.27900 20.43000 44.29200
C  54.48600 20.51800 45.02800
C  54.64800 21.98100 45.21100
C  52.55100 19.21400 43.85200
C  55.39500 19.37200 45.50200
O  55.15800 18.17100 45.31000
C  56.68300 19.51200 46.33700
N  55.24800 24.98300 45.49700
C  56.15700 24.00800 45.64100
C  57.52900 24.59900 45.85800
C  57.34200 26.13300 45.77700
C  55.84300 26.21000 45.70400
C  58.23200 24.07100 47.17100
C  58.15400 26.71900 44.58000
C  57.38600 27.09300 43.27700
N  52.91900 26.64900 45.22700
C  53.73500 27.62400 45.73800
C  53.00300 28.90300 45.78700
C  51.79100 28.61300 45.21400
C  51.79300 27.25400 44.85100
C  53.48600 30.13300 46.46700
C  50.56100 29.17900 44.78400
O  50.17700 30.32100 44.86400
C  49.72700 28.04500 44.05800
C  49.50600 28.56400 42.68700
O  50.39600 28.91100 41.91700
O  48.14500 28.76700 42.46700
C  47.80300 29.10300 41.09200
H  50.97900 21.18900 43.12500
H  56.75700 22.03700 45.82700
H  55.75500 28.23500 46.15000
H  48.30300 25.43100 43.43100
H  49.10400 22.91400 42.11800
H  48.22100 21.71800 43.45200
H  47.55200 23.19100 44.23200
H  48.86100 22.32500 45.01200
H  48.55700 26.48100 41.44000
H  48.61100 24.84900 40.71900
H  51.12200 24.92900 40.76100
H  51.10200 26.44000 41.34100
H  51.59400 19.11300 44.36200
H  53.07200 18.26100 43.93800
H  52.29100 19.43900 42.81700
H  56.98300 18.58500 46.82500
H  56.52200 20.26800 47.10600
H  57.55300 19.79800 45.74600
H  58.17800 24.24000 45.05900
H  57.58300 26.66200 46.69900
H  58.68800 24.80700 47.83400
H  59.14700 23.52000 46.95400
H  57.59300 23.40400 47.75000
H  58.93100 26.07800 44.16400
H  58.40500 27.73400 44.88900
H  56.69000 26.36600 42.86000
H  58.08600 27.18500 42.44600
H  56.94600 28.08800 43.35200
H  53.60200 30.98100 45.79200
H  54.47100 30.08700 46.93300
H  52.75800 30.37300 47.24100
H  48.85000 27.86700 44.68000
H  47.88100 30.19000 41.11300
H  46.78600 28.85700 40.78700
H  48.39600 28.58900 40.33500
Mg -12.38800 39.29800 42.83300
C  -10.90900 36.36600 41.62000
C  -10.12700 41.13500 41.04400
C  -14.08400 41.98900 43.71500
C  -15.19300 37.32200 43.66500
N  -10.69600 38.82100 41.57800
C  -10.29400 37.54900 41.24900
C  -9.04900 37.57700 40.44300
C  -8.78500 39.12300 40.28300
C  -9.95400 39.71800 40.94700
C  -7.39000 39.50000 40.67600
C  -9.21600 36.86400 39.05400
C  -8.14600 35.75000 38.83800
H  -7.02800 36.12500 37.93100
N  -12.11600 41.28600 42.49600
C  -11.15900 41.86700 41.68800
C  -11.26900 43.28200 41.75100
C  -12.43600 43.58900 42.43800
C  -12.94800 42.29100 42.99500
C  -10.24300 44.21500 41.06700
C  -12.95500 44.96400 42.64100
O  -12.38900 45.94700 42.06600
C  -14.13800 45.27000 43.59600
N  -14.37300 39.53400 43.54800
C  -14.72600 40.80400 44.07000
C  -16.10600 40.82200 44.67800
C  -16.51500 39.31500 44.68300
C  -15.36100 38.69100 43.87500
C  -16.23900 41.58900 46.01100
C  -17.91500 39.00700 44.11600
C  -18.79200 38.02900 44.90400
N  -12.94900 37.27200 42.71700
C  -14.14300 36.65600 43.14700
C  -14.04600 35.26000 42.85300
C  -12.72400 35.03700 42.31400
C  -12.14400 36.34100 42.27400
C  -15.09600 34.23600 43.17300
C  -11.78100 34.06100 41.78800
O  -11.95600 32.85600 41.84400
C  -10.52900 34.88300 41.34600
C  -9.30100 34.35500 42.01200
O  -8.89500 34.66400 43.11900
O  -8.71700 33.44800 41.15500
C  -7.64100 32.66400 41.65600
H  -9.42000 41.74000 40.47300
H  -14.59900 42.89900 44.02800
H  -16.11000 36.83600 44.00600
H  -8.24000 37.11000 41.00500
H  -8.86100 39.37400 39.22500
H  -7.46300 40.52600 41.03900
H  -6.67000 39.57200 39.86100
H  -6.92600 38.84200 41.41100
H  -9.01100 37.56500 38.24500
H  -10.16900 36.37500 38.85100
H  -8.60600 34.79700 38.57500
H  -7.66700 35.49700 39.78400
H  -10.78200 44.64600 40.22200
H  -9.29300 43.82000 40.70800
H  -10.17500 45.12400 41.66400
H  -15.12300 44.94200 43.26200
H  -14.17300 46.35900 43.56300
H  -13.83900 45.02100 44.61400
H  -16.78300 41.34000 43.99900
H  -16.43400 38.89900 45.68700
H  -15.28100 42.01700 46.30500
H  -16.61900 40.96900 46.82300
H  -17.09000 42.26400 46.10200
H  -17.90900 38.46000 43.17300
H  -18.45900 39.94900 44.05700
H  -19.35100 37.20300 44.46700
H  -19.52600 38.67900 45.38000
H  -18.18900 37.62400 45.71700
H  -15.66000 34.08400 42.25300
H  -15.70300 34.62400 43.99000
H  -14.58300 33.32700 43.48900
H  -10.40500 34.81500 40.26500
H  -7.89900 32.14500 42.57900
H  -6.77700 33.31000 41.81100
H  -7.46500 31.91600 40.88300

