158

Mg 42.50500 40.89400 26.04400
C  41.44600 43.28300 28.33500
C  43.49400 39.02000 28.73100
C  43.88600 38.83300 23.91700
C  41.59300 43.04900 23.51100
N  42.52400 41.13500 28.22400
C  41.95200 42.15800 28.93100
C  42.04600 41.96900 30.43500
C  42.81700 40.59300 30.52900
C  42.87300 40.22700 29.04100
C  44.13200 40.65900 31.32200
C  40.69300 41.86800 31.13200
C  40.63100 42.67100 32.47000
H  40.13700 41.85700 33.72500
N  43.60300 39.18600 26.29200
C  43.83000 38.52400 27.46000
C  44.51400 37.31200 27.18500
C  44.69600 37.22700 25.76600
C  44.07700 38.48700 25.24000
C  45.08100 36.44100 28.38200
C  45.29500 36.13100 24.99700
O  45.53300 36.18700 23.74200
C  45.80400 34.90500 25.77200
N  42.69100 40.91900 24.00300
C  43.19300 39.85900 23.35200
C  42.72700 39.94900 21.85400
C  42.18400 41.36100 21.77600
C  42.15200 41.83100 23.18500
C  43.77000 39.57400 20.80100
C  40.78000 41.54100 21.04700
C  40.95800 42.52300 19.82000
N  41.76300 42.82500 25.91400
C  41.49900 43.61500 24.80900
C  41.05000 44.92200 25.26400
C  40.97000 44.79900 26.63600
C  41.42900 43.53900 26.98800
C  40.65400 46.09200 24.41900
C  40.51500 45.42800 27.86500
O  39.93900 46.52600 27.93500
C  40.71800 44.43500 28.99800
C  41.43800 45.16800 30.00300
O  42.61300 45.52700 29.98200
O  40.67700 45.54200 31.06700
C  41.37400 46.25000 32.12500
H  43.61400 38.23800 29.48300
H  44.29800 38.14100 23.17900
H  41.33100 43.67100 22.65300
H  42.67700 42.72400 30.90400
H  42.17300 39.80100 30.91000
H  44.41900 41.67300 31.59800
H  44.84400 40.17600 30.65300
H  44.17500 40.12000 32.26800
H  40.55400 40.86700 31.54200
H  39.83300 42.15600 30.52800
H  40.00100 43.55400 32.36500
H  41.53200 43.23000 32.72200
H  45.11500 37.02300 29.30400
H  46.12400 36.15900 28.23400
H  44.50900 35.51600 28.45500
H  46.20900 34.24900 25.00200
H  45.16700 34.38400 26.48800
H  46.70000 35.33600 26.21800
H  42.00700 39.13400 21.92700
H  42.86200 41.99800 21.20700
H  43.85900 40.38200 20.07500
H  43.43700 38.66200 20.30500
H  44.78000 39.48800 21.20200
H  39.96400 42.02900 21.58000
H  40.40200 40.57900 20.70200
H  40.95900 41.88200 18.93900
H  41.85600 43.13200 19.92300
H  40.04900 43.11500 19.93200
H  40.55800 45.88200 23.35400
H  41.31600 46.93000 24.63600
H  39.63700 46.36900 24.69900
H  39.75700 44.27900 29.48700
H  42.03700 45.51900 32.58700
H  40.59300 46.53400 32.83100
H  41.84800 47.14300 31.71700
Mg 28.28900 56.81100 39.66200
C  26.36900 53.84700 39.29900
C  31.08100 54.89800 38.70100
C  29.98800 59.65000 39.39600
C  25.35700 58.50100 40.25000
N  28.65000 54.64500 38.97400
C  27.71000 53.69500 38.93500
C  28.31600 52.41200 38.39900
C  29.84500 52.61100 38.45900
C  29.90300 54.13900 38.76400
C  30.47300 51.77300 39.57100
C  27.79600 51.95200 36.97700
C  27.21600 52.98800 35.93000
H  27.47900 52.76700 34.38000
N  30.29100 57.19700 39.27100
C  31.24400 56.29500 38.83900
C  32.48100 57.06700 38.64000
C  32.15500 58.43900 38.83700
C  30.74500 58.46600 39.21300
C  33.76700 56.38300 38.25800
C  33.22400 59.55500 38.70600
O  34.33400 59.34600 38.32300
C  33.02900 60.98100 39.24900
N  27.71800 58.75400 39.67500
C  28.61500 59.74800 39.72000
C  28.03400 61.02900 40.14800
C  26.49100 60.74200 40.03700
C  26.54200 59.21500 40.11200
C  28.50900 61.50500 41.56400
C  25.78300 61.24300 38.71900
C  24.74800 62.38000 38.86100
N  26.26300 56.34300 39.68400
C  25.15900 57.09300 39.95700
C  23.94200 56.28100 40.05700
C  24.39300 54.93700 39.83100
C  25.77400 55.08200 39.59400
C  22.60900 56.79300 40.47200
C  24.04400 53.58800 39.80600
O  22.94400 53.03900 39.87900
C  25.27600 52.79000 39.53300
C  25.40100 51.91200 40.67600
O  24.70100 50.93100 40.84700
O  26.44100 52.22500 41.47400
C  26.69600 51.38000 42.65300
H  31.93600 54.30600 38.36800
H  30.45700 60.63300 39.48500
H  24.44200 59.08100 40.38400
H  27.94500 51.73600 39.16900
H  30.33300 52.47400 37.49400
H  29.95700 50.85800 39.86200
H  30.47600 52.40600 40.45800
H  31.43700 51.39000 39.23400
H  27.03100 51.26100 37.33200
H  28.47000 51.23000 36.51600
H  27.81900 53.86200 36.17400
H  26.16700 53.26000 36.04600
H  33.98600 56.47800 37.19500
H  33.78500 55.29600 38.34400
H  34.61800 56.78500 38.80900
H  32.47600 60.86100 40.18100
H  32.44800 61.61200 38.57600
H  34.03500 61.36500 39.42200
H  28.35700 61.86400 39.52600
H  25.91900 61.05500 40.91100
H  27.70000 61.44200 42.29100
H  28.85500 62.52900 41.42500
H  29.41200 60.92500 41.75300
H  25.23100 60.42500 38.25600
H  26.51200 61.51700 37.95700
H  24.71400 62.80100 37.85600
H  25.25000 63.10000 39.50700
H  23.80300 62.03900 39.28600
H  22.05900 57.25900 39.65400
H  22.79800 57.54300 41.23900
H  22.07200 55.94900 40.90400
H  25.07700 52.22700 38.62100
H  27.49900 51.95800 43.11100
H  27.17100 50.47100 42.28400
H  25.78800 51.13400 43.20300

