158

Mg 8.32100 3.45600 27.65800
C  9.56800 1.86100 30.45300
C  6.14700 5.32200 29.62700
C  7.15100 4.82700 24.83000
C  9.96400 0.98400 25.65000
N  7.88100 3.54600 29.78200
C  8.58100 2.88000 30.77800
C  8.10300 3.25900 32.12000
C  6.96100 4.28600 31.85200
C  7.00200 4.48100 30.34700
C  5.56300 3.94100 32.40200
C  9.19700 3.86200 32.98200
C  8.72300 4.47400 34.34400
H  9.61200 4.17800 35.54000
N  6.85100 4.86000 27.25400
C  6.03800 5.52100 28.19000
C  5.18600 6.46100 27.53800
C  5.56600 6.42300 26.11800
C  6.60200 5.35800 25.99800
C  4.31500 7.45800 28.38900
C  5.08500 7.22700 24.92400
O  5.64000 7.18800 23.81100
C  4.04000 8.32900 25.17900
N  8.70100 3.12600 25.54600
C  8.06600 3.84000 24.58600
C  8.47100 3.38900 23.15600
C  9.11200 1.98700 23.42800
C  9.33100 2.00600 24.99100
C  7.30000 3.26600 22.07400
C  10.46100 1.75500 22.56000
C  10.54400 0.56600 21.59100
N  9.43600 1.68100 27.92600
C  10.13900 0.89800 27.03500
C  10.84500 -0.07000 27.83000
C  10.78800 0.39300 29.13700
C  9.83400 1.44100 29.18800
C  11.54900 -1.23100 27.32300
C  11.24600 0.05400 30.43600
O  12.02600 -0.84300 30.86500
C  10.42500 1.04100 31.35900
C  9.65100 0.32100 32.34800
O  8.55700 -0.18200 32.21900
O  10.29500 0.40800 33.58200
C  9.65000 -0.33800 34.73700
H  5.45300 5.86800 30.27000
H  6.64000 5.33000 24.00700
H  10.28000 0.21200 24.94500
H  7.72000 2.38000 32.63800
H  7.20800 5.25600 32.28300
H  5.22400 4.75000 33.05000
H  5.55600 3.04900 33.02800
H  4.74300 3.79300 31.70000
H  9.65800 4.69000 32.44300
H  9.92900 3.13400 33.33000
H  7.82200 3.95400 34.66800
H  8.55900 5.54200 34.19900
H  3.37500 7.60500 27.85800
H  4.76900 8.44800 28.41700
H  3.93400 6.98900 29.29600
H  4.49200 9.15400 25.73000
H  3.19100 7.99500 25.77500
H  3.63800 8.48300 24.17800
H  9.24700 4.02700 22.73500
H  8.46200 1.12800 23.26300
H  6.29700 3.62500 22.30400
H  7.32900 2.25900 21.65900
H  7.64000 3.95900 21.30500
H  11.18800 1.72600 23.37100
H  10.76400 2.64200 22.00400
H  10.88300 0.87200 20.60100
H  9.63600 -0.03200 21.52200
H  11.33900 -0.13900 21.83400
H  12.16600 -0.93600 26.47400
H  10.80200 -1.97700 27.05100
H  12.12200 -1.58900 28.17800
H  11.09500 1.72800 31.87500
H  9.13000 -1.26500 34.49600
H  8.88400 0.28100 35.20500
H  10.30300 -0.53500 35.58700
Mg 35.28200 2.85200 29.45600
C  32.89500 3.77200 31.96300
C  37.72300 2.74700 32.02500
C  37.35400 1.93100 27.20100
C  32.69700 3.37000 27.16000
N  35.27300 3.27500 31.68700
C  34.16100 3.54300 32.50300
C  34.55400 3.61500 33.95300
C  36.12600 3.69700 33.85200
C  36.40900 3.18700 32.41700
C  36.57100 5.12600 34.14900
C  34.04700 2.29800 34.68900
C  33.96000 2.20200 36.20000
H  34.38100 3.39200 37.08800
N  37.30300 2.46100 29.55700
C  38.12100 2.35800 30.68800
C  39.46000 1.99000 30.26800
C  39.40600 1.71800 28.88100
C  37.97800 2.02800 28.48400
C  40.68500 1.97600 31.19500
C  40.47300 1.34400 27.83000
O  40.25200 1.23700 26.60900
C  41.88700 1.06100 28.13400
N  35.07600 2.84200 27.30400
C  36.06900 2.27500 26.65300
C  35.66700 2.15400 25.22200
C  34.08300 2.42400 25.24000
C  33.89900 2.90600 26.61800
C  36.29400 3.20800 24.29500
C  33.26000 1.17200 24.91700
C  33.55600 -0.13700 25.72500
N  33.29200 3.67800 29.46200
C  32.41700 3.75400 28.47500
C  31.11200 4.09100 28.98900
C  31.23100 4.14500 30.35700
C  32.53500 3.80400 30.61600
C  29.79900 4.29200 28.21500
C  30.50600 4.46300 31.56700
O  29.42300 4.95900 31.75400
C  31.59900 4.11800 32.74400
C  31.79100 5.30300 33.57900
O  32.26300 6.33900 33.25900
O  31.17900 5.01200 34.75300
C  31.30200 6.01300 35.88100
H  38.42800 2.67600 32.85600
H  37.81500 1.30700 26.43200
H  31.87100 3.46100 26.45200
H  34.13500 4.42700 34.54700
H  36.62400 3.13600 34.64300
H  37.17500 5.54200 33.34200
H  37.29800 5.05400 34.95900
H  35.78200 5.76200 34.55000
H  34.61600 1.41100 34.41100
H  33.01500 2.15600 34.36600
H  34.56900 1.33300 36.45000
H  32.93700 1.96600 36.49700
H  41.31700 1.11100 30.99400
H  40.41200 1.91000 32.24800
H  41.31100 2.85400 31.03300
H  42.47400 0.79200 27.25600
H  42.00100 0.36000 28.96000
H  42.38300 1.92300 28.58000
H  35.87300 1.16300 24.81900
H  33.85100 3.20100 24.51100
H  37.34300 3.39500 24.52600
H  35.78200 4.16700 24.37600
H  36.35000 2.86600 23.26200
H  33.46300 0.89100 23.88300
H  32.21900 1.47300 25.03100
H  33.71500 -0.84900 24.91500
H  32.63800 -0.38000 26.25900
H  34.46700 -0.10800 26.32200
H  29.90000 3.86600 27.21700
H  29.47000 5.32900 28.14000
H  28.98800 3.81300 28.76300
H  31.29500 3.26500 33.35200
H  30.29900 6.42700 35.98100
H  32.00900 6.81700 35.67500
H  31.62400 5.50900 36.79200

