158

Mg 27.74000 56.65800 40.61400
C  25.88000 53.77100 39.58300
C  30.50900 55.14200 38.98600
C  29.50200 59.53100 40.81200
C  24.83200 58.26500 41.33700
N  28.15800 54.68000 39.35700
C  27.22600 53.69200 39.16000
C  27.83700 52.53300 38.33400
C  29.37500 52.96000 38.30200
C  29.32300 54.33800 38.99700
C  30.40300 51.89400 38.90100
C  27.06600 52.24300 36.98700
C  27.06800 53.39800 36.05300
H  27.33700 53.12200 34.53600
N  29.77400 57.21000 40.25200
C  30.65800 56.43300 39.52800
C  31.90700 57.19800 39.55400
C  31.67900 58.42400 40.13000
C  30.27800 58.48400 40.36900
C  33.20300 56.76800 38.83600
C  32.71700 59.55900 40.26700
O  33.89300 59.37500 39.99300
C  32.39600 60.83600 40.97500
N  27.31400 58.58000 41.03700
C  28.16500 59.61100 41.05600
C  27.47800 60.88100 41.48300
C  25.95000 60.53600 41.41200
C  26.01200 59.05600 41.25800
C  28.06000 61.52300 42.81100
C  25.25800 61.16400 40.19300
C  25.63100 60.50500 38.89700
N  25.77000 56.24100 40.52400
C  24.69000 56.94200 40.85500
C  23.49100 56.08300 40.72800
C  23.99100 54.87100 40.34500
C  25.34400 54.97700 40.16500
C  21.99200 56.37900 40.95100
C  23.50700 53.51300 40.09800
O  22.35500 52.96700 40.17900
C  24.66500 52.80200 39.44200
C  24.83800 51.53000 40.26200
O  24.11800 50.49900 40.12000
O  25.73300 51.69400 41.26100
C  26.01500 50.56200 42.13700
H  31.39700 54.76800 38.47300
H  29.97900 60.50700 40.92000
H  23.96300 58.89200 41.54600
H  27.81700 51.63200 38.94600
H  29.67800 53.01900 37.25700
H  30.92100 51.35500 38.10800
H  29.80100 51.14700 39.41800
H  31.03300 52.28200 39.70100
H  26.09500 51.77400 37.14600
H  27.78300 51.57600 36.51000
H  27.83600 54.12800 36.30900
H  26.06400 53.82000 36.07500
H  33.27300 55.68000 38.81700
H  34.16600 57.02400 39.27800
H  33.23600 57.12100 37.80500
H  31.89800 60.41500 41.84900
H  31.83300 61.55300 40.37800
H  33.29400 61.30600 41.37600
H  27.72100 61.60500 40.70500
H  25.52000 60.91200 42.34100
H  28.36900 62.52500 42.51400
H  28.88400 61.03800 43.33300
H  27.35000 61.55700 43.63800
H  25.48300 62.22900 40.25000
H  24.18900 60.97300 40.28400
H  24.77000 60.09200 38.37200
H  26.38800 59.72200 38.88600
H  26.02100 61.30600 38.26900
H  21.56500 56.84400 40.06200
H  21.88900 57.12100 41.74300
H  21.37900 55.54400 41.28900
H  24.47500 52.47100 38.42100
H  25.13900 50.09100 42.58500
H  26.83700 50.93300 42.74900
H  26.56100 49.84300 41.52700
Mg 26.48600 49.50400 26.30400
C  24.63900 50.80000 28.83600
C  28.93900 48.54500 28.57800
C  28.50600 48.45800 23.71800
C  24.40100 50.96300 23.98400
N  26.66900 49.62700 28.48400
C  25.78000 50.20400 29.36000
C  26.22000 49.97600 30.86800
C  27.70000 49.38100 30.66200
C  27.76600 49.18300 29.10200
C  28.92600 50.27700 31.24200
C  25.26000 48.98500 31.65700
C  24.86200 49.51500 33.03400
H  24.85700 48.47000 34.18400
N  28.52200 48.73500 26.19700
C  29.32200 48.41900 27.20000
C  30.50900 47.79400 26.70500
C  30.42200 47.75700 25.27700
C  29.12900 48.36800 25.00100
C  31.61100 47.32300 27.56300
C  31.33000 47.15300 24.24000
O  31.11300 47.19200 23.04800
C  32.61900 46.43500 24.69100
N  26.52800 49.74800 24.17000
C  27.34000 49.02200 23.31100
C  26.96100 49.24200 21.80100
C  25.55600 49.95400 21.89200
C  25.49700 50.28700 23.44300
C  28.12300 49.89800 20.93100
C  24.36600 49.07700 21.28400
C  23.26700 49.81000 20.40900
N  24.74400 50.50000 26.29100
C  24.04600 51.04800 25.30700
C  22.89200 51.73000 25.77100
C  23.04100 51.61800 27.18600
C  24.17100 50.85900 27.47100
C  21.97400 52.59900 24.96300
C  22.49000 52.01000 28.46900
O  21.54400 52.71000 28.72600
C  23.47600 51.43900 29.62700
C  23.87100 52.57400 30.47100
O  24.52300 53.52000 30.13300
O  23.33400 52.43300 31.72100
C  23.82100 53.49000 32.65900
H  29.59600 48.12000 29.33900
H  29.07800 48.29200 22.80200
H  23.60500 51.36300 23.35300
H  26.04700 50.94200 31.34300
H  27.86200 48.40900 31.12800
H  29.59100 50.78100 30.54200
H  29.41100 49.58500 31.93100
H  28.57700 51.10600 31.85800
H  25.84400 48.06600 31.70300
H  24.37700 48.77500 31.05300
H  23.85600 49.86300 32.79700
H  25.52100 50.34500 33.28900
H  31.78100 46.24700 27.60000
H  31.48600 47.64800 28.59600
H  32.62000 47.60400 27.26100
H  33.15700 46.07800 23.81300
H  32.38200 45.57000 25.31000
H  33.26800 47.17200 25.16400
H  26.88300 48.24200 21.37600
H  25.45200 50.98900 21.56500
H  28.99400 50.18600 21.52000
H  27.79000 50.79400 20.40700
H  28.56400 49.20600 20.21300
H  23.79800 48.65400 22.11200
H  24.73100 48.28600 20.62900
H  22.49300 49.93500 21.16600
H  22.98700 49.13100 19.60400
H  23.67900 50.75100 20.04300
H  22.56000 53.08300 24.18300
H  21.57000 53.45800 25.49800
H  21.23200 51.90900 24.56200
H  23.01200 50.66400 30.23800
H  23.94200 53.05900 33.65300
H  23.08700 54.29200 32.74900
H  24.77900 53.97600 32.47600

