158

Mg 41.14600 41.35700 27.09400
C  40.88600 43.88600 29.63900
C  41.89100 39.22600 29.63800
C  42.00000 39.24800 24.86000
C  41.33300 44.09800 24.78400
N  41.44100 41.60200 29.43400
C  40.98200 42.57800 30.18500
C  40.90300 42.12500 31.70300
C  41.49000 40.67200 31.64600
C  41.56600 40.45000 30.11500
C  42.89600 40.56200 32.30100
C  39.42600 42.23200 32.34400
C  39.23700 42.25400 33.86300
H  38.34600 43.31400 34.52400
N  41.64000 39.40900 27.19300
C  41.95400 38.63700 28.33400
C  42.30000 37.27100 27.88100
C  42.33300 37.26000 26.47200
C  41.95700 38.67500 26.11500
C  42.49900 36.20000 28.85900
C  42.75800 36.17400 25.45600
O  42.66500 36.28700 24.25100
C  43.18900 34.80500 25.97300
N  41.64100 41.62400 25.13400
C  41.83900 40.49400 24.35600
C  41.98400 40.90300 22.83700
C  41.69100 42.43400 22.82100
C  41.61500 42.80600 24.36000
C  43.39200 40.57900 22.15300
C  40.36300 42.77500 22.03900
C  39.10200 42.05800 22.53800
N  41.05700 43.56000 27.08800
C  41.04000 44.49600 26.06300
C  40.82100 45.79800 26.60400
C  40.73300 45.62500 27.99200
C  40.96000 44.24600 28.24300
C  40.73800 47.00600 25.88900
C  40.71800 46.36300 29.23300
O  40.49800 47.52900 29.53100
C  40.73100 45.19900 30.38900
C  41.84000 45.48100 31.30600
O  43.06200 45.47600 31.04100
O  41.37000 45.80400 32.56100
C  42.32100 45.93000 33.67400
H  42.09800 38.40300 30.32500
H  42.20100 38.54000 24.05400
H  41.23600 44.83200 23.98200
H  41.59600 42.85000 32.13200
H  40.78000 39.95700 32.06100
H  43.21000 41.50200 32.75500
H  43.63100 40.15200 31.60800
H  42.72900 39.83000 33.09200
H  38.82500 41.37300 32.04400
H  38.95300 43.09100 31.86800
H  40.26000 42.29900 34.23900
H  38.94100 41.27600 34.24400
H  41.83500 35.37200 28.61100
H  42.52300 36.52100 29.90100
H  43.55700 35.96600 28.74200
H  44.12800 34.89600 26.51800
H  43.19800 34.06400 25.17300
H  42.34400 34.58700 26.62600
H  41.15200 40.36700 22.38200
H  42.48500 42.98000 22.31100
H  43.26300 40.31000 21.10400
H  44.04900 39.99400 22.79600
H  43.93800 41.49800 21.94300
H  40.46000 42.58800 20.97000
H  40.16500 43.82900 22.23100
H  39.36200 41.56300 23.47400
H  38.93100 41.37600 21.70500
H  38.30200 42.79700 22.50400
H  40.39300 47.82100 26.52400
H  40.00000 46.83600 25.10500
H  41.67100 47.40400 25.49100
H  39.90200 45.20600 31.09600
H  42.27300 46.99600 33.90000
H  43.35000 45.68600 33.41100
H  42.07300 45.31300 34.53700
Mg -8.96800 39.87900 42.39900
C  -7.71400 36.77000 41.12900
C  -6.15500 41.39900 41.07000
C  -10.35300 42.78200 42.83600
C  -11.80100 38.12000 43.37600
N  -7.30500 39.19200 40.96100
C  -6.99300 37.87500 40.70400
C  -5.57400 37.78300 40.10300
C  -5.00500 39.15500 40.46800
C  -6.22000 40.03100 40.87100
C  -3.91900 38.92200 41.62100
C  -5.65300 37.41600 38.57700
C  -4.79500 36.20600 38.02100
H  -3.69600 36.53700 37.00500
N  -8.35700 41.86300 41.99400
C  -7.15500 42.25300 41.42900
C  -7.09200 43.64600 41.37700
C  -8.30100 44.18200 41.89300
C  -9.05300 42.90900 42.32100
C  -5.91400 44.41500 40.66000
C  -8.63800 45.57300 42.03800
O  -7.87200 46.49200 41.60100
C  -9.95900 45.96100 42.61300
N  -10.84400 40.36100 42.81400
C  -11.15900 41.67200 43.15800
C  -12.61000 41.75400 43.71800
C  -13.06300 40.32800 43.71000
C  -11.80900 39.51200 43.32700
C  -12.88800 42.42500 45.13000
C  -14.10300 39.98900 42.60900
C  -15.28700 39.04600 42.97500
N  -9.60800 37.84300 42.50500
C  -10.78300 37.30600 42.87500
C  -10.77700 35.91000 42.75400
C  -9.57600 35.65700 42.07400
C  -8.89400 36.86500 41.94100
C  -11.82700 34.93600 43.17000
C  -8.73400 34.63800 41.47500
O  -8.94000 33.40100 41.49000
C  -7.44500 35.31700 40.83200
C  -6.29000 34.72300 41.56900
O  -6.01100 35.02100 42.74500
O  -5.45700 33.96300 40.73300
C  -4.14200 33.51500 41.42700
H  -5.16100 41.78400 40.83200
H  -10.83200 43.73400 43.07300
H  -12.74900 37.70700 43.72600
H  -4.92000 36.98900 40.46300
H  -4.55400 39.48100 39.53100
H  -4.18700 39.42300 42.55100
H  -3.03000 39.40000 41.20800
H  -3.54100 37.90600 41.73500
H  -5.28400 38.22500 37.94700
H  -6.67900 37.18900 38.28700
H  -5.40200 35.44800 37.52600
H  -4.26900 35.76900 38.87000
H  -5.36000 43.68700 40.06800
H  -5.41000 45.00600 41.42600
H  -6.44700 45.06100 39.96300
H  -10.02400 47.04700 42.68800
H  -10.03300 45.46900 43.58300
H  -10.78400 45.69900 41.95100
H  -13.10200 42.20400 42.85500
H  -13.43900 40.06800 44.70000
H  -13.69500 42.00000 45.72600
H  -13.27300 43.42900 44.95400
H  -11.96300 42.47000 45.70400
H  -13.71500 39.56700 41.68200
H  -14.58500 40.94300 42.39400
H  -16.28100 39.45600 42.79900
H  -15.40200 38.83200 44.03700
H  -15.25600 38.05900 42.51200
H  -11.91500 34.94200 44.25600
H  -11.57100 33.92700 42.84700
H  -12.81500 35.16800 42.77300
H  -7.44200 35.21300 39.74700
H  -4.42600 32.89600 42.27700
H  -3.54900 34.32700 41.84900
H  -3.44600 32.96100 40.79700

