158

Mg 47.30500 35.04700 26.04000
C  45.48500 33.76200 28.73200
C  47.81200 37.88500 27.82400
C  48.74200 36.34300 23.36600
C  46.22400 32.18500 24.16300
N  46.62800 35.68600 27.96100
C  46.08200 34.97100 28.97100
C  46.10200 35.71900 30.28700
C  46.51900 37.15500 29.78600
C  46.96600 36.92800 28.41200
C  45.29600 38.15700 29.82700
C  47.24700 35.12000 31.26200
C  47.01400 34.93000 32.76700
H  46.01300 35.93100 33.35000
N  48.40300 36.71100 25.76100
C  48.50000 37.82900 26.59300
C  49.38600 38.75600 26.04600
C  49.54600 38.42000 24.69800
C  48.84700 37.12300 24.50900
C  49.88200 39.97200 26.79300
C  50.20900 39.20400 23.50400
O  50.40000 38.68500 22.39600
C  50.77100 40.59400 23.63000
N  47.17600 34.47000 23.98800
C  48.03800 35.14500 23.14100
C  48.06000 34.45200 21.73600
C  47.52400 33.00800 22.04300
C  46.95100 33.21100 23.49900
C  47.23600 35.19900 20.65900
C  48.50600 31.80200 21.98100
C  48.16300 30.56000 21.07300
N  45.91600 33.39100 26.31600
C  45.62500 32.32700 25.46900
C  45.05900 31.32200 26.18800
C  44.75400 31.90200 27.46300
C  45.43300 33.11500 27.52100
C  44.68000 29.97200 25.72300
C  44.20300 31.63000 28.70200
O  43.57700 30.68300 29.08500
C  44.52800 32.88200 29.59900
C  45.11300 32.30500 30.87600
O  46.20500 31.78200 30.95900
O  44.13300 32.36100 31.83300
C  44.51900 31.54400 33.04500
H  47.92200 38.83300 28.35400
H  49.26400 36.69000 22.47300
H  45.84100 31.33200 23.59800
H  45.06000 35.71000 30.60500
H  47.19500 37.70800 30.43800
H  44.59100 37.88400 30.61200
H  44.69700 38.12500 28.91700
H  45.67000 39.17400 29.94200
H  48.07500 35.82400 31.34900
H  47.67000 34.19900 30.86200
H  47.91600 35.17700 33.32800
H  46.74200 33.95500 33.17000
H  50.93700 40.17300 26.61000
H  49.87900 39.88400 27.87900
H  49.25800 40.85000 26.62400
H  51.46000 40.62200 24.47400
H  50.01400 41.36900 23.74600
H  51.38000 40.76000 22.74100
H  49.11900 34.44200 21.47700
H  46.63000 32.77600 21.46400
H  46.74100 36.10200 21.01600
H  46.36600 34.68900 20.24700
H  47.89000 35.47600 19.83200
H  48.61200 31.43600 23.00200
H  49.47800 32.12800 21.61100
H  47.33300 30.79200 20.40500
H  47.74700 29.89500 21.82900
H  49.01000 30.16400 20.51200
H  44.32700 29.36300 26.55600
H  45.59500 29.54800 25.30800
H  43.81800 30.03200 25.06000
H  43.51100 33.25900 29.71100
H  45.55700 31.72500 33.32400
H  44.56300 30.47400 32.83800
H  43.86500 31.85000 33.86100
Mg 26.95000 50.55500 26.26100
C  25.04200 51.75900 28.95800
C  29.48400 49.68400 28.38200
C  28.61400 49.35900 23.70700
C  24.38900 51.82000 24.10600
N  27.19800 50.73400 28.43900
C  26.22700 51.09100 29.38300
C  26.74800 50.76900 30.79500
C  28.28800 50.32900 30.61600
C  28.32900 50.24600 29.01600
C  29.36600 51.22700 31.33700
C  25.91600 49.70600 31.63700
C  25.18500 50.26400 32.88200
H  25.94400 50.75800 34.11500
N  28.85800 49.67700 26.10300
C  29.76400 49.37700 27.06800
C  30.89800 48.70100 26.49100
C  30.61900 48.52600 25.12400
C  29.29900 49.18200 24.89600
C  32.04000 48.27900 27.41900
C  31.47300 47.86900 24.03000
O  31.17600 47.87400 22.83200
C  32.68200 47.22400 24.41300
N  26.67700 50.80200 24.08500
C  27.41400 50.01700 23.30200
C  26.81800 50.07700 21.82100
C  25.52400 50.92200 21.93700
C  25.47200 51.20300 23.48300
C  27.80700 50.43200 20.68700
C  24.20600 50.16800 21.43000
C  23.13600 50.99100 20.56500
N  25.12000 51.66500 26.38700
C  24.20900 52.09100 25.47400
C  23.16600 52.75800 26.10500
C  23.47200 52.71700 27.45000
C  24.67300 51.98400 27.60700
C  21.93200 53.22000 25.54400
C  22.94200 53.00200 28.70400
O  21.91700 53.50600 29.05500
C  23.91300 52.40100 29.81400
C  24.34700 53.47800 30.72700
O  25.34700 54.14000 30.54200
O  23.56300 53.50200 31.86800
C  24.13200 54.28200 33.04800
H  30.28100 49.30000 29.02200
H  28.98200 48.62000 22.99200
H  23.52200 52.18200 23.54900
H  26.74200 51.73900 31.29200
H  28.44700 49.30000 30.93800
H  29.48000 52.10700 30.70400
H  30.32200 50.70900 31.25100
H  29.16700 51.51000 32.37000
H  26.53200 48.86000 31.94200
H  25.21200 49.28300 30.92000
H  24.51000 49.46900 33.19900
H  24.62700 51.07000 32.40600
H  32.31000 49.00800 28.18300
H  32.98800 48.19300 26.88800
H  31.90300 47.27500 27.82100
H  32.43000 46.45100 25.13900
H  33.45600 47.88100 24.81000
H  33.12600 46.86500 23.48400
H  26.47500 49.04600 21.72300
H  25.74600 51.85000 21.41000
H  28.76700 50.59100 21.17800
H  27.55000 51.25300 20.01700
H  27.82700 49.55600 20.03900
H  23.74600 49.64900 22.27200
H  24.62100 49.29900 20.91900
H  22.94700 50.32200 19.72500
H  23.45400 52.00300 20.31700
H  22.20800 51.02900 21.13700
H  21.39000 52.48200 24.95300
H  22.23300 54.00200 24.84700
H  21.30200 53.64200 26.32700
H  23.26400 51.73600 30.38500
H  24.96700 53.70600 33.44700
H  23.41800 54.34800 33.86900
H  24.49700 55.27100 32.76900

