158

Mg 25.30700 1.67000 30.66000
C  27.58500 1.73200 33.40800
C  22.68800 2.09500 32.86400
C  23.18100 1.45700 28.11000
C  27.91300 0.79900 28.60800
N  25.17600 2.04600 32.84800
C  26.23500 1.94600 33.77100
C  25.71900 2.24800 35.17700
C  24.11900 2.23000 35.02500
C  23.96100 2.03700 33.51900
C  23.45900 1.15800 35.87500
C  26.44800 3.54700 35.68500
C  27.51100 3.49300 36.76600
H  27.37900 4.30800 38.07500
N  23.22300 1.86000 30.49300
C  22.35200 2.04900 31.52600
C  21.04300 2.19300 30.99800
C  21.16200 2.06800 29.57900
C  22.56700 1.80600 29.27200
C  19.81900 2.63100 31.74900
C  20.14600 2.03100 28.51600
O  20.41800 1.99000 27.34800
C  18.67700 1.99800 28.92100
N  25.45200 0.80100 28.74300
C  24.42400 0.98100 27.86200
C  24.87000 0.77000 26.35700
C  26.44500 0.63700 26.55900
C  26.63500 0.65000 28.09400
C  24.22700 -0.35700 25.50700
C  27.12900 1.59200 25.58900
C  27.46600 3.04900 26.03500
N  27.37600 1.35800 30.79800
C  28.34200 0.97500 29.93900
C  29.63800 0.99500 30.53500
C  29.39500 1.19300 31.92100
C  27.99000 1.44000 32.09100
C  30.91100 0.68000 29.86800
C  30.06900 1.36700 33.23500
O  31.23700 1.20800 33.65000
C  28.90600 1.62400 34.24900
C  28.82200 0.44000 35.17900
O  28.18800 -0.61400 35.06600
O  29.67600 0.67600 36.20600
C  29.71500 -0.38400 37.30700
H  21.92200 2.24600 33.62700
H  22.60400 1.62300 27.19700
H  28.74700 0.67100 27.91500
H  25.97300 1.47900 35.90600
H  23.73300 3.19900 35.34400
H  22.64600 1.67400 36.38700
H  24.12200 0.70400 36.61200
H  23.03400 0.42100 35.19300
H  25.63200 4.18700 36.02100
H  26.76700 4.04100 34.76800
H  28.46900 3.76300 36.32100
H  27.64000 2.48600 37.16300
H  19.12100 1.79400 31.75800
H  19.42700 3.48400 31.19500
H  20.01500 2.75400 32.81500
H  18.53000 1.24100 29.69100
H  18.08500 1.76600 28.03600
H  18.33100 2.87500 29.46700
H  24.69700 1.72500 25.86200
H  26.86300 -0.36200 26.43500
H  24.74900 -1.31400 25.52400
H  24.15600 0.16600 24.55300
H  23.26100 -0.59100 25.95400
H  26.39100 1.71200 24.79500
H  28.05000 1.18200 25.17500
H  27.23500 3.68500 25.18100
H  28.53500 3.02500 26.24500
H  26.86600 3.28300 26.91400
H  30.79800 1.04800 28.84900
H  31.06200 -0.39900 29.89400
H  31.69600 1.19900 30.41800
H  29.23500 2.48200 34.83500
H  29.31700 0.06700 38.21600
H  30.77100 -0.54800 37.52200
H  29.34800 -1.40800 37.24600
Mg 6.49900 55.01500 40.72300
C  5.15700 51.65600 40.15300
C  9.37100 54.02300 39.20300
C  7.15500 58.34200 40.24400
C  3.16800 55.81900 41.61200
N  7.12600 53.04100 39.85700
C  6.45400 51.85000 39.61500
C  7.33700 50.91300 38.74400
C  8.77000 51.48900 38.98200
C  8.46700 52.91500 39.41400
C  9.65200 50.71700 40.01600
C  6.91600 50.90300 37.25700
C  6.85500 49.48800 36.56200
H  7.60600 49.45000 35.25800
N  8.07200 56.02600 39.85800
C  9.21900 55.42800 39.43200
C  10.22000 56.47600 39.23900
C  9.58300 57.70500 39.46600
C  8.19600 57.39600 39.93400
C  11.67200 56.24300 38.90600
C  10.30600 58.94900 39.29400
O  11.41500 59.04400 38.77500
C  9.80700 60.22500 40.05600
N  5.25300 56.82200 40.72100
C  5.80700 58.09900 40.70800
C  4.81300 59.17500 41.19400
C  3.57100 58.30900 41.47200
C  4.05900 56.90400 41.37300
C  5.21300 60.17800 42.41600
C  2.35900 58.53000 40.59700
C  1.17800 59.16800 41.34100
N  4.67500 53.92200 41.17000
C  3.46200 54.45400 41.61000
C  2.60300 53.33800 41.89800
C  3.16100 52.20700 41.22500
C  4.42600 52.66200 40.81400
C  1.22700 53.38100 42.57200
C  2.99200 50.79100 40.92000
O  2.09300 50.01100 41.12700
C  4.35100 50.40400 40.30400
C  4.15100 49.60200 39.05200
O  4.02000 50.02200 37.93500
O  4.21700 48.26900 39.29800
C  3.87700 47.36000 38.11800
H  10.37900 53.67900 38.96000
H  7.43500 59.38500 40.08300
H  2.12700 56.09700 41.79300
H  7.34700 49.90900 39.16600
H  9.31900 51.50400 38.04000
H  9.42800 49.66000 39.87100
H  9.47600 50.98000 41.06000
H  10.69600 50.94300 39.80200
H  7.53400 51.59900 36.69100
H  5.95200 51.41200 37.26700
H  5.84200 49.08700 36.52200
H  7.35600 48.82800 37.27000
H  12.00200 56.85300 38.06500
H  11.99000 55.22000 38.70500
H  12.24200 56.58600 39.76900
H  10.63000 60.89500 40.30900
H  9.41200 59.72400 40.94000
H  9.07800 60.64900 39.36600
H  4.62800 59.78500 40.31000
H  3.24500 58.48300 42.49800
H  6.17800 59.89000 42.83100
H  4.53600 60.13900 43.27000
H  5.39200 61.19300 42.06200
H  1.92800 57.72900 39.99600
H  2.66400 59.24700 39.83500
H  1.37500 60.23600 41.43800
H  1.01700 58.93900 42.39500
H  0.29400 58.98100 40.73000
H  0.49400 53.34000 41.76600
H  1.12500 54.32000 43.11500
H  1.08600 52.53200 43.24200
H  4.88100 49.64600 40.88200
H  2.80100 47.22700 38.22600
H  4.40900 46.41800 38.24900
H  4.11400 47.61900 37.08600

