158

Mg 34.74900 2.78400 29.11300
C  33.04200 3.87700 32.04100
C  37.61300 2.34200 31.02500
C  36.50200 2.03200 26.25900
C  31.95500 3.40200 27.24500
N  35.32000 3.22300 31.30400
C  34.40300 3.49500 32.36000
C  35.00700 3.42500 33.70000
C  36.49200 3.04500 33.36100
C  36.49100 2.84000 31.79100
C  37.57900 4.05100 33.77500
C  34.23600 2.48000 34.64600
C  34.30400 2.86600 36.13700
H  35.43800 3.67400 36.79700
N  36.71900 2.13400 28.72800
C  37.76100 2.06200 29.62600
C  39.02300 1.67000 28.95500
C  38.69600 1.47400 27.51400
C  37.23400 1.91000 27.47700
C  40.25700 1.43100 29.66000
C  39.56500 1.01300 26.30200
O  39.13000 0.84500 25.14200
C  41.04800 0.66300 26.51000
N  34.34300 2.86200 27.03400
C  35.17700 2.40100 26.00000
C  34.41100 2.26200 24.68700
C  32.92100 2.49400 25.14200
C  33.11400 2.93900 26.56600
C  34.92300 3.29500 23.58000
C  31.92100 1.37400 24.85800
C  30.94900 1.48700 23.65200
N  32.94500 3.60200 29.46700
C  31.87200 3.69800 28.64400
C  30.68200 4.08400 29.34500
C  31.11100 4.25800 30.70800
C  32.51200 3.93100 30.73300
C  29.36900 4.24600 28.71500
C  30.67800 4.59200 32.06800
O  29.63200 4.85600 32.53500
C  31.92100 4.36300 32.93400
C  32.24500 5.63700 33.66400
O  32.87100 6.56400 33.22400
O  31.59200 5.50000 34.91800
C  31.79500 6.59600 35.84200
H  38.54200 2.24300 31.59100
H  37.06900 1.65400 25.40600
H  31.01700 3.45700 26.68900
H  34.77900 4.44600 34.00800
H  36.75000 2.08500 33.80800
H  38.32900 3.48700 34.32900
H  37.21900 4.87900 34.38600
H  38.04000 4.60400 32.95700
H  34.82500 1.56600 34.57900
H  33.21100 2.34000 34.30300
H  34.14100 1.88400 36.58100
H  33.40400 3.43500 36.36800
H  41.13800 1.44900 29.01800
H  40.30100 0.51400 30.24800
H  40.36800 2.24000 30.38200
H  41.51100 1.58900 26.85100
H  41.53100 0.23400 25.63200
H  41.03300 -0.07100 27.31600
H  34.60500 1.27600 24.26400
H  32.55000 3.41100 24.68400
H  35.54900 2.72200 22.89600
H  35.71000 3.91900 24.00200
H  34.04100 3.78000 23.16100
H  31.31000 1.15900 25.73500
H  32.51800 0.50900 24.56900
H  31.01100 0.52600 23.14200
H  31.37500 2.24600 22.99600
H  29.89600 1.76200 23.70700
H  29.53000 4.47600 27.66200
H  28.88500 5.15500 29.07200
H  28.70100 3.38900 28.80300
H  31.68400 3.49900 33.55500
H  32.50300 6.34800 36.63300
H  30.83300 6.82900 36.29700
H  31.97700 7.55000 35.34700
Mg 48.46200 45.38000 42.63900
C  44.86000 45.27000 42.12300
C  48.41400 41.99300 42.26400
C  51.79700 45.52500 42.60400
C  48.18700 48.94000 42.51400
N  46.85400 43.83800 42.10200
C  45.47100 44.02800 42.03600
C  44.71300 42.70900 41.82600
C  45.85700 41.63600 41.94000
C  47.13700 42.49300 42.22200
C  45.57400 40.48600 43.03100
C  43.96400 42.70600 40.50300
C  44.69800 43.29000 39.30300
H  44.95100 42.35900 38.06400
N  50.00100 43.95500 42.44600
C  49.79100 42.55500 42.33300
C  51.11600 41.92500 42.30900
C  52.08500 42.90600 42.41300
C  51.31600 44.21000 42.53100
C  51.24900 40.43700 42.14300
C  53.63700 42.80700 42.37400
O  54.16300 41.73600 42.18800
C  54.56700 43.96600 42.75300
N  49.77300 46.93000 42.74300
C  51.09100 46.71200 42.71700
C  51.79800 48.11000 42.70500
C  50.64300 49.10000 42.83600
C  49.47100 48.28300 42.56100
C  52.97000 48.30600 43.68300
C  50.88700 50.43300 42.09000
C  50.76200 51.84900 42.74100
N  46.82200 46.85000 42.62200
C  46.92600 48.27200 42.53700
C  45.48100 48.78800 42.57100
C  44.66500 47.65400 42.37300
C  45.50800 46.52800 42.35900
C  45.02800 50.23200 42.37900
C  43.26000 47.17600 42.23700
O  42.16200 47.74800 42.26500
C  43.38000 45.64800 42.04400
C  42.53200 44.97000 43.03800
O  41.52900 44.34900 42.83700
O  43.02600 45.12900 44.33800
C  42.39100 44.27100 45.37100
H  48.34700 40.94800 42.57400
H  52.82700 45.76700 42.33200
H  48.16400 50.03100 42.53000
H  43.88500 42.69500 42.53400
H  45.95800 41.05900 41.02100
H  45.71700 39.46000 42.69200
H  44.52000 40.50100 43.30800
H  46.19900 40.65000 43.90800
H  43.03200 43.18500 40.80100
H  43.77500 41.66700 40.23000
H  45.68600 43.65900 39.57700
H  44.14900 44.12500 38.86800
H  50.38500 40.20000 41.52200
H  51.25500 40.11100 43.18300
H  52.11900 40.09800 41.58100
H  54.06300 44.43700 43.59700
H  54.50200 44.57300 41.85000
H  55.51900 43.51600 43.03600
H  52.23600 48.23200 41.71400
H  50.58100 49.39400 43.88400
H  52.81000 48.99000 44.51700
H  53.81600 48.58700 43.05500
H  53.29400 47.37100 44.14200
H  50.16100 50.40900 41.27700
H  51.91600 50.39100 41.73300
H  51.72100 52.35200 42.61300
H  50.61400 51.77100 43.81800
H  49.99500 52.51400 42.34400
H  43.96100 50.40700 42.24600
H  45.55500 50.71100 41.55300
H  45.44800 50.78200 43.22100
H  43.10600 45.52200 40.99600
H  41.30400 44.32900 45.30400
H  42.81000 44.49000 46.35300
H  42.68900 43.26400 45.07800

