158

Mg 15.72200 -2.42400 28.43700
C  15.01200 -0.50000 31.40000
C  18.28400 -3.97900 30.38900
C  16.94500 -3.67000 25.64100
C  13.75100 -0.14200 26.62700
N  16.59300 -2.26400 30.71000
C  16.02800 -1.49400 31.61200
C  16.63600 -1.81700 33.05000
C  17.84200 -2.67600 32.64500
C  17.57400 -3.01400 31.16600
C  19.29900 -2.14200 32.87100
C  15.59700 -2.49200 34.06600
C  15.77800 -2.11400 35.54300
H  17.09300 -1.40100 35.97700
N  17.20000 -3.83500 28.12300
C  18.16200 -4.34200 29.04400
C  18.89800 -5.39100 28.36900
C  18.55400 -5.25200 26.89900
C  17.53500 -4.16700 26.81700
C  19.90300 -6.25400 28.98000
C  19.25600 -5.87900 25.62600
O  18.88600 -5.73400 24.46900
C  20.44200 -6.77600 25.80500
N  15.45100 -1.91700 26.50100
C  16.04400 -2.59700 25.49400
C  15.63300 -1.98500 24.11000
C  14.48400 -1.02600 24.42800
C  14.53800 -1.00300 25.95100
C  16.88200 -1.28600 23.36600
C  13.13200 -1.24400 23.69300
C  11.98300 -1.88900 24.46400
N  14.52900 -0.73300 28.91900
C  13.72900 0.05500 28.06200
C  12.99100 0.98900 28.86500
C  13.50900 0.82300 30.13200
C  14.44600 -0.21000 30.15100
C  12.15900 2.12000 28.48200
C  13.43900 1.37700 31.44600
O  12.83100 2.34000 31.87900
C  14.43900 0.48600 32.36100
C  15.38900 1.47100 33.08200
O  16.18300 2.28800 32.57500
O  15.03800 1.45600 34.41100
C  15.69100 2.44300 35.23900
H  19.13000 -4.43500 30.90800
H  17.16200 -4.14600 24.68200
H  13.03200 0.45700 26.06400
H  17.02500 -0.85200 33.37400
H  17.85300 -3.63400 33.16400
H  19.80000 -2.69000 33.67000
H  19.31900 -1.09500 33.17300
H  19.94300 -2.27000 32.00100
H  15.76300 -3.56900 34.03900
H  14.55200 -2.32700 33.80200
H  15.74300 -3.05300 36.09500
H  14.85500 -1.61200 35.83400
H  19.78600 -7.20300 28.45800
H  19.75700 -6.39600 30.05100
H  20.84000 -5.72800 28.79400
H  20.14800 -7.64400 26.39500
H  21.21100 -6.23600 26.35800
H  20.77200 -6.92300 24.77700
H  15.35600 -2.83200 23.48200
H  14.53200 0.05500 24.29300
H  16.59600 -0.61000 22.56000
H  17.48200 -2.03500 22.85000
H  17.58300 -0.72900 23.98800
H  13.25500 -1.74400 22.73200
H  12.63700 -0.32100 23.39100
H  12.38100 -2.45900 25.30400
H  11.36300 -2.62500 23.95200
H  11.40000 -1.06800 24.87900
H  11.36700 2.11800 29.23100
H  11.72000 1.98500 27.49300
H  12.66800 3.08300 28.52600
H  13.77300 -0.01000 33.06700
H  15.39500 2.26000 36.27200
H  15.23900 3.39700 34.97000
H  16.76100 2.50900 35.04200
Mg 9.56600 48.47200 25.95700
C  7.68000 48.40000 28.85100
C  12.14000 49.54300 27.88600
C  11.39300 48.49700 23.14700
C  6.59700 48.01100 24.06700
N  9.88800 48.87700 28.11900
C  8.98900 48.78200 29.10100
C  9.58200 49.33900 30.36100
C  10.91700 49.90100 29.98200
C  10.97700 49.52300 28.52800
C  11.00400 51.44700 30.13800
C  9.74600 48.25700 31.49100
C  9.05800 48.66200 32.82700
H  8.96500 47.54000 33.81800
N  11.53900 48.94200 25.56300
C  12.47100 49.24400 26.51000
C  13.82800 49.35200 25.87800
C  13.56100 48.99900 24.50500
C  12.13300 48.85300 24.35000
C  15.10200 49.61200 26.58400
C  14.54700 48.91800 23.33400
O  14.26200 48.82100 22.17000
C  15.97200 48.94500 23.66500
N  9.13500 48.21700 23.91400
C  10.05100 48.26600 22.95200
C  9.51400 47.75900 21.61000
C  7.98800 47.43200 21.99800
C  7.83500 47.93800 23.40700
C  9.73200 48.73100 20.38900
C  7.73100 45.89400 21.96600
C  8.29600 45.07100 23.11900
N  7.53900 48.22200 26.29100
C  6.46200 48.07000 25.44900
C  5.26100 47.80900 26.24700
C  5.70500 48.01100 27.54600
C  7.07600 48.19500 27.57300
C  3.94400 47.42500 25.69000
C  5.22100 48.02100 28.89200
O  4.06900 47.87400 29.25300
C  6.46400 48.18400 29.83200
C  6.64100 46.89300 30.69500
O  7.25000 45.91100 30.33300
O  6.04900 47.12300 31.83900
C  6.02700 45.99500 32.76500
H  13.05100 49.83800 28.41100
H  12.02000 48.50500 22.25400
H  5.70900 47.93600 23.43700
H  8.93300 50.11400 30.76900
H  11.75100 49.40800 30.48200
H  11.04900 51.87900 29.13900
H  11.96000 51.64100 30.62500
H  10.12400 51.78500 30.68500
H  10.78000 48.14600 31.81700
H  9.37300 47.29100 31.15100
H  8.07600 49.03400 32.53500
H  9.69800 49.39300 33.32100
H  15.41200 50.65500 26.51400
H  15.97600 48.98200 26.41700
H  14.79800 49.38700 27.60600
H  16.20500 48.12500 24.34500
H  16.14100 49.86400 24.22600
H  16.55000 48.87800 22.74300
H  10.07800 46.86100 21.36100
H  7.33600 47.86100 21.23600
H  10.34600 49.59200 20.65300
H  8.76000 49.16900 20.15900
H  10.21700 48.15800 19.59900
H  8.20600 45.45000 21.09100
H  6.65000 45.90400 21.83000
H  9.11900 45.49300 23.69600
H  8.56100 44.07400 22.76600
H  7.44300 44.83900 23.75800
H  4.02200 46.45800 25.19100
H  3.55000 48.22900 25.06900
H  3.24100 47.24000 26.50200
H  6.37800 49.05300 30.48400
H  6.01500 46.62300 33.65600
H  6.92900 45.39000 32.68400
H  5.11400 45.40400 32.83500

