158

Mg -2.36100 16.33900 26.86400
C  -2.96600 14.15800 29.45900
C  -2.35100 18.89500 29.07300
C  -2.05000 18.40400 24.21000
C  -2.76200 13.60700 24.58700
N  -2.57900 16.43800 29.04100
C  -2.69700 15.39200 29.91700
C  -2.62700 15.94800 31.37400
C  -2.83600 17.51600 31.18100
C  -2.59800 17.67800 29.66200
C  -4.15500 18.07600 31.61200
C  -1.35700 15.53000 32.11000
C  -0.88400 16.22400 33.39100
H  -0.50300 15.43100 34.58400
N  -2.20200 18.47800 26.70800
C  -2.24200 19.30300 27.73800
C  -1.96500 20.69200 27.22700
C  -1.70900 20.59400 25.86100
C  -1.99000 19.10200 25.52400
C  -1.99700 21.93100 28.10600
C  -1.31700 21.54500 24.79400
O  -1.23500 21.22200 23.62400
C  -0.85300 22.88800 25.18100
N  -2.52700 16.04800 24.71000
C  -2.21800 17.07200 23.81300
C  -2.25400 16.62900 22.38000
C  -2.29200 15.09400 22.56300
C  -2.55600 14.89000 24.03200
C  -3.43500 17.08600 21.49700
C  -1.16600 14.32000 21.87400
C  0.32300 14.43800 22.39400
N  -2.79100 14.31900 26.98600
C  -2.84500 13.36200 25.99500
C  -2.98000 12.06100 26.57000
C  -3.07500 12.30800 27.95000
C  -2.92800 13.73300 28.13100
C  -3.18000 10.77000 25.87800
C  -3.21800 11.63700 29.22300
O  -3.27300 10.44000 29.49300
C  -3.16700 12.90300 30.31000
C  -2.09500 12.42300 31.21800
O  -0.92700 12.72900 31.12300
O  -2.69800 11.66400 32.16800
C  -1.82400 11.24100 33.27100
H  -2.45300 19.69400 29.81100
H  -1.96500 19.04300 23.32900
H  -2.64300 12.78100 23.88200
H  -3.42600 15.54200 31.99400
H  -2.02100 18.17000 31.49300
H  -4.91000 17.29900 31.49100
H  -4.36000 19.03200 31.13000
H  -4.09200 18.32000 32.67200
H  -0.54800 15.40100 31.39100
H  -1.60100 14.52700 32.46100
H  -1.71800 16.77900 33.82100
H  -0.16600 16.96700 33.04300
H  -0.93900 22.18900 28.15900
H  -2.49300 21.70600 29.05000
H  -2.56700 22.65600 27.52500
H  -1.48600 23.53200 25.79100
H  -0.56700 23.52500 24.34500
H  0.04600 22.64900 25.74900
H  -1.38400 17.10400 21.92800
H  -3.14400 14.64800 22.05000
H  -4.27700 16.39400 21.47200
H  -3.22600 17.64200 20.58300
H  -3.83500 17.90600 22.09400
H  -1.03100 14.60000 20.82900
H  -1.48100 13.27900 21.94200
H  0.47600 15.41400 22.85400
H  0.81100 14.46800 21.42000
H  0.74700 13.64900 23.01500
H  -3.15400 10.92900 24.80000
H  -4.12300 10.49600 26.35100
H  -2.55000 10.03800 26.38400
H  -4.07000 12.97800 30.91600
H  -1.42100 10.25600 33.03500
H  -2.49700 11.15100 34.12400
H  -1.05700 11.98100 33.50000
Mg 43.05300 42.24400 26.24800
C  41.81700 44.60000 28.62200
C  43.52300 40.06600 28.66700
C  44.34200 40.31200 23.87400
C  42.50300 44.77200 23.75600
N  42.69700 42.39200 28.33200
C  42.19900 43.41900 29.18500
C  42.25700 43.02400 30.65700
C  42.91700 41.55400 30.68700
C  43.08900 41.31500 29.15700
C  44.19500 41.34000 31.49900
C  40.83700 43.05800 31.30500
C  40.63100 44.00200 32.47700
H  41.44600 43.87800 33.77700
N  43.75700 40.43700 26.29100
C  43.85700 39.62700 27.36600
C  44.40900 38.33600 27.01800
C  44.64300 38.42300 25.60400
C  44.26500 39.82200 25.18600
C  44.52300 37.19900 27.98200
C  45.14600 37.39000 24.62400
O  45.48900 37.62900 23.51200
C  45.52100 36.04000 25.25800
N  43.60700 42.56700 24.13400
C  44.00700 41.54200 23.42800
C  44.01000 41.92100 21.87300
C  43.42400 43.29400 21.80400
C  43.14800 43.64400 23.30800
C  45.35000 41.82900 21.13600
C  42.14100 43.32400 20.89100
C  40.93000 42.51000 21.38500
N  42.34000 44.24400 26.15000
C  42.19400 45.09700 25.03800
C  41.64100 46.39800 25.56100
C  41.47800 46.17700 26.92900
C  41.95000 44.90100 27.26900
C  41.43200 47.69000 24.76700
C  40.95800 46.82200 28.14200
O  40.33600 47.85900 28.33400
C  41.11300 45.73500 29.29600
C  41.90900 46.39600 30.35300
O  43.09900 46.28800 30.48200
O  41.01500 47.16200 31.04900
C  41.62400 47.72900 32.27900
H  43.70700 39.38800 29.50400
H  44.50800 39.66100 23.01400
H  42.31200 45.50600 22.97000
H  42.99400 43.71600 31.06300
H  42.22000 40.80000 31.05200
H  44.95800 40.81600 30.92300
H  43.93500 40.68800 32.33300
H  44.71200 42.25400 31.79000
H  40.54300 42.05400 31.60800
H  40.11100 43.34200 30.54300
H  39.56900 43.92100 32.70500
H  40.50900 45.01100 32.08300
H  44.22500 37.50700 28.98400
H  45.51000 36.73900 28.04000
H  43.79400 36.43600 27.71100
H  44.58200 35.64100 25.64200
H  46.26000 36.16400 26.05100
H  45.93000 35.36100 24.51100
H  43.26800 41.18900 21.55200
H  44.12700 44.05100 21.45500
H  45.58200 40.79900 20.86500
H  46.20200 42.24600 21.67300
H  45.27700 42.28800 20.15000
H  42.40700 43.09800 19.85800
H  41.85800 44.37500 20.83000
H  41.20800 42.11200 22.36100
H  40.69300 41.69700 20.69800
H  40.12800 43.22700 21.55600
H  41.99800 47.80600 23.84300
H  41.46700 48.51900 25.47300
H  40.37200 47.77400 24.52600
H  40.11500 45.52900 29.68300
H  42.60300 48.18800 32.13700
H  41.90600 46.93700 32.97300
H  40.92600 48.41800 32.75300

