158

Mg 44.15900 3.91400 45.90000
C  42.37400 6.97600 45.78800
C  41.25900 2.37100 45.00700
C  46.05400 1.17700 45.36300
C  47.19600 5.70600 45.77200
N  41.97500 4.59200 45.45800
C  41.48400 5.87600 45.57300
C  39.95400 5.88000 45.26200
C  39.57900 4.34300 45.07500
C  40.98500 3.70800 45.22200
C  38.56800 3.85700 46.13200
C  39.50700 6.75100 43.94800
C  40.62900 6.98900 42.87300
H  40.14200 7.24900 41.40800
N  43.74300 2.00600 45.37900
C  42.48400 1.61900 45.02900
C  42.56800 0.14000 44.72900
C  43.91300 -0.16200 44.61200
C  44.65200 1.01500 45.15100
C  41.28000 -0.70000 44.25700
C  44.55900 -1.51600 44.03100
O  43.86700 -2.39900 43.53200
C  46.05600 -1.71400 43.90600
N  46.29800 3.48000 45.74000
C  46.80600 2.23000 45.70700
C  48.35800 2.12400 45.81900
C  48.67900 3.67600 45.99500
C  47.26800 4.30100 45.82200
C  48.90300 1.33000 47.02100
C  49.66700 4.35400 44.93600
C  50.82400 3.56100 44.39700
N  44.71100 5.89300 45.78800
C  45.94000 6.45400 45.71700
C  45.76100 7.93500 45.84600
C  44.42300 8.14600 45.83800
C  43.82100 6.90500 45.77300
C  46.90300 8.87300 45.82700
C  43.37700 9.20900 45.86600
O  43.48900 10.46000 45.88300
C  42.06300 8.41000 46.00500
C  41.47900 8.58700 47.37100
O  41.49100 7.76200 48.28500
O  40.97200 9.86200 47.44600
C  40.71700 10.24300 48.83600
H  40.40100 1.73800 44.77000
H  46.72400 0.31800 45.44200
H  48.11000 6.29200 45.89000
H  39.56200 6.36700 46.15500
H  39.20700 4.16800 44.06500
H  39.03800 3.21200 46.87400
H  37.80900 3.32600 45.55700
H  38.15100 4.67600 46.71800
H  39.24200 7.67300 44.46600
H  38.55200 6.35500 43.60500
H  41.20300 6.06400 42.93000
H  41.17800 7.90300 43.10100
H  41.12900 -0.38800 43.22400
H  40.50500 -0.25100 44.87900
H  41.29700 -1.78700 44.34400
H  46.26900 -2.66600 43.42000
H  46.33200 -1.60100 44.95400
H  46.54600 -0.92100 43.34000
H  48.80700 1.83700 44.86700
H  49.00300 3.94700 46.99900
H  48.10700 0.99500 47.68500
H  49.61100 1.84800 47.66900
H  49.46400 0.46400 46.67000
H  50.01600 5.26900 45.41500
H  48.99400 4.60900 44.11700
H  51.69600 4.21300 44.34400
H  50.58300 3.34200 43.35700
H  51.04400 2.58000 44.81800
H  47.12100 9.06300 46.87800
H  46.64000 9.82600 45.36900
H  47.80200 8.48400 45.34800
H  41.33300 8.83400 45.31400
H  39.80000 9.80800 49.23300
H  40.61700 11.32700 48.78100
H  41.53100 10.00000 49.51900
Mg 36.12500 49.27600 25.67000
C  36.56800 47.30100 28.62600
C  34.58300 51.64700 27.51600
C  35.13200 50.70300 22.84700
C  37.40400 46.56900 23.90700
N  35.44900 49.39700 27.91500
C  35.88800 48.56200 28.95200
C  35.50700 49.22300 30.29600
C  34.71300 50.54500 29.92300
C  35.01300 50.60500 28.36300
C  33.13900 50.54300 30.25800
C  36.82200 49.50800 31.03500
C  36.90600 49.24900 32.54500
H  35.69500 48.87300 33.41800
N  35.17800 51.00900 25.25400
C  34.63000 51.86600 26.12700
C  34.10600 53.01100 25.43500
C  34.12400 52.74800 24.04300
C  34.83700 51.41900 24.00600
C  33.72600 54.19700 26.31000
C  33.36700 53.54400 22.97400
O  33.32600 53.17400 21.80200
C  32.54800 54.72500 23.30600
N  36.33400 48.75700 23.60800
C  35.79200 49.47700 22.64400
C  36.36600 49.00300 21.19900
C  36.99800 47.59000 21.60400
C  36.98000 47.64700 23.16500
C  35.33100 49.01600 20.00700
C  38.43400 47.36000 20.96600
C  39.50800 48.40600 21.40300
N  36.80000 47.37800 26.10000
C  37.32000 46.40600 25.29100
C  37.73300 45.16200 26.00300
C  37.45100 45.56500 27.26500
C  36.91000 46.84900 27.33100
C  38.35300 43.93000 25.51000
C  37.57400 45.06200 28.69300
O  38.01300 44.05900 29.23700
C  37.04500 46.18000 29.56100
C  35.90300 45.68000 30.32800
O  34.75300 45.53200 29.87700
O  36.36800 45.26900 31.54700
C  35.41600 44.77400 32.51700
H  34.17400 52.49200 28.07400
H  34.99200 51.16600 21.86700
H  37.85700 45.80800 23.26800
H  34.97900 48.44300 30.84500
H  35.20000 51.31000 30.52700
H  32.86900 51.39600 30.88100
H  32.91800 49.63800 30.82400
H  32.55400 50.54300 29.33800
H  37.11000 50.55100 30.89900
H  37.59000 48.83200 30.66100
H  37.47900 50.03600 33.03800
H  37.64400 48.44700 32.55800
H  32.75400 54.12100 26.79700
H  33.81200 55.11400 25.72700
H  34.49100 54.26200 27.08400
H  33.25400 55.54700 23.42900
H  31.86900 54.56700 24.14400
H  31.94900 54.97200 22.43000
H  36.98800 49.87000 20.97500
H  36.28200 46.81100 21.34200
H  34.36000 49.21500 20.46100
H  35.26400 48.00900 19.59500
H  35.59600 49.77300 19.26900
H  38.20800 47.42500 19.90200
H  38.86500 46.40400 21.26400
H  40.08600 48.63000 20.50600
H  40.16100 47.90500 22.11800
H  39.09000 49.23200 21.97800
H  37.63600 43.11000 25.47200
H  39.26700 43.75400 26.07700
H  38.71900 44.13700 24.50400
H  37.86800 46.47600 30.21200
H  35.49200 43.69800 32.67700
H  34.39500 45.04800 32.25100
H  35.62600 45.22900 33.48500

