158

Mg 40.98700 41.04300 27.02700
C  40.67000 43.50400 29.61400
C  41.67200 38.71600 29.37300
C  41.71900 38.98400 24.57400
C  40.57000 43.69100 24.80000
N  41.22900 41.13000 29.26700
C  41.00900 42.23900 30.14200
C  41.12500 41.74700 31.64400
C  41.41000 40.18000 31.46800
C  41.46400 39.98600 29.95900
C  42.69500 39.67000 32.29100
C  39.86500 42.27100 32.53300
C  39.56100 41.52400 33.89300
H  39.08500 42.36100 35.09100
N  41.44900 39.00700 26.93000
C  41.67800 38.22300 28.02400
C  42.01100 36.83500 27.54400
C  42.11200 36.98500 26.10900
C  41.73700 38.34700 25.82200
C  42.05300 35.57500 28.38500
C  42.45600 35.96800 25.02800
O  42.52700 36.11200 23.85600
C  42.88500 34.56900 25.44400
N  41.04200 41.29200 24.96900
C  41.32600 40.26800 24.14200
C  41.23600 40.69900 22.67300
C  40.70500 42.10900 22.76200
C  40.73600 42.42100 24.27200
C  42.58100 40.53500 21.84600
C  39.28900 42.16900 22.19000
C  38.12300 41.33100 22.76400
N  40.80800 43.17400 27.09900
C  40.61800 44.08800 26.10700
C  40.26500 45.34300 26.69000
C  40.32800 45.16400 28.02900
C  40.61000 43.82500 28.25000
C  39.96000 46.66800 26.06600
C  40.09400 45.82400 29.28700
O  39.80900 47.02700 29.57800
C  40.32900 44.75100 30.37400
C  41.46400 45.14700 31.25800
O  42.63100 44.83900 31.09900
O  41.02300 45.83400 32.34000
C  41.96500 46.44000 33.32100
H  41.79000 37.99500 30.18400
H  41.98000 38.28100 23.78100
H  40.22300 44.43600 24.08200
H  42.03500 42.15300 32.08500
H  40.51400 39.72500 31.89200
H  43.26900 40.43300 32.81700
H  43.45000 39.12900 31.72100
H  42.39400 38.95000 33.05200
H  39.03600 42.19000 31.83000
H  40.16900 43.28500 32.79000
H  40.44800 40.94900 34.15900
H  38.81200 40.75500 33.70500
H  41.42900 35.78300 29.25400
H  43.11200 35.35400 28.51600
H  41.62400 34.66800 27.95900
H  42.07000 33.98200 25.86600
H  43.75200 34.65400 26.10000
H  43.24800 33.88000 24.68200
H  40.52800 40.01400 22.20500
H  41.39400 42.84300 22.34200
H  43.32700 39.95600 22.39100
H  43.06800 41.50600 21.76800
H  42.34500 40.15300 20.85300
H  39.33200 41.79800 21.16600
H  38.95900 43.19800 22.04800
H  37.41200 40.96000 22.02600
H  37.55500 42.04000 23.36600
H  38.43800 40.59500 23.50400
H  39.31600 47.24600 26.72800
H  39.52400 46.52400 25.07700
H  40.86500 47.27400 26.08600
H  39.41900 44.51800 30.92600
H  42.24300 45.64300 34.01100
H  41.48400 47.32500 33.73700
H  42.82500 46.89300 32.82800
Mg 30.93200 59.94700 40.57500
C  27.92700 58.46300 39.22200
C  32.65500 57.29700 39.06700
C  33.73500 61.51600 41.08800
C  29.01600 62.80200 41.37400
N  30.32500 58.12300 39.22900
C  29.08600 57.65300 38.91600
C  29.12200 56.38800 38.00800
C  30.64900 56.02100 38.15600
C  31.30600 57.21600 38.90700
C  31.06500 54.66000 38.79500
C  28.61200 56.70600 36.55200
C  27.62000 55.73800 35.91200
H  26.62200 56.28900 34.85000
N  32.87200 59.45800 40.31600
C  33.40100 58.32400 39.74100
C  34.83300 58.30100 39.82600
C  35.26000 59.49200 40.45800
C  33.91500 60.18100 40.65300
C  35.61800 57.25000 39.07500
C  36.76500 59.99900 40.81400
O  37.78100 59.37500 40.52800
C  36.98800 61.24300 41.64700
N  31.24500 61.86900 41.19400
C  32.59800 62.26800 41.29400
C  32.58500 63.80700 41.55600
C  31.10700 64.12500 41.90400
C  30.40100 62.87900 41.41800
C  33.71800 64.22000 42.60300
C  30.59200 65.49300 41.24200
C  29.73200 66.35900 42.16900
N  28.84900 60.57300 40.28600
C  28.23300 61.72600 40.77100
C  26.73500 61.60300 40.55800
C  26.65200 60.36200 39.88500
C  27.91200 59.74600 39.80300
C  25.71900 62.66400 40.74900
C  25.70400 59.46500 39.15700
O  24.55500 59.70000 38.77900
C  26.51500 58.18900 38.85400
C  25.92800 57.06500 39.57200
O  26.28900 56.64900 40.64200
O  24.92100 56.51400 38.82100
C  24.34500 55.23300 39.23200
H  33.27500 56.54800 38.56900
H  34.62600 62.14200 41.01100
H  28.52200 63.75500 41.57400
H  28.60200 55.58200 38.52500
H  31.05800 56.01600 37.14600
H  31.58700 54.08400 38.03100
H  30.26600 53.98800 39.11000
H  31.74800 54.70700 39.64400
H  29.45100 56.65700 35.85700
H  28.27100 57.73700 36.46200
H  27.06500 55.18700 36.67100
H  28.26100 54.97300 35.47300
H  35.53200 57.38500 37.99700
H  35.17500 56.28400 39.31700
H  36.66600 57.12700 39.35000
H  37.79900 61.18100 42.37200
H  36.10200 61.38700 42.26500
H  37.03900 62.11700 40.99800
H  32.89700 64.11900 40.55900
H  31.03100 64.23600 42.98500
H  34.12100 63.34400 43.11100
H  33.27400 64.84500 43.37900
H  34.54400 64.78900 42.17800
H  30.13900 65.25900 40.27800
H  31.44400 66.15400 41.08600
H  30.18700 67.32700 42.37600
H  29.44200 66.01600 43.16200
H  28.81600 66.62000 41.63800
H  25.94800 63.28700 41.61400
H  24.75500 62.19300 40.94400
H  25.79200 63.26400 39.84200
H  26.37100 58.01000 37.78900
H  23.32000 55.28400 39.60100
H  24.91100 54.67800 39.97900
H  24.36100 54.60300 38.34300

