158

Mg 40.43800 9.91200 29.69800
C  42.35300 11.12900 32.26400
C  38.26300 8.52800 31.91200
C  38.73200 8.62200 27.06500
C  42.91200 11.00200 27.39500
N  40.51600 9.69300 31.88900
C  41.28900 10.40600 32.74600
C  40.73800 10.30800 34.19300
C  39.45000 9.32300 34.07200
C  39.33400 9.12600 32.50100
C  39.59200 7.93900 34.86600
C  40.48200 11.67800 34.96500
C  39.72300 11.53700 36.28900
H  40.39200 12.32800 37.49200
N  38.80500 8.62600 29.50800
C  38.04800 8.21700 30.55400
C  36.96800 7.43300 30.14500
C  36.96100 7.44600 28.69000
C  38.20400 8.24300 28.33700
C  36.07200 6.74000 31.14200
C  35.97100 6.88700 27.68700
O  36.16700 7.01000 26.45000
C  34.71300 6.27300 28.16800
N  40.70200 9.94500 27.48700
C  39.82700 9.36800 26.64500
C  40.21100 9.46100 25.19500
C  41.67400 10.16900 25.28500
C  41.80500 10.31400 26.79100
C  40.12600 8.08500 24.43100
C  41.92300 11.38100 24.24600
C  41.20800 12.63300 24.76500
N  42.25200 10.86200 29.78800
C  43.10100 11.32200 28.78700
C  44.25100 11.89300 29.41200
C  43.95000 11.95500 30.77100
C  42.74900 11.24600 30.92900
C  45.35700 12.29100 28.52000
C  44.37200 12.49100 32.05900
O  45.36900 13.09900 32.37300
C  43.29700 12.02900 33.08700
C  44.02900 11.44800 34.25600
O  44.34600 10.30200 34.35300
O  44.27800 12.38500 35.18300
C  45.00800 11.88000 36.38600
H  37.48600 8.25600 32.63000
H  38.23100 8.17500 26.20400
H  43.71700 11.25000 26.70000
H  41.48900 9.75700 34.75900
H  38.51700 9.84600 34.28300
H  40.40400 7.83800 35.58600
H  39.82800 7.16700 34.13300
H  38.60700 7.71500 35.27600
H  39.97300 12.31600 34.24200
H  41.42700 12.15000 35.23400
H  39.57500 10.49400 36.56900
H  38.72500 11.97400 36.28300
H  35.19500 7.31100 31.44500
H  36.59800 6.42200 32.04200
H  35.63500 5.84600 30.69600
H  34.08900 6.32500 27.27600
H  34.31800 6.81400 29.02800
H  35.05700 5.28500 28.47400
H  39.50600 10.13800 24.71300
H  42.43000 9.41300 25.07200
H  40.90900 7.97300 23.68000
H  39.21100 7.95500 23.85200
H  40.11400 7.32600 25.21300
H  41.45900 11.10600 23.29800
H  42.97900 11.50100 24.00300
H  40.32600 12.73400 24.13300
H  41.94400 13.43500 24.70400
H  40.78400 12.56400 25.76700
H  46.29200 12.35500 29.07800
H  45.18600 13.20700 27.95500
H  45.62300 11.58800 27.73000
H  42.84800 12.96600 33.41600
H  44.42200 11.02800 36.73000
H  45.01000 12.67700 37.13000
H  46.04300 11.70000 36.09400
Mg 49.22000 47.06500 42.93200
C  45.99500 48.07600 42.14700
C  48.93800 44.31700 40.83200
C  52.51000 46.51000 43.11000
C  49.67500 50.58200 43.68500
N  47.59400 46.33100 41.58700
C  46.40700 46.92400 41.41300
C  45.72500 46.31200 40.22700
C  46.60600 45.04200 39.87500
C  47.76900 45.22100 40.87800
C  45.80800 43.75600 39.82100
C  45.50500 47.29500 39.09000
C  44.03600 47.31800 38.61400
H  43.71500 46.93800 37.20800
N  50.43700 45.44000 42.33000
C  50.15200 44.41300 41.54200
C  51.23800 43.47400 41.57600
C  52.30000 44.04700 42.28700
C  51.77800 45.41000 42.62500
C  51.18900 42.05800 40.96000
C  53.73700 43.31800 42.48900
O  53.96700 42.23900 41.96300
C  54.79900 44.05800 43.25600
N  50.79800 48.40300 43.17800
C  52.09300 47.86700 43.28400
C  53.14400 48.86200 43.76600
C  52.22400 50.18900 43.78100
C  50.80000 49.69800 43.63400
C  53.82500 48.57700 45.09300
C  52.69300 51.22900 42.78700
C  53.57000 52.44200 43.29500
N  48.03900 48.87800 43.33500
C  48.35600 50.17900 43.54200
C  47.11300 50.99400 43.67600
C  46.17000 50.13800 43.26400
C  46.79000 48.93200 42.93500
C  47.09600 52.44900 44.15200
C  44.73700 50.05500 43.00100
O  43.77700 50.78000 43.18900
C  44.60200 48.72900 42.16600
C  43.46400 47.86900 42.71500
O  43.23800 47.53300 43.89500
O  42.87100 47.32800 41.66300
C  41.93500 46.21100 41.76100
H  48.74100 43.48800 40.15000
H  53.54500 46.26400 43.35600
H  49.86300 51.59500 44.04600
H  44.80000 45.94200 40.67000
H  47.06000 45.15300 38.89000
H  44.73600 43.85600 39.99400
H  46.06000 43.10900 40.66100
H  46.05800 43.37700 38.83000
H  46.15200 47.05800 38.24500
H  45.72500 48.29900 39.45300
H  43.53800 48.27800 38.75000
H  43.46300 46.63200 39.23800
H  52.03200 41.87500 40.29500
H  50.26200 41.87200 40.41700
H  51.32000 41.35700 41.78500
H  55.45600 43.30900 43.69800
H  54.32000 44.53800 44.10800
H  55.21900 44.85100 42.63700
H  53.94100 49.06800 43.05200
H  52.32800 50.72200 44.72600
H  53.03700 48.76100 45.82400
H  54.67400 49.23800 45.26800
H  54.06700 47.51800 45.17400
H  51.73100 51.67500 42.53500
H  52.98800 50.85600 41.80700
H  53.29000 52.69800 44.31700
H  53.58900 53.34400 42.68300
H  54.54800 51.96200 43.30300
H  48.10700 52.74300 44.43600
H  46.40600 52.43100 44.99600
H  46.61200 52.96800 43.32500
H  44.27100 49.02800 41.17100
H  40.93600 46.35100 41.34900
H  41.96000 45.89000 42.80200
H  42.31600 45.35200 41.20800

