158

Mg 37.05200 49.57300 24.96200
C  37.39800 47.66800 27.89600
C  35.61300 52.05700 26.85700
C  36.18400 51.02600 22.06000
C  38.16100 46.79600 23.16400
N  36.62400 49.89500 27.17100
C  36.86800 48.95800 28.17800
C  36.58000 49.59300 29.53600
C  36.00000 51.04000 29.18100
C  36.07300 51.02300 27.64100
C  34.52500 51.39900 29.65700
C  37.83600 49.59200 30.47900
C  37.69800 48.88000 31.86300
H  36.48700 49.24500 32.74400
N  36.15600 51.36500 24.51000
C  35.65900 52.24200 25.42700
C  35.02100 53.37100 24.72800
C  35.25300 53.14700 23.31200
C  35.86400 51.81800 23.22500
C  34.40300 54.46400 25.44100
C  34.81300 53.96800 22.14900
O  35.12200 53.66400 20.97100
C  34.03600 55.24000 22.38200
N  37.20000 49.04500 22.89600
C  36.94200 49.89300 21.88000
C  37.14000 49.14200 20.48600
C  38.02800 47.96000 20.89700
C  37.80400 47.92700 22.41000
C  35.90900 48.81400 19.67200
C  39.50100 48.04800 20.51000
C  40.02500 46.75200 19.81900
N  37.55300 47.59900 25.36600
C  38.04500 46.60800 24.59400
C  38.48300 45.46800 25.36100
C  38.16900 45.83000 26.69600
C  37.73400 47.17300 26.64100
C  39.04800 44.26200 24.77500
C  38.23000 45.36700 28.05100
O  38.44500 44.30000 28.58200
C  37.81200 46.60700 28.88200
C  36.73700 46.21900 29.78800
O  35.55400 46.47800 29.62800
O  37.11900 45.47500 30.87500
C  36.06700 45.19900 31.90200
H  35.09200 52.80200 27.46200
H  35.91400 51.46500 21.09800
H  38.66100 46.09900 22.48900
H  35.77300 49.08800 30.06600
H  36.61100 51.81500 29.64400
H  34.45700 52.41400 30.05000
H  34.33000 50.80900 30.55300
H  33.78900 51.21000 28.87600
H  38.08200 50.65200 30.53100
H  38.58200 49.02800 29.92000
H  38.63400 49.04300 32.39800
H  37.65300 47.80900 31.66000
H  34.12700 54.30500 26.48300
H  33.48400 54.80100 24.96100
H  35.13900 55.26600 25.39100
H  34.30800 55.86200 23.23500
H  32.97800 55.14000 22.62700
H  34.10600 55.79300 21.44600
H  37.69800 49.84700 19.87000
H  37.55000 47.05400 20.52400
H  35.04000 49.41900 19.93200
H  35.55200 47.78600 19.60900
H  36.20800 48.97400 18.63600
H  40.07900 48.27300 21.40600
H  39.60900 48.72800 19.66500
H  39.33300 45.91200 19.88200
H  40.87100 46.48600 20.45300
H  40.23700 46.92400 18.76400
H  38.19600 43.61000 24.58800
H  39.57400 43.85900 25.64100
H  39.59300 44.39700 23.84100
H  38.75600 46.81000 29.38600
H  35.13000 44.72500 31.61100
H  35.70600 46.17900 32.21200
H  36.44000 44.58000 32.71900
Mg -6.07400 24.97200 24.90700
C  -4.42900 26.22300 27.78700
C  -7.94000 22.81700 26.84600
C  -7.43400 23.55000 22.01600
C  -4.15200 27.09000 23.00000
N  -6.07800 24.46900 27.05400
C  -5.37900 25.14000 28.04100
C  -5.98900 24.81000 29.37500
C  -6.89000 23.53300 29.07400
C  -6.92000 23.52700 27.53300
C  -6.46500 22.13400 29.69100
C  -6.84100 25.96500 29.98600
C  -6.85400 26.03600 31.51100
H  -6.17600 24.91200 32.26400
N  -7.54200 23.41300 24.49700
C  -8.18800 22.68500 25.41700
C  -9.09900 21.74000 24.83300
C  -9.04100 22.01800 23.36800
C  -7.97600 23.01500 23.23300
C  -9.97000 20.80000 25.64300
C  -9.71800 21.23100 22.26600
O  -9.49600 21.35300 21.10100
C  -10.83500 20.20700 22.60600
N  -5.66800 25.12000 22.86300
C  -6.40200 24.52000 21.84600
C  -6.01900 25.02900 20.52800
C  -5.11400 26.25300 20.84600
C  -5.01500 26.18400 22.31700
C  -5.33300 23.97500 19.63500
C  -5.63400 27.67100 20.30400
C  -6.70000 28.29100 21.24200
N  -4.68900 26.39600 25.23000
C  -3.98200 27.15400 24.37200
C  -3.14800 28.11700 25.14900
C  -3.24600 27.74800 26.51700
C  -4.17700 26.72500 26.49100
C  -2.30300 29.21600 24.50700
C  -2.79800 27.98500 27.85800
O  -1.99700 28.76600 28.29700
C  -3.64900 27.07000 28.77000
C  -2.81500 26.28600 29.70500
O  -2.49100 25.13100 29.57000
O  -2.67500 27.04700 30.87100
C  -1.83400 26.59000 32.05000
H  -8.63500 22.23800 27.45700
H  -7.97300 23.29300 21.10100
H  -3.42100 27.69800 22.46200
H  -5.20200 24.46300 30.04400
H  -7.85600 23.71500 29.54700
H  -5.37700 22.17800 29.73600
H  -6.72100 21.30900 29.02600
H  -6.95700 22.02000 30.65700
H  -7.90500 25.76200 29.86200
H  -6.68700 26.95400 29.55500
H  -7.89700 25.99500 31.82700
H  -6.34500 26.98700 31.66500
H  -9.69900 19.78300 25.35800
H  -10.97200 21.08100 25.31800
H  -9.95200 20.91100 26.72700
H  -10.41100 19.33800 23.10800
H  -11.25500 19.99400 21.62300
H  -11.57700 20.73200 23.20800
H  -6.83800 25.38600 19.90400
H  -4.15700 26.03600 20.37400
H  -4.33300 23.73500 19.99500
H  -5.20900 24.31900 18.60900
H  -6.02400 23.13600 19.72000
H  -6.08800 27.58900 19.31600
H  -4.83300 28.40500 20.21600
H  -7.48900 28.78300 20.67400
H  -6.27900 29.05600 21.89600
H  -7.17000 27.55500 21.89400
H  -2.91300 29.76100 23.78700
H  -1.42000 28.71400 24.11200
H  -2.05500 29.87900 25.33600
H  -4.24500 27.75900 29.36900
H  -2.36400 26.34200 32.96900
H  -1.21300 27.44700 32.31000
H  -1.25800 25.71100 31.76200

