158

Mg 7.74900 2.73400 27.44300
C  9.07600 0.90100 30.16400
C  5.86900 4.57700 29.47800
C  6.24100 3.96400 24.73700
C  9.11800 0.26800 25.31300
N  7.53600 2.75800 29.53300
C  8.28100 2.06500 30.48900
C  8.11100 2.73500 31.87700
C  6.94600 3.74400 31.66200
C  6.69100 3.67900 30.12700
C  5.81700 3.65700 32.62900
C  9.39500 3.40800 32.42400
C  9.18600 3.95100 33.82300
H  10.10600 3.51500 34.95700
N  6.21500 4.15400 27.10200
C  5.54500 4.81500 28.12900
C  4.67600 5.81900 27.56400
C  4.78400 5.67900 26.17700
C  5.80300 4.55600 25.95100
C  3.70200 6.62400 28.37600
C  4.00200 6.41500 25.07800
O  4.06200 6.11600 23.88800
C  2.96100 7.45400 25.45000
N  7.55100 2.01600 25.30400
C  6.92100 2.84800 24.44300
C  7.02200 2.29600 23.02500
C  8.01500 1.10100 23.22000
C  8.21700 1.07100 24.71900
C  5.69100 1.70800 22.47000
C  9.32200 1.37900 22.47100
C  9.98000 0.05400 22.13800
N  8.93500 1.07000 27.65600
C  9.41400 0.12300 26.68100
C  10.24800 -0.88600 27.30300
C  10.26600 -0.53200 28.66600
C  9.28100 0.54100 28.85000
C  11.00000 -1.99800 26.63200
C  10.80000 -0.85500 30.00200
O  11.59300 -1.68600 30.44000
C  10.03300 0.15200 31.03400
C  9.33200 -0.67400 32.08100
O  8.44600 -1.44500 31.86100
O  9.84400 -0.34400 33.28900
C  9.49900 -1.19500 34.50000
H  5.34800 5.28700 30.12400
H  5.91600 4.54000 23.86800
H  9.67700 -0.46900 24.73200
H  7.78400 2.01900 32.63100
H  7.41300 4.72100 31.77900
H  4.98200 3.15600 32.14100
H  5.46800 4.68100 32.76400
H  6.10300 3.12100 33.53300
H  9.73500 4.15600 31.70800
H  10.17500 2.64700 32.45600
H  8.15600 3.64000 33.99700
H  9.26100 5.03600 33.74700
H  3.90800 7.69400 28.34500
H  3.75600 6.41600 29.44500
H  2.64500 6.51100 28.13400
H  2.15300 6.93100 25.96200
H  2.58700 8.11600 24.66900
H  3.40000 8.16100 26.15300
H  7.38800 3.08600 22.37000
H  7.53200 0.20000 22.84000
H  4.93400 1.93700 23.22000
H  5.60800 0.64400 22.24900
H  5.39700 2.25800 21.57600
H  9.98000 1.95900 23.11800
H  9.13200 1.94400 21.55800
H  9.34000 -0.79500 22.37900
H  10.95200 0.03500 22.63100
H  10.03100 -0.04400 21.05400
H  11.44500 -1.75600 25.66700
H  10.54700 -2.97700 26.47400
H  11.84900 -2.06000 27.31300
H  10.75500 0.73400 31.60600
H  9.25500 -0.49800 35.30100
H  10.40200 -1.68800 34.85900
H  8.64800 -1.81700 34.22200
Mg 30.03500 57.72400 40.20500
C  27.22000 55.67800 39.23000
C  32.01000 55.25000 38.91800
C  32.54900 59.86800 40.50200
C  27.69600 60.32200 40.96400
N  29.56800 55.70600 38.93400
C  28.41900 54.98900 38.89000
C  28.64100 53.56700 38.38100
C  30.16700 53.56900 38.09900
C  30.64400 54.86700 38.69500
C  31.01100 52.34500 38.63500
C  27.80900 53.06600 37.10600
C  27.58200 54.10000 35.99300
H  28.19900 53.85600 34.63200
N  32.08000 57.47600 39.96800
C  32.71900 56.38500 39.37400
C  34.15400 56.69400 39.31500
C  34.30800 58.08000 39.71900
C  32.93700 58.57100 40.07800
C  35.14100 55.61300 38.82800
C  35.63900 58.88200 39.79200
O  36.66800 58.41000 39.38600
C  35.70700 60.26900 40.31700
N  30.07400 59.81900 40.66200
C  31.28200 60.44500 40.91200
C  31.13100 61.97900 41.19900
C  29.55500 62.00600 41.54700
C  29.03600 60.64900 40.94700
C  32.04100 62.39300 42.36000
C  28.83900 63.22100 40.95000
C  28.00400 63.91500 42.08700
N  27.89600 57.99300 40.20900
C  27.13900 59.09200 40.54600
C  25.78800 58.79500 40.44700
C  25.77600 57.41600 39.94100
C  27.08800 57.02600 39.74200
C  24.51300 59.72100 40.77400
C  24.83800 56.31000 39.68700
O  23.64100 56.17800 39.81200
C  25.76800 55.13900 39.17900
C  25.50400 53.94500 40.00200
O  25.96500 53.61900 41.13000
O  24.62700 53.13400 39.37500
C  24.54700 51.73500 39.84700
H  32.61600 54.53500 38.35800
H  33.35800 60.58600 40.34700
H  26.96500 61.09700 41.20400
H  28.48100 52.93900 39.25700
H  30.23400 53.82300 37.04200
H  30.30100 51.55100 38.86800
H  31.53200 52.52400 39.57600
H  31.63700 52.05200 37.79200
H  26.81400 52.72500 37.39300
H  28.23200 52.14200 36.71200
H  27.96600 55.04500 36.37600
H  26.50800 54.26300 35.89900
H  35.54600 55.82800 37.83900
H  34.59000 54.67700 38.74100
H  35.91400 55.39200 39.56400
H  36.72200 60.65500 40.41200
H  35.42100 60.19200 41.36600
H  35.26800 61.06800 39.72000
H  31.39700 62.48200 40.26900
H  29.46300 61.95000 42.63200
H  32.36900 61.45100 42.79900
H  31.54300 62.92900 43.16800
H  32.89000 62.99200 42.02900
H  28.19900 62.83200 40.15900
H  29.52000 63.91000 40.45000
H  28.08100 63.61900 43.13300
H  26.97100 63.82800 41.75100
H  28.09800 65.00100 42.08500
H  23.68800 59.29500 40.20300
H  24.78200 60.72100 40.43400
H  24.23800 59.59900 41.82200
H  25.55000 54.89200 38.14000
H  25.43600 51.16000 39.58900
H  23.78700 51.27600 39.21500
H  24.34700 51.68800 40.91800

