158

Mg -2.97700 17.63500 26.72900
C  -3.32500 15.31500 29.47900
C  -3.56900 20.14000 28.97700
C  -3.25100 19.75900 24.16800
C  -3.14600 14.88700 24.67500
N  -3.46900 17.69300 29.02000
C  -3.45700 16.62400 29.92100
C  -3.60800 17.12100 31.39500
C  -3.80200 18.66200 31.15200
C  -3.69900 18.87100 29.58900
C  -5.10000 19.18000 31.77700
C  -2.36400 16.79600 32.31500
C  -2.35200 17.64500 33.59100
H  -1.89500 16.95700 34.90300
N  -3.21000 19.66600 26.64100
C  -3.30300 20.52400 27.64500
C  -2.94800 21.84400 27.10600
C  -2.82400 21.78600 25.69000
C  -3.15300 20.41900 25.44200
C  -2.89100 23.07600 28.02200
C  -2.44200 22.88700 24.73600
O  -2.30700 22.65400 23.53800
C  -2.32200 24.30800 25.16000
N  -3.39100 17.34500 24.71400
C  -3.35600 18.36000 23.86700
C  -3.59800 17.90500 22.40000
C  -3.45900 16.29700 22.57900
C  -3.28100 16.14900 24.07800
C  -4.69100 18.58600 21.56100
C  -2.23600 15.75100 21.81900
C  -0.86600 16.31900 22.25600
N  -3.08100 15.54000 26.95900
C  -3.15400 14.57900 26.00500
C  -3.05400 13.25200 26.57400
C  -3.19200 13.52200 27.93700
C  -3.19800 14.92000 28.14000
C  -2.96100 11.97500 25.85400
C  -3.37600 12.83200 29.22500
O  -3.47200 11.68300 29.58100
C  -3.42300 14.01700 30.24600
C  -2.29900 13.77300 31.10600
O  -1.12900 14.02600 30.89800
O  -2.73100 13.08400 32.20800
C  -1.67900 12.77900 33.23100
H  -3.54400 20.96800 29.69000
H  -3.41400 20.41100 23.30700
H  -3.24100 13.98000 24.07300
H  -4.49400 16.63000 31.79800
H  -3.09600 19.36800 31.58900
H  -5.68900 19.64800 30.98800
H  -4.88200 19.92400 32.54300
H  -5.69300 18.42200 32.28800
H  -1.41700 16.76100 31.77900
H  -2.65400 15.83400 32.73700
H  -3.15700 18.36400 33.74600
H  -1.55300 18.34300 33.33800
H  -1.89900 23.52400 27.96300
H  -3.15600 22.90200 29.06500
H  -3.59000 23.88300 27.79900
H  -2.40500 24.92900 24.26800
H  -1.42100 24.31900 25.77400
H  -3.17500 24.57800 25.78200
H  -2.67600 18.24100 21.92600
H  -4.39900 15.83500 22.27800
H  -5.15800 17.98100 20.78400
H  -4.34900 19.54100 21.16100
H  -5.57600 18.79200 22.16300
H  -2.28700 15.86500 20.73700
H  -2.08000 14.69200 22.02600
H  -0.90900 17.13300 22.98000
H  -0.34000 16.61600 21.34900
H  -0.31500 15.52600 22.76300
H  -3.74200 12.02700 25.09500
H  -3.12400 11.17200 26.57200
H  -1.98900 11.91900 25.36400
H  -4.34800 13.95500 30.82000
H  -2.17100 11.90100 33.64900
H  -1.57600 13.65700 33.86800
H  -0.71600 12.46100 32.83100
Mg 24.15700 -4.53200 45.94200
C  26.63800 -2.46400 44.34600
C  21.94100 -3.41500 43.39600
C  22.23400 -7.25100 46.31600
C  26.80800 -5.96200 47.72100
N  24.28100 -3.16700 44.06000
C  25.34200 -2.33100 43.75100
C  24.96000 -1.38600 42.57900
C  23.42600 -1.62700 42.40500
C  23.19000 -2.78700 43.37100
C  22.58800 -0.32200 42.71000
C  25.81900 -1.70200 41.37700
C  26.51500 -0.45800 40.84300
H  26.42600 -0.24600 39.34100
N  22.24000 -5.14900 45.13300
C  21.47700 -4.46800 44.19000
C  20.16500 -5.12200 44.10000
C  20.27600 -6.30900 44.86900
C  21.65000 -6.33400 45.42500
C  19.08100 -4.80200 43.17300
C  19.18300 -7.34100 44.89000
O  18.09200 -7.07600 44.44200
C  19.52600 -8.75300 45.30600
N  24.50600 -6.28000 46.87500
C  23.48200 -7.21000 47.02000
C  23.90300 -8.38400 47.90600
C  25.31000 -8.01700 48.38400
C  25.62500 -6.68600 47.61100
C  22.81800 -8.70100 49.01400
C  26.45400 -9.15200 48.33100
C  27.09800 -9.55000 49.67900
N  26.27700 -4.25700 46.04900
C  27.12300 -4.88600 46.90200
C  28.50500 -4.39400 46.60200
C  28.35700 -3.41100 45.63700
C  26.97400 -3.40400 45.35200
C  29.82500 -4.97900 47.20400
C  29.00500 -2.47400 44.75400
O  30.23000 -2.33400 44.58800
C  27.95200 -1.76500 43.97100
C  27.95900 -0.29800 44.12900
O  27.06600 0.41700 44.57500
O  29.14900 0.13900 43.58600
C  29.12400 1.59200 43.41700
H  21.25700 -3.12600 42.59500
H  21.74500 -8.19900 46.55100
H  27.55100 -6.42900 48.37100
H  25.23900 -0.40500 42.96100
H  23.18900 -1.79100 41.35400
H  23.07100 0.25700 43.49800
H  21.64400 -0.66900 43.13000
H  22.40300 0.27100 41.81400
H  25.19400 -2.06900 40.56400
H  26.58400 -2.42300 41.66900
H  27.59300 -0.51800 40.99000
H  26.10400 0.46900 41.24200
H  19.16700 -5.65300 42.49800
H  19.37600 -3.87400 42.68500
H  18.12900 -4.69700 43.69400
H  19.45500 -8.82800 46.39100
H  20.47000 -9.13400 44.91600
H  18.68600 -9.32200 44.90500
H  23.94900 -9.32100 47.35300
H  25.04200 -7.85000 49.42800
H  22.04100 -9.37300 48.65100
H  22.31700 -7.73400 49.06000
H  23.18700 -9.09400 49.96100
H  27.17300 -8.75700 47.61200
H  26.22900 -10.06200 47.77600
H  26.43600 -9.22100 50.47900
H  28.09800 -9.17700 49.90000
H  27.11800 -10.64000 49.66600
H  30.56900 -4.21600 47.43200
H  30.29000 -5.69400 46.52400
H  29.66200 -5.54800 48.11900
H  28.29300 -2.02100 42.96800
H  30.14400 1.97200 43.35600
H  28.94100 2.06000 44.38400
H  28.54500 2.03000 42.60400

