158

Mg 8.72600 3.89400 27.55200
C  9.84100 2.31100 30.48300
C  6.66900 5.92600 29.49800
C  7.57600 5.30800 24.70800
C  10.55400 1.57200 25.68700
N  8.44900 4.13700 29.75300
C  8.98000 3.36300 30.80400
C  8.40600 3.84600 32.18800
C  7.35900 4.93600 31.74900
C  7.44500 4.96900 30.19400
C  5.89300 4.75000 32.25700
C  9.47900 4.41200 33.12200
C  9.49100 3.70500 34.55200
H  10.85300 3.90200 35.40000
N  7.35400 5.49100 27.20400
C  6.53700 6.15700 28.08300
C  5.71400 7.17100 27.46600
C  6.02100 7.01800 26.05500
C  7.06900 5.91400 25.90200
C  4.80600 8.08100 28.21200
C  5.51400 7.92100 24.87800
O  5.87000 7.75300 23.68000
C  4.53600 8.93100 25.16700
N  8.85800 3.42700 25.50000
C  8.46500 4.31000 24.53300
C  8.99100 3.82200 23.12700
C  9.81400 2.53300 23.49800
C  9.78300 2.55000 25.01700
C  7.94400 3.51400 22.01300
C  11.19600 2.33800 22.83900
C  11.32900 0.89500 22.08000
N  9.84100 2.18700 27.89300
C  10.52400 1.34400 27.08700
C  11.22300 0.32700 27.83300
C  11.04400 0.69900 29.11900
C  10.17200 1.84600 29.15300
C  12.10500 -0.76600 27.33700
C  11.46500 0.41900 30.46600
O  12.30400 -0.44300 30.90100
C  10.67900 1.43100 31.38800
C  9.77600 0.71900 32.32200
O  8.65500 0.32400 31.99000
O  10.32700 0.53400 33.60500
C  9.41800 -0.20200 34.45100
H  5.96900 6.52000 30.09000
H  7.18600 5.81000 23.82000
H  11.07500 0.75500 25.18200
H  7.84800 3.02100 32.63100
H  7.62000 5.97700 31.93900
H  5.35900 4.12100 31.54300
H  5.51000 5.76400 32.37000
H  5.96800 4.24900 33.22200
H  9.21100 5.45200 33.30700
H  10.43600 4.34700 32.60500
H  9.15300 2.67200 34.47100
H  8.73400 4.18500 35.17300
H  5.07300 9.13300 28.10900
H  4.77800 7.90400 29.28700
H  3.79600 7.90900 27.83900
H  4.14700 9.20700 24.18700
H  4.99300 9.79900 25.64200
H  3.71700 8.42800 25.68300
H  9.64900 4.53800 22.63500
H  9.30400 1.62500 23.17700
H  6.90400 3.71700 22.26900
H  7.96400 2.48100 21.66500
H  8.29300 4.17200 21.21800
H  12.05700 2.47300 23.49300
H  11.38800 3.15100 22.13800
H  11.71900 0.99700 21.06700
H  10.45700 0.24700 22.16300
H  12.17600 0.39700 22.55200
H  13.15900 -0.49000 27.32100
H  11.93600 -1.06000 26.30100
H  11.95600 -1.66100 27.94000
H  11.50200 1.87000 31.95100
H  8.37800 0.10400 34.33800
H  9.58000 -0.12500 35.52600
H  9.35000 -1.18300 33.98100
Mg 46.85700 25.74900 28.28000
C  47.71500 27.97200 30.80000
C  46.09500 23.40500 30.73700
C  46.30200 23.63100 25.86000
C  48.23400 28.04700 25.96400
N  46.85100 25.76600 30.50600
C  47.24600 26.79300 31.34000
C  47.14500 26.37700 32.86000
C  46.64600 24.85900 32.79600
C  46.54000 24.66600 31.21200
C  47.50600 23.79200 33.57000
C  46.14900 27.29600 33.73000
C  45.68400 26.62800 35.06900
H  45.64600 27.58900 36.25300
N  46.27300 23.77300 28.25700
C  46.01200 22.96800 29.41000
C  45.59400 21.68400 28.92700
C  45.52700 21.76000 27.51600
C  46.06700 23.08900 27.13000
C  45.53800 20.46300 29.78200
C  45.14100 20.74700 26.49900
O  45.17100 20.93200 25.27800
C  44.57900 19.42900 26.90000
N  47.45800 25.73000 26.20500
C  46.94700 24.78800 25.41000
C  46.89300 25.16500 23.94300
C  47.44500 26.60300 23.96700
C  47.77200 26.83000 25.42000
C  47.70100 24.13000 22.96900
C  46.45600 27.62500 23.35800
C  46.99500 28.94900 22.70500
N  47.77000 27.64000 28.36400
C  48.26000 28.41600 27.31400
C  48.72200 29.64700 27.87200
C  48.56800 29.47800 29.25500
C  47.90600 28.28200 29.52000
C  49.22300 30.82500 27.07300
C  48.66900 30.24700 30.50200
O  49.13900 31.34900 30.62300
C  48.04800 29.22600 31.59200
C  49.09600 29.01600 32.54600
O  50.06300 28.27300 32.40600
O  48.97000 29.77000 33.70100
C  49.90500 29.65900 34.83100
H  45.69500 22.78400 31.54100
H  46.01700 23.03900 24.98700
H  48.50000 28.74600 25.16800
H  48.13900 26.39200 33.30700
H  45.66300 24.65000 33.21800
H  48.22800 23.23600 32.97200
H  46.79000 23.12000 34.04300
H  48.19800 24.25000 34.27600
H  45.20500 27.67400 33.33600
H  46.66500 28.21300 34.01500
H  46.40000 25.82800 35.25800
H  44.65200 26.29000 34.96800
H  46.21600 19.67800 29.44600
H  44.51700 20.08600 29.71800
H  45.69100 20.71600 30.83000
H  45.18900 18.90600 27.63700
H  44.42100 18.61700 26.19000
H  43.65100 19.76500 27.36100
H  45.85600 25.09100 23.61400
H  48.41600 26.62700 23.47200
H  46.94900 23.92900 22.20700
H  48.01100 23.21600 23.47600
H  48.52600 24.60100 22.43400
H  45.71400 27.91900 24.10000
H  45.86200 27.17300 22.56300
H  46.77900 29.77400 23.38500
H  46.55200 29.16000 21.73200
H  48.07800 28.87000 22.61400
H  48.90000 31.78200 27.48400
H  48.88900 30.82700 26.03500
H  50.31000 30.90000 27.08600
H  47.26000 29.66800 32.20300
H  50.57200 30.51600 34.73400
H  50.55300 28.78500 34.89400
H  49.35000 29.76000 35.76300

