158

Mg 47.96500 34.41000 27.18500
C  46.14500 33.04300 29.80000
C  48.45300 37.30100 29.04700
C  49.44700 35.82100 24.50000
C  47.30700 31.56100 25.21200
N  47.36200 35.14400 29.21000
C  46.74700 34.29300 30.11900
C  46.86900 34.98600 31.52400
C  47.12600 36.51000 31.13300
C  47.78900 36.31100 29.76100
C  45.89500 37.43700 31.24900
C  48.00000 34.40200 32.41100
C  47.70000 34.15500 33.91200
H  48.43100 35.01900 35.02900
N  48.87200 36.26900 26.82100
C  48.90600 37.31400 27.70900
C  49.56800 38.42300 27.11600
C  49.99700 38.02100 25.79500
C  49.36600 36.64500 25.63600
C  49.63300 39.70900 27.85800
C  50.75900 38.73600 24.71100
O  50.91500 38.27400 23.57900
C  51.40800 40.02900 24.96400
N  48.07600 33.89300 25.02500
C  48.86700 34.59200 24.22300
C  49.04500 33.92900 22.87200
C  48.54200 32.47600 23.18500
C  47.92600 32.61400 24.56600
C  48.34600 34.67600 21.70700
C  49.59900 31.35100 22.94200
C  50.63900 31.03600 24.09700
N  46.88900 32.62900 27.37100
C  46.73100 31.59500 26.48500
C  45.93900 30.51800 27.23400
C  45.60300 31.09300 28.49900
C  46.24300 32.36500 28.50300
C  45.76700 29.12700 26.78800
C  44.91200 30.87500 29.80100
O  44.25900 29.89700 30.26600
C  45.12300 32.22400 30.62400
C  45.49800 31.90600 32.02300
O  46.49000 31.29500 32.38400
O  44.41200 32.35200 32.82400
C  44.45600 32.09900 34.23000
H  48.67400 38.18500 29.65000
H  49.89100 36.23100 23.59000
H  47.24700 30.69300 24.55200
H  45.91700 34.83500 32.03300
H  47.96500 36.92000 31.69400
H  45.75300 38.01600 30.33700
H  46.03600 38.13600 32.07300
H  45.08300 36.76500 31.52900
H  48.78200 35.16000 32.45600
H  48.38500 33.47300 31.99000
H  47.82300 33.07700 34.01200
H  46.62600 34.26600 34.06100
H  48.75100 39.89800 28.47000
H  49.77900 40.52100 27.14500
H  50.59200 39.64500 28.37100
H  50.75100 40.83400 24.63600
H  52.23800 40.19800 24.27800
H  51.76600 40.14000 25.98700
H  50.11900 33.99300 22.69900
H  47.65800 32.22000 22.60000
H  48.97500 35.51800 21.41500
H  47.40400 35.19000 21.89800
H  48.09500 33.99100 20.89700
H  50.20200 31.62100 22.07400
H  49.07200 30.41600 22.75400
H  51.67900 31.20000 23.81700
H  50.53000 30.01200 24.45500
H  50.51200 31.70300 24.94900
H  45.64800 28.44100 27.62600
H  46.54200 28.90700 26.05300
H  44.82100 29.01700 26.25900
H  44.14800 32.70600 30.69700
H  44.93900 31.12500 34.31800
H  43.49500 31.91800 34.71200
H  45.09600 32.74700 34.82900
Mg 36.53200 49.28900 24.80600
C  36.48900 47.80500 27.88800
C  35.20000 52.12000 26.16200
C  36.47900 50.69100 21.75100
C  37.89500 46.36700 23.50300
N  35.88300 49.84100 26.78200
C  36.01200 49.12800 27.92600
C  35.73400 49.92000 29.18400
C  35.21400 51.27000 28.57100
C  35.45200 51.08400 27.10100
C  33.77500 51.64200 28.94900
C  36.93700 50.06500 30.14200
C  36.74800 49.77900 31.71200
H  35.42900 50.24400 32.31500
N  35.92000 51.11500 24.06300
C  35.45300 52.14500 24.76800
C  35.08900 53.22000 23.84900
C  35.31100 52.80800 22.57100
C  35.98800 51.47100 22.75200
C  34.67500 54.55400 24.48600
C  35.11500 53.47500 21.31500
O  35.24800 53.00000 20.21100
C  34.49100 54.98600 21.28400
N  36.88500 48.43300 22.88000
C  36.75900 49.25800 21.78100
C  37.37600 48.57800 20.59000
C  38.20900 47.43700 21.23600
C  37.59500 47.39400 22.64800
C  36.40600 48.32600 19.38900
C  39.64500 47.72000 21.37000
C  40.57900 46.66500 20.72800
N  37.14400 47.39000 25.54500
C  37.59200 46.26900 24.89300
C  37.70100 45.17500 25.82600
C  37.18300 45.78200 26.99700
C  36.88900 47.11300 26.74700
C  38.28500 43.81800 25.54100
C  36.88400 45.44300 28.32100
O  37.09500 44.41000 28.98600
C  36.43500 46.76800 29.00100
C  35.13500 46.49400 29.59500
O  34.09600 46.51900 29.00400
O  35.22000 46.25500 30.93200
C  33.95700 45.92500 31.60700
H  34.53800 52.95700 26.39600
H  36.46500 51.15200 20.76100
H  38.45500 45.56100 23.02300
H  34.86300 49.44500 29.63500
H  35.84100 52.12800 28.81500
H  33.42400 51.04200 29.78800
H  33.14600 51.59400 28.06000
H  33.84400 52.61600 29.43300
H  37.30000 51.08100 29.98700
H  37.79900 49.48100 29.81900
H  37.64100 50.20000 32.17400
H  36.76400 48.70000 31.86500
H  33.66000 54.46800 24.87600
H  34.57900 55.44500 23.86600
H  35.46800 54.80700 25.19000
H  33.55400 54.87700 21.83000
H  34.26700 55.27500 20.25700
H  35.13600 55.72700 21.75700
H  38.03900 49.32200 20.14900
H  37.98700 46.46500 20.79600
H  35.39400 48.70400 19.53700
H  36.18900 47.26800 19.24300
H  36.81700 48.63300 18.42800
H  40.07800 47.80900 22.36600
H  39.87100 48.66300 20.87300
H  40.08800 45.93100 20.08900
H  41.17100 46.20000 21.51700
H  41.27400 47.22300 20.10100
H  37.78700 43.10000 26.19200
H  39.35100 43.71100 25.74100
H  38.03200 43.63300 24.49700
H  37.14300 47.02700 29.78800
H  33.41300 46.86200 31.72200
H  34.07600 45.38400 32.54600
H  33.24600 45.25500 31.12200

