158

Mg 17.09400 51.95900 26.45000
C  19.10500 50.41000 28.87500
C  14.83300 52.67800 29.07300
C  14.99400 53.40200 24.23900
C  19.06300 50.70800 23.87200
N  16.95200 51.64300 28.63200
C  17.98200 51.01000 29.39000
C  17.60600 51.17800 30.92400
C  16.03400 51.47000 30.88100
C  15.96000 51.96700 29.44300
C  15.16700 50.22500 31.19100
C  18.49200 52.25400 31.60400
C  18.82800 52.03100 33.06800
H  17.82800 51.21900 33.85200
N  15.15300 52.83800 26.62500
C  14.47900 53.17800 27.83700
C  13.16300 53.77400 27.49900
C  13.13500 53.77000 26.06600
C  14.40100 53.32300 25.54300
C  12.02300 53.98100 28.56800
C  12.01500 54.29100 25.15100
O  12.21500 54.38100 23.94100
C  10.68700 54.74300 25.69800
N  17.06900 52.07600 24.44900
C  16.14200 52.79100 23.72400
C  16.48700 52.85700 22.22500
C  17.82800 52.00100 22.14200
C  18.07300 51.60600 23.58600
C  15.34400 52.23300 21.32500
C  19.09200 52.63700 21.50400
C  19.71600 53.83400 22.35200
N  18.77800 50.93300 26.38300
C  19.40600 50.43200 25.21700
C  20.56900 49.61700 25.69200
C  20.53900 49.68200 27.15000
C  19.42900 50.39100 27.46700
C  21.39000 48.81000 24.90200
C  21.09100 49.17800 28.46600
O  22.05200 48.44400 28.66500
C  20.29300 49.77300 29.64400
C  19.82000 48.75800 30.61200
O  19.03900 47.85100 30.53600
O  20.58900 48.97600 31.77500
C  20.59400 47.92700 32.87900
H  14.25500 52.85000 29.98400
H  14.33600 53.78400 23.45600
H  19.80800 50.37300 23.14800
H  17.83100 50.19900 31.34800
H  15.76400 52.22700 31.61700
H  15.78600 49.33500 31.30400
H  14.42400 50.05200 30.41200
H  14.64300 50.42000 32.12700
H  18.10600 53.26300 31.46100
H  19.44700 52.17700 31.08400
H  19.11400 53.01800 33.43100
H  19.66300 51.33400 33.00400
H  12.10400 53.47000 29.52800
H  11.04300 53.59800 28.28300
H  11.98300 55.06300 28.69700
H  10.14600 53.89200 26.11100
H  10.01900 55.07600 24.90300
H  10.99000 55.50100 26.42100
H  16.69800 53.89000 21.94900
H  17.67600 51.07000 21.59600
H  14.45700 52.02400 21.92300
H  15.63000 51.31200 20.81600
H  15.13800 52.95300 20.53300
H  18.85800 53.16400 20.57900
H  19.84200 51.87400 21.29700
H  19.34000 53.97200 23.36600
H  19.58900 54.77000 21.80800
H  20.77900 53.59300 22.37700
H  21.91800 48.15100 25.59100
H  22.15400 49.32200 24.31700
H  20.89200 48.13400 24.20800
H  20.97300 50.46300 30.14400
H  20.45700 46.93600 32.44600
H  19.78100 48.20300 33.55000
H  21.48800 47.91600 33.50400
Mg -5.57600 25.08400 25.92100
C  -4.04000 26.41800 28.81800
C  -7.52000 23.03200 27.98300
C  -6.81300 23.67100 23.23700
C  -3.46200 27.09400 24.03900
N  -5.91900 24.96000 28.11300
C  -5.11100 25.57500 29.11600
C  -5.53000 25.00200 30.47500
C  -6.35500 23.73200 30.09100
C  -6.69400 23.94400 28.64600
C  -5.48000 22.38300 30.14600
C  -6.44600 26.04100 31.20900
C  -6.45900 26.11100 32.73100
H  -5.48500 25.17900 33.50200
N  -7.05400 23.65600 25.62200
C  -7.77100 22.91700 26.58100
C  -8.67500 22.04700 25.97400
C  -8.40200 22.06900 24.60300
C  -7.43600 23.12900 24.45600
C  -9.58000 21.14000 26.81100
C  -9.00200 21.20000 23.55000
O  -8.56800 21.29800 22.37100
C  -10.15600 20.33100 23.78600
N  -5.16000 25.34700 23.96500
C  -5.86400 24.63400 23.02200
C  -5.35200 24.98300 21.59700
C  -4.48900 26.26400 21.89800
C  -4.35300 26.26200 23.38900
C  -4.53200 23.84100 20.98900
C  -5.27200 27.50600 21.33600
C  -4.38400 28.24200 20.30400
N  -3.99800 26.42800 26.30200
C  -3.23500 27.23100 25.41400
C  -2.34500 28.06700 26.16400
C  -2.59400 27.79000 27.50600
C  -3.62900 26.77500 27.52900
C  -1.28700 29.02200 25.63500
C  -2.26700 28.10800 28.80300
O  -1.53500 28.95800 29.30300
C  -3.14200 27.13100 29.74800
C  -2.35700 26.27900 30.66100
O  -2.03400 25.15300 30.38700
O  -1.88900 27.02000 31.76900
C  -0.85900 26.42100 32.56300
H  -8.09500 22.45300 28.70900
H  -7.29200 23.30600 22.32600
H  -2.72600 27.49000 23.33600
H  -4.60800 24.82700 31.02900
H  -7.27800 23.67400 30.66800
H  -4.49700 22.57400 30.57600
H  -5.23600 21.97700 29.16400
H  -5.97000 21.60300 30.72900
H  -7.46600 25.80700 30.90500
H  -6.12200 27.02600 30.87100
H  -7.50200 25.86500 32.92800
H  -6.27300 27.14100 33.03400
H  -10.63500 21.28200 26.57800
H  -9.43500 21.27600 27.88300
H  -9.36900 20.08500 26.63800
H  -9.90500 19.43300 24.35100
H  -10.58600 20.02600 22.83200
H  -10.93300 20.90000 24.29600
H  -6.13400 25.13500 20.85300
H  -3.44200 26.25100 21.59300
H  -3.53900 23.92400 21.43100
H  -4.41900 23.84900 19.90500
H  -5.01000 22.90300 21.27100
H  -5.51900 28.30000 22.04100
H  -6.19500 27.11700 20.90800
H  -3.89800 29.14800 20.66600
H  -5.01300 28.62100 19.49900
H  -3.66000 27.60900 19.79100
H  -1.16100 28.80800 24.57400
H  -0.31600 28.92700 26.12200
H  -1.66200 29.97500 26.00800
H  -3.69700 27.84200 30.36000
H  -0.28000 27.25900 32.95200
H  -0.16800 25.83500 31.95800
H  -1.30600 25.91400 33.41800

