158

Mg 0.14300 7.03600 25.61900
C  0.90000 9.09400 28.44900
C  0.32500 4.37700 27.81600
C  -0.47000 5.23500 23.01200
C  0.69000 9.82800 23.63400
N  0.45700 6.80600 27.96800
C  0.70600 7.77700 28.88500
C  0.62400 7.24200 30.29500
C  0.75800 5.69500 30.00100
C  0.38500 5.60600 28.54400
C  2.20800 5.11100 30.39100
C  -0.78600 7.65200 30.89400
C  -0.85500 7.82200 32.43800
H  0.30600 7.58700 33.40900
N  -0.08300 5.05700 25.40400
C  0.10500 4.10400 26.35000
C  0.05700 2.81800 25.73100
C  -0.32900 3.01700 24.32400
C  -0.26300 4.49100 24.18800
C  0.27200 1.63900 26.60400
C  -0.62400 2.00300 23.27200
O  -0.79500 2.27700 22.11300
C  -0.86100 0.61200 23.68500
N  0.24900 7.47100 23.55100
C  -0.25600 6.54500 22.70100
C  -0.63700 7.23300 21.36900
C  -0.42900 8.67800 21.67000
C  0.20500 8.66900 23.04800
C  0.18500 6.59100 20.21200
C  -1.71000 9.65600 21.62700
C  -1.79200 10.70300 20.44800
N  0.59200 9.12200 25.93600
C  0.94600 10.10500 25.04700
C  1.44000 11.29700 25.71300
C  1.38100 10.97700 27.05200
C  0.92300 9.64300 27.14700
C  1.59800 12.68000 25.10100
C  1.61100 11.45100 28.39100
O  2.01600 12.52100 28.92100
C  1.20300 10.25400 29.28200
C  2.26600 10.08100 30.29600
O  3.23100 9.38000 30.13700
O  1.94000 10.80200 31.40200
C  2.79600 10.76300 32.56300
H  0.55000 3.57900 28.52700
H  -0.80400 4.55200 22.22700
H  0.76100 10.73900 23.03600
H  1.46200 7.64600 30.86300
H  0.13700 5.04200 30.61400
H  2.62300 4.80300 29.43100
H  2.02600 4.26600 31.05600
H  2.75100 5.87500 30.94600
H  -1.47600 6.89600 30.51800
H  -1.03000 8.61400 30.44400
H  -1.65800 7.20300 32.83800
H  -1.16200 8.84300 32.66500
H  0.92700 1.91600 27.43000
H  0.82900 0.96100 25.95600
H  -0.61900 1.14800 26.99700
H  -1.35900 0.49800 24.64800
H  0.06800 0.04200 23.72300
H  -1.46600 0.05800 22.96700
H  -1.70800 7.04000 21.30100
H  0.39100 9.01500 21.03700
H  -0.48300 6.02700 19.56100
H  0.94700 5.96600 20.67500
H  0.71900 7.30400 19.58300
H  -1.71800 10.14100 22.60300
H  -2.64000 9.08800 21.63800
H  -0.85200 10.58500 19.91000
H  -1.77100 11.66100 20.96900
H  -2.71300 10.67700 19.86600
H  2.48100 12.77200 24.46800
H  1.62000 13.46700 25.85500
H  0.76400 12.90800 24.43700
H  0.39200 10.59600 29.92500
H  3.50200 9.93200 32.55900
H  2.30300 10.83800 33.53200
H  3.48900 11.59800 32.45300
Mg -12.57700 15.98500 41.40700
C  -9.41500 14.30400 41.10300
C  -11.11600 18.66000 39.80100
C  -15.59000 17.27100 41.18400
C  -13.98700 12.72400 41.64100
N  -10.48700 16.46400 40.59100
C  -9.39000 15.60700 40.51900
C  -8.14500 16.27400 39.89800
C  -8.75500 17.73700 39.56100
C  -10.21800 17.63100 40.04300
C  -7.94900 18.86200 40.29500
C  -7.64400 15.50000 38.60700
C  -6.14200 15.15000 38.62300
H  -5.42500 15.64900 37.37100
N  -13.25400 17.84000 40.84400
C  -12.53500 18.76900 40.20600
C  -13.43400 19.91100 40.00800
C  -14.67100 19.57600 40.58000
C  -14.52000 18.19800 40.90100
C  -12.92100 21.25200 39.51900
C  -15.89700 20.42800 40.86400
O  -15.88600 21.58300 40.52800
C  -17.11600 20.01000 41.70900
N  -14.56400 15.08700 41.21100
C  -15.66300 15.90400 41.28900
C  -16.95100 15.05700 41.35500
C  -16.38500 13.60500 41.38700
C  -14.85400 13.82900 41.45600
C  -17.88600 15.38300 42.58800
C  -17.01500 12.61800 40.34400
C  -18.21400 11.79300 40.82500
N  -11.89200 13.97000 41.56100
C  -12.57100 12.74800 41.64800
C  -11.62600 11.69400 41.92600
C  -10.38000 12.26400 41.73400
C  -10.60100 13.65400 41.51000
C  -12.07800 10.30100 42.17700
C  -8.95400 11.91600 41.52900
O  -8.34200 10.86800 41.49500
C  -8.32600 13.26600 41.21800
C  -7.25000 13.62600 42.15000
O  -7.46700 13.96200 43.33800
O  -5.98800 13.57500 41.51900
C  -4.79600 13.80100 42.34400
H  -10.81100 19.53400 39.22200
H  -16.58800 17.68800 41.03800
H  -14.32000 11.68600 41.70000
H  -7.32800 16.22800 40.61800
H  -8.56500 17.89700 38.50000
H  -6.95400 18.49100 40.54200
H  -8.48000 19.02400 41.23300
H  -7.97500 19.85700 39.85000
H  -7.67300 16.14700 37.73000
H  -8.26700 14.61000 38.52200
H  -5.94900 14.08700 38.76600
H  -5.65900 15.61800 39.48000
H  -12.23600 21.05500 38.69400
H  -12.53200 21.85800 40.33700
H  -13.73000 21.79600 39.03300
H  -17.55700 20.87600 42.20300
H  -16.58500 19.40400 42.44300
H  -17.87000 19.45200 41.15300
H  -17.52200 15.10000 40.42800
H  -16.58300 13.17400 42.36900
H  -18.51200 16.27300 42.53500
H  -17.18300 15.39000 43.42200
H  -18.50900 14.49800 42.71500
H  -16.22200 11.94600 40.01500
H  -17.46500 13.20400 39.54200
H  -19.06000 12.17300 40.25100
H  -18.43900 11.77800 41.89100
H  -17.98700 10.79000 40.46300
H  -12.53600 9.91600 41.26600
H  -12.96100 10.31900 42.81600
H  -11.26000 9.64300 42.46900
H  -7.83400 13.11500 40.25700
H  -5.10000 14.25200 43.28800
H  -4.21000 14.40700 41.65200
H  -4.15000 12.95500 42.57900

