158

Mg 45.60200 4.41200 47.37000
C  43.44100 7.11500 46.70600
C  43.05100 2.30200 46.79500
C  47.85100 1.76600 47.14800
C  48.36000 6.56700 47.09600
N  43.48700 4.69900 46.76100
C  42.77300 5.88600 46.67100
C  41.31200 5.62500 46.28300
C  41.14800 4.16900 46.68400
C  42.66100 3.66800 46.72000
C  40.30100 4.09100 47.94600
C  41.01900 5.98100 44.77000
C  39.96400 7.13200 44.65800
H  40.24600 8.23600 43.56300
N  45.45600 2.26200 47.22800
C  44.31000 1.62100 46.99100
C  44.54800 0.26300 47.02100
C  45.94200 0.05100 47.17100
C  46.49800 1.42800 47.17200
C  43.39500 -0.70700 47.10000
C  46.67900 -1.38000 47.17600
O  45.94200 -2.41100 47.04100
C  48.19600 -1.64100 47.40400
N  47.83700 4.13900 46.75500
C  48.46600 2.98200 47.08300
C  50.02700 3.16800 47.18700
C  50.10800 4.68400 47.06900
C  48.69700 5.21400 46.92400
C  50.83000 2.55500 48.36500
C  50.83000 5.09700 45.72300
C  52.38000 5.04900 45.62200
N  45.91700 6.35500 47.06200
C  47.06500 7.14100 47.02000
C  46.74300 8.54300 46.92200
C  45.30600 8.56900 46.86800
C  44.82900 7.17900 46.96100
C  47.76100 9.61600 46.64400
C  44.23900 9.47000 46.65200
O  44.17800 10.71600 46.49600
C  42.89300 8.55000 46.51500
C  41.98600 8.90200 47.64800
O  42.11600 8.47900 48.79400
O  40.85200 9.45000 47.03600
C  39.78200 9.85500 47.98400
H  42.31000 1.51200 46.65800
H  48.46900 0.87000 47.05800
H  49.21100 7.19800 47.36100
H  40.79100 6.30000 46.96200
H  40.55600 3.54500 46.01400
H  41.02200 3.89700 48.73900
H  39.63900 3.22500 47.95900
H  39.68900 4.93100 48.27600
H  40.85300 5.08700 44.16900
H  41.93600 6.37400 44.33200
H  39.73400 7.50100 45.65800
H  39.04600 6.63400 44.34800
H  43.37100 -1.27300 46.16900
H  42.42400 -0.30200 47.38500
H  43.68600 -1.30300 47.96500
H  48.48100 -1.16700 48.34300
H  48.65000 -1.24700 46.49400
H  48.34200 -2.71400 47.52900
H  50.30600 2.65900 46.26500
H  50.74600 5.11700 47.84000
H  50.10300 2.32100 49.14200
H  51.63700 3.10800 48.84600
H  51.22300 1.59900 48.01800
H  50.54900 6.13000 45.51900
H  50.37400 4.59200 44.87100
H  52.52800 4.18100 44.98100
H  52.77500 4.89700 46.62700
H  52.71900 5.94700 45.10600
H  48.76700 9.21400 46.52000
H  47.73800 10.29800 47.49400
H  47.56300 10.20400 45.74700
H  42.48600 8.69300 45.51400
H  40.07800 9.81500 49.03200
H  38.80600 9.41600 47.77700
H  39.59600 10.92100 47.85000
Mg 1.78300 41.83700 24.51600
C  2.94400 42.06800 27.99600
C  -1.04100 40.66900 25.74500
C  1.13900 41.13200 21.39900
C  4.93600 42.95800 23.70700
N  1.08400 41.46100 26.64200
C  1.63900 41.65500 27.86300
C  0.69900 41.32200 28.98800
C  -0.51600 40.70700 28.31500
C  -0.15100 40.90800 26.76100
C  -0.82000 39.25600 28.72900
C  0.46700 42.50800 29.93000
C  0.30700 42.31000 31.44700
H  -0.28000 41.05200 31.90600
N  0.26700 41.04200 23.67000
C  -0.85900 40.64000 24.28000
C  -1.87900 40.32800 23.34100
C  -1.21900 40.23900 22.09700
C  0.11100 40.87700 22.32400
C  -3.24900 39.86600 23.63400
C  -1.82600 39.76200 20.82400
O  -1.19500 39.73500 19.71300
C  -3.21000 39.27700 20.80200
N  2.89900 41.85100 22.80700
C  2.44600 41.51600 21.63300
C  3.43200 41.69800 20.52400
C  4.59600 42.45800 21.27000
C  4.11500 42.42300 22.68600
C  3.75800 40.39700 19.80600
C  4.83200 43.90800 20.73300
C  3.72600 45.01100 20.90200
N  3.57400 42.41500 25.62200
C  4.75200 42.98100 25.08700
C  5.68000 43.22000 26.09200
C  5.06000 42.76800 27.26600
C  3.75700 42.42200 26.91300
C  7.03100 43.83800 25.99700
C  5.26500 42.55500 28.70900
O  6.20000 42.64200 29.47000
C  3.84200 42.17700 29.21500
C  4.00900 40.82900 29.89100
O  4.77200 39.89400 29.52000
O  3.30200 40.84500 31.07200
C  3.52600 39.68800 31.92100
H  -1.97100 40.28100 26.16700
H  0.80700 41.01300 20.36500
H  5.89100 43.20000 23.23700
H  1.19200 40.53800 29.56200
H  -1.48700 41.17500 28.47700
H  -0.15400 38.92200 29.52400
H  -0.53100 38.68500 27.84700
H  -1.86600 39.25000 29.03800
H  -0.47400 42.96400 29.62300
H  1.14700 43.35600 29.84800
H  -0.31900 43.12400 31.81300
H  1.26100 42.45800 31.95200
H  -3.57500 40.12800 24.64000
H  -3.29000 38.77900 23.55100
H  -4.00000 40.42400 23.07600
H  -3.48500 38.64900 19.95400
H  -3.94800 40.06500 20.65300
H  -3.25600 38.50700 21.57300
H  2.97600 42.32400 19.75700
H  5.50100 41.89700 21.03900
H  3.39300 39.50200 20.30900
H  4.76100 39.99100 19.68000
H  3.58000 40.50500 18.73600
H  5.10200 43.71400 19.69500
H  5.74200 44.26900 21.21400
H  2.73400 44.75200 21.27200
H  3.60200 45.37600 19.88200
H  4.26600 45.69400 21.55700
H  7.61800 43.00000 25.62200
H  7.34200 44.08500 27.01200
H  7.10300 44.66400 25.29000
H  3.58200 42.90200 29.98600
H  3.15600 39.82100 32.93800
H  4.59200 39.50200 32.05400
H  3.10100 38.76800 31.51900

