158

Mg 35.28000 3.17800 29.43900
C  33.16100 4.13900 32.14000
C  37.85300 2.73900 31.64000
C  37.15200 2.00200 26.89700
C  32.68000 3.92200 27.18800
N  35.49900 3.51600 31.61100
C  34.52000 3.88800 32.54200
C  35.07500 3.85800 33.94400
C  36.64900 3.75800 33.67900
C  36.68200 3.30100 32.18200
C  37.47500 5.05100 33.91500
C  34.46100 2.81500 34.91100
C  34.17600 3.29600 36.30400
H  35.05700 4.39100 36.87100
N  37.22700 2.35700 29.29100
C  38.09900 2.23900 30.31700
C  39.34500 1.59400 29.83400
C  39.09100 1.26000 28.44500
C  37.70400 1.80900 28.15600
C  40.51100 1.16800 30.66200
C  39.96000 0.41300 27.47700
O  39.61100 0.22400 26.35600
C  41.35700 -0.23700 27.88400
N  35.02000 3.06500 27.45400
C  35.94500 2.64000 26.58300
C  35.46200 2.61600 25.13800
C  33.94000 2.88300 25.29300
C  33.86000 3.38800 26.67600
C  36.24800 3.68900 24.37300
C  32.84400 1.84600 24.97500
C  31.64500 2.39100 24.23700
N  33.37600 3.89700 29.57700
C  32.37600 4.03300 28.55300
C  31.15900 4.43000 29.13000
C  31.43600 4.46300 30.52900
C  32.80800 4.13400 30.73700
C  29.87500 4.66300 28.41400
C  30.83600 4.75800 31.79700
O  29.68200 5.11700 32.12000
C  31.92600 4.39000 32.94200
C  31.97100 5.62700 33.88000
O  32.46800 6.71700 33.68600
O  31.31200 5.40300 35.04500
C  31.23000 6.57400 35.98800
H  38.63500 2.54900 32.37700
H  37.62500 1.62400 25.98900
H  31.86400 4.00000 26.46700
H  34.77200 4.85000 34.28100
H  37.07800 3.03500 34.37300
H  36.80700 5.90400 34.03500
H  38.01000 5.25800 32.98800
H  38.14500 4.97600 34.77100
H  35.09800 1.93300 34.84500
H  33.51500 2.53000 34.45100
H  34.11100 2.51000 37.05800
H  33.18000 3.73000 36.39600
H  40.59200 0.08300 30.72200
H  40.37000 1.66500 31.62200
H  41.42100 1.45700 30.13700
H  42.08800 0.56000 28.01800
H  41.47400 -0.84400 26.98600
H  41.09500 -0.77100 28.79700
H  35.61200 1.64200 24.67300
H  33.73400 3.71400 24.61900
H  37.15600 3.96600 24.90900
H  35.73500 4.65100 24.36100
H  36.45300 3.21800 23.41200
H  32.57400 1.36900 25.91700
H  33.25700 1.07100 24.32900
H  30.76600 1.99900 24.75000
H  31.67100 1.94400 23.24300
H  31.58000 3.46800 24.08200
H  29.75800 4.01500 27.54500
H  29.73600 5.68100 28.05200
H  29.01100 4.34100 28.99500
H  31.52200 3.49300 33.41300
H  30.64600 7.34000 35.47700
H  32.17800 6.77100 36.48800
H  30.47000 6.31800 36.72600
Mg 48.44700 16.13100 28.53900
C  46.31800 16.06900 31.32700
C  50.70400 17.92000 30.46800
C  50.50500 16.03200 25.99100
C  45.88500 14.79800 26.65600
N  48.41600 16.97300 30.61800
C  47.49700 16.74400 31.60500
C  48.02600 17.20800 32.96600
C  49.20200 18.12800 32.57200
C  49.43200 17.65700 31.14600
C  48.93100 19.68500 32.77500
C  48.27900 15.99600 33.90200
C  48.37900 16.39800 35.38800
H  48.01400 17.76900 35.94400
N  50.33500 16.78000 28.25000
C  51.13500 17.52300 29.17600
C  52.41700 17.78800 28.52000
C  52.33600 17.23500 27.29000
C  51.05400 16.63500 27.12500
C  53.49100 18.62400 29.20200
C  53.40200 17.33300 26.22600
O  53.19000 16.89100 25.12100
C  54.86100 17.70700 26.59900
N  48.26400 15.28500 26.64100
C  49.27000 15.48000 25.68800
C  48.84700 15.05800 24.26500
C  47.41800 14.44900 24.53900
C  47.12800 14.83600 26.04300
C  48.90300 16.15400 23.20300
C  47.25300 12.95100 24.47400
C  47.24800 12.32600 23.05200
N  46.47600 15.68100 28.83200
C  45.58900 15.14000 27.96100
C  44.31000 15.03900 28.62100
C  44.55300 15.30600 30.01600
C  45.94100 15.68700 30.07000
C  42.98700 14.48600 28.09200
C  43.99900 15.31900 31.35400
O  42.93800 14.97700 31.80800
C  45.24200 15.75000 32.32600
C  44.74300 16.87100 33.18900
O  44.21200 17.91300 32.78000
O  44.69200 16.39700 34.49200
C  43.87600 17.21100 35.31700
H  51.44600 18.38200 31.12300
H  51.10700 16.02100 25.08000
H  45.09000 14.37300 26.04000
H  47.25300 17.79100 33.46700
H  50.08800 17.79700 33.11400
H  49.78200 20.13500 33.28700
H  48.08000 19.91400 33.41600
H  48.77200 20.14300 31.79900
H  49.19500 15.53500 33.53200
H  47.44600 15.29400 33.91900
H  49.40900 16.27400 35.72400
H  47.86000 15.60400 35.92600
H  54.28900 17.94400 29.49800
H  53.14900 19.06800 30.13700
H  53.75700 19.41200 28.49700
H  54.98100 18.78700 26.68200
H  55.45200 17.55900 25.69500
H  55.14400 16.98500 27.36500
H  49.56500 14.31900 23.91000
H  46.60800 14.95600 24.01500
H  49.39400 17.06800 23.53600
H  47.89100 16.34700 22.84600
H  49.54700 15.76800 22.41300
H  46.23900 12.79800 24.84300
H  47.87600 12.39200 25.17300
H  47.87000 11.46200 22.81600
H  47.51900 13.09000 22.32400
H  46.29800 11.89100 22.74100
H  42.89100 13.40600 28.19800
H  42.87500 14.69100 27.02700
H  42.26400 14.99900 28.72800
H  45.53700 14.86900 32.89600
H  44.17100 18.25500 35.42700
H  43.77500 16.78700 36.31600
H  42.89400 17.24600 34.84600

