158

Mg 17.38400 -0.77900 28.61400
C  15.80800 0.90200 31.35700
C  19.22300 -2.54100 30.88300
C  18.78300 -2.27600 26.06700
C  15.42800 1.14700 26.47500
N  17.53400 -0.84500 30.88800
C  16.82900 0.02300 31.76600
C  17.15400 -0.27800 33.25300
C  18.30500 -1.39800 32.99200
C  18.42800 -1.60400 31.49300
C  19.53100 -1.01000 33.80400
C  15.93200 -0.83600 34.01400
C  15.59100 -0.27600 35.40000
H  16.73800 0.22400 36.26600
N  18.78000 -2.28500 28.45700
C  19.40100 -2.88000 29.57400
C  20.25000 -3.97400 29.07800
C  20.15200 -3.94100 27.65300
C  19.26700 -2.78500 27.31100
C  21.08200 -4.91000 30.01100
C  20.68200 -4.84800 26.60500
O  20.33600 -4.71600 25.44900
C  21.60700 -6.00500 27.12500
N  17.08800 -0.69200 26.58300
C  17.85300 -1.33500 25.73500
C  17.53000 -0.92800 24.24600
C  16.34100 0.06900 24.39300
C  16.31000 0.20200 25.90100
C  18.80900 -0.47600 23.49900
C  15.04000 -0.34200 23.67500
C  13.93100 -1.06900 24.44000
N  15.99200 0.80600 28.84400
C  15.23700 1.39500 27.85500
C  14.31700 2.36900 28.54200
C  14.49200 2.10700 29.90800
C  15.51200 1.15300 30.02500
C  13.23800 3.20900 27.87700
C  14.06500 2.59200 31.16900
O  13.22200 3.31800 31.53500
C  15.00200 1.89200 32.21100
C  15.90300 2.86500 32.87100
O  16.99700 3.29200 32.46900
O  15.19400 3.33100 33.97600
C  15.82600 4.44700 34.63700
H  19.75300 -3.05500 31.68700
H  19.19600 -2.83300 25.22400
H  14.77900 1.72900 25.81700
H  17.61800 0.61100 33.67900
H  17.98500 -2.31100 33.49600
H  19.91600 -1.75500 34.49900
H  19.40500 -0.04500 34.29600
H  20.39100 -0.78200 33.17400
H  15.91800 -1.89100 34.28900
H  15.03600 -0.60000 33.44000
H  15.00700 -1.03100 35.92600
H  14.94600 0.60000 35.33300
H  20.84600 -5.97400 30.04600
H  21.05500 -4.62300 31.06200
H  22.06800 -4.83600 29.55300
H  21.13100 -6.54400 27.94400
H  22.47800 -5.55500 27.60100
H  22.02000 -6.67900 26.37500
H  17.19200 -1.87500 23.82500
H  16.60000 1.03100 23.94900
H  18.73900 0.46800 22.95700
H  19.11500 -1.29200 22.84500
H  19.56200 -0.28500 24.26300
H  15.29200 -0.88600 22.76500
H  14.63000 0.58700 23.27800
H  13.12600 -1.51500 23.85600
H  13.41600 -0.44900 25.17400
H  14.44600 -1.89300 24.93400
H  12.88500 2.56000 27.07600
H  13.57700 4.19700 27.56600
H  12.46300 3.11300 28.63800
H  14.36700 1.29700 32.86900
H  15.84600 5.34700 34.02300
H  16.84000 4.19300 34.94500
H  15.26500 4.81800 35.49500
Mg -5.04200 26.71400 25.63000
C  -4.25300 28.13800 28.57700
C  -6.92500 24.32800 27.08400
C  -5.40500 25.19700 22.59400
C  -3.03400 29.08400 23.97100
N  -5.42200 26.22300 27.56700
C  -5.12800 27.03900 28.61900
C  -5.73500 26.45500 29.88700
C  -6.43400 25.17000 29.46600
C  -6.34300 25.26900 27.94500
C  -5.81800 23.82000 30.07600
C  -6.64800 27.50600 30.63400
C  -6.49300 27.57200 32.19400
H  -6.42900 26.27100 32.98200
N  -5.98700 24.93900 24.98500
C  -6.82000 24.17400 25.69100
C  -7.35100 23.11200 24.86800
C  -6.70900 23.27700 23.61300
C  -5.93200 24.47800 23.67500
C  -8.23200 22.03100 25.44800
C  -6.84200 22.47600 22.34100
O  -6.14300 22.79500 21.34400
C  -7.87200 21.37100 22.21000
N  -4.28100 27.05200 23.56600
C  -4.66700 26.32500 22.52300
C  -4.21300 26.91400 21.20200
C  -3.64600 28.32000 21.73000
C  -3.64300 28.15000 23.21000
C  -3.09600 25.96000 20.56000
C  -4.52700 29.60300 21.28800
C  -4.03500 30.48700 20.19000
N  -3.86100 28.34200 26.10600
C  -3.11900 29.22500 25.39300
C  -2.52500 30.19500 26.23800
C  -2.97000 29.80600 27.55700
C  -3.72900 28.67100 27.38000
C  -1.60200 31.27300 25.98800
C  -2.86100 30.05600 28.93000
O  -2.20900 30.88300 29.58200
C  -3.68200 28.98000 29.73300
C  -2.66300 28.26300 30.59800
O  -1.71600 27.63000 30.21500
O  -2.99000 28.40900 31.96300
C  -1.96900 27.69700 32.81300
H  -7.49400 23.50200 27.51600
H  -5.65200 24.96500 21.55600
H  -2.72500 30.01600 23.49300
H  -4.86300 26.13200 30.45500
H  -7.51900 25.17700 29.56200
H  -4.93900 23.95800 30.70600
H  -5.39200 23.27000 29.23700
H  -6.61000 23.23100 30.53800
H  -7.69800 27.32200 30.40800
H  -6.36500 28.49300 30.26900
H  -7.33200 28.11700 32.62800
H  -5.60000 28.16300 32.39300
H  -8.58200 21.32300 24.69600
H  -8.98500 22.39900 26.14400
H  -7.56200 21.39800 26.03100
H  -7.73300 20.57100 22.93700
H  -7.79600 21.00100 21.18700
H  -8.87700 21.79300 22.22400
H  -5.07100 27.04800 20.54300
H  -2.62200 28.25100 21.36300
H  -2.86700 25.00900 21.04100
H  -2.22800 26.57700 20.32700
H  -3.46800 25.52200 19.63400
H  -5.00600 30.17600 22.08300
H  -5.41800 29.22000 20.79100
H  -4.51700 30.24600 19.24200
H  -2.97200 30.24700 20.14800
H  -4.11900 31.53700 20.47000
H  -1.51200 31.54800 24.93600
H  -0.63200 30.94000 26.35700
H  -1.86300 32.18700 26.52100
H  -4.38700 29.53000 30.35700
H  -2.08300 26.63300 32.60700
H  -2.21100 28.07500 33.80700
H  -0.93500 27.82700 32.49500

