158

Mg 1.09500 -0.93600 43.76600
C  4.49900 -0.44000 43.08100
C  0.19800 1.66900 41.83700
C  -2.20100 -2.15700 43.66000
C  1.96000 -4.05000 45.11800
N  2.26400 0.26800 42.28400
C  3.63100 0.42800 42.31100
C  3.98600 1.66600 41.57700
C  2.59300 2.45700 41.55300
C  1.58300 1.41200 41.89000
C  2.44400 3.68400 42.39400
C  4.83000 1.48900 40.26700
C  6.23400 2.16600 40.09100
H  6.49000 2.96500 38.80100
N  -0.75300 -0.25500 43.01200
C  -0.83800 0.82200 42.11900
C  -2.15400 1.06700 41.89300
C  -2.93200 0.00300 42.42600
C  -1.98500 -0.86200 43.08900
C  -2.62300 2.37800 41.20700
C  -4.46500 -0.03700 42.42000
O  -5.10900 0.89700 41.94900
C  -5.19400 -1.22100 42.92700
N  0.02200 -2.83000 44.23000
C  -1.30300 -3.04900 44.21600
C  -1.73700 -4.46400 44.77600
C  -0.40600 -4.92700 45.38600
C  0.57800 -3.90200 44.84200
C  -3.04300 -4.61400 45.57600
C  -0.09500 -6.39800 45.00400
C  -0.26300 -7.35700 46.20700
N  2.85200 -2.05600 44.12200
C  3.02100 -3.23000 44.77600
C  4.42600 -3.44100 45.02000
C  5.06000 -2.38000 44.27600
C  4.06900 -1.54200 43.78800
C  5.17000 -4.53700 45.69900
C  6.32700 -1.75000 43.96700
O  7.46100 -2.07000 44.27400
C  6.02700 -0.49900 43.13200
C  6.62100 0.76400 43.69300
O  6.24400 1.17800 44.81500
O  7.67500 1.30600 42.99100
C  8.48500 2.24100 43.79100
H  0.02300 2.67700 41.45500
H  -3.19700 -2.60600 43.66100
H  2.27600 -4.90100 45.72600
H  4.63400 2.21700 42.25800
H  2.46100 2.71900 40.50400
H  3.30700 3.93000 43.01300
H  1.55000 3.72800 43.01500
H  2.45200 4.48600 41.65600
H  4.33700 1.94500 39.40800
H  4.91000 0.40600 40.16900
H  7.02000 1.41000 40.09100
H  6.45000 2.67100 41.03300
H  -1.92700 3.21100 41.10500
H  -3.44100 2.78500 41.80100
H  -2.92700 2.22400 40.17200
H  -5.09800 -1.34600 44.00600
H  -4.66000 -2.02100 42.41400
H  -6.23000 -1.25800 42.59100
H  -1.89700 -4.91900 43.79900
H  -0.40800 -4.71500 46.45600
H  -3.48600 -3.65200 45.83600
H  -2.79700 -4.96900 46.57700
H  -3.62600 -5.38100 45.06700
H  0.90100 -6.44400 44.56200
H  -0.70100 -6.75600 44.17200
H  -1.19300 -7.09700 46.71200
H  0.60100 -7.32500 46.87000
H  -0.40200 -8.36000 45.80200
H  4.64200 -4.81700 46.61100
H  6.15200 -4.14300 45.95900
H  5.18300 -5.39400 45.02600
H  6.35000 -0.79000 42.13300
H  7.92400 3.14500 44.02900
H  9.37600 2.45600 43.20100
H  8.91500 1.76400 44.67200
Mg 7.42000 53.59500 41.78500
C  6.75300 50.02000 41.61900
C  10.67600 52.84100 40.92600
C  7.92200 56.85700 41.15700
C  4.04500 54.09000 42.23500
N  8.48600 51.68900 41.31200
C  8.08500 50.35000 41.36100
C  9.24700 49.45600 41.18900
C  10.54400 50.32900 41.23200
C  9.84500 51.71000 41.18000
C  11.45100 50.14600 42.44300
C  9.23200 48.41800 39.91500
C  9.37700 48.94200 38.47400
H  8.31300 48.56000 37.44700
N  8.99000 54.69600 40.96500
C  10.22500 54.24300 40.74500
C  11.10300 55.32800 40.39000
C  10.41100 56.50300 40.46300
C  9.02700 56.06300 40.92500
C  12.51300 55.15000 39.89900
C  10.99900 57.82000 40.15000
O  12.07800 58.00200 39.59700
C  10.11600 59.04200 40.24800
N  6.12700 55.19200 41.54300
C  6.62800 56.44800 41.53100
C  5.51700 57.47900 41.75600
C  4.27700 56.60500 41.91600
C  4.81700 55.21000 41.92200
C  5.78400 58.38800 42.99500
C  3.24200 56.83900 40.84000
C  1.77300 56.61900 41.30200
N  5.69800 52.33000 42.07200
C  4.38300 52.68800 42.21700
C  3.56200 51.45100 42.34000
C  4.47600 50.38900 42.15600
C  5.74300 50.99800 41.90300
C  2.10100 51.38500 42.59500
C  4.61900 48.93200 42.08400
O  3.78700 48.09000 42.23800
C  6.07200 48.63300 41.66500
C  5.89500 48.15700 40.32900
O  5.74100 48.81800 39.33100
O  5.85700 46.80000 40.45400
C  5.44500 46.02400 39.34700
H  11.75600 52.68300 40.96000
H  7.99300 57.94600 41.12700
H  3.02900 54.36400 42.52500
H  9.25100 48.81000 42.06700
H  11.11500 50.01700 40.35800
H  11.16000 49.29700 43.06100
H  11.41100 51.02300 43.09000
H  12.45000 50.01000 42.02900
H  8.71900 47.45600 39.90200
H  10.21100 47.97600 40.10300
H  10.32800 48.72000 37.98900
H  9.25900 50.02100 38.56900
H  12.68100 55.60600 38.92400
H  12.89500 54.13000 39.84200
H  13.26700 55.62600 40.52600
H  9.11500 58.97400 39.82000
H  10.49600 59.87500 39.65700
H  10.07400 59.44500 41.25900
H  5.55600 58.05500 40.83100
H  3.90400 56.73500 42.93200
H  6.55800 57.93400 43.61400
H  4.88800 58.56600 43.58900
H  6.18000 59.33600 42.63000
H  3.37000 56.06900 40.07900
H  3.11600 57.86200 40.48600
H  1.76700 56.57100 42.39100
H  1.33600 55.74000 40.82800
H  1.22000 57.44800 40.86000
H  1.83700 52.42700 42.77500
H  1.87900 50.81600 43.49700
H  1.52700 50.84200 41.84300
H  6.48800 47.88000 42.33400
H  6.33900 45.56900 38.92200
H  4.99500 46.62300 38.55500
H  4.73800 45.28800 39.73000

