158

Mg 24.69700 2.16200 29.09100
C  26.78300 1.44600 31.92400
C  22.02700 1.94100 31.05500
C  23.01000 2.39500 26.30800
C  27.63600 1.44900 27.06400
N  24.48800 1.90900 31.22700
C  25.42100 1.81500 32.23700
C  24.81400 2.17700 33.60300
C  23.28500 1.88000 33.28600
C  23.26000 1.96700 31.75600
C  22.71500 0.57100 33.89800
C  25.23500 3.52000 34.24300
C  26.16500 3.38000 35.44700
H  26.06800 4.41700 36.61400
N  22.80000 2.28900 28.74200
C  21.80400 2.12200 29.70900
C  20.55100 2.19600 28.97900
C  20.80500 2.40400 27.53400
C  22.26000 2.42000 27.48300
C  19.20900 2.21400 29.60900
C  19.86600 2.81700 26.46400
O  20.28400 3.25700 25.38900
C  18.34500 2.96400 26.73900
N  25.31500 2.02000 26.92200
C  24.37500 2.19900 26.01800
C  24.93500 2.29500 24.56100
C  26.47800 2.25400 24.83800
C  26.52300 1.86300 26.34500
C  24.31700 1.41500 23.48700
C  27.34000 3.41200 24.42100
C  27.55400 4.48300 25.50500
N  26.77800 1.58600 29.39800
C  27.78700 1.32500 28.45300
C  29.02700 0.97500 29.08500
C  28.70300 1.08900 30.50700
C  27.30000 1.38800 30.60400
C  30.38100 0.74700 28.48400
C  29.23000 0.94600 31.90000
O  30.34100 0.59400 32.31800
C  28.02100 1.35600 32.83800
C  27.80000 0.40500 33.93900
O  27.02800 -0.51400 34.05000
O  28.42300 1.01200 35.06100
C  28.32800 0.28000 36.32900
H  21.17600 1.72400 31.70400
H  22.49600 2.48500 25.34900
H  28.59700 1.30700 26.56600
H  25.12800 1.42400 34.32500
H  22.63000 2.65000 33.69400
H  22.67900 0.67200 34.98300
H  23.38300 -0.28600 33.80000
H  21.76100 0.22500 33.50000
H  24.35100 4.15200 34.32300
H  25.79100 3.98000 33.42600
H  27.19300 3.41500 35.08700
H  26.02000 2.40100 35.90400
H  18.66700 3.14500 29.44600
H  19.26800 2.01700 30.67900
H  18.60500 1.43100 29.14900
H  18.32500 3.83900 27.38900
H  17.86600 2.09800 27.19400
H  17.84000 3.33900 25.84900
H  24.66400 3.32100 24.31200
H  26.94200 1.42000 24.31100
H  23.79100 0.58100 23.95200
H  25.15200 0.97700 22.94000
H  23.64500 1.89500 22.77500
H  26.80400 3.96300 23.64800
H  28.33900 3.12000 24.09600
H  27.07500 4.17900 26.43500
H  27.06000 5.43300 25.30000
H  28.60300 4.77200 25.57200
H  30.52400 1.56000 27.77300
H  30.39800 -0.24700 28.03500
H  31.10500 0.87600 29.28800
H  28.27500 2.29900 33.32000
H  28.35500 -0.80300 36.20600
H  27.39200 0.58000 36.80200
H  29.18600 0.65800 36.88600
Mg 30.74400 57.70900 39.77700
C  28.25700 55.49200 38.55100
C  33.08700 55.56600 38.70500
C  33.09200 60.15800 39.98500
C  28.31900 60.00100 40.31000
N  30.64200 55.80600 38.71900
C  29.54800 55.09900 38.25500
C  30.01600 53.79500 37.57400
C  31.53600 53.74900 37.84900
C  31.81100 55.13100 38.44300
C  31.87400 52.58300 38.85300
C  29.52600 53.63300 36.06400
C  28.85100 54.81300 35.33300
H  28.98800 54.90400 33.80400
N  32.82600 57.75500 39.62300
C  33.67800 56.74400 39.15300
C  35.10000 57.19700 39.10400
C  35.05000 58.57900 39.42900
C  33.59800 58.85000 39.78600
C  36.31100 56.34300 38.73800
C  36.25400 59.48100 39.31500
O  37.36100 59.07900 39.05000
C  36.24000 60.98000 39.58100
N  30.74400 59.82500 39.90800
C  31.78700 60.63600 40.07300
C  31.44800 62.03600 40.57000
C  29.86600 61.90400 40.84400
C  29.59500 60.47000 40.33900
C  32.29400 62.66200 41.75700
C  28.96700 62.97900 40.21300
C  27.76700 63.43200 41.12300
N  28.63900 57.76700 39.54900
C  27.84800 58.80700 39.81100
C  26.47200 58.38400 39.55500
C  26.59500 57.02600 39.11200
C  27.92800 56.77000 39.07800
C  25.23700 59.26200 39.55700
C  25.91900 55.81100 38.61500
O  24.73500 55.52500 38.67200
C  26.95000 54.78200 38.28000
C  26.69600 53.53600 39.04100
O  26.98200 53.36100 40.16600
O  26.03000 52.59500 38.31100
C  25.52500 51.38900 39.08100
H  33.87600 54.90400 38.34200
H  33.92200 60.85800 40.10100
H  27.51100 60.60500 40.72700
H  29.43900 53.02800 38.08900
H  32.04700 53.55400 36.90700
H  31.05600 51.86400 38.81400
H  31.90200 53.09600 39.81400
H  32.83800 52.15800 38.56900
H  28.88400 52.75800 36.16900
H  30.30400 53.16600 35.46100
H  29.29300 55.75500 35.65900
H  27.77400 54.85000 35.50100
H  36.49500 56.43800 37.66800
H  36.09900 55.28900 38.91900
H  37.21100 56.61300 39.28900
H  37.16900 61.33300 39.13300
H  36.25700 61.12900 40.66100
H  35.43800 61.59900 39.17900
H  31.52500 62.63800 39.66500
H  29.73300 61.71100 41.90800
H  33.13700 63.29300 41.47400
H  32.81000 61.83900 42.25300
H  31.73300 63.13700 42.56100
H  28.59200 62.71700 39.22400
H  29.56000 63.89400 40.19900
H  27.76200 64.52100 41.16800
H  27.79800 63.04500 42.14200
H  26.83200 63.27100 40.58700
H  25.43900 60.11400 38.90900
H  24.94300 59.62100 40.54300
H  24.48500 58.67000 39.03500
H  26.55400 54.56500 37.28800
H  24.56900 51.00600 38.72500
H  25.47200 51.65100 40.13800
H  26.29100 50.63700 38.89100

