158

Mg 0.90600 7.16800 26.52800
C  1.44100 9.45600 28.97200
C  1.13200 4.56200 28.81600
C  0.76100 4.88900 23.99500
C  1.05300 9.77300 24.19500
N  1.02600 7.02800 28.67200
C  1.30800 8.12800 29.49900
C  1.41800 7.68300 30.97700
C  1.61300 6.16000 30.86100
C  1.24700 5.88900 29.37700
C  2.98400 5.57800 31.27800
C  0.13400 8.08800 31.71800
C  0.21200 8.39300 33.26300
H  1.38700 7.89300 34.07900
N  0.95800 5.01900 26.41800
C  1.04400 4.15100 27.45900
C  0.85800 2.77400 26.93300
C  0.69900 2.86700 25.57200
C  0.82200 4.33200 25.23000
C  0.82400 1.65900 27.92200
C  0.37700 1.77200 24.63000
O  -0.01500 1.97200 23.44400
C  0.57700 0.35900 24.98000
N  0.74700 7.34100 24.48900
C  0.75300 6.29000 23.61700
C  0.45700 6.74900 22.13000
C  0.46000 8.31100 22.31500
C  0.73900 8.48800 23.73400
C  1.22400 6.17700 20.99200
C  -0.84100 8.91200 21.73100
C  -2.11700 8.89600 22.54800
N  1.13400 9.21400 26.56700
C  1.27200 10.13600 25.52100
C  1.63900 11.45500 26.08200
C  1.74500 11.17400 27.42700
C  1.33900 9.85700 27.65700
C  1.96000 12.65600 25.24900
C  2.17100 11.74800 28.60900
O  2.63100 12.87800 28.86300
C  1.81900 10.73400 29.66000
C  2.92700 10.63200 30.61200
O  4.09400 10.34100 30.35200
O  2.42200 11.08600 31.84200
C  3.43900 11.25000 32.88000
H  1.22300 3.68500 29.46100
H  0.60900 4.23600 23.13400
H  0.92900 10.61700 23.51400
H  2.26000 8.18600 31.45300
H  0.92800 5.65600 31.54300
H  3.61800 5.75100 30.40800
H  2.93700 4.49600 31.39500
H  3.44100 6.08700 32.12700
H  -0.64800 7.34300 31.57300
H  -0.27900 9.01000 31.30800
H  -0.67400 8.04400 33.79300
H  0.27700 9.47600 33.37000
H  0.16600 1.90800 28.75400
H  1.85400 1.63500 28.27900
H  0.51500 0.70700 27.49200
H  -0.32500 -0.04100 25.44300
H  1.52100 0.09100 25.45500
H  0.63900 -0.23200 24.06700
H  -0.59300 6.50100 21.97200
H  1.41200 8.60800 21.87500
H  0.63900 5.38200 20.52900
H  2.10700 5.64000 21.33900
H  1.43300 7.03600 20.35500
H  -0.99400 8.50600 20.73100
H  -0.65300 9.97800 21.59900
H  -2.73500 9.79000 22.63800
H  -2.00300 8.53800 23.57100
H  -2.82300 8.19900 22.09700
H  2.02300 12.38400 24.19600
H  2.93900 13.07700 25.48000
H  1.25300 13.48200 25.32400
H  0.94600 11.11400 30.19100
H  4.47000 11.43000 32.57500
H  3.25500 10.55100 33.69700
H  3.38700 12.26600 33.27100
Mg 53.59300 22.68000 44.78700
C  51.61400 25.34900 43.62800
C  51.53900 20.63300 43.17600
C  55.93900 20.35400 44.88300
C  55.93400 25.15500 45.90900
N  51.76400 22.99600 43.39700
C  51.10400 24.13800 43.20300
C  49.71000 23.89400 42.49400
C  49.52500 22.32400 42.91600
C  51.00700 21.95100 43.10900
C  48.72800 22.17200 44.21900
C  49.71400 24.01300 40.92500
C  51.09400 24.07000 40.28900
H  51.06700 24.61600 38.91300
N  53.62500 20.75300 44.27500
C  52.69400 20.03900 43.60000
C  53.04600 18.61300 43.48700
C  54.36000 18.50800 44.00800
C  54.73500 19.96300 44.36600
C  52.17000 17.48600 42.89400
C  55.07700 17.23000 44.36600
O  54.65500 16.14100 44.06300
C  56.39600 17.21700 45.04700
N  55.69500 22.78100 45.23600
C  56.41700 21.64400 45.20700
C  57.83800 21.93300 45.65000
C  57.79000 23.44500 46.00900
C  56.41300 23.85800 45.69300
C  58.41600 20.99300 46.75400
C  58.70100 24.28900 45.07800
C  59.14500 25.68400 45.65600
N  53.68700 24.78700 44.93700
C  54.67600 25.61500 45.45200
C  54.09600 26.93700 45.57800
C  52.93900 26.91000 44.78300
C  52.78700 25.57200 44.36900
C  54.71800 28.10300 46.39600
C  51.80700 27.70000 44.21700
O  51.58800 28.88100 44.22400
C  50.90100 26.70400 43.55300
C  50.68100 27.14400 42.15000
O  51.50700 27.38400 41.30100
O  49.32100 27.08600 41.99600
C  48.81000 27.80600 40.86600
H  50.74500 20.00900 42.76200
H  56.78100 19.66200 44.95600
H  56.59500 25.84400 46.43900
H  48.88700 24.50400 42.86600
H  48.86300 21.80700 42.22200
H  47.81100 21.64900 43.94700
H  48.38600 23.18600 44.42400
H  49.28500 21.66100 45.00500
H  49.20700 24.93500 40.63900
H  49.27800 23.12000 40.47600
H  51.40400 23.02500 40.26400
H  51.83000 24.62600 40.87000
H  52.39000 17.24400 41.85400
H  51.14400 17.78500 43.11200
H  52.29600 16.49900 43.34000
H  56.31700 17.90600 45.88800
H  57.14300 17.50800 44.30700
H  56.86100 16.26300 45.29300
H  58.42700 21.78900 44.74400
H  57.93600 23.74600 47.04700
H  58.69100 21.60500 47.61200
H  59.35200 20.53700 46.43100
H  57.73400 20.16200 46.93600
H  58.19000 24.44400 44.12700
H  59.58200 23.69900 44.82700
H  60.23500 25.69800 45.66700
H  58.79500 25.85000 46.67500
H  58.78300 26.40300 44.92100
H  54.21900 29.02800 46.10400
H  55.77200 28.20400 46.13900
H  54.54400 27.77100 47.42000
H  49.96800 26.82400 44.10300
H  47.99100 27.32900 40.32900
H  49.49300 27.91300 40.02300
H  48.44000 28.78200 41.18100

