158

Mg -1.68400 17.80300 26.85100
C  -2.64700 15.80800 29.53100
C  -2.67000 20.56500 28.61100
C  -1.00200 19.71500 24.07500
C  -1.68200 14.91300 24.79200
N  -2.63600 18.12400 28.76100
C  -2.69700 17.19100 29.80700
C  -2.95800 17.79400 31.10100
C  -3.40500 19.21100 30.72500
C  -2.90800 19.31900 29.25300
C  -4.92100 19.51000 30.81800
C  -1.76100 17.89100 32.00600
C  -1.95200 17.36100 33.44500
H  -0.70900 17.13600 34.38100
N  -1.69800 19.87200 26.48000
C  -2.16500 20.80300 27.31000
C  -2.15700 22.09300 26.67600
C  -1.42000 21.89700 25.46300
C  -1.26100 20.44700 25.29100
C  -2.74100 23.37000 27.29900
C  -0.95200 23.00900 24.44000
O  -0.35400 22.70700 23.39600
C  -1.00100 24.42000 24.92700
N  -1.40200 17.41600 24.81300
C  -1.06500 18.32300 23.83700
C  -0.98700 17.69500 22.41600
C  -0.76300 16.19400 22.77600
C  -1.31400 16.12200 24.24800
C  -2.16600 18.01000 21.43500
C  0.65800 15.66100 22.76600
C  1.75500 16.63800 23.30000
N  -2.00300 15.77700 27.06300
C  -2.01500 14.76400 26.19900
C  -2.35900 13.50600 26.85700
C  -2.49500 13.87300 28.16700
C  -2.34000 15.26300 28.29100
C  -2.37800 12.14400 26.30300
C  -2.82000 13.34600 29.46300
O  -3.17800 12.19700 29.79400
C  -2.85500 14.59800 30.39800
C  -1.64700 14.31900 31.29700
O  -0.49600 14.62400 30.92200
O  -1.98900 13.84000 32.58800
C  -0.83000 13.68200 33.42500
H  -2.93200 21.39900 29.26500
H  -0.85500 20.37200 23.21500
H  -1.75800 13.96000 24.26300
H  -3.81800 17.21100 31.43100
H  -2.93800 20.06400 31.21800
H  -5.14800 20.42000 30.26200
H  -5.22100 19.58900 31.86300
H  -5.46500 18.70700 30.32100
H  -1.37400 18.90900 32.04000
H  -0.97800 17.35600 31.46700
H  -2.41900 16.37800 33.37100
H  -2.64000 18.05400 33.92800
H  -3.27400 23.96100 26.55400
H  -1.88300 23.99900 27.53900
H  -3.44200 23.22000 28.12000
H  -0.54100 24.47300 25.91400
H  -2.04900 24.70800 25.00700
H  -0.40000 25.04000 24.26200
H  -0.08000 18.11000 21.97700
H  -1.26700 15.49400 22.10900
H  -2.78600 18.78500 21.88600
H  -2.72600 17.12200 21.14300
H  -1.80600 18.35500 20.46600
H  0.88400 15.54600 21.70500
H  0.76200 14.72600 23.31700
H  2.59500 15.99300 23.55400
H  1.46800 17.22900 24.17000
H  2.15100 17.22100 22.46800
H  -1.67000 11.96000 25.49500
H  -3.41100 11.90700 26.05000
H  -2.10700 11.48100 27.12500
H  -3.77700 14.65400 30.97700
H  -0.42300 12.67100 33.42200
H  -1.21400 13.86500 34.42900
H  -0.02600 14.40400 33.28400
Mg 41.13400 41.01700 26.95400
C  40.38200 43.59200 29.32600
C  42.14600 39.11900 29.66300
C  41.70400 38.58800 24.76400
C  40.56700 43.24100 24.48400
N  41.21700 41.27400 29.22300
C  40.91600 42.41900 29.94400
C  41.02300 42.20500 31.54100
C  41.56600 40.74600 31.55500
C  41.70200 40.36600 30.03900
C  42.81400 40.50000 32.39100
C  39.67600 42.38900 32.26300
C  39.63800 43.31900 33.48800
H  38.89000 42.79200 34.76000
N  41.82800 39.12800 27.19300
C  42.19600 38.50100 28.35400
C  42.58900 37.12700 28.10100
C  42.53700 37.00200 26.62400
C  42.02800 38.26700 26.12100
C  43.17500 36.21800 29.17200
C  43.03400 35.73300 25.90500
O  43.10000 35.67200 24.70100
C  43.57500 34.55400 26.61300
N  41.40300 40.98400 24.86500
C  41.45200 39.81600 24.19000
C  41.06900 40.02300 22.68300
C  40.64500 41.48400 22.59600
C  40.83200 41.92000 24.07800
C  42.26200 39.75200 21.67300
C  39.19800 41.54900 22.21000
C  38.21900 40.94900 23.21600
N  40.57800 43.08100 26.90900
C  40.44700 43.80500 25.78500
C  40.04500 45.12700 26.19200
C  39.97600 45.14700 27.62800
C  40.31500 43.82500 27.93800
C  39.68800 46.31000 25.32100
C  39.67700 45.92300 28.76800
O  39.22000 47.04900 28.83600
C  39.77400 44.91700 29.89000
C  40.70400 45.63700 30.81500
O  41.91400 45.71600 30.69400
O  40.02600 46.08000 31.88800
C  40.89200 46.54600 33.00400
H  42.32700 38.53600 30.56900
H  41.77200 37.75900 24.05500
H  40.36900 43.77300 23.55100
H  41.77900 42.95800 31.76400
H  40.81700 40.08400 31.98800
H  43.45600 39.97500 31.68300
H  42.57300 39.85900 33.23800
H  43.32300 41.37200 32.80200
H  39.42000 41.40900 32.66400
H  38.83400 42.60000 31.60400
H  39.04600 44.20100 33.24200
H  40.67900 43.55900 33.70400
H  42.53900 35.33300 29.16700
H  43.11600 36.74000 30.12700
H  44.19200 35.89400 28.95200
H  42.81500 34.16600 27.29100
H  44.50900 34.83400 27.10100
H  44.00800 33.80600 25.94900
H  40.27900 39.32500 22.40600
H  41.34600 42.15600 22.10000
H  43.03500 39.14600 22.14600
H  42.69500 40.68500 21.31100
H  41.97400 39.11800 20.83500
H  39.19500 40.95600 21.29500
H  38.92500 42.59500 22.07000
H  38.40700 41.22200 24.25400
H  38.00600 39.90500 22.98600
H  37.25400 41.43000 23.05600
H  39.08600 46.02600 24.45700
H  40.63700 46.77800 25.06000
H  39.03400 46.87600 25.98500
H  38.82800 44.75500 30.40800
H  40.23400 46.77500 33.84200
H  41.53800 47.32800 32.60500
H  41.60700 45.82400 33.39700

