158

Mg 36.26600 48.87400 25.31700
C  36.84100 46.75300 28.23800
C  34.98100 51.25500 27.33500
C  35.84800 50.56900 22.66000
C  37.57500 46.12100 23.49200
N  35.88500 48.95300 27.51600
C  36.23300 48.09300 28.49800
C  35.92600 48.67300 29.87500
C  35.08300 49.95700 29.44800
C  35.32800 50.09100 28.01400
C  33.62900 49.93400 29.93100
C  37.13800 48.94700 30.84000
C  37.10100 48.42300 32.25300
H  35.88400 48.84800 33.05000
N  35.50600 50.74500 25.04200
C  35.17200 51.66400 26.00400
C  34.78600 52.88800 25.26300
C  35.14600 52.71600 23.88000
C  35.52100 51.32600 23.77700
C  34.09200 54.01200 25.90600
C  35.25500 53.72300 22.74100
O  35.76000 53.38000 21.68100
C  34.92300 55.05500 22.83100
N  36.37400 48.31900 23.32100
C  36.14100 49.27500 22.36200
C  36.59000 48.79800 20.95100
C  37.28200 47.44400 21.27900
C  37.08000 47.25300 22.76700
C  35.42100 48.61800 19.97000
C  38.74000 47.40700 20.81300
C  39.73800 48.25500 21.58500
N  36.94900 46.81700 25.66700
C  37.46100 45.90200 24.85800
C  37.83700 44.73000 25.56300
C  37.61300 45.00200 26.87900
C  37.07400 46.26900 26.91900
C  38.41400 43.47200 24.94400
C  37.70900 44.50600 28.22900
O  38.20000 43.42500 28.68900
C  37.15000 45.66500 29.18000
C  36.00800 45.14200 30.01400
O  34.88500 44.92600 29.62700
O  36.35100 44.87700 31.34700
C  35.24600 44.58800 32.24200
H  34.43700 52.01500 27.90000
H  35.79500 51.22500 21.78800
H  38.20000 45.48100 22.86600
H  35.29200 47.96700 30.41300
H  35.47500 50.83500 29.96100
H  33.37500 48.96400 30.35800
H  32.82000 50.07800 29.21600
H  33.48500 50.54800 30.82100
H  37.30500 50.01400 30.98800
H  38.05300 48.52100 30.42900
H  37.98100 48.77300 32.79400
H  37.16500 47.33500 32.23900
H  33.02800 53.81900 26.04600
H  34.23000 54.97900 25.42300
H  34.47100 54.08500 26.92600
H  33.86800 55.10600 23.10000
H  35.05200 55.61000 21.90200
H  35.48300 55.56700 23.61300
H  37.33200 49.51400 20.59900
H  36.70600 46.61500 20.86800
H  35.10300 49.61700 19.67300
H  34.63300 48.06000 20.47600
H  35.74600 48.10500 19.06600
H  38.73800 47.69500 19.76100
H  39.05900 46.36500 20.81400
H  40.70500 47.75200 21.59300
H  39.44800 48.51300 22.60400
H  39.89300 49.16700 21.00800
H  37.69000 42.82000 24.45300
H  39.03300 42.94700 25.67100
H  39.15800 43.78300 24.21000
H  37.83500 46.10900 29.90200
H  34.85200 43.57500 32.32100
H  34.34400 45.17500 32.06900
H  35.63900 44.84000 33.22700
Mg -11.00900 38.05500 41.99600
C  -9.29500 35.03400 41.49600
C  -8.54000 39.69500 40.27800
C  -12.99900 40.71400 41.90200
C  -13.72900 36.13100 43.25800
N  -9.25100 37.45400 40.99400
C  -8.67800 36.17800 40.92700
C  -7.46200 36.15900 40.00200
C  -7.10700 37.64500 39.84200
C  -8.36700 38.34500 40.40000
C  -5.74100 38.14400 40.44700
C  -7.87400 35.36400 38.70100
C  -7.19200 34.08000 38.34500
H  -6.53900 34.07500 36.99000
N  -10.77300 39.92500 41.25900
C  -9.65500 40.48000 40.69200
C  -9.91900 41.85000 40.29300
C  -11.20800 42.17600 40.71500
C  -11.70200 40.90000 41.31500
C  -8.97000 42.74400 39.53100
C  -11.83600 43.54700 40.53500
O  -11.25900 44.45800 39.93200
C  -13.16700 43.91600 41.08800
N  -13.08200 38.33900 42.58300
C  -13.64200 39.54000 42.37200
C  -15.09300 39.55500 42.76300
C  -15.34400 38.12500 43.25900
C  -13.95100 37.51700 43.03600
C  -15.51100 40.78500 43.60100
C  -16.49800 37.33600 42.66200
C  -17.29300 36.39300 43.57700
N  -11.36800 36.01600 42.50900
C  -12.47000 35.43100 43.17200
C  -12.11400 34.06200 43.47300
C  -10.87600 33.86500 42.80100
C  -10.45900 35.09000 42.30900
C  -12.97600 33.08100 44.32900
C  -9.89200 32.89100 42.53100
O  -9.94900 31.69600 42.78600
C  -8.78400 33.58600 41.59600
C  -7.44000 33.51000 42.17000
O  -6.52700 32.76700 41.74500
O  -7.33700 34.27800 43.31600
C  -6.05200 34.04900 43.98600
H  -7.74000 40.30200 39.85000
H  -13.65800 41.58500 41.90700
H  -14.59800 35.60200 43.65400
H  -6.64000 35.61000 40.46000
H  -7.14700 37.83400 38.76900
H  -5.17400 37.26300 40.74900
H  -5.87400 38.89100 41.22900
H  -5.13700 38.66700 39.70600
H  -7.88200 36.05600 37.85800
H  -8.89600 35.02800 38.87500
H  -7.82500 33.19600 38.26900
H  -6.37700 33.88900 39.04400
H  -9.19400 43.01900 38.50000
H  -8.02900 42.19400 39.54900
H  -8.65500 43.64800 40.05200
H  -13.83000 43.27700 40.50500
H  -13.23600 45.00100 41.01200
H  -13.32100 43.62400 42.12700
H  -15.64600 39.63100 41.82700
H  -15.46500 38.30200 44.32700
H  -14.65700 41.40000 43.88600
H  -16.16400 40.52500 44.43400
H  -16.03500 41.42100 42.88700
H  -16.08700 36.72900 41.85600
H  -17.24100 38.01400 42.24100
H  -18.33800 36.69600 43.65300
H  -16.85700 36.41600 44.57500
H  -17.20900 35.38300 43.17500
H  -12.29100 32.59000 45.02000
H  -13.34000 32.25700 43.71400
H  -13.76300 33.58600 44.88900
H  -8.78800 33.07000 40.63600
H  -5.87600 34.71300 44.83300
H  -5.17200 34.05700 43.34300
H  -6.10200 33.06000 44.44100

