158

Mg 52.73900 24.20600 44.86600
C  49.90300 26.27300 43.86000
C  51.06600 21.64900 43.26300
C  55.50900 22.56000 45.03000
C  54.38500 27.18600 45.74300
N  50.71800 24.03700 43.61400
C  49.80900 24.95400 43.33300
C  48.75400 24.47700 42.33600
C  48.82800 22.91300 42.53600
C  50.26100 22.80600 43.17100
C  47.60100 22.22300 43.28200
C  49.17900 24.92200 40.88000
C  47.95000 25.02200 40.00200
H  47.53700 23.77000 39.18500
N  53.20500 22.33700 44.28200
C  52.37000 21.39000 43.72900
C  53.03600 20.12800 43.68600
C  54.36000 20.35100 44.18300
C  54.44700 21.80600 44.52800
C  52.29400 18.82300 43.24300
C  55.46800 19.28600 44.22400
O  55.26500 18.18000 43.72600
C  56.80300 19.55800 44.96100
N  54.63200 24.75600 45.43100
C  55.65600 23.86900 45.43800
C  56.97100 24.45800 45.89400
C  56.60600 25.97900 45.83400
C  55.10600 25.97300 45.69800
C  57.54400 23.83800 47.29500
C  57.31600 26.68600 44.69700
C  58.30600 27.76400 45.07500
N  52.24700 26.26700 44.91600
C  52.96600 27.35800 45.43400
C  52.23500 28.45800 45.48100
C  50.93000 28.11800 44.98700
C  51.05300 26.77100 44.59400
C  52.80500 29.74900 46.09900
C  49.59600 28.57200 44.69500
O  49.02800 29.63800 44.98400
C  48.91900 27.43400 43.91600
C  48.38000 27.93900 42.58200
O  49.07100 28.27400 41.54600
O  47.00400 28.17900 42.67100
C  46.43300 28.53600 41.37400
H  50.45200 20.80400 42.94500
H  56.47700 22.06300 45.12600
H  54.87600 28.13800 45.95700
H  47.76700 24.83000 42.63600
H  48.68900 22.53800 41.52200
H  46.71000 22.81500 43.49000
H  47.91600 21.69500 44.18200
H  47.24600 21.49700 42.55100
H  49.88700 24.13000 40.63500
H  49.86500 25.76900 40.92100
H  47.97600 25.87600 39.32600
H  47.00400 25.16400 40.52500
H  52.57900 18.70100 42.19800
H  51.20800 18.79200 43.33200
H  52.72700 18.00200 43.81500
H  57.41000 20.04800 44.20000
H  57.29200 18.61800 45.21600
H  56.70400 20.20900 45.83000
H  57.60000 24.17400 45.05100
H  56.78000 26.49900 46.77600
H  57.33800 24.42600 48.19000
H  58.63000 23.74800 47.29100
H  57.06700 22.92000 47.63800
H  56.59200 27.09600 43.99300
H  57.87500 25.97100 44.09200
H  59.31700 27.61800 44.69500
H  58.54400 27.73100 46.13800
H  58.02200 28.75800 44.72900
H  53.61600 30.14100 45.48500
H  53.26100 29.43600 47.03900
H  52.07200 30.53300 46.28700
H  47.98300 27.14700 44.39600
H  45.37400 28.69600 41.57400
H  46.60900 27.70800 40.68700
H  46.84700 29.47300 41.00300
Mg -9.46300 18.13900 42.69700
C  -6.02800 17.29700 42.39500
C  -8.63900 21.43600 42.05900
C  -12.64700 18.64500 42.17000
C  -10.07100 14.54200 43.07400
N  -7.55500 19.14400 42.28600
C  -6.28700 18.67500 42.31300
C  -5.26400 19.82400 42.24900
C  -6.07100 21.08600 42.40000
C  -7.53500 20.58800 42.23300
C  -5.79300 21.95200 43.68400
C  -4.46400 19.70700 40.87700
C  -5.13500 18.99500 39.67400
H  -4.71900 19.42600 38.25200
N  -10.52600 19.85100 42.24500
C  -10.00500 21.13100 42.04100
C  -11.14100 22.00900 41.96300
C  -12.28300 21.23100 41.94800
C  -11.85500 19.80400 42.07900
C  -11.02300 23.48500 41.80300
C  -13.70400 21.82300 41.80500
O  -13.95100 23.05200 41.83600
C  -14.85300 20.89800 41.59800
N  -11.04000 16.79400 42.51200
C  -12.34300 17.35000 42.35900
C  -13.42200 16.25100 42.52600
C  -12.58200 14.91900 42.47000
C  -11.14900 15.43600 42.71000
C  -14.29800 16.47900 43.72400
C  -12.54600 14.11800 41.09900
C  -13.36100 12.78200 41.00800
N  -8.33900 16.28200 42.78900
C  -8.73400 14.93300 42.88700
C  -7.55200 14.17400 42.86800
C  -6.48500 15.02000 42.68100
C  -6.98500 16.29200 42.67400
C  -7.56500 12.74000 42.93400
C  -5.06800 15.02900 42.54500
O  -4.21400 14.13500 42.72800
C  -4.65700 16.60400 42.37000
C  -3.64700 16.95900 43.49300
O  -2.54500 17.41100 43.31400
O  -4.27900 16.85000 44.74600
C  -3.49200 17.30300 45.87000
H  -8.35100 22.48700 41.99900
H  -13.71400 18.85000 42.05900
H  -10.26800 13.48700 43.27300
H  -4.64700 19.63400 43.12800
H  -5.88800 21.77500 41.57600
H  -5.74400 23.00200 43.39800
H  -4.78400 21.64100 43.95300
H  -6.49900 21.68400 44.47000
H  -3.61000 19.08000 41.13600
H  -4.15100 20.72900 40.66300
H  -6.21700 19.08400 39.77000
H  -4.92000 17.92800 39.71600
H  -11.39800 23.86200 40.85100
H  -9.96300 23.73600 41.77500
H  -11.40200 24.15300 42.57700
H  -14.93900 20.27200 42.48700
H  -14.63800 20.41200 40.64700
H  -15.75800 21.49200 41.47400
H  -13.97900 16.39800 41.60100
H  -12.93700 14.25400 43.25800
H  -14.18500 15.66700 44.44300
H  -15.26100 16.40900 43.21900
H  -14.19200 17.39200 44.31000
H  -11.49900 13.81900 41.07900
H  -12.85200 14.65500 40.20100
H  -13.90200 12.83600 40.06300
H  -14.11700 12.68500 41.78700
H  -12.74900 11.89100 40.87600
H  -6.60000 12.34200 42.61800
H  -8.38700 12.44300 42.28400
H  -7.83700 12.47900 43.95600
H  -4.21200 16.56500 41.37600
H  -3.66500 16.66000 46.73300
H  -3.80900 18.33400 46.02800
H  -2.44000 17.16100 45.62300

