158

Mg 45.85900 17.21000 27.98900
C  44.22200 16.97900 31.05800
C  48.18700 19.14500 29.54200
C  47.26600 17.50100 25.13600
C  43.21900 15.25500 26.62500
N  46.09300 18.04800 30.08100
C  45.35700 17.73900 31.12500
C  46.06000 18.18300 32.46800
C  47.20000 19.11000 31.94100
C  47.19200 18.73600 30.44600
C  47.01200 20.65600 32.26600
C  46.63100 16.99300 33.33900
C  46.94400 17.33300 34.88100
H  46.52100 18.67400 35.49400
N  47.51800 18.20800 27.40700
C  48.29900 18.99200 28.20900
C  49.31800 19.63500 27.35700
C  49.07500 19.14700 26.06000
C  47.96500 18.22400 26.15900
C  50.34900 20.52800 27.93100
C  49.75400 19.46400 24.72100
O  49.51900 18.99700 23.66900
C  50.85500 20.51700 24.74500
N  45.36100 16.30200 26.19800
C  46.15400 16.64400 25.10000
C  45.54800 16.16100 23.80200
C  44.44900 15.10100 24.27500
C  44.35000 15.50700 25.79700
C  44.83200 17.22800 22.93200
C  44.84200 13.57100 24.13500
C  44.35200 12.89600 22.83000
N  44.01200 16.35000 28.62300
C  43.05500 15.60600 27.95100
C  41.97000 15.14900 28.78000
C  42.37100 15.65900 30.08000
C  43.62400 16.32600 29.89100
C  40.80200 14.33000 28.43700
C  42.02500 15.83600 31.49600
O  41.01000 15.50400 32.15000
C  43.23500 16.63900 32.16500
C  42.79700 17.79600 33.01000
O  42.26200 18.83700 32.63400
O  42.98400 17.48300 34.34300
C  42.26000 18.33400 35.34400
H  48.94100 19.70600 30.09800
H  47.59300 17.75600 24.12600
H  42.43800 14.58900 26.25000
H  45.30600 18.74100 33.02300
H  48.10200 18.76000 32.44300
H  46.74100 21.21100 31.36800
H  47.93800 21.09700 32.63400
H  46.18800 20.70000 32.97800
H  47.52800 16.61700 32.84700
H  45.89300 16.20800 33.18000
H  48.01800 17.18500 35.00000
H  46.43800 16.65600 35.56900
H  51.18500 20.81200 27.29100
H  50.86000 20.22000 28.84300
H  49.91500 21.50600 28.13900
H  50.43300 21.32200 25.34600
H  51.08700 21.05000 23.82400
H  51.83100 20.23900 25.14300
H  46.30900 15.72700 23.15300
H  43.46000 15.25400 23.84400
H  45.13800 18.25000 23.15800
H  43.75000 17.10100 22.98400
H  45.14200 17.01100 21.91000
H  44.30300 13.03400 24.91600
H  45.91600 13.49800 24.30300
H  43.55300 13.52000 22.43000
H  43.92200 11.91600 23.03700
H  45.09800 12.88300 22.03500
H  40.47900 14.63100 27.44100
H  39.94800 14.40100 29.11000
H  41.13400 13.30200 28.29500
H  43.64500 15.81800 32.75300
H  41.20900 18.49800 35.10600
H  42.74700 19.30900 35.32100
H  42.33100 18.02300 36.38600
Mg 27.40800 50.66700 26.64900
C  25.17900 51.69400 29.34300
C  29.74200 49.78800 28.80300
C  29.19500 49.85700 24.06000
C  24.80100 51.76000 24.51600
N  27.47800 50.94400 28.76800
C  26.41500 51.09300 29.70600
C  26.91700 50.81100 31.12000
C  28.40700 50.29200 30.95500
C  28.60900 50.30700 29.38400
C  29.45000 51.05300 31.69900
C  25.88600 50.01800 31.97800
C  26.40400 49.03400 33.05300
H  26.80500 49.62200 34.35800
N  29.19500 50.00000 26.51400
C  30.11500 49.78300 27.44800
C  31.39600 49.47700 26.89100
C  31.26700 49.51400 25.48900
C  29.83200 49.81900 25.30300
C  32.58900 49.00700 27.76900
C  32.29300 49.17000 24.48100
O  31.96200 49.21400 23.28600
C  33.64300 48.70800 24.88100
N  26.96700 50.78800 24.56900
C  27.92200 50.27000 23.68600
C  27.41100 50.28100 22.26600
C  25.92300 50.67400 22.45900
C  25.83300 51.05300 23.90300
C  28.27100 51.20400 21.37900
C  24.85600 49.55100 22.02900
C  25.10800 48.19600 22.65500
N  25.45700 51.62400 26.86000
C  24.60600 52.06000 25.84500
C  23.47500 52.70100 26.46100
C  23.63400 52.55600 27.83200
C  24.89700 51.92400 28.05500
C  22.41200 53.38600 25.62000
C  23.04700 52.89600 29.02600
O  21.99100 53.45400 29.19700
C  23.97600 52.31100 30.10600
C  24.41700 53.46300 31.03900
O  25.04200 54.44400 30.71000
O  24.06100 53.26500 32.33600
C  24.33500 54.26900 33.32200
H  30.38100 49.33800 29.56600
H  29.74700 49.56400 23.16400
H  23.99300 51.99900 23.82100
H  26.88800 51.76900 31.63900
H  28.51700 49.28000 31.34500
H  30.17700 50.40100 32.18500
H  29.05500 51.76600 32.42300
H  30.01900 51.61900 30.96200
H  25.39800 49.43000 31.20100
H  25.21100 50.66900 32.53300
H  27.23600 48.47300 32.62800
H  25.66100 48.25700 33.23100
H  33.05500 48.07100 27.46300
H  32.23200 48.95700 28.79700
H  33.33100 49.80500 27.77300
H  34.06400 49.32200 25.67800
H  34.25000 48.79700 23.98100
H  33.44900 47.73800 25.34000
H  27.62700 49.33400 21.77000
H  25.63000 51.55600 21.88900
H  27.59200 51.96000 20.98600
H  28.73300 50.56700 20.62500
H  29.06700 51.62800 21.99300
H  24.79300 49.39500 20.95200
H  23.87300 49.83500 22.40200
H  24.54200 48.06900 23.57800
H  26.12200 48.01800 23.01200
H  25.05400 47.41400 21.89700
H  22.00700 52.67300 24.90200
H  22.71700 54.29300 25.09700
H  21.58500 53.61700 26.29100
H  23.39800 51.61900 30.71900
H  24.83800 55.18600 33.01800
H  24.87600 53.79000 34.13800
H  23.41300 54.57700 33.81500

