158

Mg 47.74100 24.46600 28.46500
C  48.67600 26.63000 31.16100
C  46.84600 22.22700 30.66700
C  46.92100 22.64600 25.82900
C  48.95800 27.00600 26.26200
N  47.88000 24.41300 30.68400
C  48.03900 25.41500 31.57200
C  47.59200 25.08800 32.98100
C  47.10200 23.64600 32.82500
C  47.23700 23.38400 31.28300
C  47.85900 22.65600 33.77600
C  46.64600 26.12100 33.64200
C  46.03200 25.65200 35.00000
H  46.36300 26.58000 36.18000
N  47.04500 22.62000 28.22600
C  46.78700 21.81900 29.31000
C  46.22800 20.61200 28.84100
C  46.18800 20.75200 27.46000
C  46.73800 22.04500 27.06800
C  45.73900 19.47600 29.68200
C  45.66100 19.76500 26.49800
O  45.56600 20.04900 25.29800
C  44.93100 18.46900 26.87000
N  47.89400 24.78500 26.30800
C  47.46300 23.84800 25.51800
C  47.46800 24.33000 24.07400
C  47.92700 25.82500 24.13600
C  48.34800 25.89500 25.63500
C  48.44500 23.41800 23.19900
C  46.78800 26.85100 23.71500
C  47.26600 27.82900 22.57300
N  48.79000 26.40200 28.61100
C  49.21700 27.27900 27.66900
C  49.76600 28.46400 28.20000
C  49.64900 28.26300 29.62700
C  48.93800 27.03200 29.80800
C  50.45600 29.53800 27.47500
C  49.93500 28.79700 30.92200
O  50.54600 29.76900 31.26200
C  49.10100 27.90200 31.97700
C  50.08000 27.57300 33.04600
O  51.05000 26.83700 32.91300
O  49.83300 28.20600 34.15800
C  50.70400 27.93200 35.27700
H  46.50700 21.47600 31.38500
H  46.68700 22.05200 24.94300
H  49.08100 27.89800 25.64400
H  48.53500 25.13200 33.52600
H  46.04600 23.54400 33.07400
H  48.53400 23.22000 34.42000
H  48.52500 22.04500 33.16600
H  47.13300 22.06300 34.33300
H  45.78700 26.34700 33.00900
H  47.29300 26.96500 33.88000
H  46.36700 24.65900 35.29800
H  44.96300 25.61700 34.79000
H  44.74500 19.15200 29.37400
H  45.70800 19.68300 30.75200
H  46.43400 18.63700 29.68200
H  45.49400 17.75400 27.46900
H  44.50700 17.95700 26.00500
H  44.10000 18.77700 27.50400
H  46.47300 24.15600 23.66300
H  48.82000 25.83800 23.51200
H  49.16100 22.98000 23.89500
H  48.94300 23.98600 22.41300
H  47.97600 22.54300 22.75000
H  46.49700 27.39100 24.61600
H  45.90200 26.39600 23.27300
H  48.24900 27.43000 22.32500
H  47.48100 28.79500 23.03000
H  46.57300 27.82800 21.73100
H  51.22000 30.02000 28.08500
H  49.74600 30.30000 27.15300
H  50.96000 29.22400 26.56100
H  48.22000 28.45500 32.30100
H  51.68500 28.38900 35.15500
H  50.80400 26.86200 35.45800
H  50.15400 28.34400 36.12300
Mg -2.78100 35.05800 26.85000
C  -4.66300 33.04100 29.10800
C  -1.96500 37.14500 29.43400
C  -1.03300 36.61300 24.69500
C  -4.49300 33.30200 24.27300
N  -3.14700 34.99500 28.93100
C  -3.90200 34.14300 29.66700
C  -3.70200 34.43100 31.18000
C  -2.90200 35.78400 31.28900
C  -2.71300 36.01800 29.73300
C  -3.55100 36.91300 32.08600
C  -3.07200 33.11400 31.94700
C  -3.70700 32.64400 33.22900
H  -2.89800 33.06200 34.47200
N  -1.72200 36.75900 27.01800
C  -1.41000 37.48200 28.13600
C  -0.47400 38.51200 27.83800
C  -0.18900 38.31500 26.45100
C  -0.97600 37.25100 25.99100
C  -0.10700 39.51400 28.83900
C  0.65100 39.12900 25.48800
O  0.73200 38.92400 24.25800
C  1.31800 40.38100 26.06600
N  -2.74000 34.87500 24.71100
C  -1.85000 35.69700 24.05400
C  -1.96300 35.43400 22.51400
C  -3.07700 34.34300 22.37600
C  -3.43900 34.15800 23.84300
C  -2.30800 36.78100 21.70900
C  -2.53600 33.05800 21.74500
C  -3.49300 32.32100 20.85700
N  -4.22200 33.42300 26.63200
C  -4.87000 32.85900 25.52900
C  -5.88200 31.85900 25.94200
C  -5.78800 31.89400 27.32900
C  -4.86400 32.87800 27.70700
C  -6.72200 31.07900 25.00900
C  -6.29700 31.34500 28.51600
O  -7.15300 30.50200 28.63700
C  -5.64700 32.05400 29.78000
C  -6.76800 32.69500 30.51800
O  -7.31200 33.72000 30.07100
O  -7.08900 32.16800 31.76000
C  -8.02400 33.03900 32.50100
H  -1.58000 37.68600 30.30000
H  -0.32600 36.96000 23.93900
H  -5.09300 32.76700 23.53500
H  -4.67200 34.70600 31.59500
H  -1.93700 35.69600 31.78800
H  -4.57600 36.58900 32.26500
H  -3.60400 37.89200 31.61000
H  -3.04300 37.12800 33.02600
H  -2.05300 33.47300 32.09200
H  -3.05500 32.22700 31.31300
H  -3.81400 31.56100 33.29600
H  -4.72100 33.03600 33.30500
H  0.97400 39.65100 28.86800
H  -0.35800 39.33800 29.88500
H  -0.65000 40.41600 28.55800
H  0.51500 41.09800 26.23800
H  1.94300 40.78200 25.26800
H  1.92400 40.13600 26.93800
H  -1.01800 34.98400 22.21100
H  -3.96500 34.62500 21.80900
H  -1.76800 36.82500 20.76300
H  -2.06100 37.61400 22.36700
H  -3.38900 36.84200 21.58700
H  -2.27200 32.40400 22.57500
H  -1.61700 33.13500 21.16400
H  -3.08100 31.48300 20.29500
H  -3.89200 33.02800 20.13000
H  -4.33500 31.92800 21.42800
H  -6.07800 30.70100 24.21500
H  -7.49600 31.69300 24.54800
H  -7.24600 30.33100 25.60300
H  -5.25100 31.18800 30.31100
H  -7.91700 32.94100 33.58200
H  -8.99600 32.60000 32.27700
H  -7.93500 34.11300 32.33400

