158

Mg -2.34800 16.60300 25.91700
C  -2.90400 14.60600 28.81800
C  -3.34900 19.38100 27.84500
C  -2.53300 18.50300 23.14700
C  -2.08400 13.77400 24.04900
N  -3.01800 16.92500 28.12800
C  -3.16400 15.97900 29.09200
C  -3.60000 16.62600 30.41200
C  -4.11800 18.04500 29.92000
C  -3.48900 18.13600 28.49100
C  -5.64600 18.10900 29.90600
C  -2.43700 16.74400 31.45400
C  -2.89800 17.17800 32.82600
H  -2.77300 16.00400 33.86700
N  -2.67100 18.64800 25.56300
C  -2.79100 19.66200 26.53600
C  -2.56000 20.93000 25.93400
C  -2.41400 20.69700 24.49800
C  -2.57000 19.22500 24.30400
C  -2.52800 22.24300 26.80000
C  -2.08400 21.66600 23.38500
O  -2.08400 21.44000 22.21400
C  -1.96100 23.10100 23.77700
N  -2.50200 16.17300 23.91300
C  -2.48800 17.12500 22.90000
C  -2.35500 16.50200 21.47800
C  -1.90800 14.98800 21.84500
C  -2.19900 14.93700 23.36100
C  -3.64300 16.65700 20.60400
C  -0.51300 14.55700 21.56000
C  0.57000 15.12200 22.45300
N  -2.38900 14.61600 26.34300
C  -2.24000 13.51200 25.43000
C  -2.35400 12.33900 26.06500
C  -2.54000 12.67000 27.43200
C  -2.55800 14.08600 27.51600
C  -2.14500 10.99400 25.45200
C  -2.69700 12.07500 28.74200
O  -2.53100 10.93200 29.14800
C  -3.05300 13.35800 29.68200
C  -2.11400 13.38600 30.82900
O  -0.96400 13.83700 30.87100
O  -2.61000 12.56900 31.83000
C  -1.91900 12.21400 33.08400
H  -3.74700 20.23200 28.40100
H  -2.34300 18.99500 22.19000
H  -1.98400 12.87400 23.44000
H  -4.38200 16.01600 30.86600
H  -3.69700 18.90300 30.44500
H  -5.90100 18.44800 28.90200
H  -6.04200 18.81800 30.63300
H  -6.12500 17.14100 30.05400
H  -1.71300 17.46000 31.06700
H  -1.96700 15.76200 31.50700
H  -3.94300 17.48200 32.77000
H  -2.31700 18.04900 33.13100
H  -2.59500 22.09700 27.87800
H  -3.43400 22.75700 26.47700
H  -1.66200 22.82200 26.47800
H  -1.90400 23.70300 22.87000
H  -0.99800 23.20700 24.27800
H  -2.75400 23.50600 24.40500
H  -1.55600 16.93300 20.87600
H  -2.61700 14.30700 21.37500
H  -4.27700 15.78500 20.76200
H  -3.39600 16.73800 19.54600
H  -4.14100 17.61500 20.75600
H  -0.41000 14.84600 20.51400
H  -0.54800 13.49500 21.31700
H  0.15600 15.63500 23.32100
H  1.12600 15.85600 21.87000
H  1.21500 14.32600 22.82700
H  -2.06600 10.21800 26.21300
H  -1.21700 10.96200 24.88100
H  -2.94700 10.72500 24.76400
H  -4.03000 13.37200 30.16300
H  -1.13500 12.97000 33.11000
H  -1.41900 11.24800 33.01100
H  -2.67800 12.36800 33.85200
Mg 6.99300 56.31300 41.78300
C  7.09100 52.79500 42.02000
C  10.20000 56.12100 40.65500
C  6.68600 59.57000 40.92300
C  3.66500 56.35100 42.85300
N  8.38300 54.56100 41.15900
C  8.22700 53.22800 41.29600
C  9.39900 52.43500 40.70900
C  10.53700 53.55800 40.65800
C  9.67500 54.84600 40.83100
C  11.67900 53.55400 41.74000
C  8.99300 51.84400 39.34400
C  9.59300 50.52200 38.93000
H  8.88400 49.73300 37.79900
N  8.29400 57.62400 40.98100
C  9.63500 57.42600 40.61000
C  10.18600 58.66500 40.23500
C  9.18900 59.66800 40.26500
C  7.93900 58.96600 40.70400
C  11.58100 58.81800 39.95500
C  9.51500 61.13500 39.90000
O  10.67700 61.49800 39.68400
C  8.36300 62.06600 39.74400
N  5.36200 57.73500 41.80500
C  5.55800 58.98500 41.41800
C  4.29200 59.84600 41.64400
C  3.19700 58.79500 42.13200
C  4.07600 57.52300 42.23900
C  4.38200 61.10200 42.52800
C  1.95200 58.67800 41.19900
C  0.58100 59.01200 41.84700
N  5.66100 54.88700 42.37900
C  4.39300 55.10100 42.98200
C  4.03700 53.80800 43.68200
C  5.02800 52.90100 43.27100
C  5.98300 53.60000 42.51600
C  2.79100 53.63100 44.45800
C  5.55700 51.53200 43.41000
O  5.12200 50.65000 44.15800
C  6.81100 51.36900 42.52600
C  6.42100 50.47400 41.48800
O  5.51900 50.68300 40.72800
O  7.31600 49.42200 41.42700
C  6.98500 48.31600 40.51800
H  11.28900 56.09500 40.57100
H  6.62400 60.65900 40.96100
H  2.72700 56.40500 43.40900
H  9.66500 51.78800 41.54500
H  10.93200 53.50000 39.64400
H  11.88600 52.60300 42.23100
H  11.36200 54.18200 42.57300
H  12.57600 54.03900 41.35600
H  9.31300 52.45700 38.50100
H  7.91300 51.93800 39.22700
H  9.41400 49.87000 39.78500
H  10.65900 50.67400 38.75800
H  12.06900 57.88500 40.23800
H  12.13500 59.56100 40.52900
H  11.72900 58.97700 38.88700
H  7.79300 62.24400 40.65600
H  7.71300 61.61900 38.99200
H  8.64400 62.93700 39.15300
H  4.05700 60.18600 40.63600
H  2.98300 59.07900 43.16300
H  4.63100 62.06100 42.07400
H  5.14400 60.87600 43.27300
H  3.47100 61.19700 43.11900
H  1.87300 57.71400 40.69500
H  2.00000 59.46400 40.44600
H  -0.01300 58.09800 41.85000
H  0.15800 59.76500 41.18200
H  0.70200 59.51300 42.80800
H  2.84300 52.58100 44.74800
H  1.92100 53.88200 43.85100
H  2.71100 54.24300 45.35700
H  7.69900 51.01200 43.04800
H  6.14900 47.68400 40.81800
H  7.89800 47.80600 40.21300
H  6.56100 48.70100 39.59000

