158

Mg 17.23100 -2.09500 27.69100
C  15.86100 0.04800 30.23600
C  18.64400 -3.84300 30.23000
C  18.62900 -3.94800 25.40400
C  15.95000 0.09100 25.36000
N  17.35700 -1.76300 30.01900
C  16.66900 -0.89000 30.78100
C  16.87900 -1.15800 32.27800
C  17.87600 -2.32500 32.24100
C  18.06600 -2.63200 30.73000
C  19.27900 -2.08000 32.86200
C  15.54300 -1.53800 32.94300
C  15.22100 -0.80500 34.28900
H  16.36000 -0.25200 35.03500
N  18.41100 -3.70100 27.78400
C  18.86400 -4.31200 28.93100
C  19.54000 -5.50800 28.54800
C  19.54600 -5.56400 27.10500
C  18.90300 -4.31700 26.69800
C  20.04100 -6.50700 29.63200
C  20.27800 -6.48300 26.17500
O  20.49800 -6.27100 25.00600
C  20.88000 -7.75200 26.68100
N  17.36800 -1.87200 25.69100
C  17.93600 -2.79700 24.93700
C  17.65600 -2.51200 23.40100
C  16.67100 -1.19700 23.40600
C  16.61100 -1.00500 24.94100
C  18.91000 -2.27800 22.52500
C  15.15500 -1.50900 22.84800
C  14.41900 -0.33700 22.16500
N  16.18500 -0.27200 27.72300
C  15.71700 0.45400 26.68900
C  14.82200 1.49700 27.14500
C  14.83400 1.37100 28.56600
C  15.69900 0.30900 28.85000
C  14.07300 2.49400 26.31000
C  14.34900 1.94800 29.79200
O  13.52200 2.85400 30.01700
C  15.07400 1.11000 30.88900
C  15.83700 2.11400 31.73900
O  17.04000 2.33500 31.72000
O  15.00000 2.67600 32.60000
C  15.62500 3.80500 33.34000
H  18.79100 -4.41700 31.14700
H  18.90400 -4.67000 24.63300
H  15.51600 0.77000 24.62300
H  17.32500 -0.23100 32.63800
H  17.48400 -3.20800 32.74500
H  19.52100 -2.65800 33.75400
H  19.33300 -1.02800 33.14100
H  20.09500 -2.29500 32.17200
H  15.52300 -2.57100 33.29100
H  14.73700 -1.40900 32.22100
H  14.87600 -1.55400 35.00100
H  14.38700 -0.10500 34.23200
H  21.13000 -6.49200 29.60500
H  19.78200 -7.54200 29.41200
H  19.64900 -6.31400 30.63000
H  20.14600 -8.37300 27.19600
H  21.68000 -7.38000 27.32100
H  21.35900 -8.33000 25.89100
H  17.10400 -3.35500 22.98500
H  17.12800 -0.32200 22.94400
H  19.76800 -2.60300 23.11300
H  18.99700 -1.27200 22.11300
H  18.81300 -2.86300 21.61000
H  14.50400 -1.93800 23.60900
H  15.29500 -2.27200 22.08200
H  14.31400 -0.41600 21.08300
H  14.88700 0.63000 22.34800
H  13.42400 -0.20700 22.58900
H  13.58800 3.28200 26.88600
H  13.26100 1.97100 25.80400
H  14.77300 3.01700 25.65800
H  14.14300 0.77000 31.34100
H  14.97600 4.50900 33.86100
H  16.08600 4.48600 32.62400
H  16.33500 3.36400 34.04000
Mg 36.13500 48.85900 24.10200
C  36.44900 47.30100 27.30800
C  34.61900 51.55300 25.71200
C  35.87200 50.18800 21.15700
C  37.64200 46.06800 22.68700
N  35.56600 49.31100 26.35400
C  35.88200 48.56000 27.44700
C  35.45200 49.30000 28.74400
C  34.95000 50.73600 28.17800
C  34.98600 50.52600 26.62000
C  33.47600 51.14200 28.69600
C  36.70900 49.37200 29.74500
C  36.34300 49.20100 31.26900
H  34.90000 49.11100 31.73000
N  35.25400 50.59500 23.51700
C  34.74500 51.59900 24.24200
C  34.40300 52.70300 23.40200
C  34.79600 52.39500 22.06200
C  35.31900 50.98600 22.14600
C  33.87300 53.93500 23.92400
C  34.82200 53.18800 20.74900
O  34.95900 52.62600 19.64600
C  34.60100 54.69600 20.79800
N  36.51000 48.16200 22.18500
C  36.39400 48.95900 21.14600
C  36.80300 48.30400 19.86100
C  37.46900 47.00600 20.36100
C  37.24900 47.09800 21.82300
C  35.57900 48.07700 18.90500
C  38.91500 46.91700 20.08900
C  39.84000 47.93000 20.79500
N  36.89100 47.00300 24.78400
C  37.41300 45.94900 24.07800
C  37.74300 44.86000 24.97100
C  37.34600 45.34200 26.22900
C  36.95100 46.69600 26.10400
C  38.26300 43.51400 24.63700
C  37.14000 44.99500 27.62500
O  37.31400 43.89800 28.19500
C  36.64500 46.25200 28.40100
C  35.42200 46.00300 29.29500
O  34.25400 45.84400 28.90000
O  35.84300 45.96100 30.58800
C  34.96700 45.21200 31.54900
H  34.30400 52.47900 26.19700
H  35.84800 50.55900 20.13000
H  38.25300 45.27700 22.24700
H  34.58100 48.78300 29.14800
H  35.71600 51.48700 28.37000
H  33.46800 52.15600 29.09700
H  33.15800 50.44800 29.47400
H  32.75200 51.11700 27.88200
H  37.05500 50.40200 29.65800
H  37.47600 48.67500 29.40700
H  36.62900 50.15200 31.71800
H  36.91300 48.51400 31.89500
H  34.20000 54.78700 23.32900
H  34.28600 54.07900 24.92300
H  32.78400 53.89800 23.89300
H  34.75200 55.01300 19.76600
H  35.38900 55.16000 21.39100
H  33.58100 54.88600 21.13300
H  37.50600 49.03400 19.46100
H  36.96000 46.10100 20.02900
H  34.72500 48.02900 19.58100
H  35.63400 47.16700 18.30700
H  35.47900 48.84100 18.13400
H  39.00700 46.91900 19.00300
H  39.16300 45.89000 20.35600
H  39.21700 48.62700 21.35500
H  40.51200 48.43600 20.10200
H  40.41000 47.43700 21.58200
H  39.33200 43.62400 24.45900
H  37.64200 43.06700 23.86000
H  38.02200 42.94100 25.53300
H  37.43100 46.53800 29.09900
H  34.36700 45.84800 32.19900
H  35.49200 44.52200 32.21000
H  34.25900 44.59300 31.00000

