158

Mg 24.45900 -7.57800 46.11500
C  26.63500 -5.12700 44.66500
C  21.95100 -6.27400 44.24500
C  22.76300 -10.36600 46.68000
C  27.42300 -9.02400 47.45400
N  24.38600 -5.88600 44.61200
C  25.36200 -5.01700 44.22400
C  24.82600 -4.06200 43.12400
C  23.24800 -4.34100 43.27600
C  23.13000 -5.51500 44.18900
C  22.49400 -3.08800 43.84500
C  25.46300 -4.24800 41.72900
C  26.04500 -3.01800 40.95900
H  25.57800 -2.98800 39.43900
N  22.54500 -8.19300 45.67800
C  21.66200 -7.48200 44.83100
C  20.46700 -8.26000 44.77000
C  20.61900 -9.44500 45.50500
C  22.00400 -9.35800 45.96500
C  19.27600 -7.85800 43.91500
C  19.49600 -10.47400 45.77900
O  18.33800 -10.35300 45.33400
C  19.77600 -11.64900 46.67800
N  24.96900 -9.40200 47.08500
C  24.07100 -10.43700 47.08300
C  24.73500 -11.70600 47.59100
C  26.24000 -11.30800 47.90800
C  26.28700 -9.76500 47.56300
C  24.04900 -12.34900 48.84200
C  27.33700 -12.12100 47.07000
C  28.61700 -12.44600 47.81700
N  26.57300 -7.03000 46.36400
C  27.62400 -7.77700 46.82900
C  28.84900 -7.01400 46.72200
C  28.52200 -5.91500 45.93300
C  27.15400 -6.04300 45.62100
C  30.15300 -7.45000 47.27700
C  28.98200 -4.74200 45.24500
O  30.07300 -4.14200 45.19200
C  27.75500 -4.19700 44.34900
C  27.41400 -2.71300 44.54700
O  27.41500 -1.86300 43.69100
O  27.15200 -2.46100 45.88200
C  26.63300 -1.14200 46.16100
H  21.15300 -5.78500 43.68300
H  22.30500 -11.35600 46.73900
H  28.27700 -9.54600 47.89000
H  25.06000 -3.05000 43.45300
H  22.78300 -4.58500 42.32100
H  21.77000 -3.50400 44.54600
H  21.91300 -2.67600 43.02000
H  23.15500 -2.35700 44.30900
H  24.79800 -4.87800 41.13800
H  26.30500 -4.91400 41.91900
H  27.12600 -3.03100 41.09600
H  25.71500 -2.09500 41.43500
H  18.39400 -8.06900 44.52000
H  19.23800 -8.55700 43.08000
H  19.38500 -6.84700 43.52400
H  20.37300 -11.37700 47.54800
H  20.35500 -12.42500 46.17800
H  18.79500 -11.99600 47.00100
H  24.70200 -12.39600 46.74800
H  26.53700 -11.46300 48.94500
H  22.98600 -12.11200 48.88800
H  24.43600 -11.88100 49.74800
H  24.34800 -13.39400 48.76800
H  27.68400 -11.54300 46.21300
H  26.88200 -13.00500 46.62200
H  29.38700 -11.79600 47.40100
H  28.97000 -13.46500 47.66200
H  28.36700 -12.23500 48.85700
H  30.67300 -8.18600 46.66300
H  29.95700 -7.86000 48.26800
H  30.81200 -6.59000 47.40200
H  27.89500 -4.20000 43.26800
H  25.81800 -0.87400 45.48800
H  27.38800 -0.36300 46.05500
H  26.25000 -1.22000 47.17800
Mg 47.14600 35.19100 28.51700
C  45.40100 33.37400 31.19600
C  47.46200 37.82300 30.68000
C  48.17800 36.92300 25.92300
C  46.82800 32.31700 26.51800
N  46.57100 35.47500 30.69200
C  45.97800 34.64000 31.55100
C  46.04100 35.20800 32.97700
C  46.17700 36.73600 32.69400
C  46.79000 36.71300 31.23600
C  44.94100 37.55500 32.96000
C  47.25300 34.62300 33.76900
C  47.06800 34.34700 35.35000
H  46.23800 35.35600 36.19000
N  47.83900 37.06800 28.28600
C  47.97500 38.01700 29.34900
C  48.57300 39.22300 28.81400
C  48.82400 39.03500 27.44800
C  48.33100 37.57800 27.13500
C  48.48400 40.50800 29.58000
C  49.35400 40.02200 26.47200
O  49.38200 39.74900 25.27100
C  49.83900 41.37400 26.85600
N  47.34300 34.71700 26.46100
C  47.85800 35.61600 25.65400
C  48.14900 34.99200 24.28000
C  47.73300 33.49200 24.39600
C  47.40100 33.41900 25.94700
C  47.48700 35.62100 23.02000
C  48.85000 32.46200 24.00400
C  48.27000 31.21800 23.20700
N  46.32200 33.21500 28.77800
C  46.25400 32.16600 27.83700
C  45.49000 31.06500 28.41700
C  45.08900 31.53700 29.64100
C  45.64400 32.79200 29.87800
C  45.07700 29.78000 27.83200
C  44.37200 31.14600 30.83700
O  43.81700 30.06900 31.01100
C  44.40700 32.40700 31.84800
C  44.93200 31.84800 33.07500
O  46.11600 31.71000 33.46100
O  43.82100 31.53700 33.79800
C  44.11900 30.81500 35.08200
H  47.42100 38.75100 31.25500
H  48.55700 37.50500 25.08000
H  46.61500 31.49000 25.83700
H  45.10700 34.81900 33.38500
H  46.94200 37.09000 33.38500
H  44.75300 38.14500 32.06300
H  44.96600 38.18800 33.84700
H  44.06300 36.91300 33.02100
H  48.06900 35.34300 33.71200
H  47.66000 33.76400 33.23600
H  47.97900 34.14300 35.91200
H  46.57600 33.39500 35.54900
H  47.84400 41.22300 29.06300
H  49.49500 40.91400 29.53000
H  48.21500 40.60600 30.63100
H  49.05300 42.12400 26.76700
H  50.51600 41.47900 26.00800
H  50.46600 41.40800 27.74800
H  49.22100 35.01800 24.08900
H  46.73700 33.27600 24.00800
H  46.76000 34.93400 22.58600
H  48.28200 35.88500 22.32200
H  46.88200 36.49200 23.27200
H  49.41600 32.09700 24.86100
H  49.54100 32.94800 23.31500
H  47.21300 31.18300 23.47300
H  48.76900 30.30500 23.53100
H  48.26800 31.43200 22.13800
H  45.96700 29.17000 27.67500
H  44.57000 29.94100 26.88100
H  44.47600 29.19100 28.52500
H  43.44000 32.89100 31.98000
H  44.87300 30.02900 35.07500
H  43.22300 30.24600 35.33100
H  44.48300 31.48800 35.85900

