158

Mg 5.70500 52.41400 41.89900
C  5.00800 48.99300 41.82800
C  8.62600 51.84300 40.20400
C  6.02500 55.65700 41.53400
C  2.31300 52.93300 42.95200
N  6.64400 50.62100 40.92600
C  6.26700 49.35000 41.20600
C  7.30700 48.38500 40.54400
C  8.63500 49.33500 40.70000
C  7.93900 50.68300 40.54300
C  9.42500 49.21900 42.01400
C  7.06300 47.96100 38.98800
C  6.03000 48.75100 38.25000
H  5.67700 48.24700 36.89200
N  7.25100 53.61000 41.12800
C  8.36200 53.17200 40.50700
C  9.20900 54.28400 40.21000
C  8.45000 55.48500 40.58200
C  7.20400 54.94900 41.07400
C  10.50100 54.18200 39.41400
C  8.94600 56.92200 40.49500
O  10.10700 57.15900 40.13800
C  8.06000 58.11100 40.85900
N  4.24700 54.09200 41.99300
C  4.77500 55.35700 41.95900
C  3.81600 56.35900 42.57800
C  2.55800 55.49000 42.90500
C  2.99100 54.09400 42.50800
C  4.40000 57.11700 43.80700
C  1.28300 55.95500 42.16400
C  0.08300 56.32000 43.04300
N  3.94000 51.23600 42.43900
C  2.68000 51.57900 42.94700
C  2.07100 50.32300 43.42300
C  2.93400 49.24900 42.96100
C  4.07600 49.89800 42.32300
C  0.79400 50.16000 44.12800
C  3.08100 47.87200 42.81800
O  2.33400 46.98200 43.17500
C  4.42400 47.61200 42.09300
C  4.09600 46.73300 40.88600
O  3.37500 47.05400 39.94000
O  4.67500 45.47100 40.99700
C  4.62300 44.68100 39.80200
H  9.62900 51.60700 39.84200
H  6.25100 56.72300 41.45500
H  1.41800 53.21500 43.51000
H  7.57800 47.51400 41.14100
H  9.32300 49.13400 39.87900
H  8.99200 48.37700 42.55400
H  9.36800 50.21700 42.45000
H  10.50000 49.11400 41.87000
H  7.00500 46.87300 38.95200
H  7.97400 48.09600 38.40400
H  6.26800 49.81300 38.19200
H  5.10000 48.64300 38.80900
H  10.17200 53.83000 38.43600
H  11.13900 53.38600 39.79900
H  11.05800 55.10200 39.23500
H  8.47800 59.11000 40.73500
H  7.77500 57.98300 41.90400
H  7.10800 58.22200 40.34100
H  3.69500 57.12300 41.81000
H  2.34800 55.59700 43.96900
H  5.41400 56.87000 44.12200
H  3.72800 57.02100 44.65900
H  4.51200 58.17400 43.56500
H  0.99800 55.17100 41.46300
H  1.55100 56.88900 41.67100
H  0.43400 56.74800 43.98300
H  -0.55700 55.44300 43.13200
H  -0.60300 57.02000 42.56700
H  0.74300 49.13500 44.49700
H  -0.10200 50.30200 43.52400
H  1.01500 50.79900 44.98300
H  5.14400 47.15100 42.76900
H  5.68600 44.54300 39.60500
H  4.20500 45.06400 38.87100
H  4.18800 43.70500 40.01700
Mg -5.71400 25.21000 26.00000
C  -4.45700 26.44100 28.91900
C  -7.79900 23.13300 27.83900
C  -6.73700 23.63600 23.18100
C  -3.28700 27.06100 24.13000
N  -5.98100 24.81800 28.11400
C  -5.48400 25.53900 29.12400
C  -6.06100 25.20000 30.51300
C  -6.95900 23.90100 30.16200
C  -6.85700 23.89100 28.63100
C  -6.45400 22.48300 30.77200
C  -6.89500 26.42400 30.98900
C  -6.66800 26.76400 32.42200
H  -6.05000 25.64900 33.26700
N  -7.18800 23.70900 25.56700
C  -8.02200 23.05700 26.44000
C  -8.94800 22.18200 25.76500
C  -8.53900 22.23300 24.41100
C  -7.46000 23.27200 24.32500
C  -10.07600 21.39900 26.38000
C  -9.02000 21.38900 23.22800
O  -8.52000 21.44800 22.09900
C  -10.14000 20.44700 23.39500
N  -5.16900 25.37600 23.94700
C  -5.70100 24.57000 22.99200
C  -5.08200 24.83700 21.62500
C  -4.22000 26.14600 21.89200
C  -4.19100 26.20000 23.43900
C  -4.28400 23.62200 21.09000
C  -4.73400 27.46200 21.22500
C  -3.61800 28.40200 20.62700
N  -4.13300 26.43700 26.41300
C  -3.21500 27.11100 25.56800
C  -2.34100 27.86800 26.40800
C  -2.77800 27.70000 27.76000
C  -3.88700 26.84700 27.70200
C  -1.19100 28.66000 25.91900
C  -2.48500 27.96500 29.16500
O  -1.54000 28.58600 29.61200
C  -3.62800 27.17100 30.00700
C  -2.85200 26.28600 30.93700
O  -2.57900 25.11400 30.83400
O  -2.58300 27.08200 32.11800
C  -1.84500 26.43000 33.20500
H  -8.50600 22.50200 28.38100
H  -7.04900 23.15100 22.25400
H  -2.61800 27.63500 23.48500
H  -5.21300 24.94500 31.14900
H  -8.02700 24.01100 30.34900
H  -5.43600 22.57900 31.14900
H  -6.54100 21.71400 30.00400
H  -7.15100 22.28700 31.58700
H  -7.95800 26.26800 30.80100
H  -6.60100 27.29600 30.40500
H  -7.61900 27.00900 32.89600
H  -6.01800 27.64000 32.42500
H  -10.31000 21.56800 27.43100
H  -9.75700 20.35700 26.37400
H  -10.98900 21.48200 25.79100
H  -10.41500 20.09700 22.40000
H  -11.02100 20.94000 23.80700
H  -9.94300 19.65500 24.11700
H  -5.96900 25.07500 21.03800
H  -3.19900 25.83300 21.66900
H  -3.31200 23.88000 20.67100
H  -4.80700 23.13300 20.26800
H  -4.11200 22.89400 21.88200
H  -5.31100 28.06300 21.92700
H  -5.44500 27.25400 20.42500
H  -3.80500 29.38800 21.05200
H  -3.75000 28.45900 19.54700
H  -2.58200 28.15100 20.85600
H  -1.50400 29.57900 25.42300
H  -0.41000 28.11200 25.39000
H  -0.68500 29.04300 26.80500
H  -4.28900 27.76600 30.63700
H  -1.60500 25.37500 33.07300
H  -2.48800 26.56400 34.07500
H  -0.93700 26.97900 33.45600

