158

Mg 16.93600 -1.53700 28.11500
C  15.86600 0.80000 30.62100
C  18.47500 -3.28300 30.57700
C  18.12900 -3.53200 25.78200
C  15.60600 0.69000 25.72700
N  17.23200 -1.21400 30.31600
C  16.60600 -0.22300 31.10200
C  16.93100 -0.49500 32.56200
C  17.93200 -1.73800 32.52600
C  17.92600 -2.10300 31.03200
C  19.37200 -1.33500 32.96600
C  15.72700 -0.87700 33.45400
C  15.67700 -0.36800 34.98500
H  16.95800 0.21500 35.59800
N  18.12600 -3.16000 28.16200
C  18.65100 -3.81600 29.27400
C  19.29000 -5.04500 28.90000
C  19.24300 -5.08200 27.50400
C  18.48200 -3.90500 27.10400
C  19.97000 -6.03900 29.81700
C  19.97200 -6.04400 26.60200
O  19.98700 -5.94000 25.39800
C  20.78000 -7.21000 27.12800
N  16.93300 -1.38400 26.17200
C  17.46300 -2.33800 25.37500
C  17.48500 -2.05200 23.82200
C  16.60900 -0.73700 23.86200
C  16.26800 -0.45200 25.34900
C  18.82800 -1.76200 23.23100
C  15.32100 -0.82400 23.08800
C  15.08900 0.31800 22.01400
N  15.85600 0.32500 28.13200
C  15.43700 1.06100 27.09100
C  14.67100 2.20300 27.59300
C  14.79900 2.19300 28.98600
C  15.48000 0.96100 29.22200
C  13.90700 3.16400 26.79100
C  14.44300 2.83800 30.29700
O  13.90600 3.88600 30.53100
C  15.23400 1.99600 31.34200
C  16.16700 2.85100 31.99700
O  17.25700 3.06100 31.52800
O  15.64000 3.37100 33.18700
C  16.58500 4.29600 33.80400
H  18.91300 -3.89200 31.37100
H  18.45800 -4.22900 25.00800
H  15.15600 1.34100 24.97400
H  17.46200 0.42400 32.81200
H  17.67000 -2.59400 33.14900
H  19.79300 -2.17700 33.51500
H  19.40300 -0.45800 33.61300
H  20.03500 -1.07400 32.14200
H  15.62400 -1.95800 33.36800
H  14.80900 -0.44900 33.05000
H  15.43700 -1.19700 35.65000
H  14.88700 0.35800 35.18000
H  19.46300 -6.99700 29.70200
H  19.63400 -5.75100 30.81400
H  21.03900 -6.19400 29.67000
H  21.32000 -7.72800 26.33600
H  20.09900 -7.94300 27.56100
H  21.61800 -6.85500 27.72800
H  17.04000 -2.91700 23.33100
H  17.23000 0.14800 23.72000
H  18.77700 -0.83800 22.65500
H  19.18100 -2.58200 22.60500
H  19.62400 -1.63300 23.96500
H  14.46600 -0.51700 23.69100
H  15.17900 -1.78100 22.58600
H  14.37700 1.09700 22.29000
H  14.72300 -0.09000 21.07300
H  16.06600 0.75100 21.80200
H  13.34100 3.86800 27.40000
H  13.26600 2.48400 26.23000
H  14.54200 3.79900 26.17200
H  14.64000 1.69900 32.20700
H  17.60100 3.98300 33.56300
H  16.33700 4.31300 34.86600
H  16.57600 5.31200 33.41000
Mg -2.40400 34.22200 27.74500
C  -4.20300 32.37600 30.02300
C  -0.86100 35.84500 30.38500
C  -0.90500 36.12300 25.45800
C  -4.29400 32.74800 25.14500
N  -2.61700 34.21500 29.94200
C  -3.34500 33.32300 30.63800
C  -2.96900 33.24700 32.10200
C  -2.01700 34.47500 32.20800
C  -1.84900 34.92700 30.72800
C  -2.49000 35.63900 33.06600
C  -2.36200 31.89100 32.68800
C  -3.08400 31.13900 33.91800
H  -2.32100 31.18300 35.27600
N  -1.09200 35.73200 27.87500
C  -0.53600 36.28500 29.06300
C  0.36600 37.36700 28.70800
C  0.37600 37.40200 27.30400
C  -0.56300 36.40500 26.79900
C  1.13300 38.13900 29.80400
C  1.27900 38.26000 26.43000
O  1.26200 38.12500 25.23600
C  2.23000 39.08400 27.04500
N  -2.74500 34.44100 25.67300
C  -1.98000 35.35200 24.95200
C  -2.28400 35.31500 23.45000
C  -3.30500 34.14100 23.33600
C  -3.45800 33.75600 24.80300
C  -2.88200 36.67600 22.96200
C  -2.90000 32.96200 22.37900
C  -1.98400 31.86300 22.84600
N  -3.92300 32.85000 27.61900
C  -4.52700 32.26600 26.48800
C  -5.39100 31.14000 26.94300
C  -5.34100 31.16100 28.35700
C  -4.45200 32.31900 28.66600
C  -6.22300 30.19800 26.04900
C  -5.66900 30.55300 29.62400
O  -6.33600 29.53200 29.92300
C  -5.04500 31.34400 30.72000
C  -6.09200 31.83800 31.66300
O  -6.81600 32.75600 31.49200
O  -6.19000 30.98800 32.79000
C  -7.21600 31.36300 33.72400
H  -0.41400 36.37800 31.22700
H  -0.53600 36.74700 24.64100
H  -4.78000 32.18200 24.34700
H  -3.94500 33.47300 32.53300
H  -1.05000 34.11100 32.55700
H  -1.74100 36.30300 33.49800
H  -3.02200 35.18700 33.90200
H  -3.15500 36.26100 32.46700
H  -1.36300 32.16800 33.02400
H  -2.25500 31.09900 31.94700
H  -3.17500 30.11100 33.56900
H  -4.04300 31.61500 34.12400
H  2.16100 37.78600 29.72800
H  0.80800 38.05500 30.84100
H  0.99300 39.16800 29.47200
H  2.74000 38.57600 27.86400
H  1.86400 40.01500 27.47900
H  3.04000 39.14200 26.31800
H  -1.38800 35.14400 22.85400
H  -4.26400 34.50500 22.96700
H  -2.59600 37.49800 23.61800
H  -3.97100 36.64400 23.01100
H  -2.51400 36.90500 21.96200
H  -2.39100 33.47300 21.56200
H  -3.77600 32.53000 21.89600
H  -1.14400 31.60700 22.19900
H  -2.53000 30.92100 22.88100
H  -1.53100 32.05900 23.81700
H  -5.74700 30.00500 25.08700
H  -7.22700 30.52000 25.77300
H  -6.31200 29.24100 26.56300
H  -4.44800 30.71700 31.38200
H  -8.01500 31.88300 33.19700
H  -6.79800 31.91600 34.56600
H  -7.68500 30.50900 34.21300

