158

Mg 35.00300 2.08300 29.98200
C  32.51900 3.45300 32.11100
C  37.18800 2.25600 32.57900
C  37.51800 1.33800 27.80700
C  32.85500 2.61500 27.41900
N  34.81900 2.88200 32.11000
C  33.69500 3.15900 32.84900
C  33.91000 3.18500 34.37400
C  35.42100 3.06500 34.42100
C  35.89200 2.76700 32.97900
C  36.22600 4.15700 35.18900
C  33.01800 2.07600 35.03600
C  32.72400 2.25400 36.57900
H  33.45500 3.28600 37.45600
N  37.02800 1.73800 30.18700
C  37.71300 1.77700 31.36200
C  39.06000 1.39000 31.11600
C  39.27900 1.24500 29.77700
C  37.89700 1.33400 29.18600
C  40.02100 1.26500 32.25400
C  40.56200 0.85400 29.02800
O  40.56400 0.71200 27.78000
C  41.95500 0.68200 29.78100
N  35.19300 2.03400 27.95900
C  36.28500 1.66200 27.26500
C  36.07900 1.70900 25.71500
C  34.50600 1.77400 25.62100
C  34.17000 2.15700 27.09700
C  36.83200 2.80500 24.92700
C  33.71000 0.49900 25.26000
C  32.53000 0.86300 24.30200
N  33.09500 2.76200 29.75400
C  32.29400 2.88900 28.65500
C  31.03700 3.48500 28.94300
C  31.08300 3.81600 30.31900
C  32.34200 3.28400 30.76100
C  29.84200 3.67800 28.01800
C  30.33600 4.31500 31.48000
O  29.18000 4.78200 31.45800
C  31.22200 4.00800 32.72100
C  31.36900 5.26100 33.44100
O  31.76300 6.34100 32.90000
O  31.09500 5.11000 34.81100
C  31.57600 6.35800 35.49500
H  37.85800 2.19500 33.44000
H  38.27000 1.12600 27.04400
H  32.13700 2.65300 26.59600
H  33.58600 4.11200 34.84600
H  35.65900 2.13600 34.94000
H  36.97200 3.67200 35.81800
H  35.59400 4.83200 35.76600
H  36.85700 4.75800 34.53400
H  33.55300 1.13000 34.94200
H  32.02800 2.01000 34.58700
H  32.85000 1.27600 37.04400
H  31.68000 2.53500 36.72000
H  40.46500 0.27400 32.16500
H  39.55000 1.24800 33.23700
H  40.77700 2.05000 32.28700
H  42.78500 1.08000 29.19700
H  42.13000 -0.34200 30.11100
H  42.11600 1.26300 30.68900
H  36.52900 0.76600 25.40200
H  34.17200 2.60700 25.00100
H  37.25000 2.40800 24.00100
H  37.59600 3.17100 25.61200
H  36.12500 3.60100 24.69400
H  33.24800 0.13900 26.18000
H  34.35400 -0.24100 24.78500
H  32.54600 0.23600 23.41000
H  32.63400 1.86200 23.87700
H  31.55200 0.79500 24.77900
H  29.21000 4.56400 28.07500
H  29.17700 2.82900 28.17400
H  30.24900 3.59300 27.01000
H  30.66700 3.32200 33.36000
H  31.40400 7.36800 35.12500
H  32.66500 6.38300 35.55200
H  31.29500 6.27700 36.54500
Mg 6.75100 54.54400 41.39900
C  6.12900 50.98900 41.12500
C  9.79900 53.93500 40.04500
C  6.73800 57.73400 40.67000
C  3.46900 54.76900 42.68300
N  7.71100 52.66600 40.55700
C  7.39600 51.33300 40.63700
C  8.46600 50.39800 40.11300
C  9.71500 51.31300 40.26200
C  9.06900 52.70900 40.32000
C  10.63600 50.93800 41.44200
C  8.22400 49.82200 38.63300
C  7.54900 50.62700 37.55000
H  6.56500 49.82000 36.62300
N  8.08800 55.72000 40.46000
C  9.39900 55.31000 40.10400
C  10.09400 56.46700 39.65800
C  9.19500 57.57800 39.57800
C  7.90900 57.11400 40.22300
C  11.49400 56.47100 39.23000
C  9.42600 58.94500 39.06100
O  10.51800 59.27700 38.56700
C  8.44600 60.01100 39.13700
N  5.21400 56.02100 41.40900
C  5.56300 57.36600 41.23600
C  4.40800 58.31400 41.63900
C  3.48900 57.35800 42.45200
C  4.11400 55.97900 42.23100
C  4.75900 59.55600 42.44800
C  1.97000 57.48600 42.06800
C  1.14100 58.55100 42.86000
N  5.04900 53.20000 41.90300
C  3.84500 53.43600 42.51100
C  3.11000 52.23100 42.60800
C  3.95400 51.25900 42.12300
C  5.14900 51.86400 41.72300
C  1.75000 52.04500 43.11600
C  4.16000 49.87300 41.88900
O  3.38000 48.96200 42.06500
C  5.59100 49.63100 41.29900
C  5.46400 48.93200 40.02300
O  4.90200 49.38300 39.04500
O  6.04400 47.66500 40.12900
C  5.55800 46.68800 39.17000
H  10.79900 53.89400 39.60600
H  6.60000 58.79700 40.46200
H  2.48700 54.89400 43.14400
H  8.57800 49.47600 40.68300
H  10.36400 51.35200 39.38800
H  11.59900 50.79100 40.95200
H  10.39700 49.96800 41.87900
H  10.57600 51.55600 42.33800
H  7.74000 48.84700 38.68700
H  9.21600 49.54700 38.27400
H  8.26000 51.04400 36.83700
H  7.03500 51.51400 37.91900
H  11.55200 56.35600 38.14700
H  11.95000 55.62200 39.74000
H  11.93700 57.35700 39.68400
H  8.79800 60.87200 38.56800
H  8.41800 60.35300 40.17200
H  7.46600 59.75700 38.73500
H  4.00900 58.57800 40.65900
H  3.73500 57.46000 43.51000
H  5.60300 59.42200 43.12500
H  3.94500 59.96500 43.04700
H  5.11600 60.31200 41.75000
H  1.43400 56.54300 42.17500
H  1.80500 57.69800 41.01100
H  1.77800 59.14400 43.51600
H  0.31100 58.07100 43.37700
H  0.65900 59.25700 42.18300
H  1.14300 52.93200 42.93400
H  1.75000 51.89300 44.19600
H  1.32100 51.15700 42.65300
H  6.16800 48.95000 41.92400
H  5.85200 47.02000 38.17400
H  4.48400 46.84300 39.06700
H  5.77400 45.63600 39.35300

