158

Mg 16.93600 -1.53700 28.11500
C  15.86600 0.80000 30.62100
C  18.47500 -3.28300 30.57700
C  18.12900 -3.53200 25.78200
C  15.60600 0.69000 25.72700
N  17.23200 -1.21400 30.31600
C  16.60600 -0.22300 31.10200
C  16.93100 -0.49500 32.56200
C  17.93200 -1.73800 32.52600
C  17.92600 -2.10300 31.03200
C  19.37200 -1.33500 32.96600
C  15.72700 -0.87700 33.45400
C  15.67700 -0.36800 34.98500
H  16.95800 0.21500 35.59800
N  18.12600 -3.16000 28.16200
C  18.65100 -3.81600 29.27400
C  19.29000 -5.04500 28.90000
C  19.24300 -5.08200 27.50400
C  18.48200 -3.90500 27.10400
C  19.97000 -6.03900 29.81700
C  19.97200 -6.04400 26.60200
O  19.98700 -5.94000 25.39800
C  20.78000 -7.21000 27.12800
N  16.93300 -1.38400 26.17200
C  17.46300 -2.33800 25.37500
C  17.48500 -2.05200 23.82200
C  16.60900 -0.73700 23.86200
C  16.26800 -0.45200 25.34900
C  18.82800 -1.76200 23.23100
C  15.32100 -0.82400 23.08800
C  15.08900 0.31800 22.01400
N  15.85600 0.32500 28.13200
C  15.43700 1.06100 27.09100
C  14.67100 2.20300 27.59300
C  14.79900 2.19300 28.98600
C  15.48000 0.96100 29.22200
C  13.90700 3.16400 26.79100
C  14.44300 2.83800 30.29700
O  13.90600 3.88600 30.53100
C  15.23400 1.99600 31.34200
C  16.16700 2.85100 31.99700
O  17.25700 3.06100 31.52800
O  15.64000 3.37100 33.18700
C  16.58500 4.29600 33.80400
H  18.91300 -3.89200 31.37100
H  18.45800 -4.22900 25.00800
H  15.15600 1.34100 24.97400
H  17.46200 0.42400 32.81200
H  17.67000 -2.59400 33.14900
H  19.79300 -2.17700 33.51500
H  19.40300 -0.45800 33.61300
H  20.03500 -1.07400 32.14200
H  15.62400 -1.95800 33.36800
H  14.80900 -0.44900 33.05000
H  15.43700 -1.19700 35.65000
H  14.88700 0.35800 35.18000
H  19.46300 -6.99700 29.70200
H  19.63400 -5.75100 30.81400
H  21.03900 -6.19400 29.67000
H  21.32000 -7.72800 26.33600
H  20.09900 -7.94300 27.56100
H  21.61800 -6.85500 27.72800
H  17.04000 -2.91700 23.33100
H  17.23000 0.14800 23.72000
H  18.77700 -0.83800 22.65500
H  19.18100 -2.58200 22.60500
H  19.62400 -1.63300 23.96500
H  14.46600 -0.51700 23.69100
H  15.17900 -1.78100 22.58600
H  14.37700 1.09700 22.29000
H  14.72300 -0.09000 21.07300
H  16.06600 0.75100 21.80200
H  13.34100 3.86800 27.40000
H  13.26600 2.48400 26.23000
H  14.54200 3.79900 26.17200
H  14.64000 1.69900 32.20700
H  17.60100 3.98300 33.56300
H  16.33700 4.31300 34.86600
H  16.57600 5.31200 33.41000
Mg 41.55100 9.45800 29.69400
C  43.27300 10.87700 32.39100
C  39.09300 8.53200 31.85900
C  40.07400 8.10100 27.08000
C  44.33900 10.16000 27.65300
N  41.32700 9.61800 31.91900
C  42.08200 10.26400 32.81700
C  41.42600 10.34300 34.14800
C  40.32600 9.25000 34.08200
C  40.21100 9.09400 32.51700
C  40.59300 7.91300 34.87700
C  40.83800 11.73200 34.59000
C  40.21100 11.83900 36.05000
H  40.85800 12.68100 37.20800
N  39.77700 8.46600 29.50100
C  38.81500 8.29400 30.44300
C  37.54000 7.82900 29.87200
C  37.92900 7.51600 28.54100
C  39.25300 8.07900 28.32900
C  36.28200 7.53400 30.68900
C  37.05200 6.95100 27.42600
O  37.40900 6.88800 26.23300
C  35.60900 6.60900 27.71700
N  42.24700 8.92100 27.57700
C  41.39500 8.38800 26.75500
C  41.92500 8.61100 25.28300
C  43.27600 9.30100 25.50500
C  43.25000 9.51300 27.05600
C  42.05500 7.30200 24.42800
C  43.48700 10.67800 24.78600
C  42.65000 11.96700 25.18000
N  43.42500 10.31600 29.93800
C  44.41200 10.56100 28.99600
C  45.55200 11.23500 29.65700
C  45.10100 11.46500 30.95500
C  43.76500 10.86300 31.10300
C  46.80000 11.76000 28.88900
C  45.42300 12.10700 32.24100
O  46.40300 12.79400 32.54500
C  44.23200 11.68900 33.22800
C  44.93300 10.93500 34.37400
O  45.58700 9.93300 34.31800
O  44.70800 11.62100 35.53600
C  45.01600 10.98400 36.76500
H  38.24300 8.43300 32.53700
H  39.55200 7.75400 26.18500
H  45.18600 10.46400 27.03500
H  42.06600 10.01100 34.96500
H  39.36000 9.59000 34.45500
H  40.33100 7.00400 34.33600
H  40.01600 8.02700 35.79400
H  41.62800 7.91800 35.22000
H  40.14200 11.98100 33.78900
H  41.72300 12.36700 34.55000
H  40.16300 10.86100 36.52900
H  39.20900 12.24400 35.90500
H  36.42600 7.81500 31.73300
H  36.19600 6.44800 30.68100
H  35.45800 8.05300 30.20000
H  34.91700 7.39600 28.01800
H  35.64900 5.81500 28.46200
H  35.15200 6.13000 26.85100
H  41.30700 9.42600 24.90800
H  44.18300 8.75000 25.25600
H  42.94900 6.80900 24.81000
H  42.19500 7.61300 23.39300
H  41.20900 6.70300 24.76400
H  43.27200 10.50500 23.73200
H  44.54100 10.91300 24.93200
H  43.45700 12.67500 25.37000
H  42.10700 11.82000 26.11300
H  41.97100 12.33100 24.41000
H  46.86200 11.22900 27.94000
H  47.71700 11.50900 29.42300
H  46.67200 12.83900 28.80400
H  43.89600 12.66700 33.57200
H  45.59100 10.06400 36.65900
H  44.09800 10.69500 37.27600
H  45.53200 11.73700 37.36100

