158

Mg 25.85500 -0.66800 29.15100
C  27.88700 -0.69100 32.00800
C  23.19700 -0.38400 31.36600
C  23.95300 -0.07000 26.59900
C  28.58600 -1.40500 27.27000
N  25.63500 -0.56600 31.45800
C  26.61900 -0.52500 32.36200
C  26.09500 -0.18500 33.72000
C  24.57700 -0.47400 33.55300
C  24.44700 -0.42300 32.03100
C  24.03800 -1.78400 34.19000
C  26.51600 1.25400 34.17000
C  26.95900 1.37000 35.68800
H  26.19600 2.45400 36.53800
N  23.84200 -0.40200 29.00100
C  22.94500 -0.26400 29.98200
C  21.65900 -0.07500 29.36700
C  21.83000 -0.06400 27.97000
C  23.28000 -0.19200 27.78300
C  20.41200 0.18900 30.21800
C  20.77000 -0.02600 26.75200
O  21.12700 0.03900 25.55100
C  19.25500 0.04700 27.09600
N  26.16300 -1.03300 27.17800
C  25.27700 -0.46800 26.33300
C  25.83200 -0.53400 24.82500
C  27.33600 -0.64300 25.12700
C  27.36200 -1.18000 26.59700
C  25.24200 -1.62700 23.94600
C  28.12900 0.78200 25.02900
C  29.51600 0.80400 24.33200
N  27.86800 -1.14000 29.51400
C  28.86400 -1.35900 28.66400
C  30.07800 -1.44600 29.30400
C  29.78900 -1.20200 30.66400
C  28.41300 -1.01500 30.73800
C  31.39800 -1.66300 28.59900
C  30.36600 -1.02900 31.89900
O  31.53100 -1.10200 32.23400
C  29.12700 -0.63700 32.87300
C  29.22900 -1.59400 34.03100
O  28.68500 -2.66700 34.05500
O  29.87900 -0.97200 35.01400
C  29.68700 -1.56600 36.31900
H  22.36800 -0.33700 32.07600
H  23.52000 0.16800 25.62500
H  29.49400 -1.53300 26.67700
H  26.48400 -0.85500 34.48700
H  24.04900 0.41200 33.90600
H  24.71600 -2.23800 34.91300
H  23.79300 -2.42400 33.34200
H  23.05300 -1.58400 34.61100
H  25.65300 1.88500 33.95300
H  27.31900 1.71400 33.59400
H  28.01200 1.64800 35.73600
H  26.76300 0.45900 36.25500
H  20.65900 0.47000 31.24100
H  19.90000 -0.77200 30.26200
H  19.73300 0.97800 29.89300
H  18.68500 0.29500 26.20100
H  19.26200 0.84200 27.84200
H  18.94100 -0.92400 27.47900
H  25.66100 0.43100 24.34800
H  27.92500 -1.34300 24.53500
H  24.20500 -1.77100 24.24900
H  25.70200 -2.60800 24.07100
H  25.08100 -1.20100 22.95600
H  28.35300 1.08500 26.05200
H  27.49900 1.61900 24.72700
H  29.73900 1.72900 23.80100
H  29.53700 0.02000 23.57400
H  30.30800 0.58700 25.04700
H  32.03700 -0.85500 28.95600
H  31.42300 -1.51500 27.51900
H  31.92300 -2.58900 28.83600
H  29.27600 0.35500 33.30000
H  29.47900 -2.63100 36.21700
H  28.72700 -1.12300 36.58300
H  30.54000 -1.49100 36.99400
Mg 6.11700 57.17200 42.00500
C  5.11900 53.62900 41.63800
C  9.03600 56.22500 40.51100
C  6.66000 60.43800 41.37000
C  2.71300 57.79200 42.89400
N  6.78600 55.24900 41.13000
C  6.38900 53.95400 41.19000
C  7.33600 52.95200 40.55200
C  8.64100 53.72600 40.61300
C  8.10900 55.19300 40.74600
C  9.70500 53.30200 41.67000
C  6.83000 52.58700 39.05300
C  6.92100 51.14600 38.62100
H  6.31800 50.71200 37.30500
N  7.71700 58.21700 41.10000
C  8.80900 57.64000 40.58100
C  9.67500 58.78500 40.16500
C  9.05000 59.97600 40.49700
C  7.78200 59.58100 41.04000
C  11.04300 58.60600 39.50300
C  9.53800 61.36600 40.11600
O  10.66900 61.39500 39.65900
C  8.78700 62.70500 40.35900
N  4.79600 58.84900 42.09000
C  5.35400 60.09400 41.95900
C  4.23900 61.16000 42.18800
C  3.00700 60.31800 42.72000
C  3.49600 58.87900 42.68700
C  4.64000 62.28000 43.12900
C  1.57500 60.54500 42.03100
C  0.40400 60.90500 42.98200
N  4.26500 55.94100 42.24100
C  3.02300 56.40600 42.60300
C  2.14200 55.28700 42.75600
C  2.95400 54.16900 42.49400
C  4.18600 54.66200 42.03500
C  0.67800 55.28000 43.06100
C  2.98700 52.70400 42.38700
O  2.12400 51.88800 42.66300
C  4.39900 52.35800 41.90600
C  4.32900 51.31000 40.90100
O  3.85500 51.47200 39.77700
O  4.74100 50.08900 41.41500
C  4.30200 48.94000 40.65100
H  9.96000 55.88700 40.03900
H  6.88000 61.50700 41.34800
H  1.70600 58.05100 43.22800
H  7.46800 52.00600 41.07600
H  9.22900 53.73400 39.69600
H  10.53100 52.82100 41.14800
H  9.25900 52.57800 42.35200
H  10.03500 54.10400 42.33000
H  7.54400 53.14000 38.44300
H  5.86200 53.06200 38.89000
H  6.52000 50.44900 39.35600
H  7.99400 50.96300 38.67200
H  11.74900 59.31700 39.93200
H  10.94700 58.82700 38.44000
H  11.43000 57.58700 39.52800
H  7.86700 62.88900 39.80300
H  9.47600 63.53300 40.19300
H  8.55600 62.87500 41.41100
H  3.99300 61.63200 41.23700
H  2.92300 60.50100 43.79100
H  5.09000 63.10500 42.57700
H  5.47300 61.90300 43.72300
H  3.91300 62.52600 43.90300
H  1.18600 59.73800 41.41000
H  1.77900 61.40200 41.38900
H  -0.09100 59.94100 42.86700
H  -0.26100 61.70500 42.65700
H  0.82400 60.94700 43.98700
H  0.34900 54.35600 43.53600
H  0.29800 55.40000 42.04600
H  0.48700 56.15300 43.68500
H  4.84900 51.96400 42.81800
H  5.02400 48.82800 39.84200
H  3.31900 49.01100 40.18600
H  4.35100 48.09700 41.34000

