158

Mg 54.34100 24.33100 44.80200
C  51.74000 26.61200 43.99200
C  52.51400 21.80000 43.32600
C  57.17400 22.51000 44.58200
C  56.28500 27.17500 45.45400
N  52.32600 24.24400 43.79800
C  51.44300 25.30200 43.50400
C  50.32400 24.76300 42.62400
C  50.36600 23.24000 42.86200
C  51.80000 23.01100 43.40400
C  49.31000 22.64400 43.88600
C  50.34100 25.22600 41.16600
C  51.65300 25.78500 40.66100
H  52.57600 24.81800 39.87100
N  54.77700 22.36600 44.13500
C  53.86100 21.53600 43.59100
C  54.62500 20.32800 43.21000
C  55.96500 20.38300 43.71700
C  56.02900 21.76700 44.12900
C  53.91800 19.19600 42.41000
C  57.02300 19.25800 43.65300
O  56.69200 18.11400 43.27600
C  58.54100 19.49200 43.83000
N  56.51400 24.78900 44.83700
C  57.38800 23.83700 44.88300
C  58.83200 24.34300 45.21200
C  58.54200 25.86400 45.55100
C  56.97500 25.96700 45.22100
C  59.56400 23.71900 46.41900
C  59.36200 26.97100 44.89900
C  58.91600 27.61800 43.56500
N  54.02900 26.44600 44.96100
C  54.91900 27.48000 45.32700
C  54.18600 28.72000 45.47300
C  52.94800 28.46300 44.87000
C  52.92300 27.04600 44.57400
C  54.70300 29.97800 46.10400
C  51.59800 29.01300 44.64400
O  51.07000 30.13200 44.83400
C  50.88400 27.84900 43.89700
C  50.55800 28.35400 42.55100
O  51.38000 28.87200 41.82600
O  49.23900 28.18000 42.27500
C  48.78300 28.51300 40.84800
H  52.03400 20.90000 42.93700
H  58.14800 22.01700 44.60800
H  57.00300 27.98500 45.60000
H  49.45200 25.18000 43.12800
H  50.31500 22.68400 41.92600
H  48.84700 21.74800 43.47200
H  48.60700 23.45200 44.08900
H  49.78800 22.34100 44.81700
H  49.49200 25.89700 41.03200
H  50.31200 24.39400 40.46200
H  52.27900 26.26200 41.41500
H  51.43700 26.56700 39.93300
H  54.64300 18.63300 41.82300
H  53.21900 19.50600 41.63200
H  53.44500 18.59300 43.18400
H  58.73200 20.44100 43.32900
H  59.04900 18.67600 43.31500
H  58.58800 19.54100 44.91800
H  59.48800 24.41400 44.34400
H  58.60500 26.03900 46.62500
H  60.39700 23.13800 46.02200
H  58.81800 23.02900 46.81500
H  59.99500 24.40100 47.15200
H  60.31700 26.47000 44.73900
H  59.65000 27.77400 45.57800
H  59.49800 27.23800 42.72500
H  59.13800 28.68300 43.63200
H  57.88800 27.35200 43.32000
H  55.52800 30.49100 45.61000
H  55.02000 29.70300 47.11000
H  53.86100 30.66800 46.15100
H  49.93600 27.62900 44.38600
H  49.49800 28.33800 40.04400
H  48.46900 29.55700 40.87300
H  47.88300 27.92900 40.66000
Mg 1.69400 42.35600 25.22000
C  3.23400 42.49500 28.25700
C  -1.16900 41.34900 26.87900
C  0.06600 42.43900 22.24700
C  4.65200 43.25100 23.59500
N  1.14900 41.85000 27.32800
C  1.89500 42.07500 28.41400
C  1.17100 41.84000 29.71600
C  -0.24400 41.45900 29.21900
C  -0.14200 41.57500 27.70500
C  -0.83900 40.14000 29.80000
C  1.20300 43.03000 30.60300
C  2.03700 43.08700 31.99400
H  1.08200 43.16900 33.24100
N  -0.29500 41.91400 24.66900
C  -1.28400 41.48600 25.48600
C  -2.48500 41.39700 24.64700
C  -2.12700 41.71300 23.27700
C  -0.72700 42.02100 23.33300
C  -3.81100 40.85100 25.16500
C  -3.02500 41.82600 22.04800
O  -2.55700 41.93400 20.93100
C  -4.46300 41.80700 22.34500
N  2.29300 42.59900 23.17700
C  1.39700 42.74500 22.16400
C  2.14400 43.21100 20.87500
C  3.59400 43.53600 21.36700
C  3.49300 43.15900 22.82500
C  2.08000 42.14500 19.73900
C  3.85600 45.03500 21.27900
C  4.04300 45.56400 19.86000
N  3.60000 42.66300 25.76500
C  4.71600 42.99100 25.02300
C  5.87400 43.12000 25.88400
C  5.30800 42.96000 27.17900
C  3.96500 42.71000 27.04000
C  7.36000 43.33800 25.54200
C  5.69000 42.99700 28.56200
O  6.76200 43.29800 28.98900
C  4.36300 42.64500 29.37100
C  4.72600 41.31900 30.05300
O  4.94400 40.26500 29.51200
O  4.94200 41.54100 31.41700
C  5.19000 40.32900 32.23100
H  -2.05600 41.12100 27.47400
H  -0.43400 42.48700 21.27800
H  5.58900 43.64000 23.19400
H  1.62100 41.02700 30.28700
H  -0.93200 42.23300 29.55900
H  -0.29200 39.79600 30.67800
H  -0.86100 39.30200 29.10200
H  -1.83600 40.37100 30.17300
H  0.18300 43.13200 30.97200
H  1.51400 43.84800 29.95200
H  2.74400 43.90700 31.87000
H  2.57700 42.14800 32.10700
H  -4.54200 41.63200 24.95700
H  -3.83100 40.84400 26.25500
H  -4.01700 39.88300 24.70900
H  -4.94500 42.12000 21.41900
H  -4.77000 42.47800 23.14600
H  -4.77500 40.76400 22.40100
H  1.71700 44.12600 20.46500
H  4.34500 43.02400 20.76500
H  1.38300 41.33500 19.95300
H  3.11000 41.79600 19.67300
H  1.87700 42.48100 18.72200
H  4.81900 45.09200 21.78500
H  3.11500 45.65400 21.78600
H  3.36900 46.41300 19.74500
H  3.81600 44.80500 19.11100
H  5.06500 45.82600 19.58600
H  7.86500 43.96500 26.27700
H  7.49400 43.70300 24.52400
H  7.95700 42.44100 25.70500
H  4.19100 43.43800 30.09900
H  6.26500 40.14700 32.20100
H  4.50900 39.54700 31.89900
H  4.88900 40.41700 33.27500

