158

Mg 52.38800 24.06800 44.34600
C  49.45300 26.02400 43.77300
C  50.85600 21.33100 43.54700
C  55.49800 22.58300 44.35200
C  54.03100 27.12100 44.87000
N  50.35100 23.74000 43.56600
C  49.31000 24.65900 43.43100
C  47.97900 23.83400 43.32100
C  48.55700 22.35600 43.08000
C  50.01400 22.43100 43.45100
C  47.83200 21.15400 43.82200
C  47.04500 24.29700 42.14400
C  47.74900 24.56900 40.81300
H  47.33600 23.82100 39.52400
N  53.07800 22.19800 43.98600
C  52.20400 21.11300 43.87900
C  52.92200 19.86500 43.85900
C  54.31000 20.20500 44.10400
C  54.38400 21.70400 44.12000
C  52.18900 18.53600 43.82400
C  55.47400 19.28800 44.25400
O  55.23700 18.13700 44.07500
C  56.88900 19.76600 44.63700
N  54.49100 24.85800 44.35900
C  55.54200 23.99900 44.35900
C  56.84300 24.80400 44.66200
C  56.40700 26.28000 44.62400
C  54.92600 26.08300 44.51600
C  57.54300 24.47700 45.97000
C  57.05400 27.19800 43.45900
C  56.38200 27.10200 42.11300
N  51.88600 26.16800 44.50200
C  52.64900 27.26700 44.79000
C  51.80900 28.41900 45.03300
C  50.48900 27.97200 44.58600
C  50.60900 26.57900 44.25800
C  52.23300 29.78700 45.60300
C  49.08700 28.31400 44.51400
O  48.44600 29.31600 44.82000
C  48.36900 27.02500 43.80600
C  47.93100 27.44300 42.45200
O  48.63500 27.65300 41.44600
O  46.59600 27.78600 42.60100
C  45.95800 28.37100 41.42300
H  50.28300 20.42600 43.33500
H  56.49300 22.21500 44.61100
H  54.59500 28.03000 45.09100
H  47.34700 23.83200 44.20900
H  48.57000 22.19000 42.00200
H  47.41600 20.42400 43.12800
H  46.94700 21.60400 44.27100
H  48.39700 20.61900 44.58600
H  46.42100 25.08300 42.56900
H  46.24400 23.60700 41.87800
H  48.83400 24.53000 40.91000
H  47.49200 25.58800 40.52400
H  52.19000 18.37300 42.74600
H  51.13200 18.68600 44.04400
H  52.64800 17.73000 44.39600
H  57.40800 18.84600 44.90400
H  56.95700 20.22700 45.62200
H  57.47400 20.36400 43.93700
H  57.55600 24.59700 43.86400
H  56.60800 26.68600 45.61500
H  58.61300 24.43800 45.76400
H  57.25400 23.46400 46.25000
H  57.36100 25.07300 46.86400
H  58.12500 27.07700 43.29700
H  56.81300 28.20300 43.80500
H  55.36000 26.73100 42.04000
H  57.10100 26.46400 41.59800
H  56.44200 28.10000 41.67900
H  51.61600 29.81800 46.50100
H  52.06300 30.65400 44.96400
H  53.28900 29.64700 45.83400
H  47.63200 26.82200 44.58300
H  46.44100 29.32000 41.19100
H  44.93800 28.68200 41.65100
H  45.90900 27.67900 40.58300
Mg -10.17700 18.42500 42.75500
C  -6.77000 17.47600 42.92900
C  -9.11200 21.60400 42.18000
C  -13.29200 19.31800 42.69700
C  -11.05000 14.93500 43.06700
N  -8.11500 19.35600 42.56500
C  -6.88700 18.83300 42.73600
C  -5.78700 19.86200 42.45900
C  -6.53400 21.23000 42.53400
C  -8.04500 20.70600 42.45600
C  -6.36800 22.09400 43.85200
C  -4.80000 19.56500 41.21300
C  -5.34600 18.62600 40.08900
H  -5.23800 19.10900 38.62000
N  -11.09100 20.26500 42.38500
C  -10.47600 21.44400 42.16100
C  -11.51400 22.48300 42.05700
C  -12.80400 21.77300 42.11400
C  -12.47400 20.42600 42.43600
C  -11.10700 23.99000 41.68300
C  -14.17800 22.40600 41.74700
O  -14.36400 23.61900 41.55400
C  -15.40300 21.58500 41.60700
N  -11.94500 17.22800 42.55400
C  -13.14700 17.91000 42.76500
C  -14.28700 16.87700 42.90100
C  -13.56500 15.53000 42.73100
C  -12.09100 15.81900 42.68800
C  -15.16700 17.06200 44.25900
C  -14.08000 14.75900 41.54100
C  -15.20900 13.78500 41.86700
N  -9.17600 16.53800 42.90500
C  -9.65600 15.20800 43.06300
C  -8.52800 14.30500 43.11200
C  -7.39100 15.13300 43.03900
C  -7.79300 16.45600 42.96900
C  -8.72200 12.76300 43.31200
C  -5.94600 15.20400 43.05800
O  -5.13400 14.28100 42.93500
C  -5.49800 16.68500 43.21200
C  -5.11300 16.80300 44.61100
O  -5.94000 16.83700 45.51600
O  -3.75900 16.66500 44.79200
C  -3.18200 16.38000 46.06900
H  -8.90300 22.66800 42.04700
H  -14.36000 19.48500 42.85500
H  -11.29600 13.88500 43.23500
H  -5.16100 19.84600 43.35200
H  -6.39700 21.87100 41.66300
H  -7.07900 21.70800 44.58200
H  -6.63300 23.11900 43.59200
H  -5.37000 22.01100 44.28200
H  -3.94100 19.06300 41.65800
H  -4.37300 20.50600 40.86500
H  -6.35300 18.27900 40.32400
H  -4.65100 17.78700 40.11300
H  -11.94000 24.68100 41.81000
H  -10.46900 24.09300 40.80500
H  -10.50300 24.32300 42.52700
H  -15.93400 21.59100 42.55900
H  -15.22000 20.53900 41.35900
H  -16.09700 21.98800 40.87000
H  -14.99500 17.07000 42.09600
H  -13.81400 14.88300 43.57200
H  -14.98900 18.02200 44.74400
H  -14.96400 16.34000 45.04900
H  -16.20700 17.15600 43.94500
H  -13.29900 14.16100 41.07200
H  -14.53500 15.29600 40.70900
H  -15.95100 13.97900 41.09300
H  -15.60600 13.82100 42.88200
H  -14.86700 12.77100 41.65900
H  -9.12000 12.54400 44.30200
H  -7.73100 12.31100 43.36600
H  -9.20200 12.38300 42.41000
H  -4.68500 16.95000 42.53600
H  -2.45900 15.57100 45.96100
H  -3.95200 16.12400 46.79700
H  -2.68300 17.24800 46.49900

