158

Mg 17.22200 -1.23900 27.42700
C  16.06300 0.64600 30.16900
C  19.25100 -3.08500 29.68600
C  18.61700 -2.97700 24.92500
C  15.72900 0.94500 25.31600
N  17.49900 -1.24500 29.72500
C  17.04300 -0.34000 30.62400
C  17.49300 -0.60400 32.08600
C  18.77200 -1.56600 31.78200
C  18.49000 -2.01200 30.27800
C  20.15400 -0.95000 32.03100
C  16.41200 -1.17100 33.05900
C  16.75800 -1.15700 34.59100
H  18.05100 -0.51000 35.01600
N  18.51200 -2.93500 27.32600
C  19.15600 -3.62600 28.35600
C  19.81000 -4.80400 27.81700
C  19.62200 -4.72800 26.43300
C  18.88800 -3.46400 26.13800
C  20.39300 -5.85900 28.68400
C  19.99600 -5.71900 25.37700
O  19.67900 -5.68400 24.21700
C  20.84000 -6.89000 25.78000
N  17.23300 -0.96400 25.35400
C  17.83800 -1.83500 24.54200
C  17.64000 -1.43000 23.00700
C  16.63800 -0.19500 23.15700
C  16.44300 -0.04100 24.64700
C  19.00500 -1.12100 22.18400
C  15.26400 -0.31700 22.44900
C  14.81000 0.93500 21.66500
N  16.02200 0.34200 27.66100
C  15.47400 1.18800 26.71700
C  14.65400 2.24000 27.34400
C  14.77400 1.99300 28.69400
C  15.73300 0.93300 28.84600
C  13.90000 3.39100 26.63400
C  14.35200 2.40200 29.96600
O  13.61800 3.26100 30.35000
C  15.32000 1.61700 31.04900
C  16.18900 2.61700 31.76700
O  17.28900 2.88400 31.47000
O  15.46600 3.12900 32.88400
C  16.11700 4.01100 33.86600
H  19.83100 -3.70100 30.37600
H  19.02600 -3.44800 24.02800
H  15.18800 1.66300 24.69600
H  17.86400 0.31500 32.53900
H  18.73800 -2.45800 32.40800
H  20.72400 -0.78500 31.11600
H  20.75000 -1.77700 32.41800
H  20.12300 -0.06400 32.66400
H  16.28500 -2.21800 32.78400
H  15.46900 -0.65800 32.87200
H  16.61800 -2.14000 35.04100
H  15.97400 -0.48600 34.94200
H  19.70600 -6.70500 28.66500
H  20.59000 -5.64400 29.73500
H  21.34000 -6.19700 28.26500
H  20.35200 -7.49000 26.54800
H  21.81400 -6.53500 26.11600
H  20.90600 -7.53400 24.90300
H  17.08200 -2.25000 22.55400
H  17.09600 0.74800 22.85800
H  19.04200 -0.07100 21.89400
H  19.09000 -1.68200 21.25400
H  19.87700 -1.44800 22.75100
H  14.51300 -0.49300 23.22000
H  15.16700 -1.21900 21.84500
H  15.67500 1.52800 21.36800
H  14.21400 1.61600 22.27200
H  14.25700 0.50800 20.82800
H  12.93500 3.09300 26.22400
H  14.51400 3.61200 25.76200
H  13.84300 4.24700 27.30600
H  14.62800 1.14100 31.74300
H  16.16200 3.56300 34.85900
H  15.75600 5.03500 33.96200
H  17.18200 4.09200 33.65100
Mg 17.07000 50.94100 25.96500
C  18.93700 49.48700 28.55300
C  14.57300 51.77100 28.10600
C  15.21700 51.94300 23.26500
C  19.58000 49.81500 23.67400
N  16.82700 50.67100 28.13800
C  17.74400 50.17900 28.98000
C  17.34600 50.51100 30.39600
C  15.78400 50.96300 30.22700
C  15.67700 51.18700 28.72200
C  14.77600 50.01900 30.85400
C  18.28900 51.58700 30.99700
C  18.44700 51.66700 32.47600
H  17.45000 50.99400 33.33500
N  15.16400 51.80800 25.73600
C  14.33100 52.15500 26.72900
C  13.34000 53.02800 26.26100
C  13.52500 53.13100 24.83500
C  14.65200 52.30200 24.53300
C  12.32400 53.71300 27.17800
C  12.69600 53.93000 23.81300
O  12.99800 53.82700 22.64400
C  11.59500 54.96300 24.23300
N  17.32000 50.91400 23.85100
C  16.46300 51.44400 23.01500
C  16.95000 51.28600 21.57200
C  18.41900 50.78700 21.73700
C  18.46900 50.45200 23.15800
C  15.96500 50.43600 20.70400
C  19.54200 51.81400 21.23800
C  20.60000 51.23600 20.31000
N  18.85000 49.81900 26.01200
C  19.78800 49.51100 25.05700
C  20.87900 48.83200 25.62200
C  20.57600 48.80200 27.03900
C  19.33600 49.44200 27.20200
C  22.03600 48.34000 24.88500
C  21.09700 48.46200 28.33100
O  22.09300 47.85400 28.68200
C  20.12400 49.02600 29.34300
C  19.70900 48.00900 30.28300
O  19.43500 46.86300 29.96500
O  19.71600 48.49600 31.59100
C  19.28900 47.62700 32.66500
H  13.77600 52.09200 28.78000
H  14.83900 52.31600 22.31100
H  20.35300 49.57800 22.94000
H  17.40600 49.58500 30.96700
H  15.73400 51.96100 30.66200
H  14.07100 50.44900 31.56500
H  15.25300 49.14900 31.30700
H  14.15300 49.68600 30.02400
H  17.97700 52.58700 30.69700
H  19.28400 51.37400 30.60500
H  18.52200 52.70800 32.78900
H  19.43000 51.30200 32.77300
H  12.35000 53.17200 28.12300
H  11.29600 53.55000 26.85300
H  12.54600 54.74900 27.43400
H  12.05200 55.71600 24.87500
H  10.76600 54.45800 24.72900
H  11.22700 55.27600 23.25600
H  17.01100 52.29000 21.15200
H  18.48000 49.83200 21.21400
H  16.26300 49.47000 20.29700
H  15.52500 51.08500 19.94700
H  15.12800 50.05900 21.29100
H  20.06700 52.40200 21.99200
H  19.05500 52.54200 20.58900
H  21.39800 50.67000 20.79100
H  21.00300 51.98800 19.63300
H  20.09400 50.51900 19.66300
H  22.09400 47.27000 24.68900
H  22.84300 48.65000 25.54900
H  22.14200 48.90000 23.95600
H  20.63500 49.80000 29.91600
H  18.36600 47.05100 32.59900
H  19.21100 48.15100 33.61700
H  20.05400 46.85100 32.68100

