158

Mg 8.72600 3.89400 27.55200
C  9.84100 2.31100 30.48300
C  6.66900 5.92600 29.49800
C  7.57600 5.30800 24.70800
C  10.55400 1.57200 25.68700
N  8.44900 4.13700 29.75300
C  8.98000 3.36300 30.80400
C  8.40600 3.84600 32.18800
C  7.35900 4.93600 31.74900
C  7.44500 4.96900 30.19400
C  5.89300 4.75000 32.25700
C  9.47900 4.41200 33.12200
C  9.49100 3.70500 34.55200
H  10.85300 3.90200 35.40000
N  7.35400 5.49100 27.20400
C  6.53700 6.15700 28.08300
C  5.71400 7.17100 27.46600
C  6.02100 7.01800 26.05500
C  7.06900 5.91400 25.90200
C  4.80600 8.08100 28.21200
C  5.51400 7.92100 24.87800
O  5.87000 7.75300 23.68000
C  4.53600 8.93100 25.16700
N  8.85800 3.42700 25.50000
C  8.46500 4.31000 24.53300
C  8.99100 3.82200 23.12700
C  9.81400 2.53300 23.49800
C  9.78300 2.55000 25.01700
C  7.94400 3.51400 22.01300
C  11.19600 2.33800 22.83900
C  11.32900 0.89500 22.08000
N  9.84100 2.18700 27.89300
C  10.52400 1.34400 27.08700
C  11.22300 0.32700 27.83300
C  11.04400 0.69900 29.11900
C  10.17200 1.84600 29.15300
C  12.10500 -0.76600 27.33700
C  11.46500 0.41900 30.46600
O  12.30400 -0.44300 30.90100
C  10.67900 1.43100 31.38800
C  9.77600 0.71900 32.32200
O  8.65500 0.32400 31.99000
O  10.32700 0.53400 33.60500
C  9.41800 -0.20200 34.45100
H  5.96900 6.52000 30.09000
H  7.18600 5.81000 23.82000
H  11.07500 0.75500 25.18200
H  7.84800 3.02100 32.63100
H  7.62000 5.97700 31.93900
H  5.35900 4.12100 31.54300
H  5.51000 5.76400 32.37000
H  5.96800 4.24900 33.22200
H  9.21100 5.45200 33.30700
H  10.43600 4.34700 32.60500
H  9.15300 2.67200 34.47100
H  8.73400 4.18500 35.17300
H  5.07300 9.13300 28.10900
H  4.77800 7.90400 29.28700
H  3.79600 7.90900 27.83900
H  4.14700 9.20700 24.18700
H  4.99300 9.79900 25.64200
H  3.71700 8.42800 25.68300
H  9.64900 4.53800 22.63500
H  9.30400 1.62500 23.17700
H  6.90400 3.71700 22.26900
H  7.96400 2.48100 21.66500
H  8.29300 4.17200 21.21800
H  12.05700 2.47300 23.49300
H  11.38800 3.15100 22.13800
H  11.71900 0.99700 21.06700
H  10.45700 0.24700 22.16300
H  12.17600 0.39700 22.55200
H  13.15900 -0.49000 27.32100
H  11.93600 -1.06000 26.30100
H  11.95600 -1.66100 27.94000
H  11.50200 1.87000 31.95100
H  8.37800 0.10400 34.33800
H  9.58000 -0.12500 35.52600
H  9.35000 -1.18300 33.98100
Mg 10.20300 47.67000 25.38600
C  7.84600 47.81300 28.12200
C  12.65400 48.79500 27.53400
C  12.29500 47.76400 22.77100
C  7.45200 47.08400 23.23500
N  10.20400 48.25700 27.67600
C  9.14000 48.20900 28.57500
C  9.65100 48.65400 29.96800
C  11.08600 49.23700 29.66000
C  11.40100 48.73100 28.20100
C  11.00900 50.82400 29.70900
C  9.67800 47.51500 30.96900
C  9.42800 47.95100 32.45900
H  9.49100 46.80900 33.50000
N  12.26500 48.04600 25.19300
C  13.14500 48.49000 26.20400
C  14.40000 48.69000 25.66500
C  14.34300 48.25400 24.27000
C  12.92800 47.97800 24.04000
C  15.54700 49.25400 26.50900
C  15.40500 48.21800 23.23700
O  15.28100 47.89600 22.06500
C  16.85300 48.55800 23.62900
N  9.93900 47.42800 23.32100
C  10.98000 47.47100 22.45300
C  10.53000 47.06100 21.09100
C  9.01100 46.62000 21.25900
C  8.76100 47.12600 22.68200
C  10.66700 48.14800 19.97200
C  8.66900 45.06700 20.99400
C  8.96600 44.17900 22.20500
N  8.07200 47.51800 25.55000
C  7.13400 47.25000 24.61000
C  5.82600 47.22100 25.22000
C  6.07000 47.40700 26.60700
C  7.46000 47.55200 26.77700
C  4.46700 47.00100 24.60600
C  5.39800 47.52900 27.89300
O  4.19100 47.53000 28.18100
C  6.51100 47.89300 28.90100
C  6.27100 46.99900 30.13800
O  6.54600 45.81000 30.30000
O  5.51500 47.77500 30.97600
C  5.18100 47.12500 32.23000
H  13.38700 49.22700 28.21900
H  12.95000 47.75300 21.89700
H  6.70400 46.75900 22.50900
H  8.99800 49.45600 30.31200
H  11.79100 48.84200 30.39100
H  10.29400 51.24600 30.41500
H  10.71600 51.30700 28.77700
H  11.99600 51.17700 30.01000
H  10.61000 46.95400 30.89100
H  8.84800 46.91800 30.59300
H  8.42700 48.37500 32.54700
H  10.10900 48.75600 32.73500
H  15.97400 50.07800 25.93600
H  16.44600 48.63900 26.52900
H  15.31300 49.66900 27.49000
H  17.47100 48.18800 22.81100
H  17.04600 47.87700 24.45700
H  16.90400 49.60900 23.91400
H  11.14700 46.18900 20.87500
H  8.35100 47.12400 20.55300
H  10.01800 48.98900 20.21700
H  10.64000 47.74100 18.96200
H  11.65600 48.60400 20.01800
H  9.39500 44.78800 20.23000
H  7.64400 44.90700 20.66000
H  9.01700 44.59700 23.21000
H  9.91100 43.65200 22.07600
H  8.36500 43.27000 22.20800
H  4.45600 46.01000 24.15400
H  4.22000 47.88800 24.02200
H  3.80500 46.90800 25.46600
H  6.37700 48.91100 29.26700
H  4.72800 47.84400 32.91200
H  6.04100 46.74100 32.77900
H  4.48600 46.29500 32.10100

