158

Mg 25.87700 50.95200 25.87700
C  23.49400 52.01300 28.24100
C  28.03600 50.22000 28.38400
C  28.09400 50.32900 23.49800
C  23.65000 52.28700 23.31700
N  25.75000 51.16900 27.98900
C  24.67600 51.39000 28.75500
C  24.98600 51.09600 30.23800
C  26.45700 50.79200 30.25900
C  26.80300 50.77400 28.76600
C  27.35800 51.65500 31.20200
C  23.98900 50.12800 30.85500
C  23.46200 50.52800 32.24600
H  23.98000 49.77900 33.46400
N  27.83100 50.33900 25.98400
C  28.57700 50.05000 27.07400
C  29.87700 49.64900 26.64600
C  29.96000 49.65400 25.25700
C  28.55900 50.05800 24.85800
C  31.00100 49.32500 27.54000
C  31.15900 49.46100 24.23300
O  30.99100 49.34100 23.01500
C  32.55200 49.32100 24.79700
N  25.88100 51.41800 23.76000
C  26.97400 50.95300 23.01700
C  26.79300 51.21300 21.52300
C  25.34900 51.83700 21.47000
C  24.93800 51.94500 22.96900
C  27.86000 52.18200 20.87900
C  24.32000 51.18400 20.50000
C  23.98200 52.11900 19.26000
N  24.04900 51.98200 25.74900
C  23.31000 52.41100 24.65100
C  22.14000 53.00900 25.13800
C  22.11500 52.93000 26.58000
C  23.32600 52.27600 26.84200
C  21.11000 53.58800 24.23200
C  21.40300 53.27500 27.76800
O  20.34600 53.89400 27.94600
C  22.23900 52.54800 28.92700
C  22.53500 53.50100 30.04200
O  23.50000 54.25400 30.10200
O  21.50300 53.48800 30.98100
C  21.78700 54.50800 32.07600
H  28.60100 49.81600 29.22600
H  28.81800 49.98000 22.75900
H  22.89000 52.55600 22.58100
H  24.86000 52.01900 30.80500
H  26.55700 49.75000 30.56100
H  27.94400 52.37100 30.62600
H  28.04800 51.10500 31.84200
H  26.74400 52.19900 31.92000
H  24.41900 49.12700 30.87100
H  23.09000 50.03100 30.24600
H  22.40400 50.27700 32.31400
H  23.58600 51.60600 32.34700
H  30.77700 49.48900 28.59400
H  31.86500 49.96700 27.36700
H  31.20600 48.27700 27.32500
H  32.43000 48.40600 25.37700
H  32.71600 50.21800 25.39400
H  33.27100 49.44700 23.98700
H  26.82700 50.22000 21.07500
H  25.33500 52.88300 21.16300
H  28.63800 52.41600 21.60500
H  27.28500 53.02200 20.49100
H  28.26400 51.69400 19.99200
H  23.33700 50.99500 20.93300
H  24.62600 50.18400 20.19400
H  24.87600 52.43600 18.72400
H  23.42500 52.99000 19.60800
H  23.42700 51.47900 18.57400
H  20.26400 53.86300 24.86100
H  20.64100 52.93300 23.49800
H  21.58200 54.49600 23.85600
H  21.62800 51.79100 29.42100
H  21.79400 55.52400 31.68100
H  22.66400 54.20800 32.65000
H  20.90600 54.52000 32.71700
Mg 0.11100 43.21500 27.01500
C  2.51400 42.86300 29.42600
C  -2.34200 42.20900 29.41800
C  -2.35000 43.45900 24.66700
C  2.50900 43.53500 24.52400
N  0.09200 42.61800 29.15000
C  1.18400 42.67000 29.96700
C  0.81900 42.56300 31.45100
C  -0.59100 41.89000 31.37000
C  -0.98900 42.30900 29.87100
C  -0.59100 40.39300 31.57100
C  0.92800 43.86200 32.14200
C  0.90100 43.80300 33.65900
H  0.26800 42.63300 34.41500
N  -2.03500 42.91300 27.04600
C  -2.77500 42.57900 28.13500
C  -4.19100 42.63600 27.80900
C  -4.24200 43.07000 26.43100
C  -2.88700 43.24600 25.97000
C  -5.30900 42.27000 28.78000
C  -5.49500 43.31000 25.40100
O  -5.40100 43.72800 24.25300
C  -6.84300 42.86200 25.89100
N  0.05700 43.25900 24.86700
C  -1.05700 43.47800 24.17600
C  -0.73000 43.72500 22.64500
C  0.77600 43.76800 22.56600
C  1.16200 43.58500 24.07600
C  -1.35500 42.67000 21.71500
C  1.41500 44.91800 21.82900
C  1.92600 46.09000 22.73900
N  2.09600 43.19700 26.92000
C  2.94900 43.32500 25.84200
C  4.35200 43.32200 26.32100
C  4.20000 43.05500 27.68300
C  2.77100 43.01300 28.04700
C  5.71900 43.43700 25.55500
C  5.00600 42.86200 28.89100
O  6.19000 42.57900 29.18600
C  3.95800 42.84400 30.09600
C  4.25200 41.71900 31.03300
O  4.33000 40.52300 30.75000
O  4.39200 42.19400 32.24800
C  4.47500 41.19100 33.30500
H  -3.07300 41.87600 30.15800
H  -3.07200 43.68000 23.87800
H  3.33500 43.66000 23.82100
H  1.47900 41.86200 31.96200
H  -1.27900 42.31400 32.10200
H  0.36500 39.93300 31.82100
H  -0.80600 39.97000 30.59000
H  -1.36400 40.20800 32.31700
H  0.21700 44.58300 31.73900
H  1.90100 44.29600 31.90900
H  0.50600 44.76800 33.97800
H  1.90500 43.88000 34.07700
H  -6.13900 42.91300 28.48800
H  -5.13600 42.60600 29.80300
H  -5.58200 41.21500 28.74600
H  -6.78900 41.83000 26.23800
H  -7.63100 43.08400 25.17200
H  -7.09800 43.47300 26.75700
H  -1.14700 44.70000 22.39400
H  1.16000 42.84100 22.13900
H  -0.56800 42.31500 21.05000
H  -2.25300 43.11800 21.29000
H  -1.59300 41.80000 22.32600
H  0.90000 45.26800 20.93500
H  2.36900 44.48400 21.53000
H  1.22600 46.25500 23.55900
H  2.04300 46.98600 22.12900
H  2.93800 46.00200 23.13300
H  6.51300 43.15100 26.24500
H  5.83900 44.43200 25.12600
H  5.79500 42.73200 24.72800
H  4.12500 43.82600 30.53800
H  5.49500 41.23900 33.68600
H  4.04400 40.19800 33.17800
H  3.85500 41.62400 34.09100

