158

Mg -2.00200 33.77200 26.33300
C  -3.48900 32.25700 28.94000
C  -0.30300 35.78900 28.50600
C  -0.41800 35.15600 23.72300
C  -3.83800 31.84500 24.14100
N  -2.06400 34.05200 28.44400
C  -2.58500 33.28700 29.31900
C  -2.35400 33.62500 30.82400
C  -1.49000 34.92000 30.60300
C  -1.29400 34.96100 29.07000
C  -2.16100 36.24600 31.05800
C  -1.75900 32.44600 31.60900
C  -2.43700 32.12900 32.98500
H  -1.61500 31.91300 34.22400
N  -0.60700 35.39200 26.12200
C  0.07500 36.01200 27.15900
C  1.01400 36.96900 26.58900
C  0.92700 36.86100 25.11300
C  -0.05100 35.78800 24.94300
C  1.92400 37.86700 27.36600
C  1.58200 37.70000 23.98200
O  1.63000 37.33600 22.77800
C  2.28600 39.03100 24.39600
N  -2.16500 33.62900 24.25300
C  -1.39700 34.23600 23.40400
C  -1.70500 33.79200 21.95100
C  -2.48500 32.50600 22.17900
C  -2.87300 32.66500 23.63700
C  -2.35100 34.97600 21.18100
C  -1.56000 31.27000 21.94500
C  -2.26100 30.19700 21.07800
N  -3.44100 32.34000 26.43300
C  -4.11900 31.63500 25.45200
C  -4.97800 30.63900 26.14000
C  -4.82400 30.95000 27.51500
C  -3.85700 31.87600 27.61900
C  -5.94400 29.69600 25.41000
C  -5.23800 30.57600 28.81800
O  -6.13900 29.85300 29.20000
C  -4.44200 31.43800 29.83900
C  -5.39800 32.42200 30.52600
O  -5.68500 33.57900 30.18500
O  -5.97300 31.79800 31.61000
C  -6.64100 32.69200 32.47300
H  0.30800 36.41100 29.16400
H  0.28200 35.36200 22.91100
H  -4.22000 31.09900 23.44200
H  -3.29600 33.85500 31.32100
H  -0.58300 34.88500 31.20700
H  -1.57500 36.68500 31.86500
H  -3.13700 36.04600 31.49900
H  -2.21900 36.97800 30.25200
H  -0.69800 32.58000 31.82200
H  -1.69800 31.60300 30.92000
H  -2.99900 31.23300 32.72200
H  -3.18000 32.85400 33.31800
H  1.63700 38.91800 27.34000
H  2.91300 37.69800 26.93900
H  1.98600 37.49300 28.38800
H  2.68800 39.45200 23.47400
H  3.08800 38.97300 25.13200
H  1.44600 39.63900 24.73200
H  -0.77100 33.68200 21.39900
H  -3.37200 32.40800 21.55200
H  -3.36700 34.77100 20.84300
H  -1.81200 35.23300 20.26900
H  -2.39600 35.85600 21.82300
H  -1.39300 30.78500 22.90700
H  -0.60800 31.51400 21.47300
H  -2.09100 29.22000 21.53100
H  -1.93400 30.02200 20.05300
H  -3.33100 30.34300 20.93400
H  -6.17800 30.27900 24.51900
H  -6.76900 29.50400 26.09600
H  -5.53700 28.69900 25.24300
H  -4.05500 30.62500 30.45300
H  -7.53900 33.18100 32.09500
H  -6.10400 33.49000 32.98500
H  -7.11500 32.01600 33.18500
Mg -11.95600 16.15200 42.30900
C  -9.03700 14.61500 41.42500
C  -10.94500 18.95800 40.56000
C  -15.30500 17.48000 42.29500
C  -13.26400 13.21100 43.44300
N  -10.19800 16.67000 41.00900
C  -9.10000 15.92100 40.86100
C  -7.97400 16.66600 40.25700
C  -8.57400 18.11700 40.12500
C  -10.01100 17.92000 40.54500
C  -7.86900 19.09900 41.07300
C  -7.43200 16.05900 38.90000
C  -6.03900 15.60900 38.84900
H  -5.21600 16.14100 37.72200
N  -12.97200 18.03800 41.63600
C  -12.25800 19.05200 41.08500
C  -13.18300 20.21800 40.94900
C  -14.42000 19.82800 41.51300
C  -14.29200 18.40500 41.82200
C  -12.79200 21.59200 40.30200
C  -15.60800 20.75200 41.78700
O  -15.53000 21.93300 41.49100
C  -16.85700 20.24400 42.48100
N  -13.95000 15.45500 42.88100
C  -15.12300 16.20100 42.80400
C  -16.26400 15.40700 43.25800
C  -15.64900 14.06100 43.72700
C  -14.19200 14.21900 43.31700
C  -17.14700 15.99700 44.37600
C  -16.22700 12.70900 43.04000
C  -16.56200 11.65300 44.04200
N  -11.30900 14.29400 42.46300
C  -11.88500 13.22700 43.06700
C  -10.88000 12.13300 43.11200
C  -9.69800 12.65500 42.54800
C  -10.03700 13.93900 42.12300
C  -11.25300 10.77900 43.66200
C  -8.32600 12.34100 42.33600
O  -7.65200 11.37900 42.63100
C  -7.79200 13.68300 41.52000
C  -6.71900 14.27500 42.41700
O  -6.89100 15.26100 43.16900
O  -5.52000 13.71900 42.21300
C  -4.38800 14.12100 43.04200
H  -10.46300 19.86800 40.19700
H  -16.36900 17.71600 42.21900
H  -13.54700 12.24600 43.86700
H  -7.10400 16.72800 40.91200
H  -8.46800 18.52000 39.11700
H  -8.63300 19.47700 41.75200
H  -7.32800 19.90400 40.57600
H  -7.16100 18.58000 41.71800
H  -7.53000 16.85700 38.16400
H  -8.12200 15.31500 38.50100
H  -6.19800 14.53100 38.88200
H  -5.57300 16.00600 39.75100
H  -13.43900 21.77700 39.44500
H  -11.72800 21.66700 40.07300
H  -12.99000 22.32500 41.08400
H  -16.57300 19.51200 43.23700
H  -17.57100 19.85100 41.75700
H  -17.31000 21.06500 43.03600
H  -16.88500 15.23000 42.37900
H  -15.74500 14.14600 44.81000
H  -16.77200 16.94200 44.76900
H  -17.25900 15.26300 45.17400
H  -18.10600 16.24400 43.92100
H  -15.44400 12.37600 42.35900
H  -17.18500 12.95000 42.58000
H  -17.63500 11.46900 43.98100
H  -16.30500 11.97800 45.05000
H  -15.99200 10.77800 43.73100
H  -10.30700 10.40200 44.05200
H  -11.70900 10.19800 42.86000
H  -11.90200 10.75000 44.53700
H  -7.29900 13.43700 40.57900
H  -3.92000 13.20600 43.40500
H  -4.53700 14.76700 43.90700
H  -3.75400 14.66400 42.34200

