158

Mg 40.90900 9.01900 29.62600
C  42.74200 10.40100 32.22300
C  38.92100 7.47400 31.97000
C  39.44900 7.38800 27.02300
C  43.61600 9.88200 27.45000
N  40.92900 8.87800 31.94400
C  41.55800 9.68800 32.72800
C  41.04400 9.60000 34.22200
C  40.00000 8.44700 34.11400
C  39.93400 8.25500 32.54200
C  40.45400 7.06700 34.74300
C  40.54800 11.00500 34.64100
C  39.72000 11.10100 35.94300
H  40.13900 12.08200 37.12800
N  39.31100 7.72300 29.53900
C  38.58200 7.22700 30.61200
C  37.39500 6.67200 30.07900
C  37.53100 6.56200 28.67800
C  38.80200 7.20800 28.35200
C  36.27300 6.22200 30.96100
C  36.61100 5.92600 27.63500
O  36.86000 5.83400 26.46100
C  35.28200 5.23200 27.99300
N  41.49500 8.59700 27.45100
C  40.64400 7.98900 26.61200
C  41.32800 7.95700 25.18000
C  42.51300 8.96400 25.30000
C  42.58200 9.12100 26.81300
C  41.68300 6.57400 24.72900
C  42.18500 10.23500 24.47300
C  41.32200 11.36200 25.19200
N  42.73700 10.00100 29.71800
C  43.72100 10.25200 28.78000
C  44.75600 11.00000 29.38600
C  44.44700 11.06100 30.74600
C  43.17700 10.48600 30.87400
C  46.08500 11.35700 28.81900
C  44.91400 11.52300 32.04000
O  45.96700 11.97000 32.46100
C  43.75600 11.15400 33.08100
C  44.40200 10.35100 34.11600
O  44.86700 9.21300 33.97900
O  44.27400 11.05600 35.25700
C  44.37200 10.28100 36.47900
H  38.33200 7.06100 32.79200
H  38.91500 7.00700 26.15000
H  44.40000 10.27700 26.80100
H  41.81900 9.26800 34.91400
H  39.07400 8.74700 34.60500
H  41.47500 7.26600 35.07000
H  40.38600 6.27000 34.00200
H  39.73700 6.85100 35.53500
H  40.15700 11.53300 33.77100
H  41.48700 11.50700 34.87500
H  39.73600 10.15100 36.47700
H  38.68000 11.34300 35.72000
H  36.34600 5.15000 31.14400
H  35.37200 6.46000 30.39700
H  36.23600 6.74500 31.91700
H  34.98800 4.64300 27.12400
H  34.59800 5.93000 28.47500
H  35.59000 4.57300 28.80500
H  40.70900 8.30500 24.35300
H  43.50800 8.62000 25.01900
H  41.16700 5.71500 25.15800
H  42.77000 6.55900 24.81400
H  41.58600 6.53600 23.64400
H  41.78200 9.93800 23.50400
H  43.18800 10.61400 24.27700
H  41.78100 12.34800 25.27000
H  41.02000 11.05400 26.19300
H  40.42000 11.45500 24.58800
H  46.26000 12.42900 28.90800
H  46.25900 11.06400 27.78400
H  46.84300 10.81000 29.37900
H  43.33900 12.07600 33.48600
H  43.60700 10.77200 37.08100
H  45.39100 10.42600 36.83700
H  43.93900 9.29400 36.32000
Mg 47.93000 34.78600 26.50300
C  45.71700 33.67900 29.14400
C  48.52500 37.61000 28.30500
C  49.25500 35.99800 23.77300
C  46.83700 31.88700 24.71200
N  47.00300 35.58800 28.43400
C  46.25600 34.95300 29.37100
C  46.37600 35.70100 30.73500
C  46.98700 37.07800 30.29800
C  47.52600 36.78400 28.91100
C  46.06000 38.28800 30.34200
C  47.40800 34.90300 31.69200
C  47.05300 34.78000 33.24200
H  47.99900 35.37000 34.33000
N  48.91800 36.43900 26.12100
C  49.10000 37.45500 27.07300
C  49.94000 38.41700 26.47900
C  50.08500 38.01200 25.04900
C  49.43300 36.75800 24.94700
C  50.35200 39.76000 27.11000
C  50.83200 38.77500 23.97900
O  50.80800 38.41400 22.79300
C  51.71300 39.98100 24.32200
N  48.14800 33.93000 24.58900
C  48.67900 34.70800 23.59100
C  48.87200 33.91900 22.25900
C  48.40800 32.42700 22.72300
C  47.69600 32.74300 24.02500
C  48.06800 34.45200 21.06300
C  49.54100 31.26600 22.88800
C  50.98700 31.64000 22.58800
N  46.57200 33.04900 26.80600
C  46.27300 32.00500 25.96900
C  45.30900 31.08500 26.62800
C  45.07000 31.68800 27.88600
C  45.89900 32.84100 27.95600
C  44.64200 29.77800 26.19700
C  44.38500 31.58600 29.17800
O  43.58800 30.74700 29.61800
C  44.64500 32.89700 29.93300
C  44.86900 32.60500 31.37000
O  45.79700 31.86600 31.73000
O  43.83700 33.14800 32.14600
C  43.78200 32.76700 33.58100
H  48.80600 38.50900 28.85800
H  49.61400 36.46200 22.85200
H  46.60500 30.96700 24.17200
H  45.38400 35.81800 31.17100
H  47.81100 37.43400 30.91600
H  46.52000 38.94700 29.60700
H  45.90000 38.77700 31.30300
H  45.05800 38.16000 29.93300
H  48.43600 35.25400 31.78900
H  47.47900 33.88200 31.31500
H  46.91500 33.71300 33.42000
H  46.02600 35.07200 33.45800
H  51.41800 39.98100 27.07600
H  50.12600 39.90600 28.16700
H  49.88000 40.56400 26.54500
H  51.14900 40.57800 25.03900
H  51.83400 40.60600 23.43700
H  52.70500 39.68800 24.66700
H  49.93500 34.04800 22.05400
H  47.55900 32.10400 22.12100
H  48.79900 34.34300 20.26200
H  47.97400 35.53400 21.16500
H  47.08800 34.02900 20.84400
H  49.30400 30.44500 22.21100
H  49.44500 30.81800 23.87700
H  51.37600 32.25900 23.39600
H  51.07000 32.27500 21.70600
H  51.63800 30.77200 22.49400
H  43.56100 29.87200 26.30000
H  45.11200 29.10200 26.91200
H  45.00600 29.50000 25.20800
H  43.74300 33.50300 29.85100
H  43.90500 33.62000 34.24800
H  44.51600 32.00600 33.84500
H  42.78500 32.34900 33.72300

