158

Mg -2.53900 17.14100 27.41400
C  -2.71700 14.81100 29.88600
C  -2.74300 19.69400 29.68300
C  -2.57700 19.34000 24.78600
C  -3.37600 14.54000 25.09400
N  -2.74600 17.18400 29.58700
C  -2.66900 16.08800 30.42000
C  -2.59800 16.60100 31.95700
C  -2.78800 18.21700 31.79100
C  -2.77500 18.41400 30.21600
C  -4.01200 18.84400 32.69100
C  -1.24400 16.19500 32.52400
C  -0.81200 16.90900 33.77700
H  -0.59400 16.11500 35.07900
N  -2.38100 19.16600 27.27400
C  -2.48600 20.11500 28.30300
C  -2.27100 21.42200 27.81100
C  -2.08900 21.31600 26.39600
C  -2.35300 19.90000 26.08400
C  -2.46200 22.64000 28.69000
C  -1.76600 22.39300 25.30600
O  -1.82100 22.17300 24.12900
C  -1.42200 23.75000 25.77200
N  -3.08000 16.93600 25.28000
C  -2.87100 18.02300 24.36100
C  -3.11600 17.52200 22.91300
C  -3.09600 15.98000 23.07700
C  -3.15000 15.81600 24.54700
C  -4.46600 18.18900 22.42000
C  -1.87000 15.36500 22.29300
C  -1.08700 14.22700 23.01100
N  -2.92000 15.04700 27.39000
C  -3.13000 14.15200 26.38300
C  -3.20000 12.73400 26.93400
C  -3.07400 13.00100 28.36000
C  -2.81400 14.38300 28.55300
C  -3.46800 11.43000 26.18700
C  -3.14000 12.38900 29.70000
O  -3.36300 11.26200 30.05000
C  -2.88400 13.60500 30.63700
C  -1.78600 13.20700 31.49900
O  -0.61700 13.39000 31.20000
O  -2.24100 12.71100 32.67300
C  -1.29500 12.23500 33.61000
H  -2.83500 20.50100 30.41300
H  -2.39200 19.94700 23.89600
H  -3.66900 13.74600 24.40400
H  -3.44400 16.24000 32.54200
H  -1.86000 18.70800 32.08700
H  -3.64600 19.56700 33.41900
H  -4.55000 18.01500 33.15100
H  -4.71000 19.46300 32.12800
H  -0.48800 16.24300 31.74000
H  -1.18900 15.15300 32.83800
H  -1.52300 17.71600 33.95500
H  0.08100 17.50300 33.58600
H  -2.37100 22.34400 29.73500
H  -3.45400 23.05300 28.50900
H  -1.62300 23.33500 28.67200
H  -2.24300 24.07100 26.41300
H  -1.53200 24.33400 24.85800
H  -0.43200 23.79600 26.22600
H  -2.33100 17.90200 22.25800
H  -4.03800 15.59700 22.68300
H  -5.18200 17.38200 22.26600
H  -4.10300 18.56300 21.46300
H  -4.79300 18.97400 23.10200
H  -1.14200 16.16600 22.16800
H  -2.14100 14.95100 21.32200
H  -0.80300 14.73400 23.93300
H  -0.21800 13.93700 22.42100
H  -1.83500 13.43500 23.05800
H  -3.62500 11.75300 25.15800
H  -4.34400 10.92000 26.58800
H  -2.53500 10.90100 26.37800
H  -3.74200 13.68600 31.30400
H  -0.44000 11.88100 33.03500
H  -1.66700 11.42500 34.23700
H  -1.00600 13.00700 34.32400
Mg 1.97400 41.45500 24.87200
C  2.99500 41.72500 28.26200
C  -0.98100 40.06900 26.03100
C  1.04400 40.84200 21.77300
C  5.11700 42.50800 23.92000
N  1.19400 40.85500 26.92400
C  1.70600 41.28500 28.15100
C  0.62800 41.03500 29.26600
C  -0.52100 40.21900 28.55000
C  -0.04200 40.48700 27.07900
C  -0.68600 38.77400 28.93300
C  0.11500 42.42100 29.89900
C  0.00900 42.35200 31.45700
H  -0.81400 41.17100 32.04000
N  0.25200 40.62200 24.04600
C  -0.89100 40.09500 24.64300
C  -1.83300 39.78600 23.63100
C  -1.27100 40.09800 22.37100
C  0.04500 40.62100 22.65900
C  -3.22800 39.31400 23.92700
C  -1.89600 39.95700 20.91800
O  -1.26900 40.33300 19.90800
C  -3.25200 39.33100 20.72700
N  2.95600 41.43500 23.10500
C  2.34600 41.30100 21.94700
C  3.37700 41.38300 20.79800
C  4.41300 42.32200 21.49900
C  4.19500 42.05300 22.93700
C  3.90500 40.03500 20.29500
C  4.44000 43.81200 21.04300
C  3.81600 44.90700 22.03600
N  3.73600 42.04400 25.84500
C  4.93900 42.54900 25.33900
C  5.82300 42.90500 26.43400
C  5.05600 42.56600 27.57200
C  3.81500 42.03900 27.16500
C  7.21000 43.44600 26.37100
C  5.11500 42.80600 28.97400
O  5.92500 43.35000 29.71200
C  3.77500 42.14700 29.51700
C  4.25200 41.08200 30.33700
O  4.21900 39.90200 30.13600
O  4.74100 41.63900 31.52300
C  4.96600 40.60900 32.52600
H  -1.92500 39.60200 26.31900
H  0.91800 40.73800 20.69300
H  6.02500 42.94000 23.49400
H  1.03900 40.29000 29.94700
H  -1.49400 40.70600 28.60900
H  0.12900 38.52100 29.61000
H  -0.73700 38.05500 28.11500
H  -1.67100 38.69600 29.39400
H  -0.84800 42.68500 29.46000
H  0.92000 43.15300 29.83300
H  -0.40700 43.32300 31.72600
H  0.99200 42.25600 31.91900
H  -3.95400 40.10900 23.75900
H  -3.27800 38.87000 24.92100
H  -3.45300 38.44000 23.31500
H  -3.38400 39.29300 19.64500
H  -4.09000 39.86400 21.17500
H  -3.23100 38.34500 21.19000
H  2.99000 42.00000 19.98700
H  5.42400 41.95200 21.32800
H  3.45700 39.28000 20.94000
H  4.98600 39.92100 20.21600
H  3.53900 39.86100 19.28300
H  3.96500 43.94500 20.07100
H  5.49100 44.07700 20.92600
H  3.43400 44.57900 23.00300
H  2.91400 45.35600 21.62000
H  4.59400 45.64800 22.21900
H  7.32800 44.14900 25.54600
H  7.97300 42.67000 26.32600
H  7.40900 43.94200 27.32100
H  3.32900 42.98600 30.05100
H  4.26400 39.78900 32.37800
H  4.83100 41.07300 33.50300
H  5.98600 40.23600 32.62000

