158

Mg 52.73900 24.20600 44.86600
C  49.90300 26.27300 43.86000
C  51.06600 21.64900 43.26300
C  55.50900 22.56000 45.03000
C  54.38500 27.18600 45.74300
N  50.71800 24.03700 43.61400
C  49.80900 24.95400 43.33300
C  48.75400 24.47700 42.33600
C  48.82800 22.91300 42.53600
C  50.26100 22.80600 43.17100
C  47.60100 22.22300 43.28200
C  49.17900 24.92200 40.88000
C  47.95000 25.02200 40.00200
H  47.53700 23.77000 39.18500
N  53.20500 22.33700 44.28200
C  52.37000 21.39000 43.72900
C  53.03600 20.12800 43.68600
C  54.36000 20.35100 44.18300
C  54.44700 21.80600 44.52800
C  52.29400 18.82300 43.24300
C  55.46800 19.28600 44.22400
O  55.26500 18.18000 43.72600
C  56.80300 19.55800 44.96100
N  54.63200 24.75600 45.43100
C  55.65600 23.86900 45.43800
C  56.97100 24.45800 45.89400
C  56.60600 25.97900 45.83400
C  55.10600 25.97300 45.69800
C  57.54400 23.83800 47.29500
C  57.31600 26.68600 44.69700
C  58.30600 27.76400 45.07500
N  52.24700 26.26700 44.91600
C  52.96600 27.35800 45.43400
C  52.23500 28.45800 45.48100
C  50.93000 28.11800 44.98700
C  51.05300 26.77100 44.59400
C  52.80500 29.74900 46.09900
C  49.59600 28.57200 44.69500
O  49.02800 29.63800 44.98400
C  48.91900 27.43400 43.91600
C  48.38000 27.93900 42.58200
O  49.07100 28.27400 41.54600
O  47.00400 28.17900 42.67100
C  46.43300 28.53600 41.37400
H  50.45200 20.80400 42.94500
H  56.47700 22.06300 45.12600
H  54.87600 28.13800 45.95700
H  47.76700 24.83000 42.63600
H  48.68900 22.53800 41.52200
H  46.71000 22.81500 43.49000
H  47.91600 21.69500 44.18200
H  47.24600 21.49700 42.55100
H  49.88700 24.13000 40.63500
H  49.86500 25.76900 40.92100
H  47.97600 25.87600 39.32600
H  47.00400 25.16400 40.52500
H  52.57900 18.70100 42.19800
H  51.20800 18.79200 43.33200
H  52.72700 18.00200 43.81500
H  57.41000 20.04800 44.20000
H  57.29200 18.61800 45.21600
H  56.70400 20.20900 45.83000
H  57.60000 24.17400 45.05100
H  56.78000 26.49900 46.77600
H  57.33800 24.42600 48.19000
H  58.63000 23.74800 47.29100
H  57.06700 22.92000 47.63800
H  56.59200 27.09600 43.99300
H  57.87500 25.97100 44.09200
H  59.31700 27.61800 44.69500
H  58.54400 27.73100 46.13800
H  58.02200 28.75800 44.72900
H  53.61600 30.14100 45.48500
H  53.26100 29.43600 47.03900
H  52.07200 30.53300 46.28700
H  47.98300 27.14700 44.39600
H  45.37400 28.69600 41.57400
H  46.60900 27.70800 40.68700
H  46.84700 29.47300 41.00300
Mg 41.88400 41.38100 26.75700
C  41.34300 43.87100 28.94300
C  42.75500 39.31900 29.33500
C  42.31100 38.82400 24.53600
C  41.46100 43.53500 24.00700
N  42.18100 41.63400 28.91700
C  41.74500 42.69100 29.62500
C  41.69200 42.38300 31.22100
C  42.13500 40.89000 31.23900
C  42.46700 40.63100 29.70500
C  43.30500 40.60600 32.27500
C  40.29200 42.69400 31.74900
C  40.04300 42.14000 33.13700
H  40.39300 43.06100 34.33400
N  42.50400 39.37500 26.92000
C  42.87500 38.72200 28.05100
C  43.08000 37.30200 27.85900
C  42.95600 37.11500 26.50400
C  42.58900 38.41500 25.89900
C  43.50000 36.29800 28.96500
C  43.04100 35.85300 25.74500
O  42.68500 35.74200 24.57500
C  43.29300 34.57100 26.47400
N  42.02600 41.23400 24.51900
C  42.13400 40.02800 23.91600
C  41.88500 40.16800 22.38200
C  41.41100 41.60400 22.28300
C  41.62400 42.19200 23.68400
C  43.14500 39.81000 21.53400
C  39.97800 41.78100 21.72900
C  38.93800 40.97600 22.51700
N  41.57400 43.28400 26.49000
C  41.46800 44.08200 25.33700
C  41.20700 45.43000 25.70300
C  41.20300 45.39900 27.16900
C  41.42500 44.08800 27.57000
C  40.96300 46.55600 24.78600
C  40.91200 46.19000 28.34600
O  40.58000 47.36600 28.50600
C  41.12400 45.20900 29.48200
C  42.23500 45.72600 30.25800
O  43.45300 45.68400 29.96800
O  41.76900 46.34400 31.39500
C  42.75700 46.65300 32.40200
H  42.89800 38.60700 30.15100
H  42.37700 37.95400 23.88000
H  41.41900 44.25200 23.18400
H  42.33400 43.12300 31.69900
H  41.35000 40.18600 31.51600
H  43.09400 39.74200 32.90400
H  43.48400 41.33900 33.06200
H  44.12500 40.28000 31.63500
H  39.56100 42.44400 30.98000
H  40.22600 43.77600 31.86000
H  40.67400 41.26800 33.31300
H  39.01800 41.82200 33.33100
H  42.67800 35.61500 29.17700
H  43.77200 36.69800 29.94200
H  44.38300 35.73400 28.66500
H  42.43100 34.47200 27.13300
H  44.25700 34.47600 26.97300
H  43.35100 33.73300 25.78000
H  41.15000 39.39100 22.17400
H  42.10600 42.05600 21.57600
H  43.02200 39.16800 20.66200
H  43.79400 39.22900 22.18800
H  43.84500 40.58500 21.22000
H  39.94200 41.38500 20.71400
H  39.61900 42.80700 21.64900
H  38.50200 40.19700 21.89100
H  38.18200 41.62400 22.96100
H  39.37000 40.31500 23.26800
H  41.95500 46.86900 24.46100
H  40.44200 47.33300 25.34500
H  40.32100 46.10600 24.02800
H  40.22200 45.10400 30.08600
H  42.71900 45.69900 32.92900
H  42.31300 47.44100 33.01200
H  43.83400 46.74800 32.26700

