158

Mg 24.30600 -4.58600 45.51800
C  26.43500 -2.45100 43.64900
C  21.56900 -3.68200 43.35500
C  22.76300 -7.43400 46.24500
C  27.21800 -5.67900 47.24100
N  24.06800 -3.19300 43.75800
C  25.06200 -2.40800 43.23500
C  24.47700 -1.55100 42.07600
C  22.97800 -1.79300 42.22100
C  22.87100 -2.98400 43.14300
C  22.15700 -0.49700 42.75800
C  25.14800 -2.15300 40.73900
C  25.84600 -1.26400 39.72500
H  25.38900 -1.35900 38.25500
N  22.32100 -5.41800 44.94200
C  21.34900 -4.88800 44.11200
C  20.20200 -5.77600 44.15400
C  20.56800 -6.90900 44.88800
C  21.98700 -6.62400 45.40400
C  18.90400 -5.46700 43.49700
C  19.59700 -8.07500 45.13700
O  18.45700 -8.08500 44.64500
C  20.02800 -9.19300 45.94000
N  24.81900 -6.23400 46.65100
C  23.98500 -7.22300 46.87000
C  24.64000 -8.33300 47.76000
C  25.95300 -7.68900 48.25500
C  26.05300 -6.45800 47.37300
C  23.71300 -8.95200 48.83000
C  27.28000 -8.66600 48.07700
C  28.29600 -8.63200 49.18400
N  26.42400 -4.13800 45.59200
C  27.42400 -4.70100 46.32800
C  28.69900 -4.00200 45.98400
C  28.33000 -3.20300 44.87400
C  26.94100 -3.26200 44.71600
C  30.04000 -4.32100 46.53200
C  28.87000 -2.25800 43.93100
O  29.97300 -1.89900 43.83300
C  27.60500 -1.70800 43.09400
C  27.58500 -0.13600 43.32200
O  27.48600 0.41000 44.39900
O  27.67700 0.58800 42.11800
C  27.52300 2.03200 42.10300
H  20.73500 -3.29800 42.76200
H  22.31500 -8.40000 46.48700
H  28.11700 -5.88000 47.82700
H  24.80300 -0.51100 42.10700
H  22.48900 -2.10400 41.29800
H  22.65600 0.41700 42.43900
H  22.22400 -0.50200 43.84600
H  21.13000 -0.50200 42.39300
H  24.43700 -2.81000 40.23900
H  25.86900 -2.93100 40.99200
H  26.87700 -1.61600 39.70200
H  25.95000 -0.20300 39.95000
H  18.46600 -6.24600 42.87300
H  19.07000 -4.51700 42.98900
H  18.18800 -5.27500 44.29700
H  20.80100 -9.70500 45.36700
H  19.20100 -9.89700 46.04000
H  20.44400 -8.77000 46.85400
H  24.91600 -9.18500 47.13900
H  25.91700 -7.34900 49.29000
H  22.67600 -8.61600 48.85700
H  24.18600 -8.79900 49.80000
H  23.60600 -10.03500 48.76900
H  27.67700 -8.31400 47.12500
H  27.01200 -9.70100 47.86600
H  28.36400 -9.64200 49.58800
H  28.06300 -7.99300 50.03600
H  29.15200 -8.47600 48.52700
H  29.90700 -5.40200 46.47400
H  30.26100 -4.15300 47.58600
H  30.86100 -3.85200 45.99000
H  27.79500 -1.83600 42.02900
H  27.46700 2.28000 43.16300
H  26.63400 2.27900 41.52200
H  28.35000 2.59300 41.66900
Mg 31.18500 58.79100 40.67100
C  28.32500 57.21900 39.37300
C  33.03700 56.29600 39.15000
C  33.94300 60.71400 41.01400
C  29.13500 61.52000 41.66700
N  30.70300 57.01300 39.28800
C  29.49400 56.47800 39.09100
C  29.62200 55.05300 38.60200
C  31.16500 54.73400 38.85300
C  31.68000 56.09100 39.12700
C  31.45100 53.75500 39.98000
C  29.28600 54.86400 37.06300
C  27.97400 54.22200 36.61600
H  27.18800 54.81700 35.38700
N  33.20900 58.46300 40.13000
C  33.78800 57.42700 39.57000
C  35.24500 57.59200 39.36000
C  35.54700 58.79100 40.03500
C  34.22200 59.35500 40.49600
C  36.09300 56.56300 38.74800
C  36.87700 59.37500 40.24200
O  37.89200 58.79400 39.86700
C  37.03900 60.74100 40.88000
N  31.49300 60.80300 41.25500
C  32.78200 61.32400 41.30200
C  32.70600 62.76000 41.86900
C  31.18300 63.11900 42.01000
C  30.53500 61.75200 41.68000
C  33.73700 63.03600 43.00800
C  30.71000 64.33800 41.17000
C  29.49800 65.15200 41.67100
N  29.18400 59.27500 40.60100
C  28.53600 60.38400 41.04400
C  27.10700 60.25900 40.85500
C  26.96800 59.02100 40.22400
C  28.24700 58.48700 40.04200
C  26.00700 61.18900 41.35700
C  25.97900 58.00700 39.73600
O  24.72100 58.00200 39.64000
C  26.84500 56.80300 39.18900
C  26.56400 55.63500 40.01800
O  27.14400 55.38600 41.08700
O  25.59500 54.84400 39.41300
C  25.26000 53.65100 40.15700
H  33.55500 55.39800 38.80700
H  34.79900 61.37600 41.16000
H  28.49200 62.32700 42.02600
H  28.95200 54.43400 39.19800
H  31.73600 54.38700 37.99100
H  30.59300 53.73000 40.65200
H  32.32600 53.99200 40.58600
H  31.54800 52.68900 39.77400
H  30.06500 54.32700 36.52300
H  29.20400 55.86900 36.64900
H  27.24900 54.15700 37.42700
H  28.29400 53.19500 36.44100
H  36.64600 57.08100 37.96400
H  35.47800 55.83500 38.21900
H  36.78700 56.12300 39.46400
H  36.55400 61.52300 40.29500
H  38.09100 61.01200 40.96000
H  36.73700 60.77400 41.92700
H  33.10400 63.43400 41.11000
H  31.05800 63.31100 43.07500
H  34.15800 62.15500 43.49300
H  33.34500 63.63000 43.83300
H  34.63500 63.59000 42.73400
H  30.32200 63.86000 40.27100
H  31.65400 64.82500 40.92500
H  29.79100 66.20100 41.72000
H  29.09100 64.66300 42.55600
H  28.71000 65.09600 40.91900
H  26.31800 62.17300 41.00700
H  26.04800 61.14900 42.44600
H  25.03200 60.97800 40.91900
H  26.57900 56.41200 38.20700
H  26.16200 53.08700 40.39500
H  24.61900 52.99200 39.57100
H  24.72300 53.77600 41.09700

