158

Mg 50.67300 45.30200 42.09900
C  47.75100 46.73000 40.64000
C  49.72300 42.32200 40.81900
C  53.78500 44.33400 42.43800
C  51.66000 48.74200 42.82000
N  48.97800 44.63100 40.76200
C  47.82400 45.29900 40.46000
C  46.81000 44.35400 39.75600
C  47.38800 42.89900 40.15300
C  48.76500 43.29800 40.72200
C  46.50500 42.05200 41.08700
C  46.73200 44.64900 38.20600
C  45.28000 44.88300 37.64200
H  44.86500 43.88600 36.53400
N  51.63000 43.47600 41.66500
C  51.08500 42.31900 41.14200
C  52.11400 41.32000 41.11400
C  53.30300 41.85500 41.55600
C  52.97900 43.28900 41.92100
C  51.78600 39.96800 40.61000
C  54.62300 41.04500 41.71000
O  54.71000 39.88800 41.34000
C  55.81600 41.66300 42.21500
N  52.43400 46.45500 42.47100
C  53.54400 45.69800 42.71200
C  54.82800 46.61900 43.10600
C  54.04200 48.00200 43.31000
C  52.62600 47.70600 42.87900
C  55.69100 46.07900 44.29300
C  54.76700 49.06500 42.41500
C  54.84700 50.64500 42.87100
N  49.83500 47.34200 41.93200
C  50.42400 48.55400 42.18400
C  49.56100 49.57900 41.76200
C  48.46100 48.88900 41.13300
C  48.66200 47.55900 41.25800
C  49.80500 51.08600 41.87000
C  47.21600 49.10100 40.41600
O  46.66500 50.14500 40.07900
C  46.62700 47.77000 40.15000
C  45.32000 47.60000 40.80100
O  45.07700 46.86100 41.74600
O  44.40400 48.36800 40.17900
C  43.10500 48.25900 40.87800
H  49.36400 41.33800 40.51100
H  54.84900 44.09900 42.36400
H  51.81800 49.76600 43.16500
H  45.79000 44.47800 40.12000
H  47.55300 42.20900 39.32600
H  45.48200 42.39900 40.94200
H  46.81400 42.15300 42.12700
H  46.42400 40.98200 40.89700
H  47.02100 43.73700 37.68300
H  47.27900 45.57300 38.01900
H  45.04400 45.90100 37.33400
H  44.50200 44.92400 38.40400
H  52.47100 39.65900 39.82100
H  50.81200 39.90400 40.12400
H  51.96500 39.23800 41.39900
H  55.68900 42.03900 43.23000
H  56.00900 42.49200 41.53500
H  56.72500 41.07200 42.09700
H  55.58800 46.60900 42.32400
H  54.13200 48.15200 44.38600
H  56.65200 45.68700 43.96000
H  55.13200 45.21500 44.65400
H  55.67600 46.78900 45.12000
H  54.25100 49.05400 41.45500
H  55.78800 48.76900 42.17400
H  54.60100 50.64000 43.93300
H  54.16400 51.25600 42.28000
H  55.82700 51.05400 42.62900
H  50.85300 51.38200 41.93300
H  49.37100 51.34300 42.83600
H  49.26200 51.50800 41.02400
H  46.49800 47.66700 39.07200
H  42.31000 48.70000 40.27600
H  43.11900 48.70900 41.87100
H  42.81400 47.22200 41.04800
Mg 48.51900 34.62500 26.32500
C  46.47200 33.55800 28.95400
C  49.07800 37.49500 28.13000
C  50.04500 35.99900 23.67600
C  47.42400 32.06600 24.30800
N  47.77300 35.46300 28.34800
C  47.10000 34.76800 29.35200
C  47.42400 35.44500 30.73700
C  47.83700 36.86900 30.24600
C  48.36500 36.53700 28.81500
C  46.69900 37.99500 30.13500
C  48.53500 34.64700 31.52400
C  48.38800 34.42200 33.07200
H  47.42300 35.50200 33.71100
N  49.49300 36.42800 26.00000
C  49.67500 37.43500 26.89000
C  50.46600 38.53300 26.30200
C  50.73800 38.11300 24.99600
C  50.00500 36.84000 24.85400
C  50.77900 39.80400 27.09500
C  51.52000 38.81900 23.95900
O  51.39900 38.64300 22.77200
C  52.30800 40.00800 24.36900
N  48.85700 34.00400 24.35600
C  49.46200 34.70000 23.42100
C  49.44100 34.05200 22.06300
C  48.82200 32.62300 22.37600
C  48.40100 32.90600 23.77300
C  48.75500 34.92400 21.01100
C  49.76800 31.36700 22.20900
C  49.39200 30.33300 21.15700
N  47.24000 33.09100 26.54900
C  46.91000 32.08100 25.65600
C  45.96800 31.21600 26.32600
C  45.80900 31.74300 27.59600
C  46.50100 32.95000 27.68100
C  45.41800 29.89700 25.68600
C  45.10500 31.49200 28.86700
O  44.32900 30.58400 29.22300
C  45.58700 32.58600 29.85500
C  46.35000 31.87500 30.87100
O  47.44900 31.42100 30.69300
O  45.63500 31.81200 32.02600
C  46.32700 30.98700 33.01300
H  49.33900 38.38200 28.71200
H  50.46800 36.46800 22.78600
H  47.15000 31.16200 23.76000
H  46.47900 35.50400 31.27600
H  48.59500 37.33300 30.87600
H  46.27200 38.10400 29.13800
H  47.12600 38.95600 30.42300
H  46.02000 37.68800 30.93100
H  49.50300 35.05400 31.23200
H  48.52600 33.63500 31.11900
H  49.35700 34.57200 33.55000
H  48.01300 33.43100 33.32800
H  51.76700 39.71800 27.54600
H  50.07900 40.02300 27.90200
H  50.63200 40.66600 26.44500
H  51.66800 40.88500 24.46600
H  53.10300 40.13300 23.63400
H  52.69500 39.76200 25.35900
H  50.48800 33.92100 21.78900
H  47.92500 32.49500 21.77100
H  48.02100 34.36100 20.43500
H  49.30000 35.55800 20.31200
H  48.21500 35.67700 21.58500
H  49.78200 30.89200 23.19000
H  50.78000 31.71300 21.99600
H  50.22300 30.47700 20.46700
H  48.44700 30.51100 20.64300
H  49.46800 29.32700 21.56900
H  44.86200 29.43200 26.50000
H  46.30100 29.27700 25.53400
H  44.80300 30.01300 24.79300
H  44.79900 33.09500 30.41000
H  45.81200 31.05600 33.97100
H  47.34700 31.29300 33.24400
H  46.29100 29.94000 32.71200

