158

Mg -0.08400 6.80600 25.90800
C  0.96900 9.29600 27.98200
C  -0.16900 4.61900 28.56700
C  -0.99700 4.33000 23.77400
C  0.66400 8.98200 23.13900
N  0.23600 7.02000 28.08900
C  0.66300 8.14600 28.69000
C  0.79400 7.80000 30.24200
C  0.69100 6.28600 30.30900
C  0.25000 5.87800 28.90100
C  2.02100 5.55500 30.69400
C  -0.14800 8.69500 31.09000
C  -0.45800 8.20400 32.50500
H  0.80800 7.81000 33.21500
N  -0.57900 4.69000 26.14900
C  -0.53000 4.00700 27.37200
C  -0.80800 2.62300 27.12500
C  -1.05400 2.49700 25.69800
C  -0.91600 3.89400 25.15400
C  -0.94500 1.62700 28.22900
C  -1.45000 1.24700 24.93600
O  -1.55700 1.39700 23.72000
C  -1.53700 -0.20500 25.63400
N  -0.03300 6.63500 23.73500
C  -0.63800 5.58000 23.15400
C  -0.99700 5.86000 21.64900
C  -0.47200 7.38400 21.47800
C  0.11400 7.68200 22.86300
C  -0.37700 4.79700 20.68700
C  -1.60000 8.52100 21.10600
C  -2.36200 9.36300 22.11300
N  0.52200 8.77200 25.59100
C  0.84800 9.48000 24.44600
C  1.19000 10.82800 24.77300
C  1.21400 10.82000 26.18600
C  0.92300 9.50500 26.60000
C  1.65000 11.90200 23.74500
C  1.48500 11.65200 27.44000
O  1.86700 12.79900 27.56000
C  1.37400 10.56800 28.63300
C  2.69500 10.69500 29.27900
O  3.64000 10.01600 28.96600
O  2.69900 11.58100 30.30700
C  3.96300 11.58800 31.00800
H  -0.26500 4.06300 29.50200
H  -1.44500 3.64500 23.05100
H  0.77400 9.53500 22.20300
H  1.79800 8.11200 30.53200
H  -0.09800 6.03000 31.01600
H  2.83600 6.24700 30.90500
H  2.36400 4.90300 29.89100
H  1.95900 4.95500 31.60100
H  -1.00600 8.96100 30.47200
H  0.34100 9.65000 31.28200
H  -1.22500 7.43200 32.56000
H  -0.92500 9.06900 32.97700
H  -1.99400 1.33000 28.22700
H  -0.70200 2.04100 29.20800
H  -0.31700 0.76000 28.02500
H  -1.87600 -0.81200 24.79500
H  -2.36500 -0.13900 26.34100
H  -0.61000 -0.53800 26.10200
H  -2.08400 5.84100 21.57700
H  0.34700 7.46700 20.76300
H  0.02600 3.85600 21.06100
H  0.43700 5.31100 20.17600
H  -1.16100 4.59800 19.95600
H  -2.20700 7.98000 20.38000
H  -1.03000 9.27400 20.56200
H  -2.11900 10.37900 21.80400
H  -2.11300 9.18300 23.15900
H  -3.45200 9.34300 22.10100
H  0.78200 12.27200 23.20100
H  2.53500 11.71000 23.13700
H  1.78800 12.72400 24.44700
H  0.53100 10.92200 29.22600
H  4.85700 11.33300 30.43800
H  3.91000 11.01200 31.93100
H  4.07900 12.59700 31.40500
Mg 0.96000 42.47900 25.31700
C  1.92000 42.44600 28.78000
C  -1.84200 41.01000 26.24200
C  0.64000 41.88400 22.13900
C  4.11500 43.91200 24.61900
N  0.06600 42.00400 27.30000
C  0.58200 42.22600 28.55200
C  -0.47500 42.02000 29.59400
C  -1.68200 41.31200 28.79800
C  -1.16500 41.45600 27.33900
C  -2.03300 39.84600 29.23800
C  -0.99600 43.30600 30.24800
C  -1.44500 43.39400 31.71800
H  -1.84900 42.07800 32.38700
N  -0.46000 41.68700 24.32200
C  -1.47900 41.07100 24.85400
C  -2.30500 40.45800 23.83200
C  -1.64400 40.69000 22.59400
C  -0.41700 41.46900 22.94400
C  -3.47600 39.65700 24.31100
C  -1.98300 40.27500 21.17500
O  -1.22900 40.50200 20.22000
C  -3.45700 39.68100 20.91100
N  2.17000 42.97800 23.62800
C  1.77600 42.59100 22.38100
C  2.62700 43.12800 21.24200
C  3.63300 43.96500 22.13600
C  3.34300 43.58200 23.52300
C  3.28600 42.07900 20.30900
C  3.56500 45.49400 21.92600
C  4.11900 45.85900 20.55900
N  2.72800 42.95800 26.38900
C  3.97300 43.48900 25.93000
C  4.91300 43.57000 27.07800
C  4.12800 43.13800 28.18800
C  2.84900 42.73500 27.67300
C  6.29700 44.25300 27.02200
C  4.12600 42.99600 29.61500
O  5.05100 43.02300 30.43600
C  2.71200 42.73300 30.02300
C  2.68300 41.57100 30.91400
O  2.87700 40.42900 30.59800
O  2.38100 41.99200 32.18100
C  2.19600 40.88500 33.12300
H  -2.83400 40.64700 26.51800
H  0.58000 41.69000 21.06600
H  5.06100 44.40400 24.38100
H  -0.19700 41.33200 30.39200
H  -2.52900 41.99500 28.73500
H  -1.77700 39.23000 28.37600
H  -3.05800 39.63500 29.54300
H  -1.41300 39.53000 30.07800
H  -1.75700 43.81000 29.65200
H  -0.16500 44.00700 30.17800
H  -2.09100 44.27100 31.74400
H  -0.52000 43.71900 32.19500
H  -3.98700 38.97800 23.62900
H  -4.06200 40.44700 24.78100
H  -3.10700 38.89000 24.99200
H  -4.14700 40.30200 21.48200
H  -3.51200 38.69700 21.37700
H  -3.90400 39.75800 19.91900
H  2.12400 43.91700 20.68200
H  4.67900 43.70600 21.97200
H  4.36400 42.10400 20.47000
H  3.04700 42.05300 19.24600
H  3.02000 41.08200 20.66100
H  4.36700 45.86800 22.56200
H  2.62100 45.95200 22.22400
H  4.99800 46.50100 20.60900
H  3.41400 46.54300 20.08700
H  4.19600 45.04700 19.83700
H  6.98400 43.81400 27.74600
H  6.16600 45.31800 27.21500
H  6.78100 44.17200 26.04900
H  2.26100 43.56700 30.56000
H  3.19900 40.78700 33.53900
H  1.89700 39.97500 32.60200
H  1.49300 41.22900 33.88100

