158

Mg 2.37000 -1.73400 43.34300
C  5.82000 -0.93200 42.73800
C  1.47800 1.04300 41.66600
C  -0.71700 -2.85200 43.48800
C  3.53600 -4.87700 44.61900
N  3.56200 -0.21600 42.16800
C  4.92600 0.03600 42.24600
C  5.32200 1.37000 41.65000
C  3.87500 2.05600 41.44700
C  2.90000 0.89500 41.83500
C  3.69600 3.39700 42.34500
C  6.09700 1.24600 40.30800
C  7.43600 2.00200 40.21000
H  8.05600 2.32900 38.79700
N  0.58500 -1.04800 42.59000
C  0.40300 0.17900 42.04400
C  -0.98100 0.34300 41.66600
C  -1.66000 -0.68600 42.32300
C  -0.61100 -1.61800 42.82000
C  -1.56800 1.41200 40.80600
C  -3.21700 -0.82500 42.30800
O  -3.87000 0.08400 41.86300
C  -3.91100 -2.05100 42.89900
N  1.53000 -3.61000 44.04400
C  0.20200 -3.80200 43.97900
C  -0.16300 -5.19200 44.47300
C  1.21600 -5.81600 44.89800
C  2.11300 -4.70500 44.43400
C  -1.30700 -5.11800 45.60400
C  1.61800 -7.14300 44.27000
C  1.54400 -8.41200 45.15100
N  4.24600 -2.77100 43.62500
C  4.49300 -3.96900 44.24500
C  5.88100 -4.08900 44.49600
C  6.45800 -2.93400 43.92500
C  5.42400 -2.20600 43.31600
C  6.59700 -5.18900 45.24600
C  7.72900 -2.17500 43.73500
O  8.89000 -2.36600 44.09500
C  7.32700 -0.80200 43.04300
C  7.57100 0.38000 43.92000
O  6.82500 0.79400 44.82500
O  8.63400 1.04900 43.44400
C  8.86100 2.40300 43.96300
H  1.18500 2.01200 41.25500
H  -1.77500 -3.12000 43.51200
H  3.88600 -5.74400 45.18200
H  5.88900 1.86200 42.44000
H  3.63500 2.27800 40.40700
H  4.70400 3.68300 42.64400
H  3.16100 3.00900 43.21200
H  3.22400 4.21500 41.80200
H  5.53600 1.52600 39.41700
H  6.49700 0.25100 40.11400
H  8.29300 1.53100 40.69000
H  7.26200 2.94500 40.72800
H  -2.25700 0.94500 40.10200
H  -0.76400 1.86500 40.22500
H  -1.97600 2.20700 41.42900
H  -4.92400 -1.65600 42.81500
H  -3.62700 -1.98300 43.94900
H  -3.82100 -2.93000 42.26100
H  -0.53700 -5.75900 43.62000
H  1.27800 -5.81500 45.98600
H  -2.23500 -5.60600 45.30700
H  -1.67600 -4.11600 45.82400
H  -0.92800 -5.51400 46.54700
H  2.60600 -7.09600 43.81400
H  0.86500 -7.27600 43.49300
H  2.34000 -9.09700 44.85900
H  0.64300 -8.96200 44.88000
H  1.49900 -8.18200 46.21600
H  7.16800 -5.81600 44.56200
H  5.99000 -5.89000 45.81900
H  7.29500 -4.64900 45.88600
H  7.81600 -0.59200 42.09200
H  8.50400 3.23600 43.35800
H  9.94800 2.44500 44.03300
H  8.48400 2.53800 44.97800
Mg 35.28900 2.39900 30.42100
C  33.17900 3.70300 32.77500
C  37.76800 2.09800 32.82800
C  37.61200 1.57800 27.96900
C  33.09000 3.16600 27.99300
N  35.34600 2.81800 32.57700
C  34.34000 3.23200 33.38700
C  34.74500 3.38300 34.93400
C  36.27700 3.06600 34.82600
C  36.53300 2.65400 33.27000
C  37.22400 4.28500 35.27600
C  33.91600 2.40300 35.78000
C  33.55300 2.91900 37.22700
H  34.42200 4.08200 37.80000
N  37.34300 1.84900 30.40800
C  38.12200 1.67800 31.55100
C  39.42200 1.08500 31.13100
C  39.31000 0.80600 29.72200
C  38.03300 1.40600 29.28400
C  40.49300 0.79400 32.21100
C  40.32400 0.08500 28.89900
O  40.17900 -0.14900 27.73600
C  41.63500 -0.36000 29.55300
N  35.35000 2.41400 28.27500
C  36.41500 2.04300 27.50500
C  36.11700 2.30900 26.06800
C  34.64000 2.73000 26.03200
C  34.31000 2.71500 27.51200
C  37.10200 3.26300 25.40600
C  33.71200 1.94100 25.09300
C  33.42200 0.51500 25.50100
N  33.42800 3.19800 30.34200
C  32.56600 3.47400 29.29300
C  31.22800 3.84300 29.77400
C  31.39900 3.96600 31.16400
C  32.74600 3.61800 31.38900
C  30.07500 4.09800 28.90200
C  30.80500 4.34800 32.39300
O  29.70800 4.78200 32.67000
C  31.94500 4.15600 33.44300
C  32.23100 5.45100 34.20000
O  32.68500 6.50900 33.74600
O  31.74200 5.37400 35.48600
C  31.76800 6.54000 36.33300
H  38.53200 2.12700 33.60800
H  38.33800 1.31400 27.19800
H  32.37100 3.25500 27.17600
H  34.65600 4.42800 35.23000
H  36.61800 2.17600 35.35500
H  37.93800 4.51000 34.48400
H  37.80600 3.99300 36.15000
H  36.66000 5.19700 35.47500
H  34.42500 1.44700 35.90000
H  32.96500 2.30200 35.25800
H  33.72800 2.02600 37.82600
H  32.54000 3.32200 37.23200
H  41.47300 1.21500 31.98500
H  40.54900 -0.29100 32.30400
H  40.25300 1.04700 33.24400
H  41.37600 -1.10700 30.30300
H  42.29100 0.44300 29.89100
H  42.09300 -1.00700 28.80500
H  36.28300 1.32700 25.62300
H  34.49900 3.75300 25.68200
H  37.62600 2.64400 24.67800
H  37.88000 3.76700 25.98000
H  36.55400 4.10300 24.98000
H  34.24000 1.99600 24.14100
H  32.76000 2.46500 25.00600
H  33.79200 -0.18200 24.74900
H  32.34900 0.35000 25.59700
H  33.86000 0.17600 26.43900
H  29.51000 4.99300 29.16500
H  29.37200 3.29600 29.12500
H  30.36300 4.10200 27.85100
H  31.55700 3.40100 34.12600
H  30.90400 7.08900 35.95800
H  32.65800 7.14800 36.17000
H  31.61000 6.39200 37.40200

