158

Mg 1.58500 7.94900 27.58800
C  2.10800 10.02100 30.32900
C  2.01600 5.24200 29.91500
C  1.25300 5.84400 25.07200
C  1.62700 10.58700 25.41900
N  1.94700 7.68700 29.83000
C  1.88000 8.76100 30.70900
C  1.67500 8.25000 32.11900
C  2.19600 6.77900 32.01600
C  1.96400 6.50800 30.48900
C  3.47500 6.19900 32.63000
C  0.26800 8.36300 32.54100
C  -0.12100 8.43100 34.11400
H  1.14400 8.20500 35.09200
N  1.49000 5.83800 27.50000
C  1.77200 4.89500 28.53300
C  1.73800 3.57400 27.87900
C  1.37900 3.67800 26.50500
C  1.33200 5.14200 26.28500
C  2.00000 2.26000 28.61000
C  1.23700 2.57900 25.43900
O  0.95800 2.90100 24.26600
C  1.32500 1.05100 25.75400
N  1.37100 8.17400 25.62400
C  1.29600 7.20200 24.72900
C  1.01400 7.64100 23.29200
C  0.86800 9.21100 23.54400
C  1.24800 9.35200 24.93700
C  2.21400 7.46900 22.27300
C  -0.45600 9.86300 23.00600
C  -0.44400 11.13900 22.24000
N  1.96300 9.93300 27.77000
C  1.96200 10.90000 26.76500
C  2.14600 12.16000 27.39100
C  2.24200 11.90100 28.75900
C  2.05200 10.54000 28.92800
C  2.12800 13.54500 26.68000
C  2.48700 12.48000 30.10600
O  2.78100 13.60300 30.46600
C  2.33600 11.34300 31.16000
C  3.54300 11.26300 32.02200
O  4.65700 11.13700 31.54800
O  3.35500 11.48900 33.42300
C  4.57200 11.68500 34.21400
H  1.94600 4.44700 30.66000
H  1.12500 5.24000 24.17100
H  1.46400 11.45800 24.78000
H  2.31500 8.79800 32.81100
H  1.51400 6.08500 32.50800
H  4.03100 6.98800 33.13500
H  4.20700 5.90000 31.87900
H  3.33700 5.27200 33.18800
H  -0.34200 7.57300 32.10200
H  -0.16300 9.20800 32.00400
H  -0.88500 7.65900 34.20300
H  -0.66400 9.36100 34.27800
H  1.18700 1.61900 28.27000
H  1.90300 2.31200 29.69400
H  2.89600 1.74400 28.26600
H  1.38000 0.43300 24.85900
H  0.43800 0.70500 26.28600
H  2.16900 0.81900 26.40300
H  0.11400 7.13700 22.94000
H  1.59900 9.78900 22.97700
H  1.82100 7.04800 21.34700
H  2.86500 6.72100 22.72600
H  2.81600 8.37000 22.15300
H  -1.10700 10.17000 23.82500
H  -1.05600 9.12900 22.46800
H  -0.83400 10.80300 21.27900
H  0.57400 11.41900 21.97000
H  -1.01700 11.99700 22.59200
H  3.02300 13.82900 26.12800
H  1.88200 14.26500 27.46100
H  1.22100 13.41000 26.09000
H  1.52300 11.56500 31.85200
H  4.53300 12.51700 34.91800
H  5.40800 12.02700 33.60500
H  4.77400 10.73500 34.70800
Mg 17.58300 -0.97600 27.95400
C  16.83500 1.11600 30.69400
C  20.01700 -2.44400 29.93100
C  18.66100 -2.43900 25.24100
C  15.64100 1.26400 25.95600
N  18.35500 -0.65600 30.08900
C  17.76000 0.15200 31.03900
C  18.24500 -0.15600 32.43300
C  19.41400 -1.17300 32.12700
C  19.35800 -1.34500 30.59300
C  20.78000 -0.69000 32.61300
C  17.09100 -0.69300 33.41900
C  16.78500 0.00500 34.73400
H  18.02300 0.71400 35.34600
N  18.94500 -2.31900 27.66800
C  19.85000 -2.84400 28.56900
C  20.57900 -3.93000 27.90400
C  20.26000 -3.95100 26.56800
C  19.21700 -2.87600 26.45500
C  21.58400 -4.69600 28.68600
C  20.86800 -4.79100 25.44000
O  20.47100 -4.66800 24.30000
C  21.93000 -5.88300 25.77200
N  17.13600 -0.70500 25.89100
C  17.81100 -1.37700 24.97100
C  17.69500 -0.69700 23.56300
C  16.68900 0.47400 23.80000
C  16.39200 0.26100 25.30900
C  19.12100 -0.29300 22.94500
C  15.46500 0.45200 22.88000
C  14.30700 -0.51300 23.19200
N  16.42900 0.74200 28.20700
C  15.70700 1.55400 27.30600
C  14.98300 2.62600 27.99500
C  15.39000 2.40900 29.33200
C  16.26900 1.30300 29.42400
C  14.07900 3.71900 27.50100
C  15.19200 2.92600 30.66700
O  14.40700 3.78500 30.99000
C  16.15800 2.16800 31.62600
C  17.06300 3.06100 32.38600
O  18.25700 3.21700 32.21900
O  16.38600 3.76300 33.34500
C  17.19600 4.94300 33.77700
H  20.96200 -2.72200 30.40400
H  19.08500 -2.87500 24.33400
H  15.18800 2.13300 25.47600
H  18.53200 0.81500 32.83700
H  19.11200 -2.12700 32.56000
H  21.53000 -0.46700 31.85400
H  21.15100 -1.42600 33.32700
H  20.58200 0.17200 33.24900
H  17.19900 -1.75400 33.64600
H  16.15900 -0.66600 32.85500
H  16.45600 -0.74200 35.45600
H  15.92100 0.66900 34.71800
H  21.09100 -5.66600 28.76600
H  21.93900 -4.38600 29.66900
H  22.51600 -4.87500 28.15100
H  21.49300 -6.45000 26.59400
H  22.84500 -5.38600 26.09600
H  22.06300 -6.42000 24.83300
H  17.38400 -1.44300 22.83200
H  17.27400 1.38500 23.67500
H  19.26100 0.76700 22.73300
H  19.36000 -0.85500 22.04200
H  19.98700 -0.44500 23.58900
H  15.84200 0.08800 21.92400
H  15.08600 1.46900 22.77800
H  13.50600 0.08300 23.63000
H  14.54400 -1.20100 24.00300
H  14.07600 -1.14000 22.33100
H  13.46500 3.28400 26.71200
H  14.84800 4.39000 27.11900
H  13.51100 4.11400 28.34300
H  15.53600 1.59000 32.30900
H  16.60500 5.34700 34.59900
H  17.26700 5.74100 33.03800
H  18.15800 4.61300 34.17100

