158

Mg 48.83900 35.37000 28.37200
C  46.70700 33.93500 30.75500
C  49.12300 38.11600 30.54900
C  50.56000 37.03100 26.06200
C  47.92800 32.92600 26.17400
N  48.01800 35.95800 30.38200
C  47.36500 35.04800 31.22100
C  47.30000 35.61000 32.66100
C  47.47500 37.10300 32.35200
C  48.25600 37.09600 31.05300
C  46.05000 37.79300 32.30500
C  48.41100 34.80500 33.39600
C  49.32600 35.52900 34.45900
H  48.69900 36.19200 35.68500
N  49.88500 37.34900 28.35800
C  49.81700 38.31600 29.36900
C  50.69100 39.34600 28.90200
C  51.12200 39.07800 27.53400
C  50.49800 37.79300 27.24100
C  51.12200 40.51800 29.92500
C  51.96300 39.84400 26.68300
O  52.08400 39.56600 25.49800
C  52.54300 41.19100 27.11200
N  49.04600 35.07900 26.37400
C  50.00600 35.81300 25.67200
C  50.54100 34.99500 24.40400
C  49.64200 33.79900 24.41000
C  48.86100 33.85200 25.73900
C  50.49500 35.77500 23.07300
C  50.34700 32.47400 24.28700
C  50.71300 32.15300 22.84400
N  47.60300 33.63000 28.43600
C  47.27800 32.67800 27.41700
C  46.45000 31.69900 27.97600
C  46.14800 32.14100 29.29400
C  46.85800 33.32600 29.54700
C  45.95800 30.49700 27.35900
C  45.37600 31.82800 30.50800
O  44.68200 30.83300 30.79300
C  45.57400 33.13900 31.39300
C  45.69000 32.73300 32.79500
O  46.43800 31.95000 33.30600
O  44.74000 33.38800 33.55100
C  44.77000 33.07200 34.96700
H  49.33600 38.87100 31.30900
H  51.20300 37.44800 25.28400
H  47.70300 32.19300 25.39700
H  46.29900 35.32200 32.98100
H  48.03200 37.61300 33.13800
H  45.24000 37.08200 32.46100
H  45.79400 38.42800 31.45700
H  46.02600 38.49500 33.13900
H  49.17200 34.30300 32.79900
H  47.91500 34.07200 34.03300
H  49.84400 36.32600 33.92500
H  50.13800 34.87600 34.77700
H  52.20100 40.59400 30.05800
H  50.92000 40.25100 30.96200
H  50.64600 41.49200 29.81200
H  51.75200 41.92400 27.27400
H  53.21700 41.44400 26.29300
H  53.29900 40.96300 27.86300
H  51.56700 34.72800 24.65600
H  48.89700 33.86600 23.61700
H  51.51600 36.00800 22.77000
H  50.03000 36.72400 23.34100
H  49.86500 35.29200 22.32600
H  49.71500 31.71400 24.74600
H  51.26300 32.25400 24.83500
H  50.36400 32.85200 22.08400
H  50.54900 31.09900 22.62000
H  51.80200 32.19000 22.81500
H  46.70000 29.70800 27.47700
H  45.62400 30.82900 26.37600
H  45.06700 30.23500 27.92900
H  44.65000 33.71500 31.37100
H  44.72200 32.01600 35.23600
H  44.10800 33.69200 35.57000
H  45.75000 33.39500 35.32000
Mg 26.98900 49.66500 26.16700
C  25.16200 50.80800 28.86900
C  29.34000 48.47200 28.37400
C  29.25900 49.42800 23.62900
C  24.80400 51.28900 23.97500
N  27.05600 49.50200 28.37200
C  26.26700 50.08100 29.25800
C  26.70600 49.90000 30.73000
C  28.18100 49.32200 30.47000
C  28.14400 48.93900 28.95600
C  29.34700 50.24400 31.00100
C  25.85300 48.83300 31.54200
C  25.36700 49.27500 32.91400
H  26.44200 49.76200 33.97500
N  28.96600 48.93800 26.01600
C  29.77200 48.45000 27.03900
C  31.06200 48.05600 26.54800
C  31.16300 48.47500 25.18400
C  29.71200 48.92700 24.85300
C  32.10000 47.43900 27.49600
C  32.31400 48.53800 24.18900
O  32.33000 49.07400 23.04000
C  33.65200 47.96700 24.66000
N  27.10000 50.38500 24.11700
C  28.08700 50.04200 23.27500
C  27.75600 50.48500 21.80200
C  26.30700 50.99400 21.91700
C  26.03100 50.93700 23.43200
C  28.72000 51.45600 21.09400
C  25.26300 50.28900 21.00200
C  24.39200 51.15400 19.99800
N  25.15700 50.57400 26.33900
C  24.40600 51.23800 25.36200
C  23.26600 51.87600 26.05000
C  23.56700 51.67800 27.45300
C  24.69600 50.92400 27.54500
C  22.16600 52.69600 25.45100
C  23.07300 51.91200 28.75300
O  22.00000 52.44000 29.06400
C  24.04000 51.35100 29.74900
C  24.35200 52.49900 30.67600
O  25.21800 53.34500 30.52100
O  23.48900 52.51500 31.73600
C  23.73100 53.39900 32.84100
H  30.03200 48.02500 29.09000
H  30.03300 49.22500 22.88600
H  24.12100 51.80300 23.29500
H  26.66000 50.90300 31.15300
H  28.39500 48.39800 31.00500
H  28.92400 50.85700 31.79700
H  29.63500 50.88100 30.16500
H  30.27300 49.75100 31.29500
H  26.20500 47.80200 31.50900
H  25.00000 48.81600 30.86300
H  24.81400 48.49400 33.43600
H  24.70200 50.13400 32.83300
H  31.77600 47.24600 28.51900
H  33.03000 47.99000 27.63900
H  32.47000 46.55200 26.98100
H  34.47100 48.10700 23.95500
H  33.50800 46.88900 24.72100
H  33.90700 48.38400 25.63500
H  27.72100 49.60700 21.15800
H  26.24500 52.03500 21.59800
H  29.58700 51.73200 21.69400
H  28.29800 52.42800 20.84000
H  29.09800 51.01300 20.17300
H  24.68200 49.65600 21.67300
H  25.77000 49.59300 20.33400
H  24.30600 50.69800 19.01100
H  24.79800 52.16000 19.89800
H  23.38100 51.21600 20.40000
H  21.26200 52.79400 26.05200
H  21.84700 52.07200 24.61600
H  22.59600 53.60900 25.03800
H  23.58200 50.52900 30.29800
H  24.63400 53.06300 33.35200
H  22.87500 53.43000 33.51600
H  23.88000 54.43400 32.53300

