158

Mg 40.14700 8.26900 29.97800
C  41.48200 9.45300 32.98500
C  37.61300 6.77200 31.69100
C  39.14800 6.93800 27.16100
C  43.09000 9.58200 28.35600
N  39.65300 8.09200 32.05900
C  40.23700 8.82600 33.09000
C  39.42300 8.64700 34.38500
C  38.14800 7.80700 34.00700
C  38.49500 7.50200 32.52300
C  37.89900 6.56600 34.83300
C  39.12100 10.03800 35.07700
C  38.96300 9.95000 36.57600
H  39.94700 10.76100 37.43900
N  38.49100 7.11100 29.47600
C  37.54900 6.62400 30.33300
C  36.67100 5.78400 29.58000
C  37.03300 5.89400 28.24200
C  38.32500 6.72000 28.23900
C  35.55800 4.88900 30.25600
C  36.36300 5.28700 27.02000
O  36.92000 5.19200 25.94900
C  34.94600 4.62500 27.12500
N  41.08200 8.10700 28.08400
C  40.37700 7.60900 27.09900
C  41.15500 7.70800 25.74800
C  42.21700 8.78200 26.07400
C  42.11400 8.81900 27.60500
C  41.77200 6.35200 25.33800
C  42.03300 10.15900 25.26000
C  40.68600 10.69500 24.81300
N  41.91000 9.27800 30.49400
C  42.98100 9.79000 29.73000
C  43.90300 10.53100 30.53600
C  43.38600 10.37700 31.80800
C  42.21700 9.60100 31.78600
C  45.13100 11.31700 30.14900
C  43.65900 10.64900 33.17800
O  44.65500 11.24100 33.68500
C  42.42800 10.11900 33.96400
C  42.86800 9.03600 34.91700
O  43.41700 7.92900 34.63300
O  42.54800 9.41500 36.26200
C  42.60500 8.25500 37.17100
H  36.73900 6.44900 32.26000
H  38.93500 6.32300 26.28400
H  43.89300 10.09900 27.82700
H  40.06600 8.00100 34.98300
H  37.27700 8.46000 34.05900
H  36.86800 6.50900 35.18100
H  38.48800 6.65600 35.74600
H  38.12800 5.57800 34.43500
H  38.13900 10.42800 34.80700
H  39.86400 10.81100 34.88100
H  38.98700 8.90900 36.89800
H  37.95200 10.24800 36.85400
H  35.76400 4.89600 31.32700
H  35.63600 3.85900 29.91000
H  34.56400 5.29900 30.07600
H  34.91700 3.83900 27.88100
H  34.77300 4.26000 26.11300
H  34.30100 5.46900 27.36900
H  40.49400 8.02500 24.94200
H  43.19200 8.36700 25.82200
H  42.72000 6.50300 24.82200
H  41.12500 5.87700 24.60100
H  41.90600 5.62400 26.13800
H  42.64700 10.14700 24.36000
H  42.50300 10.91100 25.89300
H  40.35100 10.14600 23.93300
H  40.75900 11.78100 24.75800
H  39.87100 10.40200 25.47400
H  44.81800 11.70900 29.18200
H  46.07300 10.77000 30.09800
H  45.19800 12.13700 30.86400
H  41.91000 11.00900 34.32200
H  43.63600 7.90500 37.12800
H  41.81900 7.57300 36.84800
H  42.38800 8.58200 38.18800
Mg 0.47400 42.39300 26.09000
C  3.01100 42.47800 28.58500
C  -1.76000 41.45300 28.51500
C  -1.82600 42.05900 23.73400
C  2.89200 42.75300 23.62300
N  0.58600 42.16700 28.31700
C  1.72000 42.35200 29.12100
C  1.32900 42.00100 30.57500
C  -0.09700 41.33200 30.46400
C  -0.51200 41.72900 28.99500
C  -0.05200 39.80500 30.75700
C  1.50100 43.27100 31.52900
C  2.11400 42.99100 32.98600
H  1.63100 41.68700 33.63800
N  -1.57600 41.94400 26.10200
C  -2.31600 41.52700 27.24100
C  -3.59700 41.14600 26.83800
C  -3.69000 41.51700 25.42100
C  -2.33700 41.93100 25.03300
C  -4.68200 40.64400 27.82000
C  -4.91200 41.62300 24.50100
O  -4.84600 42.09100 23.44300
C  -6.23400 41.24100 25.03800
N  0.54000 42.41700 24.02900
C  -0.59200 42.26200 23.22900
C  -0.28400 42.46900 21.71200
C  1.20500 42.96700 21.80300
C  1.57000 42.68800 23.24100
C  -0.58400 41.11400 20.91200
C  1.49400 44.33700 21.22900
C  1.68400 45.51100 22.23300
N  2.49800 42.59400 26.08100
C  3.39900 42.57500 24.98700
C  4.75200 42.62100 25.41200
C  4.64400 42.51100 26.82100
C  3.29000 42.48100 27.16800
C  5.90800 42.69000 24.52700
C  5.42500 42.42400 28.05100
O  6.66300 42.32600 28.19300
C  4.36900 42.47100 29.20800
C  4.69300 41.41500 30.19900
O  4.65900 40.22700 29.93300
O  5.07300 41.94300 31.39800
C  5.32600 40.96400 32.49000
H  -2.33700 41.16600 29.39700
H  -2.53000 42.08600 22.90000
H  3.69100 43.06800 22.94700
H  2.01400 41.32700 31.08900
H  -0.75600 41.87400 31.14200
H  -0.82300 39.56700 31.48900
H  0.85500 39.61500 31.33000
H  -0.23300 39.22000 29.85500
H  0.44600 43.54300 31.55300
H  1.94200 44.13200 31.02700
H  1.83800 43.81800 33.64100
H  3.19000 42.83000 32.92800
H  -5.09500 39.75600 27.34000
H  -5.42200 41.41900 28.01700
H  -4.15900 40.35100 28.73000
H  -6.19300 40.16400 25.20100
H  -7.05300 41.59200 24.41000
H  -6.34200 41.62500 26.05300
H  -0.89500 43.25600 21.27100
H  1.82300 42.26100 21.24900
H  0.29300 40.46900 20.86600
H  -0.81500 41.48800 19.91400
H  -1.40900 40.57700 21.38100
H  0.67300 44.70700 20.61600
H  2.42400 44.27300 20.66300
H  1.17600 46.42800 21.93600
H  2.74400 45.65200 22.44700
H  1.16200 45.16400 23.12400
H  5.77900 43.59000 23.92700
H  5.95100 41.83100 23.85800
H  6.87900 42.69700 25.02300
H  4.52300 43.44600 29.67200
H  4.97600 41.33900 33.45200
H  6.40500 40.85800 32.59800
H  4.86000 39.99500 32.31200

