158

Mg 9.36300 4.93800 28.39300
C  10.75200 3.20900 31.11100
C  7.36700 6.59400 30.44200
C  8.10400 6.58900 25.75400
C  11.27400 2.97700 26.15100
N  9.32900 4.99000 30.62900
C  9.91200 4.18900 31.55700
C  9.40200 4.46500 32.96000
C  8.31700 5.59700 32.75800
C  8.26200 5.69000 31.17800
C  6.89200 5.33500 33.44500
C  10.60400 4.90300 33.82300
C  10.31500 5.88100 34.97500
H  11.01100 5.73600 36.34500
N  7.80100 6.34500 28.08700
C  7.12400 6.91000 29.08000
C  6.10600 7.76100 28.49000
C  6.42900 7.86700 27.07700
C  7.47400 6.90700 26.92200
C  5.09200 8.36400 29.41500
C  5.82700 8.71700 26.02300
O  6.22900 8.87800 24.91600
C  4.65900 9.51700 26.50900
N  9.45900 4.61300 26.18200
C  9.00500 5.61100 25.40900
C  9.35900 5.41300 23.97000
C  10.67600 4.49500 24.07600
C  10.48600 3.95300 25.54500
C  8.21300 4.98700 23.06100
C  11.99100 5.26000 23.80000
C  12.28000 6.48200 24.67400
N  10.61700 3.34200 28.55200
C  11.30700 2.62700 27.53900
C  12.06100 1.60800 28.17100
C  11.89600 1.83200 29.55500
C  11.04100 2.89900 29.71700
C  12.77200 0.37000 27.57000
C  12.24400 1.28500 30.83000
O  12.97800 0.30600 31.10100
C  11.51600 2.17500 31.95600
C  10.57900 1.23900 32.65300
O  9.85100 0.46300 32.01900
O  10.88900 1.11400 33.98200
C  10.04000 0.22100 34.66400
H  6.75600 7.28200 31.02900
H  7.92000 7.19900 24.86700
H  11.88700 2.40000 25.45500
H  9.02700 3.51300 33.33500
H  8.75100 6.53700 33.10000
H  6.15200 5.19400 32.65800
H  6.71000 6.20100 34.08200
H  6.97900 4.43300 34.05100
H  11.23200 5.46200 33.13000
H  11.12100 3.99900 34.14300
H  9.28300 6.09800 35.25000
H  10.64900 6.87600 34.68200
H  4.92700 7.80700 30.33700
H  4.12400 8.43000 28.91900
H  5.48100 9.33300 29.72800
H  4.31300 10.12400 25.67300
H  4.86700 10.27100 27.26900
H  3.85400 8.87900 26.87300
H  9.73400 6.39600 23.68600
H  10.60300 3.77200 23.26400
H  8.15100 3.98600 22.63300
H  8.18500 5.71400 22.24900
H  7.26100 5.05800 23.58600
H  11.91500 5.66500 22.79100
H  12.75500 4.48900 23.69900
H  11.48700 6.66300 25.40000
H  12.42100 7.31300 23.98300
H  13.22000 6.25700 25.17900
H  12.07800 -0.05200 26.84300
H  13.06800 -0.35000 28.33300
H  13.68200 0.65100 27.04200
H  12.25700 2.65600 32.59400
H  9.16500 0.63000 35.16800
H  10.62700 -0.19700 35.48200
H  9.82600 -0.63600 34.02600
Mg 47.60700 24.77400 27.93100
C  48.51000 26.87000 30.62400
C  46.74700 22.37300 30.29700
C  47.19500 22.58500 25.39400
C  48.96400 27.06900 25.70400
N  47.62700 24.68000 30.18000
C  48.01400 25.62900 31.07700
C  47.71000 25.26800 32.53600
C  47.29600 23.74900 32.34300
C  47.09600 23.64300 30.88000
C  48.35800 22.79600 33.00400
C  46.65900 26.11300 33.27700
C  47.29800 26.89100 34.50700
H  46.45700 27.59800 35.56300
N  46.99700 22.74300 27.83500
C  46.63700 21.95900 28.93900
C  46.11400 20.74500 28.42800
C  46.29700 20.78200 26.97100
C  46.81000 22.08500 26.68800
C  45.62000 19.65000 29.36300
C  45.83200 19.72200 25.94900
O  46.18500 19.70000 24.76500
C  45.08900 18.55800 26.39400
N  48.07100 24.82500 25.89200
C  47.77900 23.84600 25.02700
C  48.18600 24.17000 23.58800
C  48.41700 25.70100 23.66700
C  48.49100 25.91400 25.17500
C  49.26300 23.24400 22.83400
C  47.28000 26.60500 23.07700
C  47.85400 27.88700 22.39000
N  48.57900 26.58300 28.07000
C  49.04300 27.34900 27.11000
C  49.61400 28.60100 27.69100
C  49.49900 28.42600 29.03200
C  48.82500 27.16100 29.24300
C  50.26700 29.72000 26.87500
C  49.72900 29.00100 30.37800
O  50.25900 30.06900 30.69900
C  49.04100 28.03400 31.43500
C  50.17500 27.64600 32.35200
O  50.71100 26.56400 32.28900
O  50.58800 28.71100 33.15600
C  51.66600 28.36900 34.01000
H  46.49700 21.59400 31.02100
H  46.97700 21.88300 24.58600
H  49.35700 27.87700 25.08400
H  48.71600 25.23200 32.95600
H  46.27800 23.61400 32.70700
H  47.94700 22.13400 33.76600
H  49.22800 23.25200 33.47700
H  48.73800 22.24000 32.14700
H  45.72900 25.57900 33.47300
H  46.45800 26.87300 32.52200
H  47.82900 27.75900 34.11500
H  47.95100 26.16500 34.99100
H  44.53500 19.54600 29.35700
H  45.86300 19.78700 30.41700
H  46.08400 18.73300 29.00000
H  44.24700 19.02300 26.90600
H  45.64800 17.87400 27.03300
H  44.78000 18.00300 25.50800
H  47.22300 23.96600 23.12000
H  49.37300 25.98200 23.22400
H  48.75600 22.48100 22.24200
H  49.89700 22.83700 23.62200
H  49.91400 23.89400 22.25000
H  46.50900 26.73700 23.83600
H  46.65000 26.12200 22.33000
H  47.71100 28.74200 23.05200
H  47.32300 28.12900 21.47000
H  48.88100 27.87900 22.02500
H  49.82500 29.87600 25.89100
H  51.35400 29.65300 26.81600
H  50.07600 30.54900 27.55600
H  48.23500 28.52200 31.98400
H  52.56900 28.10200 33.46100
H  51.44500 27.51100 34.64600
H  51.93700 29.19100 34.67300

