158

Mg 46.48600 25.20000 28.31500
C  46.92200 27.35800 31.08100
C  45.46700 22.88000 30.65100
C  47.15400 22.87300 26.11500
C  48.01300 27.56900 26.25300
N  46.38000 25.09600 30.67300
C  46.47800 26.12800 31.52500
C  46.15000 25.71300 33.02400
C  46.00600 24.21200 32.80700
C  45.82600 24.06100 31.24700
C  47.02300 23.23900 33.41600
C  44.97500 26.54000 33.65400
C  45.16300 27.05000 35.04000
H  44.09300 27.00800 36.12800
N  46.13600 23.22600 28.23700
C  45.66000 22.46600 29.26900
C  45.34600 21.15300 28.69300
C  45.92900 21.07600 27.39500
C  46.37600 22.40800 27.17400
C  44.71300 20.04900 29.51600
C  46.08800 19.89400 26.35400
O  46.59300 20.01000 25.30100
C  45.63500 18.54200 26.76800
N  47.63200 25.19600 26.53100
C  47.85300 24.04200 25.84700
C  48.66700 24.23600 24.49200
C  48.63100 25.77400 24.47000
C  48.00200 26.25700 25.81000
C  50.11400 23.47200 24.48100
C  48.14400 26.49900 23.19100
C  46.64100 26.81100 23.24700
N  47.29000 27.12300 28.57200
C  47.82300 28.02500 27.60200
C  48.11000 29.25100 28.30500
C  47.80400 28.99000 29.64400
C  47.27400 27.67500 29.75700
C  48.76300 30.40000 27.63800
C  47.82800 29.61900 30.92100
O  48.16400 30.73800 31.34800
C  47.34800 28.52200 31.92600
C  48.47800 28.22400 32.87000
O  49.43400 27.50300 32.50200
O  48.38700 28.81400 34.07000
C  49.39000 28.31000 35.04300
H  45.15100 22.12300 31.37100
H  47.30400 22.09900 25.36000
H  48.38600 28.36900 25.61000
H  47.09600 25.92300 33.52200
H  45.03000 23.93800 33.20700
H  47.87200 23.65700 33.95600
H  47.40600 22.58000 32.63600
H  46.52500 22.53100 34.07800
H  44.11900 25.86700 33.61000
H  44.67300 27.39600 33.04900
H  45.26400 28.11900 34.85500
H  46.05500 26.60200 35.47900
H  45.39400 19.19900 29.47900
H  43.76100 19.70100 29.11300
H  44.51500 20.40700 30.52600
H  45.79900 17.88400 25.91400
H  44.57200 18.55400 27.00600
H  46.22700 18.04300 27.53500
H  48.02600 23.86300 23.69400
H  49.69700 25.99700 24.51700
H  49.96100 22.61100 23.83000
H  50.48100 23.20500 25.47200
H  50.87500 24.15300 24.09900
H  48.37300 25.89100 22.31500
H  48.72500 27.41200 23.06300
H  46.10400 26.10500 23.88000
H  46.22200 26.76300 22.24200
H  46.38000 27.81800 23.57300
H  49.73300 30.17300 27.19700
H  49.10700 31.11600 28.38500
H  48.11100 30.90900 26.92700
H  46.45400 28.85200 32.45500
H  48.96400 27.74900 35.87400
H  50.01300 29.12900 35.40200
H  50.13500 27.68900 34.54500
Mg 6.51400 57.54600 42.18100
C  5.83300 53.98600 42.15400
C  9.58900 56.75600 40.77700
C  6.88800 60.75100 41.53700
C  3.33100 58.06900 43.36500
N  7.49100 55.62400 41.39700
C  7.11100 54.37500 41.54300
C  8.25800 53.37000 41.24300
C  9.56400 54.24200 41.12400
C  8.80400 55.63600 41.12600
C  10.59700 54.13500 42.24800
C  7.86900 52.54300 39.92300
C  8.93100 52.13700 38.85200
H  8.45900 51.03500 37.88700
N  8.09000 58.65200 41.39700
C  9.25700 58.11900 40.80400
C  9.97800 59.23000 40.23700
C  9.32600 60.40700 40.59100
C  8.01900 59.96300 41.19100
C  11.31300 59.03400 39.37000
C  9.80800 61.88200 40.42200
O  10.77400 62.15800 39.74900
C  9.03600 63.05000 41.06200
N  5.19400 59.17300 42.32100
C  5.62700 60.42500 42.13700
C  4.59500 61.55700 42.52500
C  3.50600 60.64600 43.14900
C  3.97200 59.22100 42.89000
C  5.19100 62.56300 43.58400
C  2.09300 60.85000 42.58600
C  0.93400 60.68200 43.47300
N  4.89700 56.33800 42.80800
C  3.71200 56.68800 43.28300
C  2.94800 55.46700 43.63000
C  3.81600 54.43000 43.30500
C  4.91700 54.96500 42.67200
C  1.54100 55.43600 44.21200
C  3.90500 53.03100 43.23200
O  3.24300 52.16300 43.77200
C  5.27500 52.66400 42.45600
C  4.91200 51.92500 41.23000
O  4.33400 52.36400 40.28000
O  5.32300 50.59300 41.40500
C  4.93800 49.64100 40.37200
H  10.57900 56.55500 40.36300
H  6.84200 61.82500 41.34800
H  2.34900 58.19100 43.82600
H  8.34300 52.52200 41.92400
H  10.22700 54.07200 40.27700
H  10.21100 53.40700 42.96200
H  10.86000 55.12600 42.62000
H  11.49300 53.69200 41.81300
H  7.06200 53.10500 39.45300
H  7.33900 51.67100 40.30800
H  9.83200 51.75000 39.32700
H  9.21100 53.04900 38.32600
H  11.28000 59.22200 38.29700
H  11.73100 58.02800 39.41700
H  12.09100 59.58600 39.89700
H  8.76700 62.89800 42.10700
H  8.15000 63.32000 40.48700
H  9.69400 63.91900 41.05500
H  4.22300 62.01600 41.60900
H  3.57700 60.84400 44.21800
H  4.50900 62.82100 44.39400
H  5.63500 63.39100 43.03100
H  6.10300 62.10900 43.97300
H  1.99400 60.20500 41.71200
H  2.08500 61.80300 42.05600
H  1.14600 60.21100 44.43300
H  0.19800 60.01300 43.02500
H  0.46000 61.65000 43.63500
H  0.86700 55.13600 43.41000
H  1.33400 56.45000 44.55400
H  1.49500 54.73600 45.04600
H  5.84800 52.04300 43.14400
H  4.02200 49.93600 39.85900
H  4.90200 48.57900 40.61600
H  5.70200 49.75900 39.60300

