158

Mg 1.72000 -2.48900 43.99000
C  5.07900 -1.49900 43.52900
C  0.76300 0.36100 42.31500
C  -1.37700 -3.71100 44.05700
C  2.91000 -5.45500 45.36900
N  2.85200 -0.88700 42.88700
C  4.17900 -0.65200 42.85100
C  4.48600 0.64500 42.04900
C  3.08500 1.36400 42.16100
C  2.16100 0.22100 42.42500
C  2.95600 2.56700 43.07300
C  5.05600 0.49100 40.62000
C  6.33800 1.21200 40.31300
H  6.24100 2.22500 39.21400
N  -0.12600 -1.79100 43.21000
C  -0.31900 -0.58800 42.56300
C  -1.75000 -0.34700 42.36500
C  -2.44300 -1.45400 43.01600
C  -1.36000 -2.39500 43.49800
C  -2.28700 0.74300 41.54200
C  -3.90300 -1.64400 43.15600
O  -4.68900 -0.88300 42.69300
C  -4.57000 -2.80000 43.73700
N  0.84700 -4.40500 44.55100
C  -0.50800 -4.67400 44.53900
C  -0.86000 -5.96500 45.23000
C  0.57200 -6.57700 45.34000
C  1.52600 -5.47200 45.13000
C  -1.70700 -5.77100 46.44800
C  0.92200 -7.67800 44.33100
C  0.12700 -8.99000 44.46200
N  3.57600 -3.25500 44.54800
C  3.90000 -4.45900 45.11100
C  5.30300 -4.50500 45.37600
C  5.83000 -3.32200 44.82300
C  4.74500 -2.62600 44.31700
C  6.08700 -5.60300 46.00700
C  7.04300 -2.59000 44.47500
O  8.18900 -2.89300 44.78600
C  6.52500 -1.32300 43.71600
C  6.90800 -0.10300 44.48600
O  6.99800 0.01000 45.68400
O  7.46700 0.88500 43.69500
C  7.85300 2.17800 44.35700
H  0.50300 1.38700 42.04600
H  -2.43100 -3.94300 44.22400
H  3.29700 -6.32900 45.89600
H  5.20300 1.26600 42.58700
H  2.69800 1.78000 41.23100
H  2.43500 3.28900 42.44400
H  3.94500 2.94200 43.33600
H  2.44200 2.31200 44.00100
H  4.27300 0.92800 40.00000
H  5.07000 -0.59600 40.54500
H  6.99900 0.38700 40.04800
H  6.82200 1.66500 41.17800
H  -1.90100 0.90000 40.53500
H  -2.31000 1.71500 42.03500
H  -3.35900 0.59800 41.41500
H  -5.64200 -2.74300 43.92200
H  -4.11300 -2.89800 44.72200
H  -4.32300 -3.69000 43.15900
H  -1.52600 -6.45500 44.52000
H  0.73600 -6.99100 46.33500
H  -2.71000 -6.19100 46.36900
H  -1.74600 -4.69900 46.64600
H  -1.18500 -6.16300 47.32100
H  2.00200 -7.78000 44.44100
H  0.77100 -7.29500 43.32200
H  -0.52500 -9.10400 43.59600
H  -0.62100 -8.94300 45.25400
H  0.70100 -9.90500 44.31400
H  6.21300 -6.51900 45.43000
H  5.63800 -5.80200 46.98000
H  7.06200 -5.11600 45.98800
H  7.01900 -1.27700 42.74600
H  7.37600 2.54700 45.26500
H  7.65200 2.87400 43.54200
H  8.93800 2.23500 44.44300
Mg 54.41100 23.93100 45.23400
C  52.26700 26.63800 44.13300
C  52.23100 21.68800 43.81300
C  56.88800 21.68500 45.33100
C  56.66000 26.42700 46.23800
N  52.49700 24.21200 44.05600
C  51.77400 25.36600 43.77300
C  50.45400 24.96800 43.09700
C  50.33000 23.42500 43.44100
C  51.78900 23.07900 43.80200
C  49.39100 23.15900 44.70600
C  50.28200 25.28400 41.60600
C  48.87500 25.38300 41.07900
H  48.46800 24.40300 39.98500
N  54.49800 21.86700 44.84100
C  53.44700 21.12800 44.23500
C  53.95500 19.81900 44.16400
C  55.24600 19.76700 44.76600
C  55.60600 21.12500 44.96600
C  53.10200 18.64300 43.70400
C  56.12200 18.57700 44.98700
O  55.80800 17.45400 44.58200
C  57.45500 18.53800 45.80500
N  56.59000 24.04300 45.63400
C  57.34500 22.96100 45.62900
C  58.77700 23.28600 46.00700
C  58.71200 24.85600 46.37700
C  57.23000 25.13800 46.08400
C  59.40400 22.29800 47.02800
C  59.81700 25.63100 45.51800
C  61.17900 25.47700 46.23000
N  54.40800 26.04900 45.42000
C  55.42600 26.91200 45.82900
C  55.04900 28.28800 45.78900
C  53.79000 28.20900 45.08800
C  53.46500 26.82300 44.89800
C  55.91000 29.45100 46.31100
C  52.70900 28.97200 44.53300
O  52.56500 30.20200 44.45500
C  51.68900 27.98900 43.90100
C  51.64300 28.16500 42.43100
O  52.55300 27.87700 41.61200
O  50.46100 28.80000 42.12200
C  50.08800 28.86700 40.68800
H  51.51500 21.07300 43.26400
H  57.77300 21.04500 45.34600
H  57.31700 27.25300 46.52200
H  49.73100 25.51900 43.69800
H  49.98300 22.84700 42.58400
H  49.81700 22.46500 45.43100
H  48.46500 22.62400 44.49700
H  49.09000 24.10900 45.14800
H  50.67200 24.44200 41.03500
H  50.84500 26.14900 41.25600
H  48.70300 26.37300 40.65600
H  48.17100 25.30000 41.90700
H  52.56300 18.97000 42.81500
H  52.54300 18.31600 44.58100
H  53.82200 17.87800 43.41600
H  58.25800 19.00600 45.23600
H  57.67000 17.54500 46.20000
H  57.28200 19.13600 46.70000
H  59.34300 23.08200 45.09800
H  58.95400 25.03900 47.42300
H  59.64300 22.90300 47.90300
H  60.20700 21.74500 46.54100
H  58.71500 21.47900 47.23700
H  59.58800 26.69700 45.52000
H  59.74600 25.21300 44.51400
H  61.57900 26.45700 46.49200
H  61.98000 25.00000 45.66600
H  61.06700 24.91100 47.15500
H  56.45700 29.13000 47.19700
H  55.17700 30.17300 46.67100
H  56.55900 29.81900 45.51600
H  50.70400 28.13500 44.34400
H  49.96800 29.93700 40.51700
H  49.18400 28.33600 40.38900
H  50.88400 28.49100 40.04600

