158

Mg 46.48000 44.45300 43.56900
C  42.92700 44.08900 43.60800
C  46.77900 41.17300 42.73900
C  49.64600 45.14100 43.08800
C  45.75800 48.06000 43.57200
N  44.94600 42.78100 43.33800
C  43.56900 42.93200 43.30400
C  42.98700 41.48900 42.94700
C  44.20700 40.68200 42.53300
C  45.42100 41.59000 42.88300
C  44.29900 39.30600 43.16900
C  41.84600 41.45100 41.87300
C  42.08700 41.98400 40.40000
H  41.69900 41.17500 39.06200
N  48.01300 43.26000 43.10000
C  47.97600 41.91200 42.89900
C  49.30600 41.42800 42.79500
C  50.17700 42.52200 43.18900
C  49.33000 43.72400 43.18100
C  49.62400 39.94000 42.58800
C  51.69800 42.51100 43.54900
O  52.43100 41.48300 43.42000
C  52.47900 43.68000 44.19300
N  47.48900 46.29200 43.21100
C  48.84500 46.28400 43.09200
C  49.42100 47.78800 42.90100
C  48.11200 48.69400 42.90700
C  47.04700 47.62700 43.19700
C  50.48600 48.32000 43.97700
C  47.82100 49.57800 41.65900
C  47.37600 50.94400 41.93100
N  44.74400 45.85700 43.78200
C  44.65100 47.22900 43.78500
C  43.33300 47.62600 44.04500
C  42.56200 46.40300 44.00600
C  43.51100 45.34700 43.75500
C  42.78800 49.00600 44.28300
C  41.25300 45.87500 44.08200
O  40.15500 46.42200 44.24500
C  41.40300 44.29700 43.74700
C  40.78800 43.50300 44.85800
O  39.99300 42.55600 44.70200
O  41.22600 43.92900 46.05900
C  40.77700 43.18800 47.22100
H  46.81900 40.22700 42.19500
H  50.72200 45.31600 43.01100
H  45.46200 49.11100 43.57900
H  42.62800 41.06600 43.88500
H  44.23900 40.59500 41.44700
H  44.91500 39.31600 44.06800
H  44.62300 38.56200 42.44100
H  43.32400 38.95100 43.50200
H  40.99600 42.07600 42.14800
H  41.60000 40.39700 41.74700
H  43.15800 42.17200 40.32600
H  41.57400 42.94200 40.31500
H  49.83600 39.76700 41.53300
H  48.87800 39.25300 42.98600
H  50.46600 39.55500 43.16300
H  51.99600 43.95400 45.13100
H  52.48500 44.46100 43.43200
H  53.52200 43.37500 44.28000
H  49.89100 47.75800 41.91800
H  48.07900 49.38200 43.75200
H  50.57500 47.57300 44.76500
H  50.30100 49.27700 44.46500
H  51.50000 48.32100 43.57600
H  47.10300 49.06500 41.01900
H  48.63900 49.73900 40.95700
H  46.70900 51.18800 41.10400
H  48.28500 51.54500 41.90100
H  46.91100 51.02700 42.91300
H  41.89000 48.85700 44.88200
H  42.41400 49.38000 43.33000
H  43.53700 49.59400 44.81300
H  40.88600 44.14500 42.79900
H  41.54300 43.10400 47.99300
H  40.51000 42.15900 46.98000
H  39.92000 43.76600 47.56800
Mg -10.00500 40.06300 43.15200
C  -8.69300 37.11500 42.12500
C  -7.87800 41.74100 41.02200
C  -11.91500 42.95400 43.40000
C  -12.67400 38.33500 44.61800
N  -8.60500 39.45400 41.56600
C  -8.09600 38.18900 41.41500
C  -6.98400 38.08800 40.42200
C  -6.66600 39.62500 40.15000
C  -7.72900 40.35700 40.97700
C  -5.18400 40.09700 40.56100
C  -7.49500 37.33800 39.16200
C  -6.65600 36.18600 38.58000
H  -5.56400 36.62000 37.58500
N  -9.80100 42.17000 42.48200
C  -8.78100 42.62900 41.63200
C  -9.01000 44.02900 41.40200
C  -10.20300 44.43400 42.07900
C  -10.72100 43.14400 42.74700
C  -8.21200 44.90200 40.41900
C  -10.83700 45.83700 41.93700
O  -10.25300 46.66700 41.22800
C  -12.06600 46.33000 42.66400
N  -12.02800 40.65600 43.85000
C  -12.53400 41.83100 43.92100
C  -14.02000 41.71700 44.46700
C  -14.20100 40.27100 44.81100
C  -12.87600 39.68000 44.41200
C  -14.30300 42.65900 45.70100
C  -15.39100 39.56600 44.08600
C  -16.23800 38.56000 44.91800
N  -10.49100 38.05600 43.54400
C  -11.58000 37.50700 44.13500
C  -11.42300 36.05200 44.20300
C  -10.16200 35.83000 43.40500
C  -9.75000 37.11700 43.00700
C  -12.39500 35.04300 44.76100
C  -9.24800 34.82200 42.82500
O  -9.25100 33.62700 42.85700
C  -8.11100 35.63900 42.16100
C  -6.89200 35.56900 43.04000
O  -6.52600 36.23100 43.99600
O  -6.28600 34.36300 42.78500
C  -4.98100 34.18400 43.40600
H  -7.07200 42.37200 40.64200
H  -12.59300 43.80800 43.34000
H  -13.45800 37.81300 45.17100
H  -6.14400 37.52200 40.82700
H  -6.81000 39.86500 39.09600
H  -5.32100 40.34900 41.61200
H  -4.76200 40.98300 40.08800
H  -4.50600 39.25200 40.44100
H  -7.61100 38.01500 38.31600
H  -8.47700 36.90700 39.35900
H  -7.14900 35.27100 38.25200
H  -5.98000 35.88100 39.37900
H  -8.72400 45.14800 39.48800
H  -7.29900 44.41100 40.08100
H  -7.79800 45.78100 40.91300
H  -12.28900 47.38400 42.49400
H  -11.89700 46.20400 43.73300
H  -12.92700 45.80700 42.24800
H  -14.59600 42.05100 43.60400
H  -14.25400 40.04100 45.87500
H  -14.85100 42.09500 46.45600
H  -14.97300 43.47700 45.43800
H  -13.40200 43.15300 46.06300
H  -14.98700 39.08600 43.19400
H  -16.11800 40.36300 43.93200
H  -15.59600 38.02900 45.62100
H  -16.75200 37.81700 44.30700
H  -17.06400 39.05600 45.42700
H  -12.30000 34.94300 45.84200
H  -12.40200 34.11900 44.18200
H  -13.42700 35.36900 44.63100
H  -7.96400 35.38700 41.11100
H  -5.03400 33.44300 44.20400
H  -4.61300 35.13600 43.78800
H  -4.39000 33.82500 42.56300

