158

Mg 40.11600 41.25300 27.49200
C  39.23200 43.65800 29.90800
C  41.12500 39.18000 30.10900
C  41.10200 39.22000 25.18500
C  39.34200 43.74600 25.08400
N  40.12100 41.38000 29.74100
C  39.63800 42.43300 30.47800
C  39.72300 42.13000 32.01600
C  40.37500 40.70100 32.06100
C  40.50000 40.35200 30.56800
C  41.65600 40.75000 32.92200
C  38.36300 42.14900 32.79900
C  38.21700 41.27200 34.02700
H  37.32800 41.86800 35.15100
N  41.00500 39.38600 27.65000
C  41.31300 38.73300 28.77300
C  42.00900 37.46800 28.38700
C  42.00800 37.41800 26.92100
C  41.35100 38.69400 26.50900
C  42.34200 36.42200 29.44700
C  42.63000 36.39200 25.97900
O  42.56500 36.53000 24.73800
C  43.35800 35.22800 26.59400
N  40.16600 41.44100 25.40400
C  40.65600 40.44100 24.66000
C  40.54400 40.76400 23.21300
C  39.62100 42.04000 23.21800
C  39.62200 42.43400 24.67600
C  41.90100 40.93400 22.39200
C  38.20700 41.82400 22.70900
C  37.16500 40.87200 23.49500
N  39.56600 43.27900 27.49000
C  39.43200 44.24900 26.42700
C  39.21300 45.54100 26.95700
C  39.06100 45.28600 28.29300
C  39.26500 43.96900 28.56600
C  38.97300 46.84000 26.20900
C  38.67000 46.06100 29.55000
O  38.35300 47.21700 29.75400
C  38.76600 44.94400 30.67400
C  39.74000 45.38500 31.61700
O  40.95400 45.54500 31.33600
O  39.14400 45.84600 32.78700
C  40.00400 46.69900 33.67800
H  41.36400 38.46400 30.89800
H  41.43400 38.50200 24.43300
H  38.98100 44.32300 24.23000
H  40.37900 42.87300 32.47000
H  39.68500 39.96300 32.47100
H  41.48100 40.20000 33.84700
H  42.00500 41.73400 33.23500
H  42.46200 40.24400 32.39100
H  37.67100 41.89200 31.99800
H  38.10700 43.15300 33.13700
H  39.23700 41.13300 34.38500
H  37.85300 40.30900 33.66700
H  43.41200 36.23600 29.54700
H  41.82400 35.52200 29.11700
H  42.07700 36.59500 30.49000
H  44.26300 35.48200 27.14600
H  43.59000 34.63000 25.71300
H  42.64500 34.62300 27.15500
H  39.94200 39.98000 22.75500
H  40.20100 42.83800 22.75600
H  41.95000 40.17800 21.60900
H  42.66600 40.78900 23.15600
H  42.02600 41.95300 22.02500
H  38.30400 41.44700 21.69100
H  37.72600 42.80200 22.68300
H  36.93100 39.99100 22.89700
H  36.22000 41.40100 23.61700
H  37.69400 40.63000 24.41700
H  39.03500 46.82300 25.12100
H  39.67500 47.59900 26.55500
H  37.96900 47.17000 26.47500
H  37.83100 44.74900 31.20000
H  40.74800 47.32000 33.17800
H  40.57800 46.04500 34.33400
H  39.33700 47.25400 34.33800
Mg -8.46100 40.86600 42.81200
C  -7.58900 37.59100 42.04200
C  -5.78400 41.94500 40.79200
C  -9.69500 43.86900 43.04600
C  -11.67500 39.59000 43.98700
N  -6.90700 39.88400 41.55700
C  -6.75500 38.53700 41.48500
C  -5.60400 38.23500 40.57200
C  -4.91900 39.59200 40.25000
C  -5.92500 40.54000 40.88900
C  -3.46200 39.76000 40.82700
C  -6.02700 37.48700 39.27500
C  -5.15000 36.31200 38.92000
H  -4.29200 36.63700 37.72700
N  -7.65100 42.66200 42.18800
C  -6.69900 42.92300 41.29500
C  -6.63400 44.37900 41.07700
C  -7.68800 44.99600 41.78000
C  -8.43100 43.82200 42.37800
C  -5.42100 44.96900 40.36900
C  -7.95300 46.52300 41.72900
O  -7.29700 47.30400 41.06400
C  -9.09700 47.10600 42.45600
N  -10.38300 41.60300 43.49400
C  -10.55600 42.94800 43.53800
C  -11.91400 43.36500 44.09600
C  -12.53800 42.00100 44.51500
C  -11.47000 40.97500 43.94000
C  -11.89300 44.37500 45.23000
C  -14.00300 41.78500 44.04500
C  -15.10100 41.30900 45.02600
N  -9.44200 38.99900 43.03400
C  -10.68000 38.63100 43.56900
C  -10.78200 37.18000 43.61000
C  -9.55500 36.77500 43.06300
C  -8.77600 37.90300 42.71700
C  -11.96800 36.38700 44.02700
C  -8.91900 35.57600 42.64200
O  -9.25800 34.39400 42.67400
C  -7.60100 36.09700 41.91600
C  -6.47200 35.46600 42.74400
O  -6.43800 35.53100 43.94900
O  -5.61400 34.74700 41.89400
C  -4.40700 34.11800 42.49300
H  -4.89600 42.25800 40.24000
H  -10.12500 44.87100 43.10900
H  -12.63400 39.21700 44.35000
H  -4.87200 37.62200 41.09800
H  -4.88700 39.69800 39.16500
H  -2.73300 39.51700 40.05300
H  -3.23300 38.92100 41.48300
H  -3.29300 40.67400 41.39600
H  -6.07100 38.19000 38.44300
H  -7.08700 37.24600 39.35000
H  -5.70700 35.38800 38.76800
H  -4.46000 36.04800 39.72100
H  -4.53200 44.52400 40.81500
H  -5.25100 46.03500 40.52400
H  -5.40000 44.74900 39.30200
H  -9.05700 48.19300 42.38700
H  -8.89100 46.83800 43.49200
H  -10.01900 46.75800 41.99000
H  -12.47900 43.88600 43.32400
H  -12.51900 41.84100 45.59300
H  -12.16100 43.96300 46.20300
H  -12.56400 45.22200 45.08900
H  -10.90500 44.83300 45.25600
H  -14.09100 41.24600 43.10200
H  -14.43800 42.73700 43.74100
H  -14.80900 41.22400 46.07300
H  -15.50700 40.38800 44.60800
H  -16.04000 41.86100 44.97700
H  -11.61500 35.49900 44.55100
H  -12.38100 36.11900 43.05400
H  -12.65800 36.91700 44.68400
H  -7.47400 35.74000 40.89400
H  -4.70700 33.50100 43.34100
H  -3.83900 34.91700 42.97100
H  -3.92300 33.50400 41.73400

