158

Mg 41.65300 41.08000 26.72500
C  41.18700 43.67900 29.16300
C  42.58800 38.99700 29.33200
C  42.81400 38.86500 24.34000
C  41.51100 43.59000 24.24200
N  41.68300 41.29500 28.88200
C  41.41900 42.38200 29.65700
C  41.48900 42.11700 31.13400
C  42.12500 40.74900 31.22700
C  42.05700 40.23000 29.71700
C  43.50400 40.66900 32.00100
C  40.00600 42.28600 31.70100
C  39.80700 41.79800 33.17900
H  40.18800 42.73000 34.36700
N  42.42400 39.14200 26.81200
C  42.70700 38.46200 27.97800
C  43.12700 37.10800 27.56900
C  43.26200 37.04700 26.17700
C  42.89300 38.44900 25.71600
C  43.37400 36.01300 28.58700
C  43.49900 35.93200 25.19400
O  43.41400 35.95600 23.98600
C  43.83600 34.53800 25.73900
N  42.05000 41.20700 24.61300
C  42.28900 40.05900 23.83900
C  42.12600 40.43800 22.43000
C  41.33400 41.86200 22.41000
C  41.71700 42.27400 23.79600
C  43.46900 40.48400 21.68300
C  39.86300 41.89100 22.10600
C  39.01000 40.96700 22.88600
N  41.25900 43.13800 26.59500
C  41.30300 44.04000 25.54600
C  41.03800 45.35200 26.02200
C  41.01200 45.23900 27.39900
C  41.22700 43.92300 27.71800
C  40.88500 46.59300 25.18400
C  40.88800 45.96600 28.61300
O  40.79500 47.15200 28.73800
C  41.03300 45.02900 29.76700
C  42.13500 45.39900 30.62200
O  43.25300 45.00400 30.52700
O  41.72700 46.35800 31.49600
C  42.68300 46.74800 32.55200
H  42.83200 38.32000 30.15300
H  43.18300 38.18300 23.57100
H  41.33500 44.32600 23.45500
H  42.18100 42.87100 31.51100
H  41.43600 40.06100 31.71500
H  43.56400 41.56400 32.62000
H  44.49400 40.55600 31.55800
H  43.50100 39.82500 32.69100
H  39.25000 41.76000 31.11700
H  39.87500 43.35700 31.85800
H  40.43200 40.90800 33.25000
H  38.78000 41.43600 33.24200
H  42.98700 35.02800 28.32800
H  43.09600 36.30800 29.59900
H  44.46100 35.96000 28.51600
H  43.12200 34.06100 26.41100
H  44.80900 34.50100 26.22800
H  44.01800 33.92100 24.85900
H  41.37100 39.82400 21.93900
H  41.83000 42.56800 21.74300
H  44.20100 40.83200 22.41200
H  43.55700 41.13800 20.81500
H  43.74100 39.50100 21.29700
H  39.77000 41.74300 21.03000
H  39.43500 42.87800 22.28100
H  39.60600 40.21900 23.41000
H  38.36200 40.47000 22.16400
H  38.31800 41.50700 23.53300
H  39.90500 46.70700 24.72200
H  41.55300 46.45800 24.33400
H  41.13800 47.47300 25.77500
H  40.11200 45.15700 30.33600
H  42.46500 46.21600 33.47900
H  42.66000 47.82600 32.70800
H  43.75000 46.61900 32.37000
Mg 9.21600 47.21900 27.55500
C  7.41800 46.80200 30.57200
C  12.13200 47.70400 29.42600
C  10.91800 48.53300 24.89600
C  6.26900 47.51100 25.79100
N  9.67200 47.24700 29.75200
C  8.77400 46.97300 30.80400
C  9.49300 47.07700 32.12400
C  10.95100 47.51200 31.71600
C  10.96900 47.48700 30.15700
C  11.45500 48.87100 32.27500
C  9.47900 45.76200 32.90900
C  10.42500 45.44700 34.00300
H  9.83900 45.21800 35.42700
N  11.28000 47.78000 27.11500
C  12.33300 47.82900 28.04700
C  13.61900 48.09500 27.36200
C  13.22700 48.41800 25.98500
C  11.72800 48.28100 25.97200
C  15.04700 48.17100 28.04000
C  14.08600 48.80400 24.83200
O  13.65400 49.18300 23.77000
C  15.57000 48.83200 24.95300
N  8.68000 48.11900 25.67700
C  9.53000 48.42300 24.65800
C  8.88300 48.74500 23.36900
C  7.39200 48.37900 23.68500
C  7.41100 47.84300 25.09900
C  9.02100 50.26100 22.86500
C  6.95600 47.35200 22.56200
C  7.08500 47.85800 21.04100
N  7.29400 47.05400 27.97100
C  6.24100 47.15600 27.11900
C  5.02000 46.86400 27.90200
C  5.42800 46.73000 29.25900
C  6.86000 46.73900 29.24000
C  3.60200 47.06700 27.40300
C  4.96600 46.57800 30.65000
O  3.81000 46.48200 31.08800
C  6.26000 46.58800 31.55200
C  6.37800 45.15900 32.12200
O  6.97100 44.22500 31.64600
O  5.75700 45.20200 33.33300
C  5.83000 43.88700 33.98000
H  13.00800 47.72500 30.07700
H  11.39700 48.93900 24.00200
H  5.43200 47.60200 25.09500
H  8.99700 47.83800 32.72500
H  11.61400 46.68000 31.95200
H  10.71400 49.18200 33.01000
H  11.41200 49.64800 31.51200
H  12.44800 48.66600 32.67600
H  9.78800 45.06100 32.13400
H  8.45700 45.51100 33.19600
H  11.03300 46.34700 34.09800
H  11.09200 44.61300 33.78600
H  15.67600 47.40000 27.59500
H  15.00900 47.76000 29.04900
H  15.52200 49.14700 28.13800
H  16.10400 49.03000 24.02400
H  15.79900 47.79100 25.18200
H  15.89100 49.33700 25.86400
H  9.23400 48.16400 22.51600
H  6.81000 49.29100 23.55000
H  8.08000 50.80600 22.79400
H  9.46700 50.25800 21.87000
H  9.61800 50.79900 23.60100
H  5.88900 47.14300 22.63700
H  7.53800 46.44800 22.74400
H  6.42900 47.26600 20.40300
H  8.10500 47.87500 20.65800
H  6.56000 48.80700 21.15300
H  3.00700 47.52300 28.19400
H  3.30100 46.04100 27.18900
H  3.54500 47.82100 26.61800
H  6.26500 47.28900 32.38700
H  5.32900 43.16900 33.33000
H  5.40300 44.01200 34.97400
H  6.88900 43.63800 34.04700

