158

Mg 41.67400 9.09800 29.38500
C  43.49400 10.53700 31.94700
C  39.52600 7.67100 31.59200
C  40.13700 7.63100 26.69100
C  44.29500 9.99800 27.16800
N  41.59500 9.01100 31.57800
C  42.33400 9.85100 32.42100
C  41.77100 9.81200 33.89600
C  40.62300 8.76800 33.76500
C  40.63700 8.34900 32.19600
C  40.64400 7.57300 34.70400
C  41.52000 11.23100 34.51700
C  40.36000 11.29800 35.54600
H  40.51700 12.11500 36.86100
N  40.02100 7.87100 29.11400
C  39.24900 7.31500 30.17800
C  38.10500 6.69000 29.65500
C  38.12700 6.80100 28.21700
C  39.47400 7.42400 27.91700
C  37.06500 6.03100 30.66000
C  37.15000 6.39200 27.22000
O  37.29500 6.41300 26.01000
C  35.88900 5.95500 27.73800
N  42.23000 8.74800 27.23700
C  41.35200 8.24600 26.34700
C  41.94900 8.29500 24.92500
C  43.26800 9.10500 25.06700
C  43.27100 9.25000 26.57800
C  42.13500 6.84700 24.43200
C  43.22200 10.51600 24.31800
C  42.05400 11.47600 24.61000
N  43.40100 10.16500 29.47100
C  44.39600 10.37500 28.54500
C  45.43400 11.21000 29.08500
C  45.09300 11.37500 30.48700
C  43.85000 10.64700 30.61300
C  46.51600 11.76200 28.25300
C  45.48800 11.91700 31.75700
O  46.45200 12.58500 32.13700
C  44.41600 11.37700 32.75700
C  45.10100 10.65800 33.86900
O  45.96000 9.81200 33.75600
O  44.68900 11.13200 35.13300
C  45.39000 10.68900 36.43000
H  38.88800 7.20500 32.34600
H  39.51500 7.13400 25.94300
H  45.06500 10.49800 26.57600
H  42.53300 9.49300 34.60800
H  39.63400 9.20700 33.89700
H  40.38100 6.69800 34.10900
H  39.86500 7.76400 35.44300
H  41.54400 7.55700 35.31800
H  41.39600 11.86400 33.63800
H  42.30000 11.55100 35.20700
H  40.14700 10.26000 35.80400
H  39.54800 11.79100 35.01200
H  36.16200 6.64000 30.67900
H  37.42300 5.97000 31.68800
H  36.67000 5.09100 30.27500
H  35.24500 5.70300 26.89500
H  35.35000 6.61400 28.41900
H  36.04500 5.03400 28.29900
H  41.23000 8.74000 24.23800
H  44.13000 8.55600 24.68800
H  41.74900 6.18700 25.20900
H  43.19200 6.65500 24.24500
H  41.54500 6.73100 23.52300
H  43.16700 10.33100 23.24500
H  44.15500 11.04800 24.50000
H  42.40600 12.40300 25.06300
H  41.29400 11.09700 25.29300
H  41.52400 11.63700 23.67100
H  47.09200 12.49800 28.81400
H  46.17400 12.16500 27.30000
H  47.19600 10.95800 27.97000
H  43.89400 12.28100 33.07100
H  46.03800 9.85700 36.15300
H  44.71500 10.25800 37.16900
H  45.98600 11.54000 36.76000
Mg 7.18900 53.70500 41.63200
C  6.13200 50.36200 41.08700
C  10.30600 52.96600 40.46100
C  7.64300 56.97200 41.31800
C  3.76200 54.31500 42.32800
N  8.04200 51.88700 40.65300
C  7.50300 50.64000 40.67100
C  8.49100 49.61700 40.05600
C  9.81800 50.43800 40.24700
C  9.34400 51.88200 40.53400
C  10.82800 49.82900 41.24900
C  8.23300 49.21500 38.56800
C  8.14300 50.27900 37.48500
H  6.78300 50.36800 36.77400
N  8.82000 54.82000 41.07700
C  10.04300 54.36100 40.62300
C  10.93800 55.37700 40.34900
C  10.15000 56.54500 40.55300
C  8.81500 56.19800 41.02800
C  12.38600 55.23200 39.88000
C  10.75900 57.97200 40.44300
O  11.91200 58.18800 40.06300
C  9.83300 59.23000 40.67100
N  5.97600 55.41000 41.95400
C  6.41100 56.64100 41.89100
C  5.36300 57.72700 42.03300
C  4.06900 56.79800 42.21500
C  4.62500 55.41000 42.14900
C  5.58900 58.75300 43.19700
C  2.99800 57.05800 40.99900
C  1.71400 57.72200 41.47400
N  5.41100 52.57800 41.90100
C  4.13400 53.00100 42.29000
C  3.26700 51.87000 42.37000
C  3.99300 50.81800 41.90500
C  5.30500 51.28300 41.63300
C  1.83600 51.87000 42.78100
C  3.91000 49.39100 41.57700
O  3.07100 48.45800 41.69900
C  5.40200 49.10700 41.17800
C  5.25400 48.34500 39.86300
O  4.77800 48.77700 38.86000
O  5.86900 47.12800 39.93400
C  5.62000 46.24800 38.75800
H  11.36200 52.70600 40.36400
H  7.78100 58.05100 41.23000
H  2.77700 54.54300 42.74100
H  8.56300 48.73100 40.68800
H  10.42800 50.40800 39.34500
H  11.66700 49.29300 40.80500
H  10.34600 49.19600 41.99500
H  11.44200 50.56500 41.76800
H  7.26300 48.71800 38.57800
H  9.03900 48.50800 38.37000
H  8.93600 50.16000 36.74600
H  8.35500 51.16200 38.08900
H  12.60700 54.18100 39.69200
H  13.03500 55.59700 40.67600
H  12.46300 55.70200 38.90000
H  9.02400 59.17800 39.94200
H  10.38600 60.12100 40.37400
H  9.54100 59.22000 41.72100
H  5.25400 58.22800 41.07100
H  3.62800 56.88100 43.20800
H  4.87900 58.59900 44.01000
H  5.34500 59.72500 42.76800
H  6.61800 58.74100 43.55800
H  2.74700 56.13600 40.47500
H  3.36900 57.62500 40.14500
H  0.98900 56.90900 41.44100
H  1.41000 58.50000 40.77400
H  1.70500 58.18000 42.46300
H  1.20400 51.94300 41.89500
H  1.50800 52.57300 43.54700
H  1.57800 50.94400 43.29400
H  5.87500 48.37000 41.82800
H  4.54400 46.07400 38.72400
H  6.21000 45.34800 38.92800
H  5.94100 46.64700 37.79600

