158

Mg 8.00300 3.07100 27.77000
C  9.34500 1.50000 30.62600
C  5.71100 4.80100 29.71300
C  6.61700 4.23300 24.95000
C  9.64300 0.56300 25.86800
N  7.45500 2.95900 29.91500
C  8.42100 2.56100 30.90400
C  8.02900 3.09600 32.30800
C  6.87300 3.98000 31.93300
C  6.66100 3.98100 30.40800
C  5.46500 3.80600 32.67300
C  9.26200 3.59900 33.10700
C  8.95000 4.66300 34.25900
H  9.53700 4.56700 35.63900
N  6.31800 4.33000 27.38300
C  5.64500 5.01400 28.29700
C  4.78200 5.91800 27.60900
C  5.08900 5.88500 26.24200
C  6.02800 4.80400 26.12900
C  3.89100 6.89000 28.27400
C  4.55200 6.74300 24.98900
O  5.02600 6.61000 23.84200
C  3.54800 7.74200 25.17500
N  8.29700 2.53400 25.70500
C  7.56900 3.20100 24.77900
C  7.69500 2.60600 23.37100
C  8.88400 1.62700 23.67100
C  8.98400 1.55500 25.19900
C  6.39400 1.96000 22.93000
C  10.23800 1.94900 23.02600
C  10.52500 1.50500 21.60800
N  9.40100 1.49100 28.18100
C  9.91700 0.55900 27.26300
C  10.73000 -0.36900 28.04800
C  10.62200 -0.00400 29.34000
C  9.69300 1.08000 29.41200
C  11.37500 -1.58400 27.44700
C  10.94000 -0.33500 30.67600
O  11.68300 -1.14800 31.17600
C  10.27600 0.72000 31.57100
C  9.64500 0.06300 32.71100
O  8.61100 -0.62100 32.73400
O  10.30500 0.42600 33.86400
C  9.69300 -0.22700 35.03900
H  5.17700 5.53300 30.32300
H  6.22300 4.62800 24.01100
H  10.11900 -0.14500 25.18600
H  7.55900 2.25400 32.81600
H  7.24700 4.98000 32.15400
H  4.71500 3.72300 31.88700
H  5.26200 4.60800 33.38300
H  5.51300 2.90500 33.28400
H  10.01100 4.10100 32.49600
H  9.73400 2.74700 33.59700
H  7.87800 4.53700 34.41200
H  9.17900 5.64100 33.83800
H  2.82900 6.67500 28.15700
H  4.07100 7.86900 27.82900
H  4.18100 6.95400 29.32300
H  3.15900 8.21700 24.27400
H  3.89600 8.56100 25.80300
H  2.73100 7.20300 25.65500
H  7.94900 3.35500 22.62100
H  8.57700 0.62800 23.35900
H  5.73500 1.91000 23.79700
H  6.46600 0.90600 22.66300
H  5.99400 2.57300 22.12200
H  11.09400 1.59600 23.60100
H  10.18300 3.03700 23.06100
H  9.80300 0.72100 21.37900
H  11.44700 0.92500 21.65200
H  10.50400 2.35200 20.92300
H  10.56000 -2.19900 27.06700
H  11.87800 -2.17400 28.21300
H  12.10300 -1.32200 26.67900
H  11.10600 1.36000 31.87300
H  10.44700 -0.23600 35.82600
H  9.58200 -1.30200 34.89800
H  8.71400 0.13900 35.34800
Mg -2.11300 34.51100 27.41100
C  -3.78600 32.50600 29.66000
C  -0.56600 36.07600 30.00900
C  -0.75300 36.46200 25.05800
C  -4.11300 32.98100 24.82100
N  -2.43400 34.53200 29.64700
C  -2.92200 33.39800 30.27000
C  -2.48500 33.40800 31.83600
C  -1.59400 34.69700 31.91000
C  -1.50200 35.08900 30.43900
C  -2.13600 35.89000 32.77300
C  -1.81500 32.04300 32.28500
C  -2.49800 31.44400 33.55300
H  -1.72100 31.43000 34.85200
N  -0.89900 36.14600 27.48900
C  -0.31900 36.53500 28.66600
C  0.72400 37.53700 28.24700
C  0.64500 37.77900 26.81400
C  -0.39500 36.77500 26.39600
C  1.54400 38.27600 29.27800
C  1.43500 38.68000 25.90500
O  1.16100 38.78300 24.70700
C  2.63100 39.42300 26.50700
N  -2.31100 34.58400 25.19800
C  -1.60600 35.51300 24.46800
C  -1.95100 35.51500 23.02600
C  -3.08500 34.33000 22.92200
C  -3.26500 33.98100 24.41200
C  -2.57400 36.85300 22.48300
C  -2.68400 33.06100 22.03300
C  -2.59700 33.25300 20.49400
N  -3.65600 33.09200 27.18700
C  -4.27500 32.56600 26.13100
C  -5.15300 31.53100 26.53300
C  -4.95100 31.34200 27.89300
C  -3.99500 32.35500 28.29800
C  -6.02600 30.79900 25.56700
C  -5.29500 30.62300 29.05600
O  -6.01800 29.63400 29.26900
C  -4.56400 31.32800 30.20600
C  -5.60900 31.76600 31.17400
O  -6.41800 32.68200 30.97500
O  -5.67600 30.97300 32.26400
C  -6.63900 31.26800 33.30300
H  0.17000 36.41500 30.74100
H  -0.26100 36.93200 24.20300
H  -4.68200 32.53900 24.00100
H  -3.37000 33.66500 32.41900
H  -0.58700 34.37800 32.17900
H  -1.26000 36.29300 33.28200
H  -2.67300 35.50200 33.63800
H  -2.71400 36.67700 32.28900
H  -0.77700 32.25200 32.54700
H  -1.67600 31.32900 31.47300
H  -2.46100 30.42000 33.18300
H  -3.49700 31.87300 33.63100
H  2.58900 38.21700 28.97500
H  1.52100 37.99300 30.33000
H  1.19900 39.31000 29.28000
H  3.47200 38.76500 26.72600
H  2.47900 40.11000 27.34000
H  2.95800 40.10600 25.72300
H  -1.09700 35.19800 22.42900
H  -4.06900 34.65500 22.58400
H  -3.49500 36.66000 21.93200
H  -1.80300 37.26100 21.82900
H  -2.83500 37.55200 23.27800
H  -3.45000 32.29000 22.11500
H  -1.76200 32.71800 22.50200
H  -3.02200 32.42800 19.92300
H  -1.54700 33.32500 20.21000
H  -2.95700 34.24800 20.23000
H  -6.74300 30.16700 26.09100
H  -5.44400 30.21700 24.85200
H  -6.58600 31.46600 24.91100
H  -3.95800 30.70300 30.86200
H  -7.25600 32.14700 33.11500
H  -6.00600 31.50500 34.15800
H  -7.33000 30.42500 33.32600

