158

Mg 30.32900 58.58000 40.27400
C  27.55200 56.91400 39.32700
C  32.29600 56.06400 38.83000
C  33.12500 60.45000 40.55400
C  28.36600 61.47300 40.93900
N  29.95700 56.72000 39.28300
C  28.70600 56.22500 38.97800
C  28.80100 54.96300 38.14600
C  30.21200 54.48200 38.52400
C  30.89800 55.80700 38.86200
C  30.28100 53.49400 39.78700
C  28.52800 55.24100 36.62100
C  27.50000 54.24900 35.90900
H  26.56200 54.82300 34.95300
N  32.49000 58.28400 39.94200
C  33.09000 57.18600 39.28400
C  34.55000 57.37600 39.24700
C  34.84200 58.66700 39.74200
C  33.50000 59.17700 40.08300
C  35.47400 56.33200 38.71200
C  36.18200 59.30400 39.91600
O  37.20800 58.69100 39.57900
C  36.36600 60.68300 40.59200
N  30.67300 60.66700 40.68800
C  31.92000 61.12600 40.89300
C  31.96700 62.63000 41.31000
C  30.43100 62.99400 41.31000
C  29.78200 61.64900 40.94500
C  32.60100 62.82100 42.80000
C  30.11000 64.05300 40.23500
C  29.96500 65.54800 40.70100
N  28.33900 59.05600 40.25700
C  27.69800 60.25700 40.56000
C  26.27500 60.03400 40.49300
C  26.17900 58.75800 39.91800
C  27.46400 58.19700 39.83800
C  25.10300 60.95300 40.89200
C  25.29300 57.73300 39.47800
O  24.06900 57.70200 39.40900
C  26.14200 56.55600 39.02000
C  25.61900 55.36900 39.71400
O  25.99100 55.04300 40.83400
O  24.74700 54.65700 38.97300
C  24.14000 53.39600 39.48300
H  32.98600 55.28500 38.50200
H  33.97700 61.12300 40.67400
H  27.71700 62.30000 41.23500
H  28.15400 54.20200 38.58400
H  30.66600 53.92700 37.70300
H  30.75100 54.02700 40.61400
H  30.84000 52.61800 39.45600
H  29.27900 53.13300 40.01800
H  29.40500 55.16600 35.97900
H  28.01100 56.18700 36.46500
H  26.97500 53.74100 36.71800
H  28.01600 53.51900 35.28600
H  36.45500 56.72800 38.45300
H  35.09000 55.88300 37.79600
H  35.65200 55.59900 39.49900
H  37.42800 60.71600 40.83600
H  35.64600 60.74600 41.40800
H  36.05400 61.41800 39.85000
H  32.63700 63.20500 40.67100
H  30.12600 63.40000 42.27400
H  32.75800 63.89100 42.93500
H  33.46100 62.25000 43.15300
H  31.84900 62.41900 43.47800
H  29.23100 63.73900 39.67100
H  30.95700 63.92200 39.56100
H  29.07400 66.05000 40.32400
H  30.84000 66.11100 40.37800
H  29.87700 65.54800 41.78800
H  25.47200 61.72500 41.56700
H  24.28500 60.42800 41.38600
H  24.70400 61.56400 40.08200
H  25.90900 56.45800 37.96000
H  24.41900 53.27600 40.53000
H  24.51700 52.52800 38.94100
H  23.05200 53.45100 39.51000
Mg -1.81200 34.66700 26.95200
C  -3.39900 32.89700 29.45200
C  -0.73900 36.98300 29.38000
C  -1.00200 36.99800 24.53600
C  -3.72700 32.98800 24.60000
N  -1.92300 34.72400 29.16900
C  -2.69100 33.95600 30.01100
C  -2.37100 34.21500 31.50500
C  -1.57700 35.56600 31.45100
C  -1.42100 35.80300 29.90600
C  -2.25500 36.66400 32.32700
C  -1.52000 32.95600 32.06800
C  -2.14200 32.31900 33.34600
H  -1.29300 32.18500 34.55600
N  -0.72700 36.63700 26.92400
C  -0.40500 37.35800 28.02500
C  0.40200 38.48600 27.56700
C  0.15800 38.55300 26.12700
C  -0.58500 37.40900 25.84700
C  1.13100 39.35900 28.55300
C  0.69500 39.64500 25.17700
O  0.50200 39.59100 23.97200
C  1.58000 40.66700 25.79600
N  -2.34200 35.02700 24.90800
C  -1.79500 35.93700 24.07400
C  -2.22000 35.69300 22.61000
C  -3.15700 34.41100 22.70900
C  -3.08300 34.17300 24.17300
C  -2.84600 37.04200 22.09100
C  -2.59600 33.20500 21.90000
C  -1.07300 32.97400 22.00200
N  -3.23700 33.23200 26.95500
C  -3.89400 32.56700 25.91100
C  -4.73800 31.53700 26.46300
C  -4.56100 31.65500 27.85000
C  -3.61500 32.66500 28.08000
C  -5.66000 30.59500 25.76200
C  -5.07600 31.04900 29.09500
O  -5.85100 30.12700 29.35800
C  -4.32500 31.89300 30.13900
C  -5.27000 32.40000 31.12500
O  -5.97200 33.40700 31.09400
O  -5.36100 31.57800 32.23900
C  -6.33900 31.90200 33.30500
H  -0.23000 37.58900 30.13200
H  -0.74100 37.74200 23.78100
H  -4.34900 32.41900 23.90600
H  -3.23100 34.28700 32.17100
H  -0.58400 35.41900 31.87600
H  -2.87400 37.31600 31.71100
H  -1.48200 37.26800 32.80100
H  -2.87200 36.18200 33.08500
H  -0.50100 33.27400 32.29100
H  -1.51600 32.21700 31.26600
H  -2.52900 31.32600 33.12000
H  -3.06100 32.85100 33.59300
H  1.20000 38.85600 29.51700
H  0.61000 40.31600 28.55900
H  2.09700 39.38600 28.04900
H  2.50400 40.24900 26.19500
H  1.11900 41.21800 26.61600
H  1.91300 41.43000 25.09200
H  -1.31800 35.57200 22.01100
H  -4.20200 34.64800 22.51500
H  -2.03300 37.58200 21.60400
H  -3.29300 37.56100 22.93900
H  -3.72400 36.92000 21.45700
H  -2.92700 33.42200 20.88500
H  -3.04100 32.24700 22.16600
H  -0.85400 33.47100 22.94700
H  -0.47700 33.43400 21.21400
H  -0.81800 31.93600 22.21600
H  -5.79300 30.76300 24.69300
H  -6.59700 30.82900 26.26800
H  -5.22000 29.60900 25.91300
H  -3.81300 31.09200 30.67400
H  -7.01000 31.06800 33.50900
H  -7.04700 32.71400 33.13800
H  -5.89700 32.23800 34.24300

