158

Mg 26.72500 50.28500 25.92100
C  24.73800 51.33800 28.68000
C  29.09100 49.50500 28.18200
C  28.53400 49.44000 23.29600
C  24.41500 51.71900 23.82200
N  26.91500 50.56900 28.23600
C  25.96600 50.87400 29.15500
C  26.43800 50.50100 30.58200
C  27.88500 50.04900 30.33400
C  27.95100 50.03700 28.81900
C  29.05200 50.95000 30.90000
C  25.48600 49.51200 31.30800
C  24.81400 49.88600 32.58700
H  25.79200 50.41400 33.63800
N  28.51700 49.52900 25.78900
C  29.38500 49.36300 26.82100
C  30.61300 48.81700 26.31000
C  30.44500 48.56700 24.88600
C  29.12600 49.21500 24.58700
C  31.90400 48.60000 27.04700
C  31.30000 47.98400 23.83100
O  31.07900 47.89300 22.65300
C  32.54800 47.28700 24.25800
N  26.48800 50.49400 23.85700
C  27.32800 50.01500 22.91900
C  26.73700 50.10300 21.51900
C  25.39100 50.83400 21.71500
C  25.46700 51.03100 23.25200
C  27.66700 50.70500 20.42100
C  24.11200 50.13900 21.11500
C  23.45900 49.04000 21.90600
N  24.89400 51.26400 26.13700
C  24.05200 51.79200 25.20400
C  22.79300 52.26300 25.73900
C  23.00900 52.16200 27.19000
C  24.28200 51.49200 27.34300
C  21.67500 52.74600 24.92100
C  22.48000 52.42800 28.55400
O  21.44100 52.89300 28.88100
C  23.62300 51.97600 29.53700
C  24.10900 53.17100 30.33200
O  25.02100 53.91900 30.12600
O  23.38200 53.12100 31.54200
C  23.83200 54.05500 32.58800
H  29.95000 49.22400 28.79600
H  29.23600 49.23000 22.48600
H  23.70500 51.97600 23.03400
H  26.33300 51.39100 31.20200
H  27.96400 48.99700 30.60700
H  28.64600 51.56000 31.70700
H  29.43200 51.61700 30.12500
H  29.92500 50.43400 31.29900
H  25.94100 48.52400 31.37500
H  24.70800 49.35900 30.56000
H  24.35000 48.98000 32.97600
H  24.09700 50.69200 32.42500
H  31.88000 49.07700 28.02700
H  32.71800 49.03700 26.46900
H  31.94000 47.55200 27.34500
H  33.04200 46.93200 23.35300
H  32.13400 46.43300 24.79500
H  33.26000 47.81500 24.89300
H  26.38200 49.15000 21.12700
H  25.50900 51.80100 21.22600
H  28.38100 51.41800 20.83400
H  27.10700 51.11800 19.58300
H  28.19000 49.78200 20.17100
H  24.33000 49.79300 20.10500
H  23.42300 50.96700 20.94900
H  24.05200 48.64600 22.73100
H  23.21200 48.21500 21.23700
H  22.52000 49.39400 22.33100
H  20.78200 52.88800 25.53000
H  21.35500 52.17000 24.05300
H  22.09500 53.66900 24.52100
H  23.10400 51.34700 30.26200
H  23.94100 55.02500 32.10500
H  24.76600 53.72400 33.04200
H  23.10900 54.06600 33.40400
Mg 6.40600 53.82000 40.03100
C  5.50500 50.46900 40.02800
C  9.65200 52.86000 39.42500
C  7.11300 56.91800 39.18400
C  2.96900 54.57200 40.30400
N  7.43400 51.84500 39.54500
C  6.89900 50.64400 39.77400
C  7.99500 49.51000 39.65000
C  9.22600 50.39700 40.03800
C  8.77800 51.80200 39.50700
C  9.62300 50.33900 41.56600
C  8.10000 48.88300 38.23800
C  7.29100 49.44800 37.05300
H  8.11700 49.80400 35.75700
N  8.14800 54.76000 39.29800
C  9.39600 54.22400 39.21600
C  10.35900 55.20000 38.75900
C  9.64700 56.46100 38.71300
C  8.21500 56.10800 39.04000
C  11.78100 54.90300 38.41700
C  10.32700 57.81200 38.49900
O  11.47600 57.94600 38.22400
C  9.43200 59.04900 38.50700
N  5.19300 55.50800 39.84400
C  5.76800 56.62700 39.38400
C  4.73300 57.76300 39.50100
C  3.41000 57.02600 39.80500
C  3.83000 55.61200 39.99200
C  5.15500 58.96700 40.42100
C  2.22700 57.33300 38.77400
C  0.95000 57.81100 39.41200
N  4.57800 52.78100 40.18900
C  3.27800 53.23500 40.39500
C  2.35000 52.10700 40.72000
C  3.19200 51.00900 40.53100
C  4.49500 51.44100 40.23800
C  0.98900 52.17100 41.21300
C  3.17300 49.58500 40.61200
O  2.33300 48.76700 40.96300
C  4.73000 49.17400 40.24700
C  4.70700 48.33000 39.11100
O  4.13300 48.49800 38.00700
O  5.41100 47.18200 39.46800
C  5.57500 46.16400 38.39700
H  10.70600 52.57600 39.46300
H  7.16000 57.99500 39.00800
H  1.95600 54.90800 40.53400
H  7.92300 48.68300 40.35600
H  10.06600 49.94300 39.51200
H  10.71300 50.34600 41.53300
H  9.32500 49.50000 42.19500
H  9.21000 51.20600 42.08100
H  7.76200 47.86400 38.42800
H  9.15800 48.82600 37.98200
H  6.81600 50.38400 37.34800
H  6.59700 48.65000 36.78900
H  11.93100 55.06400 37.34900
H  12.06400 53.93300 38.82600
H  12.33100 55.65300 38.98500
H  10.07400 59.92000 38.64200
H  8.90700 59.09800 39.46000
H  8.78200 59.07200 37.63100
H  4.69900 58.09800 38.46400
H  3.22800 57.25500 40.85600
H  4.26700 59.37900 40.90200
H  5.59600 59.71600 39.76300
H  5.88900 58.66100 41.16600
H  1.98800 56.36100 38.34300
H  2.53400 58.09100 38.05200
H  0.12700 57.70800 38.70500
H  0.91700 58.82200 39.81800
H  0.76100 57.10600 40.22100
H  0.73500 53.20800 40.99700
H  0.97900 52.03200 42.29400
H  0.31200 51.52100 40.65800
H  5.28200 48.69000 41.05300
H  4.55600 45.81600 38.22500
H  6.25600 45.35600 38.66400
H  5.99100 46.69700 37.54300

