158

Mg 41.41800 40.63300 27.58400
C  40.64200 43.08700 29.91800
C  42.62900 38.70700 30.16300
C  42.64500 38.65000 25.35000
C  40.81200 42.97800 25.09700
N  41.47100 40.77300 29.74700
C  41.00600 41.86900 30.49600
C  40.89800 41.47500 32.03000
C  41.82200 40.15600 32.09200
C  42.12100 39.85200 30.57800
C  43.23100 40.35300 32.85400
C  39.42600 41.23400 32.45300
C  38.79800 41.92000 33.76000
H  38.54200 41.00800 35.04000
N  42.43700 38.90100 27.75200
C  42.86500 38.17300 28.88200
C  43.27600 36.84900 28.53900
C  43.40300 36.89200 27.17000
C  42.89600 38.20500 26.70300
C  43.78300 35.80900 29.53000
C  44.03800 35.82600 26.19700
O  43.99100 35.95600 24.98600
C  44.64400 34.58500 26.67400
N  41.59300 40.81200 25.51600
C  42.07700 39.82800 24.76200
C  42.07600 40.08000 23.27500
C  41.74100 41.62000 23.26300
C  41.26300 41.78100 24.68400
C  43.30900 39.78200 22.35500
C  40.70800 41.95500 22.19900
C  39.25200 41.65900 22.50500
N  40.75300 42.64900 27.49700
C  40.59000 43.45700 26.41200
C  40.11100 44.79800 26.90600
C  40.01100 44.68000 28.25700
C  40.52000 43.36700 28.56800
C  39.92200 46.03900 25.92700
C  39.55800 45.29800 29.46300
O  38.86600 46.30700 29.63500
C  39.97300 44.30100 30.60800
C  40.84900 44.97300 31.59500
O  42.06300 45.19700 31.42700
O  40.25600 45.19700 32.80000
C  41.07900 46.02300 33.68200
H  43.01800 38.01500 30.91300
H  43.05600 37.99500 24.57900
H  40.78800 43.75900 24.33400
H  41.34200 42.22600 32.68300
H  41.30100 39.22500 32.31400
H  43.92000 40.53200 32.02800
H  43.24400 39.42600 33.42700
H  43.20000 41.26900 33.44400
H  39.33900 40.17300 32.68300
H  38.84300 41.39300 31.54600
H  37.91800 42.44500 33.38800
H  39.50500 42.66900 34.11700
H  43.26300 34.86200 29.67700
H  43.67300 36.16100 30.55500
H  44.79200 35.46600 29.30000
H  45.45400 34.91200 27.32500
H  45.01600 33.98300 25.84600
H  43.88600 34.14600 27.32300
H  41.21700 39.56300 22.84900
H  42.67600 42.17300 23.17400
H  43.10200 38.81500 21.89600
H  44.15900 39.73600 23.03500
H  43.53500 40.62000 21.69600
H  41.07800 41.28600 21.42200
H  40.96700 42.95200 21.84400
H  38.97100 41.30300 23.49600
H  38.90100 40.88200 21.82500
H  38.63600 42.53000 22.28300
H  38.99400 46.50900 26.25200
H  39.78700 45.68200 24.90600
H  40.71800 46.76700 26.08300
H  39.07600 44.02600 31.16400
H  41.69100 46.74800 33.14600
H  41.74600 45.38700 34.26500
H  40.40100 46.52200 34.37500
Mg -10.17800 17.29300 41.00600
C  -6.67000 17.28900 41.00700
C  -10.08500 20.58500 40.33400
C  -13.50000 17.12500 40.54500
C  -10.17100 13.74700 41.44200
N  -8.45800 18.74100 40.44800
C  -7.11500 18.56600 40.57200
C  -6.36400 19.86000 40.25000
C  -7.51500 20.92700 40.47900
C  -8.80200 20.05500 40.44600
C  -7.36900 21.93000 41.72200
C  -5.78600 19.80400 38.82400
C  -4.31300 19.32200 38.77700
H  -4.10000 18.20200 37.76400
N  -11.61300 18.70200 40.58100
C  -11.35900 19.95300 40.23800
C  -12.61400 20.66000 39.96900
C  -13.68800 19.73500 40.09500
C  -12.89600 18.41800 40.46200
C  -12.60800 22.12600 39.47000
C  -15.17500 19.96300 39.81500
O  -15.49200 21.08600 39.54200
C  -16.27400 18.88300 39.75100
N  -11.60100 15.63500 41.04100
C  -12.88500 15.85400 40.72200
C  -13.71300 14.56600 40.59800
C  -12.64800 13.46300 40.97800
C  -11.38200 14.32400 41.15300
C  -14.98900 14.57900 41.52600
C  -12.46500 12.28400 39.99600
C  -11.74900 12.61400 38.63100
N  -8.78700 15.78700 41.21800
C  -8.91500 14.44100 41.42700
C  -7.67900 13.82900 41.74700
C  -6.68600 14.87500 41.60600
C  -7.43500 16.10300 41.28000
C  -7.47200 12.37400 41.86300
C  -5.30700 15.23100 41.62700
O  -4.32200 14.51500 41.90100
C  -5.21900 16.76400 41.28300
C  -4.39800 17.34900 42.34500
O  -3.30300 16.94300 42.63700
O  -4.99800 18.45100 42.92100
C  -4.20600 19.19300 43.89600
H  -10.10300 21.66600 40.18000
H  -14.56500 17.11900 40.30100
H  -10.14500 12.65600 41.41100
H  -5.50900 19.99600 40.91200
H  -7.54200 21.44800 39.52200
H  -6.39900 21.78900 42.19800
H  -8.15400 21.69100 42.43900
H  -7.58500 22.97400 41.49200
H  -5.95200 20.76500 38.33800
H  -6.38100 19.12200 38.21600
H  -3.92600 18.83800 39.67400
H  -3.72300 20.19200 38.48800
H  -13.45500 22.23400 38.79300
H  -11.71200 22.36900 38.89800
H  -12.70200 22.79400 40.32700
H  -16.07600 18.18300 38.93900
H  -17.20300 19.44000 39.63000
H  -16.33900 18.28700 40.66100
H  -14.07700 14.42800 39.58000
H  -12.75300 13.07500 41.99200
H  -14.61400 14.66700 42.54600
H  -15.54500 13.66400 41.32500
H  -15.63900 15.42400 41.30000
H  -13.44300 11.88800 39.72000
H  -11.94100 11.54500 40.60300
H  -12.49600 12.48000 37.84900
H  -10.86700 12.02000 38.38900
H  -11.49000 13.67200 38.58300
H  -8.31300 11.89700 42.36600
H  -6.49000 12.17000 42.29000
H  -7.51000 11.96800 40.85200
H  -4.58400 16.81100 40.39900
H  -3.25600 19.46800 43.43800
H  -3.97500 18.46700 44.67500
H  -4.67000 20.14300 44.16300

