158

Mg 17.26400 50.72700 26.20700
C  18.91400 48.95800 28.73000
C  14.71100 51.33800 28.66600
C  15.36200 51.84500 23.80000
C  19.27000 49.03900 23.86100
N  16.83000 50.13100 28.49000
C  17.73100 49.52700 29.31400
C  17.26800 49.76700 30.76000
C  15.76100 50.16600 30.59500
C  15.76400 50.59900 29.12400
C  14.71300 49.05000 30.75600
C  18.11100 50.82400 31.53100
C  18.51700 50.46700 32.97500
H  17.55800 50.87200 34.14900
N  15.37500 51.60800 26.23700
C  14.49000 51.89500 27.35900
C  13.37200 52.65200 26.87300
C  13.56900 52.84700 25.48400
C  14.79000 52.06000 25.14400
C  12.26100 53.17400 27.79900
C  12.80900 53.70500 24.48900
O  13.16700 53.75500 23.32100
C  11.61400 54.55900 24.99900
N  17.26000 50.39800 24.06200
C  16.45700 51.12700 23.33100
C  16.78500 51.00600 21.82200
C  18.01800 50.08700 21.82000
C  18.20200 49.80400 23.30800
C  15.60600 50.48200 20.94500
C  19.34100 50.68000 21.29000
C  20.18100 49.63500 20.53000
N  18.80900 49.50400 26.27900
C  19.54100 48.90700 25.20800
C  20.67400 48.20800 25.74400
C  20.58200 48.32600 27.17800
C  19.30500 48.93900 27.41300
C  21.73700 47.48100 24.89800
C  21.15300 47.95800 28.46600
O  22.27000 47.42100 28.68700
C  20.18600 48.52600 29.54700
C  19.88000 47.46300 30.52300
O  18.97200 46.63400 30.46600
O  20.72600 47.55900 31.61200
C  20.27300 46.77000 32.83100
H  13.94200 51.53900 29.41500
H  14.81700 52.32100 22.98200
H  19.97100 48.56600 23.17000
H  17.36100 48.80100 31.25500
H  15.47000 51.02600 31.19700
H  14.77400 48.27500 29.99300
H  13.73700 49.51300 30.60600
H  14.69700 48.57800 31.73900
H  17.48100 51.67500 31.78800
H  18.91700 51.33200 31.00100
H  19.55000 50.76900 33.14900
H  18.67800 49.38900 32.95300
H  12.16000 54.24800 27.64500
H  12.41800 52.83000 28.82100
H  11.38000 52.68100 27.38700
H  10.99400 53.86800 25.57000
H  11.17500 55.08100 24.14900
H  12.03200 55.30800 25.67100
H  17.03500 52.00300 21.46000
H  17.68500 49.18700 21.30200
H  14.90200 49.90900 21.54900
H  16.03300 49.85900 20.15800
H  15.00500 51.31100 20.57200
H  19.99600 50.95500 22.11700
H  19.19000 51.50400 20.59200
H  20.90400 49.29300 21.27100
H  20.68300 50.07400 19.66800
H  19.59800 48.74800 20.28400
H  22.24400 48.00200 24.08600
H  21.36200 46.50900 24.58000
H  22.47300 47.10100 25.60700
H  20.66500 49.32200 30.11600
H  20.43300 45.75000 32.48100
H  19.21100 46.74000 33.07600
H  20.84400 46.98200 33.73500
Mg -5.82600 25.00700 26.15100
C  -4.41200 26.22300 29.09300
C  -7.98900 23.14900 28.26000
C  -7.19400 23.78800 23.39700
C  -3.68200 27.04500 24.36100
N  -6.22500 24.75700 28.56200
C  -5.49600 25.35000 29.53100
C  -6.07700 24.94600 30.92100
C  -6.91400 23.71300 30.50800
C  -7.07300 23.85500 29.02200
C  -6.35400 22.34500 30.89700
C  -6.90200 26.09500 31.63500
C  -6.58600 26.38300 33.08000
H  -5.83500 25.32800 34.05000
N  -7.29400 23.64700 25.86200
C  -8.11900 22.97900 26.85200
C  -9.13800 22.17500 26.21100
C  -8.86600 22.31600 24.77300
C  -7.75100 23.30200 24.64700
C  -10.21000 21.47700 26.97200
C  -9.52700 21.67100 23.58700
O  -9.23300 21.90500 22.42500
C  -10.56400 20.64300 23.90400
N  -5.46500 25.37000 24.14400
C  -6.15000 24.73400 23.15900
C  -5.62100 25.10600 21.78100
C  -4.65800 26.30800 22.09700
C  -4.56300 26.27600 23.60300
C  -4.85600 24.01600 20.91100
C  -5.06600 27.73800 21.66900
C  -4.14800 28.35500 20.55800
N  -4.26100 26.30100 26.58700
C  -3.53500 27.16500 25.76500
C  -2.61600 28.00600 26.59900
C  -3.00400 27.71000 27.91500
C  -4.00100 26.67600 27.84100
C  -1.57000 29.00900 25.95700
C  -2.70000 27.98600 29.31000
O  -1.77900 28.68700 29.78100
C  -3.53100 27.02200 30.12300
C  -2.69900 26.30900 31.08300
O  -2.07700 25.31000 30.78700
O  -2.68700 26.86300 32.35800
C  -1.79000 26.09000 33.19800
H  -8.65300 22.46200 28.79000
H  -7.64200 23.48200 22.45000
H  -3.00100 27.62200 23.73100
H  -5.20400 24.69100 31.52200
H  -7.88600 23.68200 31.00100
H  -7.03800 21.99500 31.67000
H  -5.34400 22.43000 31.29700
H  -6.40400 21.51800 30.18800
H  -7.98000 25.93400 31.60700
H  -6.74100 26.89700 30.91400
H  -7.55700 26.59100 33.52900
H  -6.01100 27.30900 33.10700
H  -9.83500 20.49700 27.26700
H  -11.12000 21.52600 26.37400
H  -10.50900 22.02500 27.86500
H  -10.79800 20.13700 22.96800
H  -11.45600 21.21700 24.15300
H  -10.42500 19.96900 24.74900
H  -6.51100 25.40700 21.22800
H  -3.68500 26.07500 21.66500
H  -5.65800 23.33200 20.63500
H  -4.29200 23.35100 21.56500
H  -4.46300 24.44600 19.98900
H  -5.23900 28.38900 22.52500
H  -5.93900 27.61600 21.02700
H  -4.63600 28.71800 19.65300
H  -3.43600 27.64300 20.13900
H  -3.58400 29.18700 20.97900
H  -1.04400 29.59700 26.70800
H  -2.06700 29.75000 25.33100
H  -0.76900 28.45500 25.46700
H  -4.25100 27.59300 30.70900
H  -0.74200 26.15000 32.90300
H  -2.13800 25.05800 33.16000
H  -1.93600 26.48200 34.20500

