158

Mg 53.51400 23.76700 43.51500
C  51.02500 26.12900 42.83300
C  51.65200 21.32300 41.79500
C  56.22600 21.69400 43.60000
C  55.42300 26.34600 44.81300
N  51.63500 23.76800 42.40000
C  50.74000 24.82400 42.25400
C  49.52500 24.33000 41.43700
C  49.58600 22.75900 41.56200
C  51.10100 22.56800 41.90100
C  48.59100 22.24600 42.61100
C  49.49400 25.05700 40.08500
C  49.83800 24.25600 38.89900
H  50.03500 24.95700 37.49400
N  53.90800 21.78800 42.79600
C  52.97100 20.95700 42.21000
C  53.52800 19.68900 42.12700
C  54.87300 19.65000 42.64700
C  55.11800 21.13000 43.04500
C  52.76400 18.46700 41.54800
C  55.83300 18.47900 42.74400
O  55.56000 17.34400 42.32800
C  57.24700 18.57500 43.29200
N  55.56200 24.02000 43.93800
C  56.46400 23.01000 43.97900
C  57.90200 23.49900 44.42900
C  57.69300 25.08100 44.49400
C  56.14500 25.16500 44.44400
C  58.37000 22.94100 45.77300
C  58.34400 25.78200 43.26100
C  57.89800 27.19500 42.95400
N  53.26700 25.86000 43.82700
C  54.07500 26.72600 44.46800
C  53.35200 27.98900 44.72100
C  52.12600 27.80700 44.11200
C  52.14800 26.47100 43.60400
C  53.71000 29.14000 45.54900
C  50.84100 28.36900 43.80300
O  50.30700 29.40600 44.16900
C  50.01800 27.28300 42.99600
C  49.62100 27.87700 41.66400
O  50.40400 28.31300 40.85700
O  48.23200 27.91700 41.55300
C  47.73600 28.54400 40.35600
H  51.05900 20.51600 41.36000
H  57.07200 21.00600 43.65100
H  55.97100 27.21600 45.18100
H  48.66400 24.75000 41.95600
H  49.35700 22.25900 40.62100
H  48.14500 23.05500 43.19000
H  48.96100 21.47800 43.29000
H  47.79900 21.78700 42.02000
H  50.15300 25.92400 40.03600
H  48.49600 25.49500 40.07800
H  49.09000 23.49000 38.69300
H  50.72900 23.65100 39.06800
H  53.37600 17.72000 41.04100
H  52.07700 18.76900 40.75800
H  52.12400 18.01400 42.30500
H  57.25700 18.92400 44.32500
H  57.74900 19.22300 42.57300
H  57.81700 17.66600 43.09800
H  58.66000 23.24900 43.68700
H  58.06600 25.52800 45.41600
H  59.39900 22.70500 45.50000
H  57.86300 22.10100 46.24900
H  58.37500 23.74200 46.51200
H  57.94800 25.24800 42.39700
H  59.42800 25.85600 43.34200
H  57.01600 27.18900 42.31400
H  58.65400 27.77000 42.41900
H  57.65400 27.76900 43.84800
H  52.81000 29.38500 46.11300
H  53.91100 30.03800 44.96500
H  54.52200 28.90500 46.23700
H  49.09600 26.90100 43.43400
H  48.33100 28.43300 39.44900
H  47.51200 29.60100 40.49800
H  46.77400 28.09600 40.10900
Mg 36.24500 50.20100 25.04600
C  36.30000 48.11500 27.87900
C  35.31500 52.74500 27.01900
C  35.64700 52.06300 22.17600
C  36.99600 47.34800 23.13900
N  35.71100 50.33700 27.19600
C  36.05200 49.45800 28.22900
C  35.97700 50.13200 29.63300
C  35.47100 51.56100 29.28500
C  35.55400 51.60200 27.75300
C  34.17900 52.05300 29.85700
C  37.34100 50.02200 30.41400
C  37.36500 49.92600 31.93900
H  36.10600 49.50000 32.66700
N  35.62800 52.12600 24.64800
C  35.35200 53.06200 25.66600
C  35.14400 54.32000 25.06100
C  35.22200 54.16200 23.61200
C  35.47600 52.72700 23.41900
C  34.97400 55.59100 25.86800
C  35.09400 55.23500 22.52400
O  35.09100 54.93700 21.33100
C  34.98200 56.65800 22.88900
N  36.26100 49.74300 23.03100
C  36.02100 50.67400 22.01700
C  36.01700 49.99800 20.64600
C  36.81900 48.60900 20.94000
C  36.69900 48.48200 22.46300
C  34.64500 49.83600 19.91600
C  38.29900 48.55800 20.56400
C  38.96100 47.20700 20.11800
N  36.49400 48.12000 25.35300
C  36.80700 47.10000 24.50500
C  36.98500 45.84700 25.25800
C  36.79500 46.19100 26.58800
C  36.43700 47.59300 26.60700
C  37.26700 44.42700 24.65800
C  36.85100 45.67300 28.02500
O  37.22800 44.62400 28.49600
C  36.46800 46.93100 28.89000
C  35.27200 46.45300 29.56600
O  34.13900 46.81000 29.33700
O  35.60200 45.55700 30.58600
C  34.49500 45.37000 31.46500
H  35.11300 53.59400 27.67600
H  35.47400 52.68200 21.29400
H  37.25400 46.57100 22.41600
H  35.21500 49.65200 30.24800
H  36.27200 52.22500 29.61000
H  34.46900 52.77100 30.62300
H  33.54500 51.25800 30.25000
H  33.64500 52.62500 29.09800
H  37.99200 50.83200 30.08400
H  37.88100 49.11400 30.14600
H  37.62400 50.89000 32.37700
H  38.13100 49.16300 32.07900
H  35.78500 56.29400 25.67900
H  34.91200 55.40400 26.94000
H  34.08500 56.15000 25.57500
H  35.76900 56.98600 23.56800
H  34.01600 56.84700 23.35700
H  35.13300 57.15000 21.92900
H  36.69200 50.65300 20.09500
H  36.28500 47.82500 20.40100
H  34.57900 50.50900 19.06100
H  33.86800 50.12900 20.62200
H  34.47900 48.80900 19.59000
H  38.89900 48.69900 21.46300
H  38.44600 49.34500 19.82500
H  39.86600 47.33800 19.52400
H  38.23000 46.58100 19.60700
H  39.15100 46.62000 21.01700
H  37.90100 44.53200 23.77800
H  36.32500 44.01600 24.29600
H  37.59800 43.62000 25.31100
H  37.29700 47.25000 29.52200
H  34.17000 46.23600 32.04100
H  34.70100 44.67300 32.27700
H  33.59700 44.98900 30.97900

