158

Mg 10.21900 48.76500 25.18600
C  8.25400 48.78000 28.04200
C  12.84700 50.08200 26.94500
C  12.04700 48.32100 22.51100
C  7.30600 48.19700 23.34400
N  10.41300 49.30200 27.24500
C  9.57700 49.02400 28.30500
C  10.20300 49.56200 29.59500
C  11.49300 50.37100 29.10600
C  11.63000 49.87500 27.67900
C  11.39600 51.95400 29.06000
C  10.46300 48.35900 30.65900
C  9.77200 48.56500 31.98300
H  9.68600 47.28800 32.92800
N  12.14700 49.10600 24.82700
C  13.09800 49.62400 25.62100
C  14.40500 49.56300 24.98900
C  14.23300 48.99200 23.69800
C  12.77800 48.84300 23.63900
C  15.76000 49.88300 25.72000
C  15.24400 48.70200 22.61400
O  14.88000 48.35800 21.48800
C  16.69300 48.88000 22.79200
N  9.76500 48.57600 23.08200
C  10.71200 48.29100 22.17000
C  10.07700 47.81600 20.84400
C  8.56400 47.69400 21.17900
C  8.52400 48.24200 22.63300
C  10.43200 48.64600 19.57300
C  8.00900 46.19100 21.03300
C  7.97400 45.26900 22.28800
N  8.20100 48.58800 25.50200
C  7.15200 48.31800 24.71900
C  5.97100 48.14800 25.47200
C  6.39900 48.27100 26.80000
C  7.76100 48.54000 26.75600
C  4.58400 47.85800 24.98400
C  5.86200 48.32900 28.14200
O  4.70800 48.13600 28.56500
C  7.09800 48.58000 28.95500
C  7.32500 47.42000 29.85200
O  7.84400 46.37500 29.48300
O  6.75100 47.67300 31.11100
C  6.49300 46.46800 31.96700
H  13.64400 50.55300 27.52500
H  12.61100 48.18600 21.58600
H  6.37700 47.93200 22.83400
H  9.46300 50.21800 30.05300
H  12.43400 50.10200 29.58600
H  12.10700 52.34900 28.33400
H  11.56100 52.24400 30.09800
H  10.37400 52.21700 28.78500
H  11.53600 48.32300 30.84500
H  10.16900 47.36500 30.32300
H  8.78000 48.96500 31.77600
H  10.32200 49.38000 32.45500
H  15.72200 49.91800 26.80800
H  16.21600 50.81600 25.38800
H  16.35900 49.01400 25.44500
H  16.91500 49.93500 22.95300
H  17.07300 48.59700 21.81000
H  17.19700 48.27900 23.54800
H  10.42700 46.81200 20.60300
H  7.92400 48.33700 20.57400
H  11.22600 49.35100 19.82000
H  9.56700 49.21700 19.23400
H  10.74700 47.91400 18.83100
H  8.58900 45.72500 20.23500
H  6.99600 46.36500 20.67000
H  8.25700 44.27100 21.95400
H  6.94000 45.03800 22.54700
H  8.53600 45.68800 23.12300
H  3.81900 47.71000 25.74500
H  4.68400 47.11200 24.19400
H  4.33200 48.81400 24.52400
H  6.94900 49.43400 29.61500
H  5.44200 46.21900 31.82300
H  6.52200 46.81400 33.00000
H  7.09400 45.56100 32.03500
Mg -10.01800 16.96600 40.44500
C  -6.60900 16.84400 40.54400
C  -9.76700 20.35800 39.57300
C  -13.40000 17.04400 39.95900
C  -10.05800 13.48900 40.44500
N  -8.35200 18.34600 39.96100
C  -7.07600 18.05000 40.10500
C  -6.26500 19.22300 39.53500
C  -7.17000 20.43900 39.74400
C  -8.50400 19.71300 39.75300
C  -6.95000 21.30900 40.98700
C  -5.79100 18.94200 38.07100
C  -4.37800 18.61500 37.66000
H  -4.14500 17.22900 37.01400
N  -11.38200 18.53400 39.92200
C  -11.08300 19.86600 39.54600
C  -12.30800 20.56900 39.28300
C  -13.37600 19.61400 39.44900
C  -12.72100 18.33200 39.82200
C  -12.27700 22.02200 38.99900
C  -14.79100 19.91200 39.36000
O  -15.10400 21.08400 39.13600
C  -15.87000 18.96200 39.59200
N  -11.47900 15.49300 40.18700
C  -12.85600 15.76700 40.06300
C  -13.68500 14.47500 39.98300
C  -12.51000 13.33500 39.95300
C  -11.25600 14.16500 40.19800
C  -14.67100 14.23600 41.10800
C  -12.33000 12.57000 38.58200
C  -12.39500 11.00400 38.63600
N  -8.67500 15.36900 40.57100
C  -8.82700 14.09400 40.64100
C  -7.46200 13.46200 40.98600
C  -6.58300 14.54100 41.06600
C  -7.37000 15.63200 40.70800
C  -7.30300 11.99400 41.20600
C  -5.20900 14.94900 41.25600
O  -4.25700 14.26300 41.66500
C  -5.10900 16.42700 40.82400
C  -4.62600 17.36500 41.93400
O  -5.30200 18.17500 42.53600
O  -3.32900 17.10800 42.24300
C  -2.73800 18.01100 43.24000
H  -9.60500 21.38900 39.25100
H  -14.44700 17.01300 39.65100
H  -10.18500 12.40500 40.47200
H  -5.38000 19.24900 40.17100
H  -7.25700 21.17200 38.94200
H  -6.04800 21.00600 41.51800
H  -7.80200 21.18000 41.65500
H  -6.75600 22.34300 40.70500
H  -6.02300 19.79500 37.43400
H  -6.41600 18.16000 37.64000
H  -3.75500 18.72000 38.54800
H  -4.14500 19.32500 36.86700
H  -12.25200 22.59300 39.92700
H  -13.03100 22.25300 38.24700
H  -11.32800 22.28300 38.52900
H  -15.70100 18.51800 40.57300
H  -15.86100 18.20200 38.81000
H  -16.84600 19.44500 39.56600
H  -14.27800 14.46100 39.06800
H  -12.67200 12.64200 40.77900
H  -14.47300 14.93900 41.91700
H  -14.55400 13.20300 41.43400
H  -15.71100 14.48300 40.89200
H  -11.34200 12.78700 38.17400
H  -13.00900 12.91400 37.80200
H  -12.00800 10.70800 39.61100
H  -11.63900 10.58200 37.97300
H  -13.39800 10.62300 38.44500
H  -6.47100 11.66100 41.82700
H  -7.15100 11.46600 40.26500
H  -8.12200 11.51300 41.74100
H  -4.53100 16.53800 39.90700
H  -2.80400 18.98600 42.75700
H  -1.69400 17.91700 43.54100
H  -3.36100 17.99200 44.13400

