158

Mg 47.48100 16.06300 29.00300
C  45.22600 15.63500 31.57100
C  49.44400 18.02200 31.07700
C  49.17800 17.21700 26.35700
C  44.96800 14.89200 26.76500
N  47.26000 16.85400 31.06300
C  46.41100 16.32600 31.95800
C  46.66800 16.87200 33.38900
C  47.94800 17.79200 33.19800
C  48.23400 17.63200 31.70700
C  47.75500 19.25300 33.63200
C  46.99800 15.67500 34.34000
C  46.16600 15.72900 35.63300
H  45.90600 17.04500 36.38000
N  49.25300 17.14000 28.82300
C  49.92900 17.78800 29.77500
C  51.23200 18.16200 29.24000
C  51.13800 17.94200 27.83600
C  49.82400 17.31200 27.59800
C  52.28300 18.72400 30.00900
C  52.20100 18.37600 26.72300
O  51.89500 18.33900 25.54800
C  53.62000 18.73600 27.15700
N  47.14500 16.01900 26.94800
C  47.92500 16.66900 26.08000
C  47.44200 16.55100 24.68100
C  46.35500 15.43200 24.73100
C  46.10300 15.44200 26.25000
C  46.77100 17.85100 24.21200
C  46.77000 14.04100 24.00800
C  46.37000 12.69500 24.66700
N  45.53600 15.28700 29.06900
C  44.64600 14.90100 28.14300
C  43.46800 14.36000 28.72700
C  43.66400 14.64900 30.09100
C  44.92500 15.15300 30.25800
C  42.20800 13.94900 28.08600
C  42.97000 14.55600 31.39000
O  41.87500 14.14800 31.69900
C  43.97200 15.28100 32.43500
C  43.18100 16.44800 32.97800
O  43.06800 17.55800 32.47500
O  42.69400 16.15300 34.18600
C  41.95400 17.18200 34.83800
H  49.86100 18.69700 31.82700
H  49.70600 17.57100 25.46900
H  44.21100 14.63400 26.02100
H  45.77600 17.42400 33.68700
H  48.75000 17.38200 33.81300
H  48.70100 19.49600 34.11600
H  46.96500 19.55800 34.31800
H  47.65200 19.81900 32.70600
H  48.04800 15.55200 34.60600
H  46.72900 14.71500 33.90000
H  46.76500 15.09500 36.28700
H  45.25400 15.19100 35.37300
H  52.68400 19.61700 29.52900
H  53.10900 18.07200 30.29500
H  51.89100 18.99700 30.98800
H  53.93700 18.00000 27.89500
H  53.63300 19.71100 27.64500
H  54.23800 18.77000 26.26000
H  48.20400 16.29400 23.94500
H  45.46500 15.73300 24.18000
H  47.19300 18.65700 24.81400
H  45.70500 17.93300 24.42500
H  47.01800 17.94800 23.15500
H  47.85300 13.99900 23.89300
H  46.37700 13.98300 22.99300
H  45.37400 12.76900 25.10300
H  46.97800 12.20100 25.42600
H  46.30400 12.07900 23.77100
H  42.08100 14.58100 27.20700
H  41.38000 14.00600 28.79200
H  42.27400 12.88400 27.86200
H  44.31600 14.53900 33.15500
H  42.53800 18.10100 34.78200
H  41.92300 16.80800 35.86100
H  40.93900 17.19200 34.43900
Mg -10.81100 16.57200 42.55000
C  -7.80100 15.04100 42.50500
C  -9.46900 19.35200 41.07200
C  -14.06200 17.90700 42.14600
C  -12.38000 13.58000 43.54200
N  -8.83100 17.05500 41.70700
C  -7.72000 16.34100 42.06700
C  -6.47600 17.14600 41.65900
C  -7.02300 18.60700 41.53600
C  -8.53800 18.33800 41.39400
C  -6.60600 19.67200 42.58200
C  -5.80600 16.65900 40.32800
C  -4.36000 16.07200 40.41300
H  -4.19900 14.89100 39.44100
N  -11.64700 18.43800 41.85100
C  -10.87700 19.34300 41.18900
C  -11.79500 20.39100 40.71600
C  -13.09600 20.12300 41.14100
C  -12.99300 18.81000 41.78300
C  -11.30300 21.57600 39.94600
C  -14.28100 20.98000 40.98300
O  -14.16800 22.15200 40.54900
C  -15.69500 20.60300 41.36700
N  -12.95100 15.81400 42.92500
C  -14.05800 16.60400 42.67400
C  -15.34300 15.86600 42.92500
C  -14.82800 14.54700 43.63900
C  -13.34500 14.59300 43.32300
C  -16.47300 16.49500 43.66200
C  -15.44100 13.23400 43.18900
C  -15.77000 12.21800 44.22300
N  -10.29400 14.69900 42.83700
C  -10.98400 13.57500 43.28600
C  -10.03700 12.50300 43.53400
C  -8.81700 13.07000 43.29200
C  -8.99700 14.36600 42.87300
C  -10.35800 11.07700 43.99900
C  -7.38100 12.74000 43.25800
O  -6.88200 11.66000 43.57800
C  -6.62700 14.05900 42.78500
C  -5.80700 14.52900 43.95400
O  -6.16500 15.07400 44.97800
O  -4.52200 14.29000 43.62600
C  -3.54800 14.84500 44.59500
H  -8.88600 20.16900 40.64100
H  -15.06900 18.12000 41.78000
H  -12.79700 12.66400 43.96600
H  -5.71500 17.08900 42.43700
H  -6.73800 19.01000 40.56400
H  -7.49100 20.11000 43.04400
H  -6.06500 20.44300 42.03200
H  -5.85200 19.35400 43.30200
H  -5.89300 17.46400 39.59900
H  -6.47400 16.00100 39.77300
H  -4.04300 15.68600 41.38200
H  -3.66600 16.88300 40.19200
H  -11.31900 22.41700 40.64000
H  -11.93100 21.81800 39.08900
H  -10.28500 21.54900 39.55800
H  -16.33600 21.43000 41.06400
H  -15.73300 20.44000 42.44400
H  -16.01000 19.76200 40.74800
H  -15.75500 15.58600 41.95500
H  -14.95800 14.55800 44.72100
H  -17.36000 16.59000 43.03500
H  -16.15600 17.48700 43.98000
H  -16.68600 15.85200 44.51500
H  -14.84400 12.66800 42.47400
H  -16.27400 13.45500 42.52200
H  -16.85900 12.18700 44.26100
H  -15.38000 12.47200 45.20900
H  -15.51300 11.16900 44.07000
H  -10.55900 10.46400 43.12000
H  -11.21500 11.02200 44.67000
H  -9.42900 10.78400 44.48600
H  -5.99400 13.84400 41.92500
H  -3.07400 15.77200 44.27200
H  -2.65500 14.23400 44.71900
H  -3.93500 15.17500 45.56000

