158

Mg 2.15500 -2.40400 44.50700
C  5.29100 -1.22400 43.57700
C  0.79600 -0.01000 42.14100
C  -0.88900 -3.77400 44.69000
C  3.68300 -5.06100 46.26500
N  2.99100 -0.90000 42.95600
C  4.26900 -0.61700 42.78900
C  4.53900 0.52900 41.77200
C  3.11700 1.11900 41.63000
C  2.18600 0.00500 42.22900
C  2.84100 2.44900 42.33700
C  5.10700 -0.09500 40.48500
C  6.65600 0.19300 40.36000
H  7.23200 0.53300 39.01400
N  0.24400 -1.79100 43.81500
C  -0.06500 -0.81100 42.85000
C  -1.52600 -0.74600 42.68400
C  -2.08300 -1.80300 43.47400
C  -0.91700 -2.53100 44.01100
C  -2.18400 0.34500 41.82900
C  -3.54700 -1.93200 43.82800
O  -4.37200 -1.21600 43.29400
C  -4.05800 -2.88200 44.87800
N  1.56200 -4.24600 45.17500
C  0.20300 -4.57800 45.15400
C  0.04400 -5.83500 46.04800
C  1.47800 -6.18500 46.61500
C  2.28100 -5.05800 46.08800
C  -1.04000 -5.65100 47.13300
C  2.02200 -7.61400 46.22300
C  2.39500 -8.51000 47.47600
N  4.02100 -3.03900 44.84800
C  4.47900 -4.05700 45.67200
C  5.94600 -3.87700 45.90400
C  6.21000 -2.75700 45.05500
C  5.05800 -2.31700 44.40900
C  6.74600 -4.60100 46.89800
C  7.33600 -1.81600 44.76800
O  8.52800 -1.82300 45.17300
C  6.76600 -0.78600 43.69600
C  6.82800 0.52500 44.33900
O  6.24900 0.86500 45.36900
O  7.73800 1.35000 43.69500
C  8.02700 2.60600 44.41200
H  0.33300 0.76700 41.52900
H  -1.85100 -4.28800 44.64100
H  4.13200 -5.80500 46.92600
H  5.12000 1.32000 42.24600
H  2.88200 1.35300 40.59100
H  3.79900 2.78800 42.73100
H  2.26400 2.29700 43.24900
H  2.42000 3.24400 41.72100
H  4.68600 0.36800 39.59300
H  4.92400 -1.16900 40.48000
H  7.01400 -0.78800 40.67000
H  7.12700 0.86200 41.08000
H  -2.04700 0.05600 40.78700
H  -1.70700 1.30000 42.05100
H  -3.25500 0.49400 41.96600
H  -4.25300 -3.78300 44.29800
H  -5.00500 -2.55100 45.30500
H  -3.28300 -3.04300 45.62700
H  -0.30600 -6.71200 45.50400
H  1.42800 -6.08500 47.69900
H  -0.62200 -5.74800 48.13500
H  -1.87900 -6.33900 47.02600
H  -1.45300 -4.64300 47.13900
H  2.83100 -7.51400 45.49800
H  1.23500 -8.17500 45.72000
H  3.32900 -9.07100 47.44200
H  1.65600 -9.31200 47.48700
H  2.34600 -7.85600 48.34700
H  6.53500 -5.67000 46.86700
H  6.42800 -4.24900 47.87900
H  7.82600 -4.69500 46.78100
H  7.38500 -0.89600 42.80500
H  8.81800 3.15600 43.90200
H  8.30000 2.39100 45.44500
H  7.20800 3.32300 44.36600
Mg 1.61300 41.91100 26.13900
C  3.22200 42.10900 29.33200
C  -1.20800 40.91400 27.75400
C  0.55300 40.94100 23.27200
C  4.89400 42.35500 24.65900
N  1.06600 41.60500 28.33900
C  1.80800 41.98200 29.46400
C  0.96100 41.91000 30.71500
C  -0.48400 41.64300 30.12600
C  -0.21900 41.34200 28.62300
C  -1.41600 40.65500 30.92700
C  1.22900 43.14600 31.62000
C  0.16800 43.68000 32.64700
H  -0.31000 42.62200 33.70700
N  -0.13200 41.02500 25.59400
C  -1.19900 40.74500 26.37500
C  -2.27700 40.25600 25.48600
C  -1.85300 40.27700 24.13400
C  -0.40100 40.78000 24.27100
C  -3.57500 39.81200 26.04800
C  -2.55300 40.00800 22.86600
O  -1.93700 40.10000 21.78600
C  -4.02300 39.56800 22.92400
N  2.59600 41.65300 24.20700
C  1.79900 41.41400 23.23200
C  2.67900 41.23100 21.89000
C  3.94900 42.08500 22.25800
C  3.79100 42.06000 23.82700
C  2.98200 39.79000 21.56600
C  3.91900 43.46100 21.59500
C  2.65000 44.32100 21.94600
N  3.59600 42.24600 26.77400
C  4.81700 42.30400 26.09500
C  5.92700 42.39000 27.07000
C  5.33000 42.21300 28.34700
C  3.94400 42.18300 28.08500
C  7.38800 42.71600 26.78400
C  5.56200 42.15000 29.75000
O  6.66000 42.02900 30.35400
C  4.16400 42.19300 30.48500
C  4.07300 41.02600 31.45700
O  4.01300 39.84500 31.03600
O  4.07600 41.41700 32.73900
C  4.35200 40.35000 33.68800
H  -2.14700 40.70400 28.27000
H  0.29900 40.41800 22.34700
H  5.79900 42.73400 24.18100
H  1.19700 40.96800 31.21000
H  -0.96800 42.61800 30.17000
H  -0.96100 40.28900 31.84700
H  -1.65400 39.78800 30.31100
H  -2.33700 41.18000 31.18000
H  1.50100 44.01300 31.01800
H  2.07300 42.88300 32.25800
H  -0.74800 44.18000 32.33000
H  0.72800 44.35600 33.29300
H  -3.73000 38.77900 25.73700
H  -4.47300 40.31500 25.68900
H  -3.56000 39.81700 27.13800
H  -4.25800 39.48700 21.86200
H  -4.69300 40.32200 23.33400
H  -4.23800 38.64700 23.46500
H  2.08500 41.67600 21.09100
H  4.82700 41.56700 21.87400
H  3.96900 39.56400 21.16300
H  2.27100 39.53800 20.77900
H  2.71500 39.19600 22.44100
H  3.89000 43.25100 20.52600
H  4.80600 43.98600 21.94800
H  1.75700 43.71200 22.08300
H  2.44600 44.93200 21.06600
H  2.91800 44.94600 22.79800
H  7.61500 43.68300 27.23100
H  7.57700 42.74500 25.71000
H  8.12100 42.01200 27.17700
H  4.12300 43.13200 31.03700
H  5.37400 39.99000 33.80500
H  3.63400 39.57500 33.41800
H  4.08900 40.63600 34.70700

