158

Mg 23.98300 -4.62700 45.68300
C  25.80200 -2.10800 44.00500
C  21.19900 -3.67700 43.80500
C  22.37100 -7.27900 46.80900
C  27.02200 -5.83000 47.02300
N  23.51000 -2.99100 44.12900
C  24.44600 -2.08100 43.61500
C  23.77400 -1.15500 42.61000
C  22.22400 -1.58800 42.75800
C  22.28600 -2.80900 43.60400
C  21.41200 -0.45000 43.50700
C  24.22700 -1.48800 41.16700
C  25.20800 -0.44100 40.43900
H  24.95600 -0.33500 39.00400
N  22.00500 -5.32500 45.37200
C  21.03100 -4.81800 44.58400
C  19.80100 -5.56800 44.73900
C  20.06800 -6.55700 45.61500
C  21.56100 -6.47700 45.92100
C  18.52500 -5.14200 44.05700
C  19.01200 -7.45200 46.17700
O  17.79600 -7.42300 45.90700
C  19.47700 -8.59300 47.01000
N  24.65400 -6.37600 46.74000
C  23.72000 -7.27700 47.17200
C  24.37000 -8.27800 48.09600
C  25.82400 -7.85100 48.29100
C  25.89700 -6.63300 47.32400
C  23.57900 -8.64200 49.40800
C  27.01600 -8.88300 48.22200
C  27.58300 -9.29400 49.59000
N  26.06400 -4.04300 45.68400
C  27.15000 -4.67800 46.15500
C  28.33300 -3.88700 45.83200
C  27.81000 -2.88100 45.00700
C  26.45100 -3.08500 44.83900
C  29.78900 -4.09200 46.20500
C  28.21200 -1.73600 44.26600
O  29.33900 -1.27400 44.14800
C  26.94600 -1.15600 43.56900
C  26.83100 0.28900 43.72400
O  26.00400 0.83400 44.41200
O  27.70300 0.90100 42.82300
C  27.62500 2.38200 42.59200
H  20.31500 -3.21900 43.35600
H  21.90200 -8.17300 47.22700
H  27.95200 -6.14000 47.50400
H  24.08900 -0.13000 42.80500
H  21.77000 -1.84000 41.79900
H  22.15600 0.33500 43.64400
H  21.00200 -0.80200 44.45300
H  20.53500 -0.05100 42.99700
H  23.37000 -1.53700 40.49500
H  24.79100 -2.42100 41.14400
H  26.23700 -0.78700 40.54100
H  25.21300 0.54100 40.91200
H  17.59100 -5.70300 44.08400
H  18.58700 -4.93300 42.98900
H  18.30400 -4.17300 44.50500
H  18.57400 -9.10900 47.33700
H  19.77700 -8.07700 47.92200
H  20.23100 -9.18900 46.49700
H  24.28600 -9.22800 47.56900
H  25.90800 -7.34000 49.25000
H  23.94700 -8.37600 50.39900
H  23.41900 -9.71800 49.34200
H  22.58200 -8.21300 49.30400
H  27.77700 -8.47200 47.55800
H  26.67300 -9.78700 47.71900
H  28.67000 -9.34700 49.54000
H  27.16300 -10.28700 49.74800
H  27.30300 -8.55600 50.34200
H  30.35400 -3.29200 45.72500
H  30.12200 -5.05700 45.82200
H  29.86900 -4.13400 47.29100
H  27.05300 -1.24400 42.48800
H  27.24600 2.88600 43.48100
H  27.01700 2.61300 41.71800
H  28.60900 2.73600 42.28500
Mg 10.44300 46.20700 25.56000
C  7.95700 46.49300 28.08900
C  12.65600 47.67900 27.65900
C  12.63600 46.04200 23.03100
C  7.88200 45.90300 23.18400
N  10.28000 47.05700 27.57400
C  9.23400 46.89800 28.47300
C  9.55100 47.57700 29.79900
C  11.02100 47.92700 29.63700
C  11.40100 47.56500 28.17500
C  11.39300 49.40400 29.97100
C  9.16700 46.75800 31.09800
C  9.80200 46.89600 32.46800
H  8.90700 46.74400 33.71500
N  12.38200 46.64400 25.42500
C  13.16800 47.26900 26.41400
C  14.55300 47.37100 25.90500
C  14.55700 46.91400 24.59300
C  13.15500 46.56600 24.28200
C  15.55100 48.17300 26.77100
C  15.70000 46.73000 23.68000
O  15.64000 46.26300 22.58000
C  17.11100 46.95700 24.13100
N  10.34000 45.83700 23.42300
C  11.38700 45.85300 22.58800
C  10.97100 45.55400 21.14100
C  9.44000 45.53300 21.23700
C  9.20300 45.74300 22.72600
C  11.50000 46.54000 20.04800
C  8.80100 44.29300 20.60200
C  9.28000 43.84400 19.22100
N  8.40000 46.05600 25.57800
C  7.49600 45.91200 24.49700
C  6.12300 45.82400 25.02700
C  6.27800 45.94800 26.43700
C  7.66700 46.18400 26.71300
C  4.91500 45.50500 24.21000
C  5.48800 45.81800 27.62700
O  4.31400 45.57000 27.80700
C  6.55500 46.26700 28.76600
C  6.46200 45.26200 29.81500
O  7.25800 44.38500 30.03700
O  5.45300 45.62400 30.66000
C  5.14700 44.69900 31.68700
H  13.42000 47.88100 28.41300
H  13.39300 45.97600 22.24700
H  7.11900 45.90200 22.40300
H  8.80600 48.36500 29.68300
H  11.55300 47.24800 30.30300
H  10.47700 49.97400 30.12800
H  11.91200 49.88300 29.14200
H  11.96100 49.31100 30.89700
H  9.31800 45.73400 30.75900
H  8.09500 46.80200 31.29400
H  10.20900 47.90700 32.49900
H  10.56900 46.12500 32.53300
H  16.25400 47.43600 27.15800
H  15.02200 48.76300 27.52000
H  16.05500 48.96400 26.21600
H  17.12600 46.61100 25.16400
H  17.44100 47.99100 24.03600
H  17.86700 46.41500 23.56300
H  11.22200 44.52300 20.89200
H  8.98700 46.35100 20.67700
H  10.65500 46.95900 19.50200
H  12.00800 45.80500 19.42400
H  12.05100 47.39800 20.43400
H  7.77500 44.59600 20.39700
H  8.81000 43.44500 21.28700
H  9.92900 44.65800 18.89700
H  8.60600 43.56400 18.41200
H  9.91100 42.96500 19.34800
H  4.90100 46.29400 23.45800
H  4.11000 45.63100 24.93300
H  4.95700 44.48200 23.83800
H  6.28700 47.22400 29.21400
H  4.49200 43.94500 31.25100
H  4.43300 45.09000 32.41200
H  6.04200 44.32600 32.18500

