158

Mg -10.15300 16.93000 40.81600
C  -6.66500 16.65800 41.27900
C  -9.77700 20.32600 40.50000
C  -13.34800 17.04100 39.98700
C  -10.22000 13.48400 40.64200
N  -8.42100 18.26600 40.99300
C  -7.12500 17.98500 41.09800
C  -6.29300 19.24300 40.90200
C  -7.25000 20.44800 41.17300
C  -8.56400 19.66100 40.85800
C  -7.21200 21.11900 42.54000
C  -5.67200 19.32700 39.48400
C  -4.25400 18.94000 39.33600
H  -3.79600 18.16200 38.13000
N  -11.48300 18.51400 40.30100
C  -11.12200 19.82900 40.20800
C  -12.26900 20.56900 39.71200
C  -13.32600 19.60300 39.47400
C  -12.74500 18.34000 39.91700
C  -12.32300 22.09700 39.48300
C  -14.75800 19.87700 39.00200
O  -15.04100 21.06900 38.73200
C  -15.94900 18.86200 38.97100
N  -11.52800 15.41000 40.16100
C  -12.81600 15.75600 40.17100
C  -13.66100 14.47700 40.43400
C  -12.63100 13.34400 40.21600
C  -11.36800 14.12400 40.31900
C  -14.46500 14.52600 41.82500
C  -12.77500 12.63100 38.86900
C  -12.79400 11.10900 38.92200
N  -8.78000 15.33200 41.02200
C  -9.00900 13.98900 41.02100
C  -7.74500 13.32100 41.31800
C  -6.79000 14.34600 41.49800
C  -7.49500 15.53900 41.29900
C  -7.54000 11.86500 41.54800
C  -5.46500 14.66000 41.77500
O  -4.56500 13.90000 41.99000
C  -5.28000 16.12100 41.46800
C  -4.42000 16.73700 42.50500
O  -3.29000 17.13800 42.35300
O  -5.21200 16.99100 43.61800
C  -4.58200 17.60900 44.76300
H  -9.59900 21.39800 40.39500
H  -14.43200 16.98000 39.86900
H  -10.29800 12.40200 40.51500
H  -5.54900 19.37000 41.68800
H  -7.24000 21.13300 40.32400
H  -6.21100 21.15900 42.97000
H  -7.87400 20.63100 43.25400
H  -7.49500 22.14000 42.28300
H  -5.74600 20.38300 39.22300
H  -6.24400 18.68000 38.82000
H  -4.04800 18.28300 40.18200
H  -3.67700 19.84800 39.51100
H  -11.54800 22.40100 38.78000
H  -12.02800 22.71400 40.33100
H  -13.20500 22.45600 38.95300
H  -15.57600 18.17700 38.21000
H  -16.84600 19.33800 38.57300
H  -15.93600 18.47400 39.98900
H  -14.47800 14.47400 39.71200
H  -12.62000 12.63100 41.04000
H  -14.54400 13.48500 42.13700
H  -15.44300 15.00500 41.78800
H  -13.96400 15.07000 42.62600
H  -11.87200 12.88800 38.31500
H  -13.64200 12.92900 38.28000
H  -12.67500 10.74200 39.94100
H  -11.86600 10.81800 38.43000
H  -13.63700 10.73600 38.34100
H  -7.18700 11.24400 40.72500
H  -8.52200 11.56900 41.91700
H  -6.85100 11.78300 42.38900
H  -4.74100 16.23800 40.52800
H  -5.16600 17.25700 45.61400
H  -4.79900 18.67700 44.78600
H  -3.54700 17.33900 44.97400
Mg -4.34900 25.87200 26.16100
C  -3.36600 27.33900 28.98600
C  -6.23000 23.74200 28.04100
C  -5.33500 24.18300 23.38300
C  -2.38000 27.94800 24.20700
N  -4.86000 25.61400 28.25000
C  -4.38200 26.41400 29.20800
C  -4.91500 26.07100 30.55500
C  -5.72700 24.74300 30.32500
C  -5.62600 24.69200 28.78100
C  -5.29100 23.46500 31.05800
C  -5.76900 27.24200 31.19400
C  -5.83500 27.20300 32.75300
H  -5.40000 25.98100 33.56300
N  -5.74000 24.32900 25.78400
C  -6.41600 23.57800 26.68400
C  -7.47300 22.79800 26.12100
C  -7.17000 22.82700 24.68300
C  -6.02400 23.78500 24.50700
C  -8.50300 22.00800 26.89400
C  -7.84900 22.06900 23.50700
O  -7.59600 22.23700 22.31900
C  -8.96600 21.09800 23.68200
N  -3.74200 25.95900 24.09000
C  -4.34700 25.15500 23.13500
C  -3.68100 25.36800 21.78000
C  -3.00400 26.80600 21.95800
C  -3.09000 26.94600 23.50500
C  -2.79500 24.15600 21.28700
C  -3.67300 28.06500 21.28500
C  -2.89600 28.66700 20.13600
N  -3.06900 27.28400 26.49400
C  -2.25700 28.05900 25.58600
C  -1.34000 28.82800 26.41900
C  -1.77800 28.71700 27.76400
C  -2.83800 27.73900 27.69500
C  -0.18400 29.70600 25.99000
C  -1.56400 29.11600 29.09100
O  -0.76700 29.94900 29.58900
C  -2.50100 28.20700 29.94400
C  -1.60200 27.41500 30.76300
O  -0.65800 26.76800 30.39700
O  -1.81800 27.73500 32.02600
C  -1.23700 27.04700 33.17300
H  -6.90800 23.15200 28.66100
H  -5.74200 23.65700 22.51700
H  -1.73000 28.64900 23.67900
H  -4.03000 25.73700 31.09700
H  -6.78300 24.72100 30.59700
H  -6.11600 23.00900 31.60600
H  -4.55900 23.83400 31.77600
H  -4.87900 22.68200 30.42200
H  -6.73300 27.04300 30.72400
H  -5.31200 28.18100 30.88100
H  -6.84600 27.55200 32.96200
H  -5.34400 28.12600 33.06300
H  -8.16900 21.67800 27.87800
H  -8.66000 21.10400 26.30600
H  -9.44400 22.55700 26.93600
H  -9.61300 20.93700 22.82000
H  -9.66800 21.46000 24.43300
H  -8.48100 20.14900 23.91500
H  -4.51900 25.50600 21.09700
H  -1.93700 26.71500 21.75500
H  -1.90800 24.60000 20.83600
H  -3.41600 23.60200 20.58400
H  -2.51000 23.55000 22.14600
H  -3.91000 28.88000 21.96900
H  -4.62300 27.85200 20.79300
H  -2.05800 28.00800 19.90600
H  -2.53100 29.68100 20.29700
H  -3.59000 28.62800 19.29700
H  -0.44900 30.76200 25.94800
H  0.21600 29.22100 25.10000
H  0.59300 29.60300 26.74700
H  -3.14900 28.85800 30.53100
H  -0.26200 27.47200 33.40900
H  -1.03900 25.98500 33.03200
H  -1.82900 27.25700 34.06400

