158

Mg 17.58300 -0.97600 27.95400
C  16.83500 1.11600 30.69400
C  20.01700 -2.44400 29.93100
C  18.66100 -2.43900 25.24100
C  15.64100 1.26400 25.95600
N  18.35500 -0.65600 30.08900
C  17.76000 0.15200 31.03900
C  18.24500 -0.15600 32.43300
C  19.41400 -1.17300 32.12700
C  19.35800 -1.34500 30.59300
C  20.78000 -0.69000 32.61300
C  17.09100 -0.69300 33.41900
C  16.78500 0.00500 34.73400
H  18.02300 0.71400 35.34600
N  18.94500 -2.31900 27.66800
C  19.85000 -2.84400 28.56900
C  20.57900 -3.93000 27.90400
C  20.26000 -3.95100 26.56800
C  19.21700 -2.87600 26.45500
C  21.58400 -4.69600 28.68600
C  20.86800 -4.79100 25.44000
O  20.47100 -4.66800 24.30000
C  21.93000 -5.88300 25.77200
N  17.13600 -0.70500 25.89100
C  17.81100 -1.37700 24.97100
C  17.69500 -0.69700 23.56300
C  16.68900 0.47400 23.80000
C  16.39200 0.26100 25.30900
C  19.12100 -0.29300 22.94500
C  15.46500 0.45200 22.88000
C  14.30700 -0.51300 23.19200
N  16.42900 0.74200 28.20700
C  15.70700 1.55400 27.30600
C  14.98300 2.62600 27.99500
C  15.39000 2.40900 29.33200
C  16.26900 1.30300 29.42400
C  14.07900 3.71900 27.50100
C  15.19200 2.92600 30.66700
O  14.40700 3.78500 30.99000
C  16.15800 2.16800 31.62600
C  17.06300 3.06100 32.38600
O  18.25700 3.21700 32.21900
O  16.38600 3.76300 33.34500
C  17.19600 4.94300 33.77700
H  20.96200 -2.72200 30.40400
H  19.08500 -2.87500 24.33400
H  15.18800 2.13300 25.47600
H  18.53200 0.81500 32.83700
H  19.11200 -2.12700 32.56000
H  21.53000 -0.46700 31.85400
H  21.15100 -1.42600 33.32700
H  20.58200 0.17200 33.24900
H  17.19900 -1.75400 33.64600
H  16.15900 -0.66600 32.85500
H  16.45600 -0.74200 35.45600
H  15.92100 0.66900 34.71800
H  21.09100 -5.66600 28.76600
H  21.93900 -4.38600 29.66900
H  22.51600 -4.87500 28.15100
H  21.49300 -6.45000 26.59400
H  22.84500 -5.38600 26.09600
H  22.06300 -6.42000 24.83300
H  17.38400 -1.44300 22.83200
H  17.27400 1.38500 23.67500
H  19.26100 0.76700 22.73300
H  19.36000 -0.85500 22.04200
H  19.98700 -0.44500 23.58900
H  15.84200 0.08800 21.92400
H  15.08600 1.46900 22.77800
H  13.50600 0.08300 23.63000
H  14.54400 -1.20100 24.00300
H  14.07600 -1.14000 22.33100
H  13.46500 3.28400 26.71200
H  14.84800 4.39000 27.11900
H  13.51100 4.11400 28.34300
H  15.53600 1.59000 32.30900
H  16.60500 5.34700 34.59900
H  17.26700 5.74100 33.03800
H  18.15800 4.61300 34.17100
Mg -10.90700 40.51900 39.10300
C  -9.98600 37.24500 38.46600
C  -7.58500 41.50900 38.35500
C  -11.90000 43.68000 38.63100
C  -14.22000 39.43600 39.38000
N  -9.09200 39.54900 38.31900
C  -8.92900 38.16100 38.26500
C  -7.46900 37.79300 37.87600
C  -6.67400 39.12600 38.31900
C  -7.85200 40.13800 38.33100
C  -5.94400 39.14500 39.66000
C  -7.38700 37.50200 36.31600
C  -7.16000 36.00900 35.93600
H  -8.04200 35.41900 34.90300
N  -9.88800 42.38900 38.65200
C  -8.52400 42.60200 38.34000
C  -8.27700 43.97700 38.17500
C  -9.50500 44.57700 38.31800
C  -10.52900 43.57200 38.46900
C  -6.92400 44.54600 37.99000
C  -9.65600 46.08100 38.28000
O  -8.73900 46.80700 37.92000
C  -10.94100 46.73000 38.56800
N  -12.87600 41.45500 39.02200
C  -12.98000 42.79500 38.92800
C  -14.44100 43.17100 38.96600
C  -15.25700 41.85600 39.25700
C  -14.05500 40.84100 39.24900
C  -14.91700 44.31300 39.93800
C  -16.40400 41.45300 38.26700
C  -17.70900 41.09300 38.95800
N  -11.93100 38.71500 39.16200
C  -13.29400 38.41600 39.13900
C  -13.43900 36.99400 39.03400
C  -12.16200 36.48300 38.74400
C  -11.30800 37.59500 38.78500
C  -14.80400 36.31600 39.12900
C  -11.43500 35.27000 38.38000
O  -11.84000 34.12600 38.24000
C  -9.91000 35.70400 38.24000
C  -9.15300 34.90200 39.26200
O  -9.51800 34.75400 40.43900
O  -8.18100 34.20800 38.62200
C  -7.43300 33.31600 39.50000
H  -6.53100 41.77800 38.26300
H  -12.26800 44.69600 38.47300
H  -15.23000 39.03800 39.49500
H  -7.05000 37.02800 38.53000
H  -6.05500 39.49400 37.50000
H  -4.95200 39.59400 39.60900
H  -5.59800 38.15500 39.95700
H  -6.53700 39.59700 40.45500
H  -6.60400 38.11700 35.87200
H  -8.37200 37.73500 35.91300
H  -7.22100 35.32600 36.78300
H  -6.15200 35.96200 35.52400
H  -6.48900 44.93100 38.91300
H  -6.83400 45.28600 37.19500
H  -6.27200 43.77600 37.57900
H  -10.89400 47.80800 38.71900
H  -11.16200 46.53800 39.61700
H  -11.74600 46.44000 37.89300
H  -14.70600 43.47500 37.95400
H  -15.60300 41.86900 40.29000
H  -14.08100 44.81400 40.42700
H  -15.64500 44.03300 40.69900
H  -15.36200 45.09500 39.32200
H  -16.20600 40.63800 37.57100
H  -16.65800 42.30300 37.63400
H  -17.81300 41.51500 39.95700
H  -17.89200 40.02000 39.00100
H  -18.45800 41.48600 38.27100
H  -14.73000 35.48100 39.82700
H  -15.04400 35.98800 38.11800
H  -15.52500 36.96600 39.62600
H  -9.62100 35.49600 37.21000
H  -8.04000 32.46200 39.80100
H  -6.91900 33.73000 40.36700
H  -6.63300 32.92000 38.87400

