158

Mg 24.02900 -5.76300 46.16100
C  26.08700 -3.26800 44.38900
C  21.39500 -4.53600 44.34700
C  22.41800 -8.48200 46.88800
C  27.09900 -7.13200 47.34800
N  23.86600 -4.00800 44.49900
C  24.74200 -3.06600 44.06400
C  24.06300 -2.16700 43.09700
C  22.52900 -2.37700 43.28600
C  22.60000 -3.70800 44.10300
C  21.81700 -1.25700 44.14600
C  24.53500 -2.42700 41.65300
C  25.26900 -1.28900 40.82100
H  26.18700 -1.62000 39.58500
N  22.09400 -6.33800 45.81000
C  21.13300 -5.74100 45.06100
C  19.98800 -6.55000 45.06500
C  20.21900 -7.67600 45.88600
C  21.60900 -7.53800 46.26800
C  18.67300 -6.09000 44.36400
C  19.19800 -8.75300 46.35100
O  17.99600 -8.77400 45.97100
C  19.55000 -9.86300 47.27300
N  24.63200 -7.60200 46.93600
C  23.72100 -8.51200 47.17200
C  24.35400 -9.62400 48.03300
C  25.90200 -9.23600 48.15100
C  25.89400 -7.90600 47.47000
C  23.79000 -9.75900 49.42500
C  26.76700 -10.28300 47.50500
C  27.77100 -10.84300 48.43100
N  26.11500 -5.29300 46.08100
C  27.19300 -5.87000 46.70700
C  28.39200 -5.11400 46.41800
C  28.00600 -4.10300 45.55600
C  26.57200 -4.22500 45.31100
C  29.77300 -5.42700 46.98300
C  28.50000 -2.99100 44.69900
O  29.66600 -2.64300 44.39200
C  27.23900 -2.47000 43.85700
C  26.96800 -1.05800 44.19500
O  26.32700 -0.66100 45.13700
O  27.67400 -0.32100 43.32100
C  27.91900 1.07600 43.58000
H  20.58000 -4.02000 43.83400
H  21.90000 -9.43400 47.02600
H  28.02200 -7.64700 47.62200
H  24.40100 -1.18200 43.42000
H  21.95800 -2.53500 42.37100
H  22.08400 -1.35700 45.19800
H  20.73300 -1.17500 44.06400
H  22.16500 -0.26600 43.85500
H  23.72500 -2.60800 40.94700
H  25.22800 -3.26500 41.58600
H  25.77300 -0.67700 41.56900
H  24.52400 -0.56700 40.48600
H  18.00200 -6.03200 45.22200
H  18.20100 -6.80500 43.69100
H  18.72700 -5.12300 43.86400
H  18.73900 -10.24000 47.89600
H  20.22300 -9.44900 48.02300
H  20.11200 -10.67000 46.80200
H  24.16800 -10.54000 47.47200
H  26.21200 -9.10700 49.18700
H  22.75800 -10.11200 49.42100
H  23.93200 -8.82800 49.97400
H  24.34300 -10.62000 49.80000
H  27.22300 -9.88700 46.59700
H  26.11300 -11.14100 47.35000
H  28.02400 -10.13400 49.21900
H  28.72700 -11.12300 47.98800
H  27.32000 -11.65900 48.99600
H  30.03700 -6.45500 46.73200
H  29.64300 -5.46000 48.06500
H  30.57900 -4.78300 46.63300
H  27.59800 -2.58400 42.83400
H  28.32700 1.44900 42.64000
H  28.74600 1.09200 44.29000
H  27.08600 1.73000 43.83800
Mg -11.96000 17.76800 40.48300
C  -8.82800 16.03300 40.10800
C  -10.16700 20.63700 39.48700
C  -14.82700 19.34500 39.86200
C  -13.52700 14.75000 40.95200
N  -9.74900 18.19300 39.67900
C  -8.67900 17.38000 39.72100
C  -7.39800 18.07700 39.09300
C  -7.86500 19.58500 39.08300
C  -9.36300 19.48300 39.43400
C  -7.15400 20.40100 40.21600
C  -7.01600 17.45800 37.70600
C  -5.62100 16.88000 37.44100
H  -5.61500 15.45400 36.89600
N  -12.40900 19.77600 39.91300
C  -11.54600 20.78900 39.58500
C  -12.33500 22.00400 39.52300
C  -13.75700 21.59700 39.48400
C  -13.71400 20.17200 39.74400
C  -11.67600 23.35500 39.35800
C  -14.93600 22.58400 39.34300
O  -14.75500 23.74700 38.97400
C  -16.35700 22.18100 39.67400
N  -13.87400 17.07700 40.40700
C  -14.88100 17.96100 40.10300
C  -16.21000 17.20400 39.99500
C  -15.87300 15.82900 40.74400
C  -14.33500 15.88400 40.72500
C  -17.34600 17.94400 40.61100
C  -16.40400 14.57200 39.98000
C  -17.02300 13.36200 40.79500
N  -11.33800 15.78300 40.59600
C  -12.08800 14.67900 40.85700
C  -11.24500 13.51200 40.93600
C  -9.94900 14.01500 40.66200
C  -10.04700 15.41100 40.45900
C  -11.64300 12.03700 41.21300
C  -8.55300 13.67200 40.70200
O  -8.05500 12.67500 41.13800
C  -7.75800 14.96400 40.18500
C  -6.77100 15.34100 41.26900
O  -7.09100 15.98400 42.28800
O  -5.49600 14.83300 40.93900
C  -4.45300 14.79300 41.97500
H  -9.60700 21.55500 39.29300
H  -15.79600 19.73900 39.55000
H  -14.13500 13.87100 41.17700
H  -6.47100 17.90200 39.63900
H  -7.78100 20.17600 38.17000
H  -6.22200 19.96100 40.56800
H  -7.69100 20.50300 41.15900
H  -6.85600 21.38000 39.84100
H  -7.25900 18.19700 36.94200
H  -7.74300 16.67900 37.47400
H  -4.86600 16.99000 38.21900
H  -5.21000 17.55700 36.69200
H  -10.86300 23.55000 40.05800
H  -12.40200 24.12800 39.61000
H  -11.28600 23.47300 38.34700
H  -16.70800 21.49200 38.90700
H  -16.99600 23.06100 39.74700
H  -16.45700 21.65500 40.62400
H  -16.50600 17.09800 38.95200
H  -16.23700 15.91300 41.76800
H  -17.13600 18.96800 40.91800
H  -17.75100 17.37900 41.45000
H  -18.21200 17.93200 39.94900
H  -15.53500 14.15000 39.47400
H  -17.00500 14.98400 39.16900
H  -16.98800 13.55900 41.86700
H  -16.52600 12.42600 40.53700
H  -17.98700 13.20800 40.31200
H  -12.42100 11.82200 40.48000
H  -12.01200 11.85900 42.22300
H  -10.85300 11.33700 40.93900
H  -7.25200 14.65800 39.26900
H  -4.94700 14.62900 42.93200
H  -3.86100 15.69900 41.83900
H  -3.88300 13.91800 41.66200

