158

Mg -1.59600 35.19600 27.28200
C  -3.73600 33.12600 29.33000
C  -0.80900 36.97600 30.10900
C  0.24500 37.20500 25.26800
C  -2.59600 33.30200 24.58400
N  -2.23900 35.03400 29.44500
C  -2.86500 33.97300 30.04200
C  -2.71000 34.02300 31.57600
C  -2.04200 35.45200 31.84700
C  -1.59200 35.78600 30.43500
C  -2.95700 36.57000 32.35400
C  -1.92600 32.84500 32.23500
C  -2.65600 32.10200 33.37500
H  -1.96600 31.86300 34.75600
N  -0.60700 36.92500 27.61100
C  -0.32600 37.48000 28.87600
C  0.53300 38.62700 28.67000
C  0.85600 38.72700 27.28500
C  0.17800 37.59100 26.69900
C  0.89000 39.55000 29.83800
C  1.64300 39.81100 26.46900
O  1.68300 39.82400 25.25700
C  2.37100 40.96200 27.12000
N  -1.20200 35.22400 25.20500
C  -0.38600 36.15600 24.61900
C  -0.37800 35.93700 23.05200
C  -1.11500 34.57400 22.93300
C  -1.74200 34.36100 24.30000
C  -1.02100 37.11800 22.07300
C  -0.09800 33.43500 22.41700
C  0.51300 32.49900 23.44800
N  -2.93800 33.57300 26.94200
C  -3.24300 32.90800 25.77200
C  -4.21000 31.84800 26.04400
C  -4.40100 31.93100 27.42700
C  -3.61400 32.99400 27.95400
C  -4.94800 30.97200 25.06300
C  -5.02800 31.24500 28.49100
O  -5.81800 30.32300 28.51900
C  -4.55500 31.97200 29.79300
C  -5.74800 32.38600 30.57100
O  -6.75800 32.93000 30.19400
O  -5.59800 32.00600 31.85300
C  -6.67700 32.20100 32.86000
H  -0.42000 37.40400 31.03500
H  0.88000 37.80500 24.61200
H  -2.79000 32.84400 23.61100
H  -3.73100 34.05800 31.95400
H  -1.24300 35.35600 32.58200
H  -2.59000 36.89900 33.32600
H  -3.92600 36.11200 32.55400
H  -3.03600 37.45600 31.72400
H  -0.96800 33.31900 32.45000
H  -1.73900 32.12500 31.43800
H  -2.67800 31.04900 33.09300
H  -3.70300 32.39900 33.43700
H  1.95800 39.58100 30.05100
H  0.49500 39.25800 30.81100
H  0.63700 40.59200 29.64200
H  1.70300 41.46800 27.81700
H  2.67400 41.62200 26.30700
H  3.22700 40.65700 27.72100
H  0.65900 35.85100 22.72900
H  -1.95500 34.64900 22.24300
H  -1.45400 37.87200 22.73200
H  -1.88500 36.87700 21.45400
H  -0.21600 37.59100 21.51000
H  0.81700 33.96900 22.16200
H  -0.50600 32.91600 21.55000
H  1.55500 32.78300 23.59600
H  0.38600 31.47000 23.11000
H  -0.13800 32.57900 24.31800
H  -5.90200 30.66700 25.49400
H  -4.23900 30.16700 24.86600
H  -5.15200 31.63700 24.22300
H  -3.84700 31.30800 30.29000
H  -7.43500 32.84800 32.41900
H  -6.25000 32.71900 33.71800
H  -7.03300 31.20600 33.12600
Mg -10.35700 17.00500 40.89800
C  -6.88400 16.42300 40.73800
C  -9.69900 20.20900 40.44200
C  -13.62200 17.41100 40.44400
C  -10.89300 13.52600 40.89900
N  -8.44400 18.16900 40.82200
C  -7.20700 17.74400 40.59300
C  -6.24200 18.98600 40.45000
C  -7.14400 20.19700 40.84300
C  -8.51400 19.52300 40.79700
C  -6.88900 20.74800 42.22400
C  -5.65600 19.05900 38.98100
C  -4.20600 18.51600 38.84600
H  -3.86100 17.68200 37.59800
N  -11.50700 18.55400 40.35400
C  -11.05100 19.83400 40.24100
C  -12.17400 20.65000 39.92900
C  -13.33600 19.86200 39.89400
C  -12.87300 18.57800 40.24300
C  -12.11500 22.10500 39.60200
C  -14.78500 20.37600 39.58800
O  -14.95700 21.55600 39.20600
C  -15.97100 19.50000 39.67300
N  -11.99200 15.67300 40.76600
C  -13.23400 16.11800 40.67900
C  -14.31800 15.00100 40.75300
C  -13.35900 13.72000 40.62600
C  -11.94800 14.34400 40.77500
C  -15.06400 15.16500 42.09000
C  -13.46400 12.92100 39.23400
C  -12.90200 13.64500 38.03100
N  -9.15900 15.26200 40.97800
C  -9.51700 13.92700 41.08100
C  -8.25400 13.14500 41.24100
C  -7.21800 14.05000 40.98000
C  -7.81300 15.36300 40.92200
C  -8.22000 11.66900 41.31900
C  -5.74800 14.27100 40.85000
O  -4.79900 13.48000 40.85000
C  -5.55400 15.76700 40.76800
C  -4.86700 16.13200 42.04100
O  -3.93200 16.91400 42.15900
O  -5.54000 15.44200 43.05300
C  -5.22900 15.63800 44.45300
H  -9.59000 21.27400 40.22500
H  -14.69000 17.41200 40.21700
H  -11.07800 12.45200 40.96900
H  -5.34800 18.94300 41.07200
H  -7.15200 21.01100 40.11800
H  -6.06500 21.45900 42.16100
H  -6.57600 19.97500 42.92600
H  -7.78800 20.99200 42.79000
H  -5.71500 20.04200 38.51400
H  -6.25400 18.37100 38.38400
H  -3.78900 18.10300 39.76500
H  -3.71600 19.48600 38.75400
H  -12.69000 22.32400 38.70200
H  -11.16300 22.62700 39.70200
H  -12.77100 22.57400 40.33600
H  -16.88300 20.08100 39.53000
H  -15.95400 19.12000 40.69500
H  -15.84000 18.62700 39.03400
H  -14.99400 15.08600 39.90200
H  -13.58500 13.00300 41.41500
H  -16.01700 15.61700 41.81400
H  -14.55600 15.93400 42.67200
H  -15.24900 14.25200 42.65700
H  -14.51800 12.64600 39.17900
H  -12.94600 11.98700 39.45400
H  -13.44200 13.48400 37.09800
H  -11.84300 13.47800 37.83100
H  -12.86300 14.71400 38.23900
H  -7.26700 11.26700 40.97500
H  -8.98200 11.33100 40.61700
H  -8.27000 11.30300 42.34500
H  -4.88300 16.02000 39.94700
H  -5.43800 14.73100 45.02100
H  -5.89800 16.43100 44.78900
H  -4.24000 16.04400 44.66300

