158

Mg 8.32100 3.27700 28.50500
C  9.62700 1.75800 31.18400
C  6.24700 5.01800 30.65100
C  6.77400 4.50900 25.71400
C  10.18500 1.01800 26.42900
N  7.98000 3.36500 30.63800
C  8.78400 2.79300 31.56100
C  8.56200 3.28800 33.02900
C  7.25500 4.08200 32.81300
C  7.09700 4.12300 31.26700
C  5.94800 3.40300 33.35700
C  9.74200 4.15300 33.47200
C  10.43400 3.80400 34.83900
H  9.54900 3.12200 35.88400
N  6.80300 4.65000 28.18200
C  6.05300 5.21200 29.29300
C  5.07800 6.09300 28.71700
C  5.18300 6.00100 27.30200
C  6.24700 4.96100 26.96700
C  4.26500 7.11300 29.49000
C  4.29700 6.69900 26.22700
O  4.45700 6.51600 25.04500
C  3.25200 7.58200 26.72100
N  8.24300 2.55200 26.32900
C  7.67100 3.40900 25.41100
C  8.28300 3.19600 23.97500
C  9.37800 2.12000 24.20500
C  9.31500 1.92100 25.76300
C  7.19400 2.60200 23.01800
C  10.78200 2.60600 23.63800
C  11.51900 3.72100 24.44400
N  9.51600 1.65500 28.69500
C  10.24500 0.81300 27.80500
C  11.18600 -0.02000 28.53700
C  10.95400 0.36700 29.82900
C  9.95200 1.31800 29.88100
C  12.04800 -1.08500 28.04400
C  11.39900 0.10900 31.11600
O  12.36200 -0.62100 31.51200
C  10.55200 1.02600 32.07200
C  9.80700 0.17400 32.94700
O  8.80500 -0.42200 32.62300
O  10.35100 -0.07900 34.14700
C  9.63900 -0.80700 35.11800
H  5.65900 5.64400 31.32500
H  6.34400 4.97200 24.82300
H  11.06800 0.48700 26.06800
H  8.34400 2.46700 33.71100
H  7.33000 5.05500 33.29900
H  5.71800 2.69300 32.56300
H  5.12500 4.11600 33.30700
H  6.02100 2.96500 34.35300
H  9.54800 5.22300 33.40400
H  10.56200 3.98000 32.77500
H  10.76300 4.74600 35.27700
H  11.29200 3.18300 34.58100
H  4.53300 8.16600 29.39800
H  4.29200 6.95400 30.56800
H  3.23800 6.88700 29.20300
H  2.71000 7.96800 25.85700
H  3.75200 8.36200 27.29500
H  2.52500 7.06600 27.34900
H  8.59500 4.21000 23.72800
H  9.16300 1.10800 23.86200
H  6.29100 2.97800 23.49900
H  7.29500 1.52600 22.87400
H  7.29700 3.15400 22.08400
H  10.69500 2.96100 22.61200
H  11.39200 1.70800 23.53300
H  11.13400 3.92100 25.44400
H  11.32600 4.66900 23.94200
H  12.60800 3.67600 24.43100
H  13.03600 -0.79000 28.39700
H  12.09300 -1.13100 26.95600
H  11.73400 -1.99800 28.55100
H  11.16400 1.65200 32.72200
H  9.54500 -1.81900 34.72200
H  8.67200 -0.34400 35.31400
H  10.29200 -0.68300 35.98100
Mg 46.08900 4.44700 47.25900
C  43.95300 7.28200 46.61400
C  43.41100 2.53400 46.50700
C  48.18600 1.91200 47.28100
C  48.76900 6.75300 47.63100
N  43.84200 4.88900 46.67500
C  43.19600 6.06900 46.60600
C  41.70600 5.89600 46.26200
C  41.54500 4.35200 46.45700
C  43.01100 3.88400 46.56700
C  40.68300 3.87900 47.70300
C  41.27100 6.41000 44.82600
C  40.12100 7.48600 44.71800
H  40.40200 8.57000 43.68600
N  45.83500 2.41800 47.03600
C  44.65100 1.86000 46.84800
C  44.89400 0.47300 46.63800
C  46.26200 0.19300 46.75300
C  46.85800 1.45600 47.11500
C  43.73100 -0.56000 46.38400
C  46.97100 -1.12200 46.50300
O  46.34600 -2.08800 46.22100
C  48.41200 -1.24800 46.71600
N  48.23700 4.33700 47.13600
C  48.81600 3.13400 47.39400
C  50.24600 3.31000 47.90300
C  50.44600 4.86600 47.83800
C  49.09400 5.36100 47.46400
C  50.64400 2.65000 49.23000
C  51.47700 5.41200 46.78600
C  52.70300 6.11500 47.38400
N  46.38200 6.60200 47.06900
C  47.50700 7.33900 47.30400
C  47.15700 8.77200 47.16500
C  45.78600 8.81700 46.89100
C  45.34800 7.45900 46.83900
C  48.13200 9.90100 47.38300
C  44.69400 9.70500 46.67800
O  44.56700 10.94900 46.73800
C  43.46600 8.69100 46.40400
C  42.44800 9.05500 47.48200
O  42.28300 8.51100 48.58700
O  41.60600 10.04200 46.91500
C  40.51800 10.45200 47.88200
H  42.59100 1.82900 46.35100
H  48.91700 1.12100 47.45400
H  49.58000 7.46800 47.78700
H  41.15900 6.53400 46.95600
H  41.21700 3.91600 45.51400
H  39.84600 3.27000 47.36100
H  40.31300 4.72400 48.28500
H  41.40900 3.35400 48.32400
H  40.96500 5.57700 44.19300
H  42.23900 6.71700 44.42900
H  39.91800 8.04000 45.63500
H  39.18500 6.96800 44.50600
H  43.64600 -0.67100 45.30300
H  42.77000 -0.16100 46.70900
H  43.74500 -1.56400 46.80900
H  48.93400 -0.61800 45.99600
H  48.72400 -2.26600 46.48000
H  48.70700 -1.01900 47.74000
H  50.86800 2.77500 47.18500
H  50.55200 5.27200 48.84400
H  51.23900 1.74500 49.10500
H  49.70400 2.35900 49.69900
H  51.26300 3.35100 49.79000
H  51.02600 6.28700 46.31800
H  51.70800 4.61400 46.08000
H  52.27600 6.73000 48.17700
H  53.21900 6.82900 46.74200
H  53.39600 5.37200 47.77800
H  47.52300 10.57800 47.98100
H  48.47500 10.23000 46.40200
H  48.97600 9.48500 47.93400
H  43.08800 8.91000 45.40500
H  40.06300 11.41600 47.65100
H  40.92500 10.53300 48.88900
H  39.65100 9.79300 47.83600

