158

Mg 25.58700 1.40500 29.45000
C  27.49300 1.44800 32.47900
C  22.65900 1.46500 31.38600
C  23.82100 1.47200 26.57600
C  28.53100 0.98600 27.61200
N  25.13000 1.31400 31.78000
C  26.04900 1.64300 32.69900
C  25.40100 1.94200 34.03300
C  23.92200 1.62600 33.66800
C  23.89600 1.49600 32.18600
C  23.33800 0.34300 34.34500
C  25.77200 3.26800 34.65500
C  26.32300 3.19700 36.09700
H  25.98200 4.23800 37.11900
N  23.58800 1.39700 29.02800
C  22.53400 1.44600 29.94800
C  21.32600 1.43800 29.21600
C  21.64400 1.48600 27.80100
C  23.06700 1.56800 27.77600
C  20.00200 1.60000 29.85900
C  20.71900 1.27000 26.63100
O  21.08200 1.34600 25.47000
C  19.31100 0.95200 26.91500
N  26.12600 1.40200 27.35300
C  25.19900 1.41800 26.36500
C  25.94900 1.64400 25.01000
C  27.47100 1.75200 25.42100
C  27.38200 1.25800 26.88200
C  25.55100 0.57200 23.90100
C  28.15900 3.05100 25.10200
C  27.44900 4.25400 25.61800
N  27.53100 1.13300 29.94100
C  28.64700 0.88500 29.02300
C  29.88000 0.94100 29.80500
C  29.43700 0.96500 31.17000
C  28.03600 1.18400 31.19900
C  31.27200 0.86600 29.33700
C  29.87500 0.91600 32.52700
O  30.99100 0.61200 32.92200
C  28.65400 1.38700 33.39200
C  28.63100 0.37300 34.51900
O  28.09400 -0.70300 34.40500
O  29.30900 0.87000 35.60400
C  29.44500 -0.00700 36.81200
H  21.80400 1.58200 32.05500
H  23.26900 1.57400 25.63900
H  29.41500 1.00000 26.97100
H  25.72400 1.16400 34.72400
H  23.36800 2.49200 34.02900
H  22.81500 -0.22300 33.57500
H  22.77600 0.60700 35.24100
H  24.11500 -0.33000 34.70800
H  24.99500 4.02600 34.54900
H  26.63400 3.55300 34.05100
H  27.39900 3.37100 36.10000
H  26.29200 2.27300 36.67400
H  19.40900 0.68600 29.84400
H  19.40300 2.36300 29.36200
H  20.11800 2.01400 30.86100
H  19.26700 -0.00800 27.43000
H  18.85200 0.91800 25.92700
H  18.84500 1.78500 27.44000
H  25.57200 2.58000 24.59800
H  28.04000 1.03300 24.83200
H  26.38000 0.42400 23.20900
H  24.69400 1.03100 23.40700
H  25.20800 -0.31800 24.42900
H  28.32700 3.13100 24.02800
H  29.17200 2.86800 25.46000
H  26.61200 4.09000 26.29600
H  26.99200 4.87900 24.85100
H  28.12600 4.81700 26.26100
H  31.34000 1.36900 28.37300
H  31.54300 -0.19000 29.35400
H  31.93800 1.40200 30.01200
H  28.71800 2.37700 33.84300
H  28.55600 -0.03600 37.44200
H  30.23100 0.31500 37.49500
H  29.60100 -1.04500 36.52000
Mg 35.70100 48.25900 24.98700
C  36.10800 46.41800 27.99400
C  34.11900 50.81500 26.76900
C  35.22800 49.76100 22.15900
C  36.79700 45.43000 23.20000
N  35.12600 48.51900 27.16600
C  35.50800 47.67600 28.20000
C  35.23800 48.41000 29.53000
C  34.39000 49.65000 29.06900
C  34.42900 49.65700 27.56600
C  32.96600 49.55800 29.60200
C  36.55700 48.87700 30.18700
C  36.61600 48.58500 31.68400
H  35.26500 48.67500 32.42400
N  34.82800 50.11600 24.48700
C  34.32400 51.05900 25.36600
C  33.87900 52.29200 24.55500
C  34.34200 52.04400 23.18600
C  34.84600 50.60600 23.18900
C  33.30400 53.53600 25.12800
C  34.28800 52.92300 21.88300
O  34.77100 52.63000 20.82200
C  33.36100 54.10000 21.91200
N  35.69300 47.59300 22.97700
C  35.53400 48.43300 22.01600
C  35.84800 47.82100 20.65900
C  36.72500 46.65600 21.07000
C  36.41000 46.52600 22.52600
C  34.58300 47.42900 19.79800
C  38.26000 46.81100 20.67100
C  39.16600 47.49700 21.70900
N  36.36800 46.31400 25.42300
C  36.84900 45.31200 24.62400
C  37.22700 44.15000 25.40700
C  37.01800 44.57800 26.75800
C  36.43000 45.88400 26.69000
C  37.64800 42.77400 24.85000
C  37.01700 44.16600 28.17200
O  37.40200 43.15300 28.68200
C  36.41900 45.34000 29.01900
C  35.19400 44.90400 29.70100
O  34.11400 44.80300 29.18900
O  35.43600 44.84300 31.01400
C  34.23300 44.56400 31.78000
H  33.67700 51.65000 27.31600
H  35.19700 50.24800 21.18200
H  37.13000 44.59900 22.57500
H  34.68400 47.69200 30.13400
H  34.79400 50.62700 29.33400
H  32.84300 50.39300 30.29200
H  32.78500 48.59200 30.07300
H  32.18300 49.56900 28.84300
H  36.62200 49.94700 29.98700
H  37.43100 48.37700 29.77000
H  37.31000 49.29600 32.13100
H  36.98600 47.56700 31.81000
H  33.83700 54.40400 24.73800
H  33.46800 53.68100 26.19600
H  32.25100 53.55800 24.84500
H  33.69800 54.79800 22.67800
H  32.33500 53.79300 22.11600
H  33.33500 54.73400 21.02600
H  36.40100 48.62000 20.16600
H  36.46800 45.77300 20.48400
H  33.67100 47.52900 20.38700
H  34.59700 46.49300 19.23900
H  34.46000 48.19300 19.03000
H  38.39700 47.38400 19.75400
H  38.49800 45.78700 20.38100
H  38.71100 47.47600 22.69900
H  39.26000 48.55100 21.44900
H  40.11200 46.95600 21.69200
H  37.31500 42.79400 23.81200
H  36.98000 42.08500 25.36800
H  38.67900 42.48200 25.05100
H  37.15300 45.65000 29.76300
H  34.12100 43.49000 31.62900
H  33.43900 45.21800 31.41800
H  34.41000 44.75800 32.83800

