158

Mg 43.83800 4.12200 46.71500
C  42.04700 7.07300 46.94800
C  40.82000 2.41500 46.67400
C  45.52900 1.42100 45.75300
C  46.80800 6.00000 46.34400
N  41.65800 4.75800 46.69800
C  41.21400 5.97500 47.00300
C  39.69500 5.89700 47.37100
C  39.38500 4.42600 47.33900
C  40.71700 3.79200 46.86800
C  38.91400 3.87700 48.75800
C  38.87100 6.81300 46.38300
C  39.43000 7.09800 44.96000
H  38.41300 7.10600 43.75500
N  43.27700 2.08300 46.26700
C  41.99800 1.61100 46.26100
C  41.98000 0.25600 45.90600
C  43.33300 -0.12100 45.56200
C  44.13400 1.15100 45.80000
C  40.88300 -0.73700 46.16000
C  43.87500 -1.37900 45.06400
O  43.08000 -2.32400 44.74500
C  45.35000 -1.56300 44.73600
N  45.89200 3.80900 45.88700
C  46.38600 2.57300 45.85800
C  47.91500 2.44400 45.50800
C  48.33200 3.95100 45.84300
C  46.96700 4.67500 46.07400
C  48.60700 1.35600 46.41700
C  49.24400 4.60900 44.79500
C  50.43800 5.42100 45.35100
N  44.35400 6.10400 46.67000
C  45.61100 6.72900 46.49300
C  45.46900 8.18400 46.70800
C  44.05500 8.34000 46.83700
C  43.43300 7.05800 46.80000
C  46.61300 9.15200 46.63300
C  42.99300 9.33100 47.13400
O  43.05000 10.56400 47.22800
C  41.66800 8.50800 47.12200
C  40.99300 8.80100 48.40100
O  41.33000 8.29400 49.44800
O  39.93200 9.70200 48.28600
C  39.14100 10.17700 49.42000
H  39.87400 1.87200 46.62400
H  46.05300 0.46600 45.68300
H  47.75500 6.54400 46.37000
H  39.66100 6.25800 48.39900
H  38.77100 4.19900 46.46800
H  39.73300 3.35900 49.25800
H  38.24600 3.02500 48.63400
H  38.34200 4.55900 49.38700
H  38.56000 7.68300 46.96200
H  37.90000 6.34600 46.22000
H  40.21100 6.37000 44.73800
H  39.70800 8.15000 44.89900
H  40.15300 -0.70600 45.35200
H  40.24100 -0.32400 46.93900
H  41.09100 -1.76700 46.45100
H  45.99700 -1.49300 45.61000
H  45.67400 -0.80200 44.02600
H  45.51400 -2.53900 44.28000
H  48.11700 2.20500 44.46400
H  48.84100 4.13800 46.78800
H  48.76700 0.34500 46.04000
H  47.98900 1.27300 47.31100
H  49.64400 1.61000 46.63500
H  48.58000 5.19600 44.16000
H  49.65400 3.88800 44.08700
H  51.36700 5.07500 44.89700
H  50.51700 5.41000 46.43800
H  50.34800 6.48400 45.12700
H  47.46700 8.53900 46.91900
H  46.39100 9.94800 47.34400
H  46.79300 9.59200 45.65200
H  41.02400 8.74300 46.27500
H  39.10900 11.24300 49.64300
H  39.36300 9.63900 50.34200
H  38.10700 9.89000 49.23100
Mg 6.76000 53.38000 41.24600
C  5.81100 49.98500 41.19700
C  9.94700 52.40300 40.32700
C  7.56000 56.59200 40.62700
C  3.34900 54.25100 41.58800
N  7.65900 51.43600 40.63500
C  7.16800 50.17100 40.82400
C  8.13600 49.07300 40.31300
C  9.51500 49.86000 40.61900
C  9.03300 51.34200 40.43100
C  10.18100 49.51500 41.99100
C  8.07200 48.64700 38.79400
C  7.30400 49.67300 37.85500
H  6.64300 49.06500 36.59200
N  8.54400 54.36700 40.60500
C  9.78400 53.78000 40.39400
C  10.76600 54.80400 40.22700
C  10.09400 56.05900 40.40300
C  8.66400 55.72000 40.55700
C  12.21400 54.53900 39.84400
C  10.70200 57.38400 40.38000
O  11.93600 57.45000 40.22000
C  9.96500 58.66000 40.66100
N  5.61600 55.12200 41.16200
C  6.18500 56.36000 40.87600
C  5.16900 57.44900 40.97300
C  3.85900 56.69500 41.17700
C  4.27800 55.26300 41.33400
C  5.56800 58.42600 42.08500
C  2.92200 56.85600 39.94100
C  1.46000 56.98600 40.24900
N  4.91200 52.37500 41.65100
C  3.65800 52.84200 41.78200
C  2.76800 51.74300 41.98800
C  3.59200 50.58900 41.98700
C  4.89300 51.02900 41.59000
C  1.22800 51.78400 42.01200
C  3.63900 49.13700 42.04700
O  2.79700 48.29100 42.27200
C  5.03700 48.67300 41.44200
C  4.78700 47.89200 40.14800
O  4.44100 48.49100 39.12100
O  4.94200 46.52100 40.22600
C  4.61800 45.70900 38.95400
H  10.98100 52.06300 40.23900
H  7.85200 57.64200 40.69400
H  2.28400 54.46700 41.69300
H  8.06700 48.13600 40.86500
H  10.32900 49.48300 40.00000
H  9.56400 48.81400 42.55400
H  10.28000 50.43800 42.56300
H  11.21300 49.17300 41.91900
H  7.63200 47.65000 38.76300
H  9.06000 48.47500 38.36800
H  8.02900 50.39700 37.48200
H  6.66000 50.37900 38.38000
H  12.90600 55.37900 39.77200
H  12.23100 54.12100 38.83800
H  12.54000 53.75100 40.52300
H  9.50100 59.04500 39.75200
H  10.67400 59.41000 41.01200
H  9.25800 58.69800 41.49000
H  5.26100 57.95400 40.01200
H  3.26600 56.90900 42.06600
H  6.55100 58.21700 42.50700
H  4.86700 58.31200 42.91200
H  5.61700 59.47300 41.78600
H  2.99400 55.97200 39.30600
H  3.23700 57.80500 39.50900
H  1.11500 58.00000 40.04600
H  1.21800 56.70300 41.27300
H  1.02300 56.30800 39.51400
H  0.74500 52.73500 42.23600
H  0.86800 51.01700 42.69700
H  0.85600 51.51700 41.02200
H  5.59000 48.06900 42.16100
H  5.43500 45.73100 38.23300
H  3.74200 46.08900 38.42900
H  4.56900 44.68500 39.32500

