158

Mg 8.00300 3.07100 27.77000
C  9.34500 1.50000 30.62600
C  5.71100 4.80100 29.71300
C  6.61700 4.23300 24.95000
C  9.64300 0.56300 25.86800
N  7.45500 2.95900 29.91500
C  8.42100 2.56100 30.90400
C  8.02900 3.09600 32.30800
C  6.87300 3.98000 31.93300
C  6.66100 3.98100 30.40800
C  5.46500 3.80600 32.67300
C  9.26200 3.59900 33.10700
C  8.95000 4.66300 34.25900
H  9.53700 4.56700 35.63900
N  6.31800 4.33000 27.38300
C  5.64500 5.01400 28.29700
C  4.78200 5.91800 27.60900
C  5.08900 5.88500 26.24200
C  6.02800 4.80400 26.12900
C  3.89100 6.89000 28.27400
C  4.55200 6.74300 24.98900
O  5.02600 6.61000 23.84200
C  3.54800 7.74200 25.17500
N  8.29700 2.53400 25.70500
C  7.56900 3.20100 24.77900
C  7.69500 2.60600 23.37100
C  8.88400 1.62700 23.67100
C  8.98400 1.55500 25.19900
C  6.39400 1.96000 22.93000
C  10.23800 1.94900 23.02600
C  10.52500 1.50500 21.60800
N  9.40100 1.49100 28.18100
C  9.91700 0.55900 27.26300
C  10.73000 -0.36900 28.04800
C  10.62200 -0.00400 29.34000
C  9.69300 1.08000 29.41200
C  11.37500 -1.58400 27.44700
C  10.94000 -0.33500 30.67600
O  11.68300 -1.14800 31.17600
C  10.27600 0.72000 31.57100
C  9.64500 0.06300 32.71100
O  8.61100 -0.62100 32.73400
O  10.30500 0.42600 33.86400
C  9.69300 -0.22700 35.03900
H  5.17700 5.53300 30.32300
H  6.22300 4.62800 24.01100
H  10.11900 -0.14500 25.18600
H  7.55900 2.25400 32.81600
H  7.24700 4.98000 32.15400
H  4.71500 3.72300 31.88700
H  5.26200 4.60800 33.38300
H  5.51300 2.90500 33.28400
H  10.01100 4.10100 32.49600
H  9.73400 2.74700 33.59700
H  7.87800 4.53700 34.41200
H  9.17900 5.64100 33.83800
H  2.82900 6.67500 28.15700
H  4.07100 7.86900 27.82900
H  4.18100 6.95400 29.32300
H  3.15900 8.21700 24.27400
H  3.89600 8.56100 25.80300
H  2.73100 7.20300 25.65500
H  7.94900 3.35500 22.62100
H  8.57700 0.62800 23.35900
H  5.73500 1.91000 23.79700
H  6.46600 0.90600 22.66300
H  5.99400 2.57300 22.12200
H  11.09400 1.59600 23.60100
H  10.18300 3.03700 23.06100
H  9.80300 0.72100 21.37900
H  11.44700 0.92500 21.65200
H  10.50400 2.35200 20.92300
H  10.56000 -2.19900 27.06700
H  11.87800 -2.17400 28.21300
H  12.10300 -1.32200 26.67900
H  11.10600 1.36000 31.87300
H  10.44700 -0.23600 35.82600
H  9.58200 -1.30200 34.89800
H  8.71400 0.13900 35.34800
Mg 25.67800 1.39900 30.28200
C  27.74000 1.36800 33.15600
C  22.96400 1.59200 32.60200
C  23.55700 1.18900 27.71600
C  28.31100 0.42200 28.40600
N  25.48300 1.70000 32.52700
C  26.47200 1.67200 33.47400
C  25.84600 1.90900 34.86100
C  24.33300 1.65700 34.65400
C  24.25200 1.70800 33.11900
C  23.79200 0.35400 35.34800
C  26.10400 3.42400 35.33600
C  27.19700 3.61200 36.43000
H  26.72800 4.49600 37.60300
N  23.56500 1.41500 30.16500
C  22.65000 1.55500 31.21300
C  21.34800 1.48800 30.65300
C  21.48400 1.51100 29.18600
C  22.97800 1.36300 28.92200
C  20.13500 1.49000 31.53200
C  20.40500 1.63400 28.08000
O  20.60300 1.48700 26.85800
C  19.14400 2.03900 28.56600
N  25.96800 0.93700 28.32300
C  24.90800 0.98300 27.35900
C  25.44700 0.66900 25.96100
C  26.99400 0.71300 26.20900
C  27.08600 0.64200 27.71300
C  24.96800 -0.72500 25.52400
C  27.79400 1.87800 25.63300
C  27.10600 3.24300 25.27400
N  27.66700 0.95000 30.67100
C  28.58700 0.61800 29.74600
C  29.92200 0.40300 30.40200
C  29.62800 0.69700 31.76000
C  28.24200 1.01400 31.88500
C  31.19100 -0.02800 29.69600
C  30.16500 0.74000 33.05600
O  31.26800 0.44100 33.48100
C  29.00400 1.20100 33.99000
C  28.84400 0.19300 35.09300
O  28.26400 -0.83600 35.08000
O  29.33300 0.74100 36.30300
C  28.99700 -0.14300 37.43600
H  22.23400 1.81300 33.38300
H  22.86700 1.01800 26.88800
H  29.21500 0.26200 27.81500
H  26.29100 1.30900 35.65500
H  23.68300 2.38500 35.13900
H  24.49900 -0.27800 35.88500
H  23.55500 -0.30800 34.51600
H  22.85300 0.48600 35.88600
H  25.16900 3.89900 35.63300
H  26.53300 4.03600 34.54300
H  28.07400 4.07300 35.97500
H  27.45500 2.65900 36.89100
H  19.67000 2.47500 31.50700
H  20.32300 1.13200 32.54500
H  19.39700 0.81800 31.09300
H  18.59000 1.22100 29.02800
H  18.51500 2.32900 27.72400
H  19.17900 2.89500 29.23900
H  25.16000 1.40800 25.21400
H  27.49300 -0.18700 25.85000
H  24.52900 -0.61200 24.53400
H  24.27600 -1.13400 26.26100
H  25.82800 -1.38800 25.42200
H  28.23900 1.45700 24.73100
H  28.64800 2.11600 26.26600
H  26.70400 3.78200 26.13200
H  26.36000 3.11900 24.48800
H  27.88200 3.83200 24.78600
H  31.73800 0.86200 29.38300
H  30.87200 -0.59000 28.81800
H  31.83500 -0.62800 30.33800
H  29.26200 2.22200 34.27400
H  29.56000 -1.07500 37.48400
H  27.91400 -0.22900 37.52100
H  29.24700 0.44300 38.32000

