158

Mg 54.65200 23.84000 44.73300
C  52.18200 26.09900 43.51300
C  53.13100 21.31300 43.01400
C  57.58900 21.98400 44.94700
C  56.48500 26.55500 45.92700
N  52.85700 23.78800 43.46600
C  51.95700 24.79500 43.10800
C  50.91900 24.22100 42.18900
C  51.04900 22.64900 42.26700
C  52.37400 22.54100 43.04100
C  49.92200 22.12200 43.13300
C  51.29400 24.74500 40.68800
C  50.12800 25.16200 39.77500
H  50.63200 25.55700 38.34000
N  55.20300 21.86900 44.23500
C  54.44000 20.95500 43.50400
C  55.08700 19.68800 43.57300
C  56.37000 19.91300 44.13100
C  56.38100 21.32400 44.51800
C  54.52000 18.52600 42.88900
C  57.42300 18.87000 44.32200
O  57.27800 17.70800 43.96300
C  58.64200 19.10700 45.18500
N  56.82200 24.27700 45.29800
C  57.78600 23.33900 45.25400
C  59.07800 23.90900 45.81800
C  58.74500 25.38000 45.96200
C  57.25000 25.43400 45.75600
C  59.39100 23.27300 47.17700
C  59.64400 26.31400 44.93200
C  59.94200 27.60400 45.67600
N  54.43900 25.88700 44.79300
C  55.19700 26.85700 45.45600
C  54.36700 28.03700 45.67700
C  53.27800 27.80400 44.79900
C  53.29300 26.49800 44.35000
C  54.61000 29.25900 46.39400
C  52.08600 28.45900 44.25100
O  51.61300 29.57300 44.27800
C  51.35700 27.34200 43.45800
C  51.16700 27.94200 42.06800
O  52.02400 28.47600 41.39900
O  49.87700 27.74500 41.72800
C  49.41300 28.48100 40.58500
H  52.54600 20.55500 42.49000
H  58.52600 21.43300 45.05400
H  56.94200 27.42500 46.40300
H  49.90200 24.51500 42.44600
H  51.16700 22.13700 41.31200
H  48.96100 22.58600 42.91000
H  50.24200 22.38000 44.14300
H  49.80600 21.04700 42.99500
H  51.81400 23.94500 40.16000
H  52.05100 25.52000 40.80200
H  49.61600 26.00500 40.24000
H  49.44600 24.31200 39.74300
H  55.01400 18.41400 41.92400
H  53.45700 18.72400 42.75200
H  54.74300 17.65800 43.51000
H  58.32600 19.65500 46.07300
H  59.43400 19.54900 44.58000
H  59.05000 18.11300 45.36600
H  59.96000 23.87400 45.17800
H  58.86300 25.61800 47.01900
H  60.40500 23.60200 47.40600
H  59.36100 22.18400 47.17600
H  58.70600 23.68300 47.91900
H  59.08000 26.63300 44.05500
H  60.53600 25.83900 44.52300
H  59.26600 28.42600 45.43800
H  60.95200 27.96500 45.47900
H  59.89600 27.50000 46.76000
H  53.86800 29.37600 47.18500
H  54.55800 30.17300 45.80200
H  55.60800 29.14900 46.82000
H  50.35800 27.09100 43.81400
H  49.30700 29.54700 40.78400
H  48.41100 28.11700 40.35700
H  50.01900 28.24900 39.70900
Mg 16.86500 52.04700 26.77800
C  18.78600 50.46300 29.23200
C  14.58500 52.95600 29.09300
C  15.16600 53.34800 24.22100
C  18.90100 50.32700 24.34400
N  16.67500 51.59500 28.88100
C  17.62700 51.08700 29.75600
C  17.22400 51.35900 31.26800
C  15.78200 51.92200 31.12200
C  15.62700 52.18400 29.63300
C  14.74100 50.95900 31.74900
C  18.26300 52.40500 31.77300
C  18.49000 52.36800 33.25800
H  17.56000 51.51500 34.12800
N  15.31000 53.24800 26.68900
C  14.47200 53.53100 27.78600
C  13.38800 54.43100 27.32100
C  13.61000 54.66100 25.88600
C  14.72800 53.74300 25.51000
C  12.41700 55.05300 28.18600
C  12.73900 55.46600 24.94300
O  12.68100 55.31000 23.71400
C  11.68700 56.43700 25.50500
N  17.09900 52.01600 24.63800
C  16.16100 52.59300 23.82500
C  16.45600 52.20800 22.31500
C  17.74100 51.29700 22.34900
C  17.98100 51.26300 23.86200
C  15.28900 51.51500 21.48200
C  18.94200 51.76800 21.45500
C  19.61000 53.08000 21.72700
N  18.48300 50.67100 26.77600
C  19.12200 50.04900 25.72600
C  20.24900 49.29300 26.27500
C  20.11800 49.41300 27.65000
C  19.05300 50.26400 27.90600
C  21.19100 48.54500 25.51100
C  20.79500 49.10900 28.93500
O  21.83100 48.58100 29.22200
C  19.91600 49.85000 29.98200
C  19.49500 48.81400 30.96200
O  18.76000 47.82400 30.73800
O  20.03300 49.07500 32.20900
C  19.70100 48.07900 33.18900
H  13.81800 53.26100 29.80700
H  14.74700 53.73500 23.29000
H  19.50700 49.90800 23.53800
H  17.36000 50.41700 31.80000
H  15.58500 52.88700 31.58800
H  15.03700 50.34900 32.60200
H  14.27000 50.27700 31.04100
H  13.92300 51.56300 32.14200
H  17.79100 53.34200 31.47800
H  19.11900 52.41600 31.09700
H  18.41700 53.36900 33.68200
H  19.53600 52.09100 33.39200
H  12.66800 54.92200 29.23800
H  11.48200 54.56400 27.91500
H  12.34100 56.12400 27.99300
H  10.88300 55.96300 26.06800
H  11.42900 57.02700 24.62600
H  12.27200 57.17500 26.05400
H  16.74700 53.11300 21.78100
H  17.47100 50.29600 22.01200
H  15.71900 51.16800 20.54200
H  14.47600 52.16900 21.16800
H  14.96000 50.60800 21.98900
H  18.72900 51.61200 20.39700
H  19.77800 51.08400 21.60000
H  20.66800 52.93700 21.94600
H  19.21200 53.52600 22.63900
H  19.61600 53.77800 20.89000
H  20.51000 47.89500 24.96100
H  21.84600 47.90800 26.10600
H  21.65500 49.28800 24.86200
H  20.50300 50.63600 30.45800
H  20.30400 47.17200 33.13800
H  18.67100 47.74400 33.06100
H  19.72800 48.55700 34.16800

