158

Mg 47.87900 14.46000 28.17300
C  45.85500 14.58200 31.04000
C  49.80500 17.03100 29.66900
C  49.86000 14.60600 25.40800
C  45.52800 12.76800 26.51400
N  47.80700 15.63200 30.16800
C  47.04800 15.33900 31.24400
C  47.70400 15.94700 32.45900
C  48.54300 17.07700 31.88500
C  48.70400 16.59600 30.43100
C  48.07000 18.50500 31.96400
C  48.37600 14.89800 33.31100
C  48.10100 14.90400 34.77100
H  49.20900 14.65000 35.75700
N  49.67700 15.61500 27.64300
C  50.38000 16.53600 28.42900
C  51.56900 17.00800 27.69900
C  51.57400 16.30900 26.43300
C  50.37800 15.42600 26.47200
C  52.55100 17.97900 28.36900
C  52.59000 16.50600 25.32600
O  52.51500 15.84700 24.26800
C  53.63200 17.55300 25.46600
N  47.70600 13.86400 26.26900
C  48.61400 13.96100 25.28900
C  48.19300 13.36500 23.94800
C  46.79600 12.78100 24.34200
C  46.67100 13.12000 25.82700
C  48.07200 14.38700 22.80200
C  46.45400 11.28400 23.98100
C  47.13600 10.16500 24.73500
N  46.09900 13.82100 28.61900
C  45.18100 13.17400 27.81900
C  44.02700 12.80900 28.60100
C  44.22300 13.36700 29.82200
C  45.48800 13.93100 29.83700
C  42.83000 12.14500 28.09200
C  43.60200 13.60200 31.08500
O  42.47300 13.35100 31.49300
C  44.65000 14.35500 31.89600
C  44.01700 15.56200 32.51500
O  44.10500 16.73600 32.20100
O  43.56800 15.10900 33.75500
C  43.07300 16.20300 34.66900
H  50.33400 17.82000 30.20700
H  50.52400 14.53400 24.54400
H  44.67600 12.15400 26.21500
H  46.89800 16.44700 32.99600
H  49.48400 17.15600 32.42900
H  47.47800 18.80200 31.09900
H  48.88800 19.21200 32.10300
H  47.48900 18.72600 32.86000
H  49.46100 15.00400 33.27200
H  48.19600 13.92800 32.84700
H  47.36700 14.17800 35.12100
H  47.72100 15.90200 34.98700
H  52.44300 19.04100 28.15300
H  53.61900 17.82000 28.21600
H  52.56400 17.85300 29.45200
H  54.48800 17.34000 26.10500
H  53.20300 18.48700 25.83000
H  54.07600 17.63700 24.47400
H  48.78400 12.54400 23.54200
H  46.05200 13.37500 23.81200
H  47.07000 14.37200 22.37300
H  48.89200 14.26000 22.09600
H  48.38600 15.34500 23.21500
H  46.72400 11.18200 22.92900
H  45.39100 11.07700 24.10800
H  47.82400 9.63800 24.07400
H  46.36000 9.48700 25.09100
H  47.63800 10.57900 25.61000
H  42.86000 11.05800 28.01700
H  42.50000 12.66900 27.19500
H  42.07100 12.24800 28.86700
H  44.84500 13.65100 32.70500
H  42.16400 16.59200 34.21000
H  43.76700 17.03900 34.76100
H  42.88700 15.79600 35.66300
Mg 6.33100 54.20700 40.86300
C  5.77200 50.59600 41.07100
C  9.59100 53.33400 39.95100
C  6.64400 57.25500 39.77500
C  3.06300 54.57600 41.77800
N  7.40500 52.24800 40.35500
C  7.00000 50.96800 40.40400
C  8.07800 49.95600 40.10300
C  9.41900 50.81400 40.37100
C  8.81200 52.25500 40.27000
C  10.23300 50.53100 41.66600
C  8.03300 49.25000 38.66000
C  7.17600 49.97500 37.60900
H  6.57800 49.19200 36.45900
N  7.96400 55.23900 40.01700
C  9.23300 54.72600 39.80300
C  10.01100 55.81500 39.46700
C  9.21400 56.92500 39.33400
C  7.85400 56.49500 39.64600
C  11.50300 55.73300 39.11400
C  9.76400 58.23900 38.88100
O  10.94000 58.52800 38.62400
C  8.83000 59.33600 38.75400
N  4.93900 55.68900 40.50100
C  5.33100 56.91300 40.19200
C  4.12600 57.90500 40.37500
C  2.93000 56.95200 40.78900
C  3.64600 55.64800 41.07200
C  4.32500 59.07400 41.35100
C  1.85100 56.79900 39.69400
C  0.54800 57.45900 39.87100
N  4.72700 53.00300 41.56600
C  3.51000 53.28500 41.99400
C  2.93300 52.08800 42.60000
C  3.69800 51.00600 42.15900
C  4.81400 51.61600 41.50400
C  1.62600 52.14700 43.34000
C  3.79200 49.57100 42.06400
O  3.05300 48.67400 42.47100
C  5.24000 49.22500 41.42000
C  4.92400 48.18700 40.44000
O  4.45000 48.46300 39.32100
O  5.30200 46.87600 40.77400
C  5.03400 45.78600 39.92000
H  10.64100 53.19800 39.68000
H  6.63600 58.30400 39.47300
H  2.07500 54.85300 42.15000
H  7.98600 49.14600 40.82600
H  10.15400 50.67700 39.57800
H  10.38100 51.52100 42.09700
H  11.15800 50.10500 41.27600
H  9.74300 49.94100 42.44000
H  7.75500 48.21000 38.83400
H  9.03600 49.05700 38.28000
H  7.77800 50.79900 37.22500
H  6.34800 50.54200 38.03400
H  11.44400 55.84100 38.03100
H  11.98700 54.76000 39.19300
H  12.02900 56.49800 39.68500
H  8.54200 59.65200 39.75600
H  8.00400 58.93300 38.16600
H  9.24300 60.16300 38.17500
H  3.87600 58.29600 39.38800
H  2.37100 57.22500 41.68400
H  5.38200 59.27900 41.52300
H  3.68900 58.86000 42.21000
H  3.94000 59.95100 40.83100
H  1.76000 55.75000 39.41200
H  2.26400 57.32200 38.83200
H  -0.24800 56.96600 39.31300
H  0.56400 58.41400 39.34700
H  0.24400 57.61600 40.90600
H  0.99800 51.25600 43.36700
H  1.04500 53.00300 43.00000
H  1.89900 52.42300 44.35900
H  5.88500 48.81800 42.19900
H  4.16600 45.22400 40.26600
H  5.85200 45.06700 39.97800
H  4.94100 46.07400 38.87300

