158

Mg 44.41100 5.03800 47.25700
C  42.10900 7.93000 46.90000
C  41.52500 3.01800 46.76000
C  46.37600 2.47500 46.98400
C  46.95700 7.19100 46.55400
N  42.06600 5.45500 47.00100
C  41.45100 6.65200 46.86100
C  39.95400 6.40700 46.61900
C  39.76200 4.85900 46.92300
C  41.24500 4.42100 46.88200
C  38.86900 4.47200 48.17000
C  39.53200 6.78500 45.20300
C  38.42300 7.80300 45.09400
H  37.60700 7.78700 43.81400
N  43.99500 3.02100 47.18800
C  42.81800 2.35300 46.90600
C  43.12400 0.97700 46.71700
C  44.52800 0.71400 46.77300
C  45.00300 2.07600 47.09300
C  42.04200 -0.13100 46.59100
C  45.27200 -0.63500 46.58600
O  44.73200 -1.64300 46.23700
C  46.82000 -0.82600 46.58900
N  46.42400 4.87300 46.75400
C  47.06300 3.69100 46.81300
C  48.56700 3.89800 47.00000
C  48.75500 5.37700 46.49200
C  47.29500 5.89400 46.64100
C  49.05500 3.59200 48.46800
C  49.34900 5.64000 45.01700
C  50.82500 5.99700 44.98100
N  44.57900 7.13200 47.03100
C  45.72200 7.85300 46.75600
C  45.39700 9.32500 46.74800
C  44.04800 9.38500 46.89900
C  43.54100 8.04700 46.93600
C  46.36100 10.42900 46.61500
C  42.85300 10.27600 46.99200
O  42.84100 11.52900 46.95700
C  41.62600 9.38500 46.95900
C  40.70500 9.58500 48.12300
O  40.59300 8.84900 49.11600
O  39.97700 10.66600 47.86300
C  38.88200 10.99500 48.70900
H  40.69900 2.31300 46.64900
H  47.15100 1.70800 46.93400
H  47.84600 7.80200 46.38100
H  39.37000 6.98900 47.33300
H  39.27400 4.21700 46.18900
H  39.54000 4.54200 49.02600
H  38.54400 3.43500 48.09400
H  38.04900 5.18200 48.28900
H  39.19800 5.93000 44.61400
H  40.46600 7.11500 44.74900
H  38.76700 8.79000 45.40300
H  37.77100 7.43300 45.88500
H  41.95900 -0.78400 47.45900
H  42.31700 -0.77400 45.75500
H  40.99300 0.13800 46.46300
H  47.02600 -1.82700 46.21000
H  47.32900 -0.53100 47.50700
H  47.22900 -0.22100 45.77900
H  49.06000 3.15100 46.37900
H  49.33800 5.93400 47.22500
H  48.12700 3.47900 49.03000
H  49.59800 4.46800 48.82100
H  49.69200 2.71200 48.37800
H  48.66500 6.40900 44.65800
H  49.30600 4.75700 44.37900
H  51.07500 6.54000 44.07000
H  51.31500 5.02500 44.92400
H  51.14900 6.48400 45.90200
H  47.35100 10.15400 46.97900
H  45.95700 11.31100 47.11200
H  46.48700 10.82900 45.60900
H  41.08600 9.66200 46.05300
H  38.99600 12.03700 49.00700
H  38.55000 10.46900 49.60400
H  37.91800 11.00300 48.20000
Mg 49.82400 47.41400 42.42300
C  46.39300 47.97800 41.44900
C  49.75000 44.40400 40.72400
C  53.15900 47.16200 42.86000
C  49.99200 50.87100 43.33500
N  48.25200 46.38700 41.07300
C  46.88700 46.74900 40.96500
C  46.21300 45.68600 40.10700
C  47.30100 44.51100 40.00700
C  48.52100 45.17300 40.67100
C  46.85300 43.05500 40.47500
C  45.56000 46.18500 38.77700
C  44.03200 45.95500 38.63700
H  43.49600 45.81400 37.23700
N  51.24600 45.93800 41.97000
C  51.00300 44.73800 41.30500
C  52.14400 43.88600 41.33500
C  53.22200 44.78200 41.86400
C  52.57100 46.05600 42.26100
C  52.25500 42.48100 40.61700
C  54.64100 44.28900 41.92500
O  54.96100 43.16500 41.64500
C  55.63000 45.15600 42.55600
N  51.37900 48.93800 42.86800
C  52.64500 48.47900 43.19800
C  53.59200 49.75800 43.52200
C  52.53200 50.94000 43.72300
C  51.21600 50.21700 43.35700
C  54.50100 49.56100 44.82000
C  52.82300 52.21300 42.76700
C  54.11200 52.90700 42.95000
N  48.45600 49.08300 42.44100
C  48.70000 50.38800 42.91600
C  47.42700 51.11700 42.85100
C  46.41600 50.17600 42.46000
C  47.15500 48.96300 42.07500
C  47.32900 52.56700 43.18600
C  45.04100 50.02800 42.11600
O  44.10600 50.83100 42.13300
C  44.95500 48.60900 41.44700
C  44.00300 47.77000 42.30000
O  43.97600 47.77200 43.50900
O  43.24000 46.85800 41.56200
C  42.36900 45.88700 42.27600
H  49.68000 43.38500 40.33700
H  54.23900 47.19300 43.01800
H  50.05500 51.89200 43.71500
H  45.39800 45.23700 40.67400
H  47.53000 44.49100 38.94200
H  46.61800 42.42100 39.62000
H  45.96300 43.15500 41.09800
H  47.63100 42.71500 41.15800
H  46.04800 45.71400 37.92300
H  45.78900 47.24900 38.72800
H  43.41300 46.76000 39.03200
H  43.85400 45.02000 39.16900
H  51.36100 42.28800 40.02400
H  52.18000 41.66700 41.33800
H  53.19200 42.24600 40.11100
H  55.70100 45.94800 41.81000
H  56.59700 44.65500 42.61500
H  55.43800 45.46000 43.58500
H  54.14700 50.03100 42.62500
H  52.22200 51.14100 44.74800
H  54.58100 48.49000 45.01000
H  54.17200 50.08600 45.71700
H  55.46600 49.91800 44.46000
H  52.00000 52.91900 42.87700
H  52.67800 51.96100 41.71700
H  54.96100 52.31800 43.29600
H  53.98300 53.81500 43.53800
H  54.46400 53.13100 41.94300
H  47.59000 53.20200 42.33900
H  47.95600 52.92100 44.00500
H  46.30500 52.92100 43.30000
H  44.45600 48.80100 40.49700
H  43.01100 45.15600 42.76900
H  41.63800 45.42100 41.61500
H  41.75900 46.39300 43.02400

