158

Mg 30.80900 58.06800 40.44100
C  28.34500 55.92100 38.91500
C  33.21900 56.06300 39.20500
C  33.06300 60.58400 41.17200
C  28.19900 60.46200 40.83400
N  30.78700 56.03800 39.38000
C  29.65200 55.50000 38.67500
C  30.14900 54.35300 37.79600
C  31.67400 54.26600 38.22000
C  31.95200 55.54000 38.95500
C  31.93100 52.98900 39.06400
C  29.86200 54.69800 36.39400
C  29.63000 53.55400 35.37700
H  28.61000 53.85700 34.29100
N  32.92400 58.20600 40.30400
C  33.70400 57.27900 39.82300
C  35.09100 57.68100 39.97200
C  35.03800 58.95000 40.59500
C  33.65100 59.31300 40.66800
C  36.26200 56.80300 39.47000
C  36.28400 59.72900 40.96400
O  37.38500 59.17900 40.77600
C  36.35200 61.10800 41.50700
N  30.65800 60.24600 40.84900
C  31.73600 60.97900 41.26100
C  31.41400 62.34300 41.75200
C  29.81000 62.41700 41.52800
C  29.51900 60.98400 40.95100
C  31.73200 62.52600 43.19500
C  29.26800 63.57500 40.68400
C  28.79600 64.88500 41.51000
N  28.70500 58.16700 40.09500
C  27.83800 59.26900 40.23000
C  26.49200 58.85200 39.89800
C  26.63200 57.48700 39.45600
C  27.99400 57.14700 39.57700
C  25.30400 59.72700 40.04700
C  25.94600 56.35400 38.85300
O  24.71300 56.24500 38.63600
C  27.04000 55.34600 38.46600
C  26.81500 53.94200 38.95800
O  27.05900 53.57900 40.12700
O  26.48800 53.14800 37.93800
C  26.03700 51.77900 38.29800
H  34.01000 55.55500 38.65000
H  33.70100 61.38400 41.55300
H  27.48000 61.20600 41.18300
H  29.58700 53.46400 38.08200
H  32.35900 54.31400 37.37300
H  32.86800 52.55600 38.71400
H  31.14200 52.24200 38.98800
H  32.02900 53.22300 40.12400
H  30.72800 55.23400 36.00700
H  29.04300 55.41500 36.33800
H  29.46500 52.60300 35.88300
H  30.58700 53.46500 34.86300
H  37.09300 57.45200 39.19200
H  35.94900 56.23200 38.59600
H  36.63600 56.16400 40.27000
H  37.41300 61.23200 41.72200
H  35.79500 61.14000 42.44400
H  36.08100 61.86100 40.76700
H  31.85100 63.09800 41.09900
H  29.27700 62.40500 42.47900
H  32.64200 61.98400 43.45300
H  31.02200 62.10100 43.90500
H  31.79000 63.55100 43.56300
H  28.31100 63.39400 40.19400
H  30.13300 63.67400 40.02900
H  29.01300 64.70100 42.56200
H  27.75600 65.07200 41.24100
H  29.32000 65.70700 41.02400
H  25.48200 60.72600 39.64900
H  25.14000 59.70500 41.12400
H  24.47100 59.25800 39.52300
H  26.97800 55.35800 37.37800
H  26.80900 51.13800 38.72200
H  25.59200 51.33200 37.40900
H  25.20400 51.87700 38.99400
Mg -12.42600 16.48900 42.15000
C  -9.29800 14.99500 41.88000
C  -11.29700 19.36100 40.81600
C  -15.69600 17.55600 42.02800
C  -13.72400 13.22300 42.76100
N  -10.50100 17.02200 41.25900
C  -9.28800 16.30700 41.29100
C  -8.09200 17.14700 40.79000
C  -8.72500 18.54400 40.68900
C  -10.27100 18.32600 40.92500
C  -8.04500 19.60600 41.63800
C  -7.50800 16.64000 39.53000
C  -6.03200 16.17900 39.72300
H  -5.51700 15.04400 38.83000
N  -13.34000 18.22900 41.49800
C  -12.67700 19.26400 40.97900
C  -13.55700 20.40700 40.90200
C  -14.83900 19.98400 41.25400
C  -14.70000 18.52300 41.65500
C  -13.15800 21.76600 40.36100
C  -16.05800 20.81100 41.16100
O  -16.08100 21.98600 40.81700
C  -17.38000 20.19000 41.53400
N  -14.44700 15.51500 42.37400
C  -15.60100 16.19400 42.26100
C  -16.80400 15.36700 42.44400
C  -16.19100 13.92600 42.52100
C  -14.72100 14.17200 42.40900
C  -17.63100 15.66300 43.67000
C  -16.66900 12.79400 41.43000
C  -17.01500 11.45600 42.13200
N  -11.74100 14.54500 42.43300
C  -12.35700 13.33300 42.71200
C  -11.36300 12.26500 42.76100
C  -10.15800 12.89000 42.51500
C  -10.44900 14.31500 42.29900
C  -11.59300 10.84600 43.09300
C  -8.65500 12.69000 42.38400
O  -7.96400 11.68300 42.50500
C  -8.12700 14.01900 41.97400
C  -7.16100 14.44900 42.96400
O  -7.35800 15.26200 43.84500
O  -5.94100 13.90000 42.69900
C  -4.79800 14.37500 43.48100
H  -10.83800 20.26700 40.41500
H  -16.72900 17.87000 41.86300
H  -14.21100 12.25300 42.88500
H  -7.31200 17.03100 41.54200
H  -8.59900 19.06400 39.74000
H  -8.56900 20.56100 41.60400
H  -7.05200 19.80400 41.23400
H  -8.21800 19.29700 42.66900
H  -7.39700 17.43400 38.79200
H  -8.15300 15.91600 39.03300
H  -5.78800 15.87200 40.74000
H  -5.37300 17.03400 39.57300
H  -13.75100 21.99100 39.47600
H  -12.17400 21.67100 39.90200
H  -13.11300 22.62200 41.03400
H  -17.60300 19.36100 40.86300
H  -18.17900 20.92100 41.41400
H  -17.48100 19.93300 42.58900
H  -17.31100 15.38400 41.47900
H  -16.44000 13.55700 43.51600
H  -17.50300 16.67900 44.04400
H  -17.40100 15.05500 44.54400
H  -18.67600 15.70400 43.36200
H  -15.82500 12.55000 40.78400
H  -17.46400 13.22700 40.82300
H  -16.65000 11.49300 43.15900
H  -16.48400 10.61600 41.68500
H  -18.09800 11.34400 42.08700
H  -10.71600 10.20100 43.13600
H  -12.28500 10.35400 42.41000
H  -11.92300 10.83100 44.13100
H  -7.58400 13.88800 41.03700
H  -4.25900 15.20000 43.01700
H  -4.17400 13.48200 43.45100
H  -5.07400 14.66800 44.49400

