158

Mg -3.35600 16.77800 27.36000
C  -3.12400 14.72100 30.32300
C  -3.32100 19.63100 29.34100
C  -3.49600 18.53700 24.66100
C  -3.44800 13.84500 25.52400
N  -3.23700 17.09600 29.55900
C  -3.11000 16.12700 30.57600
C  -3.12000 16.76400 31.94900
C  -3.28600 18.24300 31.56600
C  -3.20800 18.39600 30.05000
C  -4.59500 18.83500 32.18200
C  -1.87400 16.41300 32.81100
C  -1.51900 17.31800 34.07300
H  -0.84000 16.72000 35.29300
N  -3.36500 18.77300 27.00700
C  -3.35200 19.77800 27.95900
C  -3.23400 21.01200 27.34600
C  -3.31200 20.78900 25.92700
C  -3.45300 19.30400 25.79700
C  -3.18500 22.31800 28.06500
C  -3.09500 21.78400 24.64600
O  -3.15300 21.43400 23.48000
C  -2.57500 23.20000 24.93200
N  -3.41800 16.23000 25.33500
C  -3.48700 17.16500 24.37400
C  -3.43800 16.51400 22.96300
C  -3.28700 15.02500 23.29000
C  -3.40400 15.03900 24.78500
C  -4.68800 16.79800 22.05000
C  -1.96500 14.36700 22.84300
C  -1.88700 13.94300 21.39500
N  -3.43200 14.74600 27.76100
C  -3.40500 13.68300 26.89700
C  -3.36200 12.39200 27.59200
C  -3.23700 12.79600 28.93200
C  -3.32500 14.22300 28.98800
C  -3.43900 11.02700 27.06400
C  -3.23500 12.28500 30.28500
O  -3.12700 11.13400 30.74800
C  -3.02900 13.56600 31.25600
C  -1.66200 13.36400 31.80000
O  -0.72100 13.94600 31.34200
O  -1.68700 12.69900 32.97600
C  -0.43200 12.63800 33.73000
H  -3.38400 20.41600 30.09800
H  -3.50000 19.12400 23.74000
H  -3.49700 12.97900 24.86000
H  -4.02200 16.43600 32.46500
H  -2.49700 18.82200 32.04500
H  -4.58400 19.92400 32.13200
H  -4.53500 18.69100 33.26100
H  -5.44900 18.35900 31.70100
H  -1.01800 16.35600 32.13800
H  -1.93300 15.39600 33.19800
H  -2.45000 17.79300 34.38400
H  -0.86200 18.11900 33.73400
H  -2.23300 22.82700 27.91000
H  -3.33500 22.22500 29.14100
H  -3.93900 23.01400 27.69700
H  -1.67600 23.06900 25.53400
H  -3.26400 23.82900 25.49500
H  -2.36700 23.74400 24.01000
H  -2.56400 16.95300 22.48100
H  -4.16500 14.51600 22.89100
H  -5.34300 17.54300 22.50100
H  -5.37700 16.02500 21.70900
H  -4.31600 17.30600 21.16000
H  -1.73300 13.46200 23.40400
H  -1.16500 15.09600 22.97800
H  -2.76700 14.35800 20.90100
H  -1.86800 12.85700 21.30300
H  -0.98300 14.33500 20.93000
H  -4.45400 10.66000 27.21900
H  -2.67900 10.49900 27.63900
H  -3.05900 10.90200 26.05000
H  -3.77100 13.42600 32.04300
H  -0.31400 13.46100 34.43400
H  0.47900 12.48900 33.14900
H  -0.57900 11.68600 34.23900
Mg 53.55700 24.72700 45.69100
C  51.07900 26.93500 44.38400
C  52.08400 22.26600 43.75600
C  56.06600 22.85000 46.47100
C  54.99000 27.54400 47.13600
N  51.87200 24.70800 44.06100
C  51.04900 25.69700 43.72100
C  50.05000 25.24600 42.74700
C  50.24400 23.70100 42.77100
C  51.45000 23.49700 43.61800
C  48.92600 22.83600 43.16200
C  50.07400 25.81000 41.31400
C  51.42600 26.37100 40.92100
H  52.14200 25.53600 39.81000
N  54.04100 22.83100 45.13800
C  53.29700 21.92500 44.51000
C  53.70800 20.56200 44.71400
C  54.85200 20.73900 45.57300
C  55.05700 22.18600 45.76000
C  52.85000 19.37600 44.30700
C  55.68100 19.58200 46.09800
O  55.33000 18.42400 45.89700
C  56.82800 19.78700 46.99400
N  55.31500 25.21200 46.38100
C  56.25500 24.23500 46.69900
C  57.40500 24.75100 47.49300
C  57.14700 26.24000 47.42800
C  55.74000 26.34600 46.95800
C  57.57700 24.16300 48.90400
C  58.27600 26.94600 46.60300
C  57.88400 27.68400 45.25500
N  53.09100 26.84000 45.86400
C  53.71300 27.76000 46.57000
C  52.94800 28.99500 46.61800
C  51.83000 28.68000 45.82400
C  52.00500 27.36500 45.28600
C  53.27000 30.20000 47.42300
C  50.60500 29.21000 45.27300
O  50.08800 30.31100 45.45000
C  50.01000 28.08800 44.40500
C  49.85400 28.66700 43.03000
O  50.74400 29.07200 42.26600
O  48.49900 28.81300 42.81100
C  48.02700 29.35500 41.53000
H  51.64500 21.48000 43.13800
H  56.89700 22.32100 46.94000
H  55.36600 28.45100 47.61400
H  49.05400 25.51600 43.10000
H  50.37600 23.35400 41.74600
H  48.32100 22.73800 42.26100
H  48.30600 23.35700 43.89100
H  49.28400 21.92100 43.63400
H  49.38300 26.64900 41.23500
H  49.84000 25.02900 40.59200
H  52.20400 26.45400 41.68000
H  51.36200 27.36900 40.48700
H  52.78000 19.14900 43.24300
H  51.91700 19.53300 44.84800
H  53.23600 18.52400 44.86600
H  57.18400 18.83100 47.37900
H  56.59500 20.41300 47.85500
H  57.62600 20.27500 46.43400
H  58.30800 24.46800 46.95300
H  57.01300 26.69900 48.40800
H  58.55200 23.67700 48.87800
H  56.68600 23.55500 49.05800
H  57.56000 24.83200 49.76500
H  59.08300 26.24900 46.38100
H  58.66500 27.68300 47.30600
H  56.92200 27.38200 44.84200
H  58.57200 27.42600 44.44900
H  57.90300 28.74200 45.51400
H  53.87500 30.81000 46.75300
H  53.73200 30.02800 48.39500
H  52.39800 30.84000 47.56200
H  49.05100 27.73700 44.78500
H  47.10000 29.90500 41.68900
H  47.79100 28.54300 40.84200
H  48.76900 30.01800 41.08500

