158

Mg 40.13700 8.82500 28.46500
C  42.02400 10.06300 31.03300
C  38.00900 7.44400 30.63200
C  38.21500 7.85800 25.79800
C  42.45900 9.97900 26.17800
N  40.10500 8.72600 30.57600
C  40.85400 9.44100 31.44700
C  40.29900 9.39300 32.86500
C  39.18400 8.31600 32.76600
C  39.10200 8.06300 31.19600
C  39.49600 7.03100 33.54300
C  39.75600 10.84000 33.33600
C  39.14500 11.04000 34.77600
H  39.39800 12.30600 35.49500
N  38.29200 7.79400 28.25500
C  37.59800 7.26100 29.30000
C  36.41000 6.68800 28.82300
C  36.36700 6.90000 27.43500
C  37.62600 7.57200 27.10700
C  35.29200 5.95400 29.70000
C  35.29900 6.55900 26.33700
O  35.42300 6.66100 25.13200
C  33.89900 6.16400 26.78400
N  40.33300 8.69800 26.29200
C  39.36800 8.45600 25.38800
C  39.82500 8.74000 24.00300
C  41.18200 9.41900 24.18900
C  41.35200 9.34200 25.70100
C  39.82500 7.47200 23.14700
C  41.14500 10.90600 23.60200
C  40.47900 12.03000 24.43500
N  41.90100 9.72700 28.61300
C  42.79100 10.15900 27.56100
C  43.95800 10.86200 28.18200
C  43.63300 10.84900 29.55700
C  42.47100 10.14700 29.64900
C  45.15700 11.39100 27.48100
C  44.05700 11.31000 30.88800
O  44.93900 12.07600 31.22900
C  43.00400 10.83300 31.88800
C  43.69400 9.99500 32.96700
O  44.28800 8.94600 32.76300
O  43.43500 10.53600 34.24200
C  43.70700 9.63100 35.30800
H  37.31200 7.24900 31.45000
H  37.66700 7.61600 24.88400
H  43.21200 10.33500 25.47200
H  41.18100 9.08300 33.42500
H  38.28000 8.76500 33.17600
H  40.50300 6.92100 33.94500
H  39.38500 6.14100 32.92300
H  38.80500 7.03800 34.38600
H  38.82800 11.03200 32.79800
H  40.52900 11.59400 33.18400
H  39.59900 10.21400 35.32300
H  38.07300 10.86000 34.68900
H  35.41900 6.04500 30.77800
H  35.42200 4.91100 29.41200
H  34.32400 6.42200 29.52200
H  33.49600 7.09100 27.19300
H  33.85600 5.42000 27.58000
H  33.40500 5.87200 25.85700
H  39.10800 9.46400 23.61700
H  41.94100 8.85200 23.65000
H  39.83500 6.58300 23.77900
H  40.71400 7.43600 22.51700
H  38.97100 7.44700 22.47000
H  40.73200 10.82500 22.59700
H  42.16500 11.25800 23.45000
H  40.24000 11.62200 25.41700
H  39.55600 12.36800 23.96600
H  41.19000 12.84500 24.56800
H  45.91200 11.30700 28.26300
H  44.91100 12.42900 27.25900
H  45.30100 10.69900 26.65100
H  42.56500 11.68300 32.41200
H  42.78500 9.59000 35.88800
H  44.59600 9.81400 35.91100
H  43.83100 8.62400 34.91000
Mg 46.42900 16.28300 28.21700
C  44.09800 15.80600 30.77900
C  48.48300 17.64600 30.57800
C  48.28200 17.26200 25.66700
C  44.06700 14.92700 25.93300
N  46.25400 16.71100 30.39900
C  45.25500 16.40300 31.18800
C  45.55400 16.82100 32.64800
C  46.86800 17.61300 32.53200
C  47.28700 17.26900 31.09000
C  46.70300 19.15500 32.80400
C  45.74500 15.55400 33.53000
C  46.45300 15.71400 34.91400
H  46.03400 16.83500 35.88500
N  48.18100 17.23500 28.12100
C  48.94700 17.61900 29.19100
C  50.19600 18.23300 28.70200
C  50.18800 18.12000 27.25500
C  48.86200 17.49000 26.93900
C  51.21400 18.78100 29.67600
C  51.24900 18.45500 26.29300
O  51.14400 18.16800 25.09400
C  52.50000 19.16800 26.73500
N  46.17300 16.16500 26.05600
C  47.10100 16.65600 25.25700
C  46.67300 16.46600 23.75100
C  45.44100 15.54700 23.90100
C  45.23600 15.46100 25.37100
C  46.44700 17.81300 23.09600
C  45.58400 14.11800 23.29200
C  44.55500 13.62500 22.38200
N  44.48900 15.54800 28.25800
C  43.65900 15.05300 27.28400
C  42.37300 14.75600 27.91600
C  42.46700 15.02400 29.29900
C  43.78200 15.47700 29.46300
C  41.25200 14.19700 27.12200
C  41.89300 14.97600 30.56600
O  40.83000 14.54700 30.93200
C  42.94400 15.54100 31.59000
C  42.31600 16.61400 32.35600
O  42.05600 17.75300 31.95700
O  42.14700 16.17800 33.64500
C  41.91000 17.26000 34.52200
H  49.08700 18.13300 31.34700
H  48.85700 17.48200 24.76500
H  43.33100 14.57200 25.20900
H  44.80700 17.53600 32.99400
H  47.69700 17.23600 33.13100
H  47.33700 19.35800 33.66700
H  45.65400 19.35100 33.02100
H  47.05500 19.70400 31.93000
H  46.02900 14.70800 32.90400
H  44.77300 15.40000 33.99900
H  47.51100 15.84900 34.69000
H  46.26400 14.74800 35.38300
H  51.85600 19.55200 29.25100
H  51.82800 17.93600 29.98700
H  50.66900 19.35800 30.42300
H  53.14100 18.73200 27.50200
H  52.05200 20.09000 27.10600
H  53.08800 19.35900 25.83800
H  47.53400 16.00300 23.27000
H  44.51200 15.89300 23.45000
H  45.48600 17.97800 22.61000
H  47.26800 17.97400 22.39700
H  46.60100 18.51300 23.91700
H  45.72500 13.37600 24.07800
H  46.59300 13.98400 22.90100
H  44.30700 12.61400 22.70200
H  44.85300 13.49500 21.34200
H  43.63300 14.19500 22.50400
H  40.28900 14.43000 27.57600
H  41.43500 13.12300 27.06900
H  41.27400 14.61100 26.11400
H  43.04100 14.72200 32.30300
H  42.72400 17.97700 34.62600
H  41.84400 16.78200 35.50000
H  40.94200 17.72000 34.32500

