158

Mg 47.80600 16.60300 27.74600
C  45.97900 16.26600 30.75400
C  50.20100 18.29300 29.45500
C  49.41300 17.05600 24.81900
C  45.10200 15.12900 25.98600
N  48.11400 17.05700 29.89700
C  47.26800 16.70200 30.95300
C  47.90000 17.10800 32.30100
C  49.22200 17.95300 31.85200
C  49.21200 17.72300 30.33500
C  49.21500 19.46200 32.29500
C  48.30800 15.96700 33.16800
C  47.52700 15.89100 34.59200
H  47.40400 17.22700 35.34800
N  49.64500 17.41800 27.26700
C  50.43400 18.11200 28.09000
C  51.70600 18.31300 27.38200
C  51.49500 17.96900 25.96700
C  50.11100 17.43000 25.98100
C  52.87700 18.93100 28.01500
C  52.48200 18.18200 24.82900
O  52.21300 17.96600 23.68000
C  53.83100 18.84400 25.04400
N  47.37200 16.14500 25.69500
C  48.16400 16.50500 24.64000
C  47.70400 15.88200 23.33600
C  46.24500 15.30200 23.69000
C  46.23500 15.48000 25.20500
C  47.66300 16.87100 22.12100
C  46.12700 13.81900 23.25000
C  44.95200 13.39300 22.41700
N  45.82000 16.06300 28.18600
C  44.90000 15.34200 27.39500
C  43.83300 14.89300 28.35000
C  44.18000 15.29600 29.62800
C  45.45400 15.89500 29.49700
C  42.66500 14.07700 27.98400
C  43.75300 15.29000 30.96700
O  42.73000 14.82600 31.45400
C  44.94500 15.72900 31.79900
C  44.38900 16.77000 32.68500
O  44.05500 17.87100 32.29800
O  44.06800 16.22000 33.87700
C  43.24100 17.08000 34.78400
H  50.88800 18.92700 30.02100
H  50.03700 16.97600 23.92700
H  44.33600 14.60600 25.41000
H  47.16600 17.75700 32.77900
H  50.13500 17.49900 32.23700
H  50.18600 19.68000 32.74100
H  48.47200 19.55100 33.08700
H  48.94100 20.07800 31.43900
H  49.37600 16.02700 33.37800
H  48.04900 15.12700 32.52400
H  48.05700 15.18800 35.23500
H  46.55100 15.42300 34.46500
H  52.82700 18.95900 29.10400
H  53.23500 19.90800 27.69100
H  53.77200 18.31900 27.89800
H  53.82900 19.89000 25.35100
H  54.40200 18.80200 24.11600
H  54.32000 18.25500 25.81900
H  48.42400 15.08600 23.15100
H  45.43300 15.92300 23.31200
H  47.91100 16.33300 21.20600
H  48.38300 17.68600 22.19100
H  46.68800 17.31400 21.91300
H  46.16600 13.25900 24.18400
H  47.08300 13.61100 22.77000
H  44.20300 14.16800 22.57700
H  44.57500 12.49700 22.91000
H  45.27000 13.25600 21.38300
H  42.55000 14.22700 26.91100
H  41.84400 14.56700 28.50700
H  42.87100 13.03700 28.23800
H  45.37100 14.91800 32.39000
H  42.37500 17.34800 34.17900
H  43.80800 17.98400 35.00800
H  43.15300 16.56300 35.74000
Mg 29.86100 57.91500 40.24700
C  27.03500 55.92000 39.16500
C  31.84800 55.29400 39.00000
C  32.43800 59.87300 40.39300
C  27.66700 60.64700 40.53300
N  29.52900 55.93000 39.08100
C  28.31300 55.30300 38.88300
C  28.46600 53.83100 38.52700
C  29.94800 53.54900 38.56900
C  30.46500 55.01800 38.86800
C  30.46700 52.43600 39.55000
C  27.83300 53.46000 37.05400
C  28.47400 54.22200 35.82100
H  27.57500 55.29600 35.14200
N  31.96400 57.58900 39.95200
C  32.57900 56.48000 39.38500
C  34.00000 56.71800 39.42900
C  34.21600 58.00700 39.96800
C  32.84000 58.50800 40.16200
C  34.93900 55.64500 38.96600
C  35.55300 58.70300 40.23500
O  36.58900 58.12000 39.94900
C  35.71900 60.05900 40.80500
N  30.06400 59.99400 40.29000
C  31.25800 60.51000 40.52300
C  31.19900 62.02600 40.91300
C  29.67900 62.31400 40.78700
C  29.05900 60.92100 40.55000
C  31.74500 62.34800 42.31600
C  29.35000 63.21300 39.55000
C  28.38100 64.33100 39.93600
N  27.73700 58.27700 40.10000
C  27.00800 59.42000 40.19500
C  25.64900 59.11200 39.87800
C  25.60500 57.73400 39.53300
C  26.93800 57.30300 39.62900
C  24.48100 60.09400 39.92400
C  24.68200 56.54200 39.21600
O  23.43700 56.57400 39.12800
C  25.61300 55.37000 38.90700
C  25.25400 54.27800 39.85100
O  25.72500 54.07000 40.95900
O  24.34700 53.41300 39.27200
C  23.94900 52.22100 40.07200
H  32.45200 54.40500 38.80900
H  33.28900 60.55500 40.45200
H  27.01600 61.49300 40.76400
H  27.95000 53.21600 39.26500
H  30.29300 53.22500 37.58600
H  30.52300 53.02400 40.46700
H  31.44800 52.08000 39.23300
H  29.75700 51.60900 39.56400
H  26.81700 53.83900 37.16500
H  27.97500 52.38100 36.99300
H  28.73800 53.52600 35.02500
H  29.35800 54.75600 36.16900
H  35.79500 55.92700 38.35300
H  34.53000 54.78100 38.44300
H  35.42100 55.32500 39.89000
H  35.20100 60.20800 41.75300
H  35.33900 60.79200 40.09300
H  36.77200 60.31800 40.92000
H  31.81700 62.60400 40.22600
H  29.31100 62.82400 41.67800
H  30.94700 62.73300 42.95100
H  32.40000 63.18600 42.07800
H  32.25700 61.50800 42.78700
H  28.95200 62.55000 38.78200
H  30.23700 63.67800 39.11900
H  27.47800 64.09900 39.37100
H  28.69400 65.29900 39.54600
H  28.21000 64.36100 41.01200
H  24.53500 60.72100 39.03400
H  24.70100 60.71000 40.79600
H  23.50700 59.61900 40.04400
H  25.36600 54.92000 37.94600
H  23.73200 52.61000 41.06700
H  24.78000 51.52200 40.16600
H  23.11200 51.73200 39.57400

