158

Mg 1.78800 -1.04300 43.90800
C  5.07200 0.07300 43.15500
C  0.63600 1.79600 42.15600
C  -1.31500 -2.18300 44.03000
C  3.25100 -4.11300 45.19000
N  2.73100 0.55800 42.69300
C  4.07800 0.89600 42.59300
C  4.32100 2.17000 41.78400
C  2.89700 2.81500 41.80200
C  2.00100 1.64700 42.23200
C  2.84400 4.03900 42.86700
C  4.93800 1.87100 40.36800
C  6.13500 2.88100 40.12100
H  5.92700 3.88600 38.95800
N  -0.20700 -0.25800 43.24500
C  -0.41500 0.95600 42.61900
C  -1.83800 1.19700 42.60400
C  -2.47800 0.04100 43.24300
C  -1.32800 -0.89300 43.49900
C  -2.51800 2.43200 42.07900
C  -3.88600 -0.07500 43.61500
O  -4.72300 0.79200 43.26300
C  -4.49900 -1.18000 44.40700
N  1.12000 -2.99900 44.24800
C  -0.21800 -3.14100 44.42200
C  -0.43700 -4.56900 45.01100
C  0.95800 -5.06800 45.53500
C  1.88300 -4.03700 44.92200
C  -1.50600 -4.57000 46.15900
C  1.36800 -6.44800 45.00500
C  1.42500 -7.65700 46.05600
N  3.75700 -1.95800 44.12300
C  4.15500 -3.14600 44.65800
C  5.66900 -3.20300 44.66700
C  5.94800 -1.97000 44.02900
C  4.81400 -1.24300 43.69500
C  6.53900 -4.27600 45.17100
C  7.08800 -1.20100 43.62400
O  8.29700 -1.50500 43.81700
C  6.52400 0.11800 43.02500
C  7.20700 1.11000 43.86300
O  7.27200 1.10700 45.07100
O  7.84100 2.07600 43.08800
C  8.63000 3.16700 43.78400
H  0.25900 2.74900 41.77900
H  -2.29700 -2.64800 44.13200
H  3.64000 -4.94000 45.78800
H  4.92500 2.70900 42.51400
H  2.65800 3.21700 40.81700
H  3.60900 3.85200 43.62100
H  1.90000 4.20900 43.38500
H  3.12000 4.97000 42.37100
H  4.19100 1.85900 39.57500
H  5.26100 0.83100 40.32100
H  7.03200 2.31300 39.87500
H  6.37600 3.49400 40.98900
H  -3.19100 2.67000 42.90200
H  -3.07700 2.02100 41.23900
H  -1.81600 3.26300 42.02200
H  -5.56600 -0.99900 44.53600
H  -3.90300 -1.21600 45.31900
H  -4.34500 -1.94600 43.64700
H  -0.67100 -5.25000 44.19200
H  1.02700 -4.97600 46.61900
H  -1.93600 -3.58000 46.31200
H  -1.16800 -5.00100 47.10100
H  -2.36300 -5.14000 45.80000
H  2.28100 -6.40900 44.41200
H  0.75100 -6.89000 44.22400
H  2.36900 -8.18800 45.92500
H  0.62500 -8.37200 45.86800
H  1.34100 -7.32700 47.09100
H  7.39700 -3.98200 45.77700
H  6.92100 -4.80200 44.29700
H  5.93900 -5.02500 45.68900
H  6.85200 0.08900 41.98600
H  9.17400 3.69400 43.00000
H  9.38600 2.80600 44.48200
H  8.05200 3.92600 44.31100
Mg 35.96900 2.60400 30.20300
C  33.42900 3.62400 32.46900
C  37.94400 2.05100 32.92300
C  37.85100 1.01200 28.16200
C  33.45100 2.85600 27.59200
N  35.79300 2.91800 32.40000
C  34.65400 3.28100 33.08500
C  34.93500 3.29300 34.66200
C  36.46200 3.19900 34.70800
C  36.77700 2.75300 33.22400
C  37.24000 4.44200 35.24000
C  34.03800 2.22100 35.39500
C  33.70100 2.56500 36.86100
H  34.72400 3.47900 37.67300
N  37.73600 1.79200 30.50400
C  38.43100 1.62500 31.66100
C  39.58500 0.84100 31.36900
C  39.62700 0.61700 29.97700
C  38.38700 1.19600 29.48700
C  40.59100 0.28600 32.48000
C  40.62600 -0.18100 29.16700
O  40.63000 -0.33100 27.97800
C  41.70500 -0.81100 29.91000
N  35.73700 2.25000 28.09100
C  36.69300 1.37800 27.58600
C  36.35300 0.89300 26.16400
C  34.87600 1.37800 26.00800
C  34.64600 2.22700 27.28700
C  37.37800 1.45600 25.14800
C  33.94100 0.12600 25.78000
C  33.06200 0.08600 24.49800
N  33.88100 3.23900 29.94500
C  33.06000 3.26600 28.87400
C  31.70900 3.50200 29.31100
C  31.78200 3.70100 30.67000
C  33.18300 3.55800 31.02100
C  30.49500 3.48500 28.40900
C  31.05000 3.98400 31.88500
O  29.89200 4.29000 32.04100
C  32.06600 3.94400 33.06500
C  32.04800 5.23900 33.81400
O  32.06300 6.32000 33.32400
O  32.00400 4.99300 35.15000
C  31.69700 6.14200 36.00300
H  38.49800 1.89100 33.85100
H  38.55200 0.44200 27.54800
H  32.66700 2.78300 26.83500
H  34.68300 4.25600 35.10700
H  36.66800 2.31000 35.30500
H  36.54100 5.18600 35.62100
H  37.83900 4.81000 34.40700
H  37.83400 4.18900 36.11800
H  34.74000 1.38800 35.35700
H  33.15000 1.93800 34.83100
H  33.63300 1.59700 37.35600
H  32.69300 2.98100 36.86200
H  40.84100 -0.77000 32.38000
H  40.18500 0.50500 33.46800
H  41.50500 0.86000 32.32900
H  42.49900 -1.00200 29.18700
H  41.39200 -1.72800 30.40900
H  42.09900 -0.09600 30.63200
H  36.40200 -0.19200 26.07900
H  34.71300 1.97800 25.11300
H  37.84700 0.59400 24.67400
H  38.15900 1.95800 25.71800
H  36.76300 2.01900 24.44500
H  33.27400 0.13000 26.64200
H  34.40600 -0.85800 25.82400
H  33.22900 1.00000 23.92800
H  32.00200 0.08800 24.75200
H  33.28500 -0.80200 23.90700
H  30.53900 2.52200 27.90100
H  30.35400 4.32300 27.72600
H  29.58700 3.47300 29.01200
H  31.76900 3.18500 33.79000
H  31.69100 7.10500 35.49200
H  32.47700 6.19500 36.76200
H  30.77200 6.09200 36.57700

