158

Mg 24.32700 -5.58900 46.16000
C  26.90600 -3.53800 44.80800
C  22.06700 -4.07000 44.02600
C  22.18600 -8.13100 46.68600
C  26.81900 -7.47300 47.79600
N  24.58100 -4.09000 44.51900
C  25.68100 -3.36100 44.17900
C  25.31100 -2.42500 42.94200
C  23.71600 -2.36800 42.95100
C  23.40500 -3.60500 43.96200
C  23.18900 -0.94200 43.30200
C  25.90100 -2.96700 41.68200
C  26.96400 -2.14400 40.82300
H  26.93000 -2.30300 39.36300
N  22.31600 -5.89900 45.61100
C  21.56800 -5.16300 44.69600
C  20.23400 -5.70800 44.64600
C  20.26900 -6.89400 45.46400
C  21.66700 -7.03000 45.92400
C  19.05700 -5.15200 43.86700
C  19.04000 -7.70700 45.76900
O  17.93400 -7.34100 45.30000
C  19.05200 -8.95200 46.64500
N  24.47900 -7.55400 47.08700
C  23.40700 -8.37900 47.23400
C  23.73900 -9.72300 48.04100
C  25.22600 -9.37900 48.39300
C  25.54300 -8.05600 47.73200
C  22.82700 -9.95200 49.22900
C  26.13700 -10.52100 47.87900
C  26.81400 -11.30700 48.95200
N  26.43300 -5.55400 46.35200
C  27.24200 -6.24000 47.19200
C  28.53300 -5.63200 47.23500
C  28.41100 -4.54000 46.33100
C  27.14900 -4.57900 45.77100
C  29.70000 -6.04300 48.08500
C  29.17700 -3.44600 45.71900
O  30.27400 -3.01400 45.86000
C  28.18000 -2.71000 44.66500
C  27.81900 -1.35500 45.09800
O  28.04200 -0.31800 44.41800
O  27.14100 -1.37800 46.25800
C  26.24100 -0.17200 46.59100
H  21.31600 -3.48500 43.49000
H  21.46100 -8.81200 47.13800
H  27.62700 -7.97600 48.33200
H  25.70100 -1.41700 43.07700
H  23.26600 -2.48700 41.96500
H  22.23300 -1.01200 42.78400
H  23.70100 -0.18300 42.71000
H  23.24500 -0.74400 44.37200
H  25.07200 -3.15400 41.00000
H  26.35900 -3.94400 41.83900
H  27.94900 -2.25900 41.27500
H  26.69900 -1.12800 41.11300
H  19.34000 -4.34000 43.19700
H  18.26300 -4.80500 44.52800
H  18.69100 -5.98000 43.25900
H  19.46500 -9.80800 46.11200
H  17.98200 -9.00000 46.84800
H  19.56800 -8.70300 47.57200
H  23.64200 -10.49600 47.27800
H  25.36400 -9.16300 49.45200
H  21.78700 -9.80400 48.93700
H  23.11400 -9.27400 50.03200
H  22.83500 -10.99500 49.54700
H  26.97000 -10.12500 47.29700
H  25.71500 -11.30400 47.24800
H  26.19700 -12.17600 49.17900
H  26.81700 -10.73200 49.87800
H  27.82000 -11.51700 48.58900
H  29.58200 -6.02400 49.16900
H  30.54400 -5.37200 47.92800
H  30.03800 -7.01300 47.72000
H  28.56500 -2.64100 43.64800
H  25.41000 0.02200 45.91300
H  26.77800 0.77500 46.63600
H  25.69400 -0.38600 47.50900
Mg 35.36700 48.79700 25.97500
C  35.61100 47.07800 29.04600
C  33.93700 51.48600 27.69800
C  34.44300 50.14300 23.00500
C  36.36400 45.81500 24.36400
N  34.67200 49.15700 28.14700
C  35.07400 48.43000 29.22300
C  34.74100 49.06200 30.60000
C  34.03200 50.41500 30.09100
C  34.24200 50.38900 28.55200
C  32.51900 50.51500 30.35400
C  36.03100 49.35100 31.39200
C  36.02700 49.32000 32.93600
H  34.62300 49.39200 33.69600
N  34.46700 50.63800 25.46000
C  34.04000 51.57500 26.29300
C  33.79800 52.77400 25.49700
C  33.75700 52.34900 24.15300
C  34.18900 50.96800 24.16200
C  33.62400 54.18800 26.14500
C  33.43100 53.18000 22.84600
O  33.31500 52.67200 21.74100
C  33.17100 54.64600 22.94900
N  35.43200 48.23200 24.03500
C  35.00100 48.90900 22.96100
C  35.31100 48.12400 21.60600
C  36.09300 46.87600 22.12800
C  35.97900 46.96500 23.62200
C  34.02300 47.80900 20.68400
C  37.56500 46.73000 21.59000
C  38.76900 47.37000 22.37400
N  35.99500 46.81300 26.55600
C  36.37700 45.71800 25.79500
C  36.65400 44.60400 26.65400
C  36.41100 45.11100 27.96900
C  35.95700 46.41000 27.81400
C  37.06300 43.18500 26.27900
C  36.43100 44.76400 29.42000
O  36.68100 43.73600 29.97300
C  35.81500 46.02300 30.15200
C  34.52100 45.66900 30.69100
O  33.41100 45.76900 30.11200
O  34.76400 45.14100 31.96200
C  33.64700 44.44000 32.56200
H  33.55100 52.34000 28.25800
H  34.05500 50.54600 22.06700
H  36.74000 44.90700 23.88800
H  34.05800 48.40600 31.13900
H  34.47500 51.31500 30.51700
H  31.86400 50.49200 29.48300
H  32.34000 51.35900 31.01900
H  32.28200 49.65700 30.98400
H  36.56300 50.27700 31.17600
H  36.70500 48.55100 31.08700
H  36.64100 50.17900 33.20700
H  36.51100 48.42300 33.32300
H  34.56600 54.68100 25.90500
H  33.50900 54.31800 27.22100
H  32.84500 54.67700 25.55900
H  32.17000 54.81900 23.34300
H  33.19300 55.19400 22.00700
H  33.86900 55.19200 23.58200
H  35.95000 48.59800 20.86200
H  35.64500 45.94800 21.77000
H  33.27800 47.08500 21.01300
H  34.40500 47.50400 19.70900
H  33.41000 48.70900 20.63800
H  37.58900 47.03800 20.54400
H  37.71400 45.65800 21.72000
H  39.43000 47.67400 21.56200
H  39.28500 46.64600 23.00500
H  38.40500 48.18100 23.00400
H  36.55200 42.72300 25.43400
H  36.88700 42.57600 27.16500
H  38.12700 43.10700 26.05600
H  36.46700 46.36100 30.95800
H  33.29200 43.77200 31.77700
H  32.93200 45.15600 32.96700
H  34.03700 43.93900 33.44800

