158

Mg -1.82600 17.71100 26.99600
C  -2.88300 15.53200 29.49800
C  -2.83600 20.30400 28.81900
C  -1.15700 19.59900 24.32800
C  -1.93500 14.82600 24.67900
N  -2.71500 17.83900 28.99900
C  -2.88500 16.86400 29.92200
C  -3.19200 17.48000 31.34100
C  -3.47500 18.97600 30.99100
C  -2.96600 19.07600 29.50300
C  -4.90300 19.51600 31.32400
C  -2.06900 17.37800 32.31000
C  -2.41000 16.71100 33.61500
H  -1.46500 16.78200 34.79100
N  -2.00100 19.72800 26.66300
C  -2.32900 20.64100 27.57300
C  -2.02500 21.93500 27.01400
C  -1.39900 21.74500 25.79000
C  -1.49000 20.32700 25.48600
C  -2.32000 23.28000 27.77200
C  -0.79400 22.78400 24.96000
O  -0.25600 22.52800 23.84200
C  -0.59300 24.13500 25.41400
N  -1.73700 17.23400 24.77600
C  -1.25800 18.26800 23.92900
C  -1.03700 17.72100 22.57900
C  -1.10200 16.18400 22.68500
C  -1.73500 16.08500 24.12900
C  -1.88500 18.28500 21.35200
C  0.22700 15.58800 22.46400
C  1.35000 15.91900 23.46100
N  -2.29100 15.59400 27.05500
C  -2.22700 14.63000 26.07900
C  -2.54700 13.32600 26.72700
C  -2.79700 13.62100 28.07100
C  -2.70300 15.07300 28.19900
C  -2.26500 12.00800 26.21300
C  -3.04400 12.98400 29.36500
O  -3.24000 11.77300 29.66700
C  -2.93700 14.27600 30.38800
C  -1.71100 14.17500 31.33100
O  -0.53000 14.50100 31.16800
O  -2.18100 13.39200 32.36900
C  -1.13700 13.17200 33.45100
H  -3.00000 21.18800 29.43900
H  -0.75800 20.31600 23.60800
H  -1.95000 13.96000 24.01400
H  -4.11400 17.00600 31.67700
H  -2.79200 19.68200 31.46400
H  -4.88000 20.34200 32.03500
H  -5.63500 18.79300 31.68200
H  -5.29500 19.90700 30.38500
H  -1.61000 18.32300 32.60100
H  -1.27300 16.80700 31.83200
H  -2.64100 15.66600 33.40800
H  -3.33500 17.20000 33.92100
H  -3.04300 23.21900 28.58600
H  -2.70400 23.87300 26.94200
H  -1.37900 23.74100 28.07300
H  -0.04800 24.12400 26.35700
H  -1.54800 24.64600 25.53600
H  0.00900 24.72600 24.72400
H  -0.01000 17.88000 22.25200
H  -1.85800 15.72100 22.05100
H  -1.14900 18.37100 20.55300
H  -2.39000 19.21800 21.60400
H  -2.62900 17.60300 20.94100
H  0.58900 16.02800 21.53500
H  0.17400 14.51100 22.30900
H  0.92900 16.23700 24.41500
H  2.11200 16.61400 23.10900
H  1.92900 15.00600 23.59800
H  -1.26300 11.92500 25.79300
H  -2.85600 11.69000 25.35500
H  -2.34600 11.31400 27.05000
H  -3.82900 14.47200 30.98300
H  -1.06700 12.11600 33.19400
H  -1.58700 13.32700 34.43200
H  -0.22200 13.72500 33.24200
Mg -1.29100 34.40900 26.62300
C  -3.54100 32.78500 28.96600
C  -0.32000 36.53800 29.19400
C  0.61300 36.01200 24.46700
C  -2.61700 32.34900 24.06700
N  -1.89700 34.65200 28.81500
C  -2.69700 33.77700 29.51800
C  -2.72400 34.14400 31.01400
C  -1.76900 35.44800 31.08400
C  -1.33900 35.61100 29.61300
C  -2.46700 36.69000 31.68500
C  -2.36800 32.96200 31.95200
C  -1.62500 33.25300 33.26500
H  -2.20500 32.80700 34.62500
N  0.12900 36.00300 26.80400
C  0.39700 36.71300 27.93500
C  1.25900 37.85000 27.58200
C  1.40300 37.80000 26.19800
C  0.76500 36.54300 25.75500
C  1.58300 38.91500 28.60400
C  2.04200 38.79000 25.34100
O  2.14500 38.60400 24.11200
C  2.64200 40.02700 25.89000
N  -1.01600 34.20000 24.61300
C  -0.12200 34.96000 23.95000
C  -0.13400 34.49600 22.44200
C  -0.96000 33.12900 22.47900
C  -1.58100 33.23800 23.80600
C  -0.77800 35.61400 21.45100
C  -0.14600 31.84900 22.30100
C  -0.85800 30.63300 21.80900
N  -2.82100 32.90100 26.46300
C  -3.28800 32.22500 25.35000
C  -4.29700 31.27500 25.73200
C  -4.45700 31.51600 27.09700
C  -3.54000 32.49200 27.50400
C  -5.10900 30.27800 24.80500
C  -5.23100 31.15300 28.21000
O  -6.22400 30.46900 28.33100
C  -4.65600 31.89200 29.48400
C  -5.67800 32.75600 30.19400
O  -6.32000 33.74700 29.76200
O  -6.00100 32.27000 31.42300
C  -7.21100 32.65300 32.17200
H  -0.08200 37.32200 29.91600
H  1.09100 36.42100 23.57400
H  -2.91400 31.61900 23.31100
H  -3.77000 34.38600 31.20400
H  -0.80900 35.23300 31.55400
H  -3.55000 36.58200 31.75000
H  -2.38500 37.47000 30.92800
H  -2.15900 37.01700 32.67800
H  -1.91700 32.12500 31.41900
H  -3.35100 32.64200 32.29800
H  -1.60300 34.33900 33.35600
H  -0.62400 32.82900 33.19600
H  1.53600 38.55900 29.63300
H  0.92400 39.76900 28.45100
H  2.65600 39.09400 28.52700
H  1.96300 40.58500 26.53500
H  2.90500 40.68200 25.05900
H  3.57200 39.80800 26.41400
H  0.86500 34.33200 22.03800
H  -1.69100 33.11600 21.67000
H  -1.33100 36.46200 21.85500
H  -1.37800 35.20700 20.63700
H  0.11500 36.09400 21.05200
H  0.44500 31.69700 23.20400
H  0.66200 32.07100 21.60400
H  -0.20300 30.36900 20.97800
H  -1.78300 30.87800 21.28800
H  -0.98400 29.88500 22.59100
H  -4.57400 30.09100 23.87400
H  -6.14200 30.58800 24.64600
H  -5.16800 29.36200 25.39200
H  -4.26700 31.15400 30.18500
H  -7.98900 33.05700 31.52400
H  -6.89400 33.33000 32.96600
H  -7.55800 31.72600 32.62800

