158

Mg 8.60000 47.84700 27.31900
C  7.03100 47.65600 30.32200
C  11.74600 48.22200 29.09100
C  10.34200 48.58200 24.52300
C  5.57900 48.06300 25.68000
N  9.32200 47.98400 29.52700
C  8.45200 47.86400 30.56800
C  9.19100 47.99000 31.87200
C  10.69200 48.36600 31.44900
C  10.62800 48.15000 29.88800
C  11.24900 49.74000 31.94800
C  9.09300 46.76400 32.81300
C  8.96600 47.03600 34.31200
H  9.53300 45.99100 35.26100
N  10.79200 48.06500 26.83000
C  11.86700 48.18100 27.63100
C  13.06400 48.35700 26.83200
C  12.63500 48.26800 25.49600
C  11.15400 48.32800 25.54600
C  14.43900 48.70700 27.55500
C  13.50500 48.25300 24.30600
O  13.11300 48.27100 23.14300
C  15.08200 48.20700 24.48300
N  8.08200 48.20600 25.42200
C  8.95800 48.64200 24.43100
C  8.16000 48.99400 23.21700
C  6.73000 48.31600 23.47700
C  6.77800 48.07100 24.94400
C  8.02200 50.49500 22.92900
C  6.51900 47.05500 22.60400
C  5.40500 47.21200 21.51000
N  6.65000 47.78500 27.79500
C  5.49400 47.86400 27.02000
C  4.32700 47.74000 27.90800
C  4.88800 47.60300 29.19700
C  6.29200 47.69000 29.07000
C  2.83000 47.67000 27.51400
C  4.57100 47.49600 30.58100
O  3.49700 47.42700 31.13900
C  5.92100 47.56900 31.37800
C  5.91800 46.19800 32.04400
O  5.79900 45.12500 31.42100
O  5.95900 46.31800 33.37500
C  6.33900 45.08500 34.10400
H  12.64800 48.45500 29.66100
H  10.82700 48.81600 23.57300
H  4.69500 48.03900 25.03900
H  8.79000 48.89700 32.32600
H  11.35500 47.59900 31.85000
H  11.10500 50.48500 31.16600
H  12.29500 49.53500 32.17700
H  10.75800 50.07600 32.86200
H  9.95300 46.13100 32.59600
H  8.32500 46.07400 32.46300
H  7.90700 47.22100 34.49000
H  9.51600 47.94800 34.54500
H  14.30400 49.10800 28.56000
H  14.90500 49.40100 26.85500
H  14.91500 47.72900 27.63300
H  15.26900 47.44600 25.24000
H  15.51500 49.13900 24.84600
H  15.51100 47.87700 23.53700
H  8.63900 48.47800 22.38500
H  5.87900 48.97300 23.29500
H  8.73800 50.76000 22.15100
H  8.17600 51.07200 23.84100
H  7.03100 50.70300 22.52700
H  6.13100 46.22500 23.19400
H  7.45900 46.65900 22.21900
H  4.49500 46.83300 21.97500
H  5.67400 46.68800 20.59300
H  5.39700 48.26100 21.21400
H  2.35000 47.11500 28.32000
H  2.70000 47.10500 26.59100
H  2.41900 48.67900 27.46600
H  5.93800 48.40100 32.08300
H  6.49900 45.22000 35.17400
H  7.18800 44.52800 33.70900
H  5.44200 44.46800 34.04200
Mg -11.00200 17.51200 43.13700
C  -7.56000 18.38000 42.99100
C  -11.72000 20.78300 42.55900
C  -14.35000 16.62500 42.85000
C  -10.17300 14.15600 43.18600
N  -9.74000 19.32800 42.72900
C  -8.36200 19.49400 42.77400
C  -7.87600 20.95300 42.74400
C  -9.29000 21.61400 42.98000
C  -10.29500 20.47900 42.71800
C  -9.34500 22.09100 44.45500
C  -7.33300 21.34400 41.25100
C  -5.86000 21.55400 41.20700
H  -5.11600 20.87500 40.08400
N  -12.81400 18.58400 42.87800
C  -12.87500 19.89600 42.71300
C  -14.23100 20.30400 42.80100
C  -15.07900 19.14900 42.80900
C  -14.10000 18.02100 42.91000
C  -14.60400 21.79000 42.81600
C  -16.62100 19.13600 42.77100
O  -17.21000 20.21300 42.57800
C  -17.49800 17.87000 42.81300
N  -12.17100 15.70400 42.99700
C  -13.50500 15.56200 42.98400
C  -13.94700 14.18000 43.40100
C  -12.60600 13.34100 43.06100
C  -11.58900 14.43800 43.06400
C  -14.43900 14.01100 44.92900
C  -12.57900 12.58700 41.73500
C  -12.53500 11.01200 41.80900
N  -9.22700 16.40000 43.17900
C  -8.99100 15.05200 43.23400
C  -7.56000 14.75500 43.15900
C  -6.97900 16.06400 43.19900
C  -8.02100 17.01500 43.12500
C  -6.79900 13.45000 43.22900
C  -5.74000 16.81300 43.27500
O  -4.56600 16.48100 43.31500
C  -6.09700 18.34700 43.22800
C  -5.81900 18.93400 44.48100
O  -6.23000 18.48800 45.57900
O  -5.06200 20.08600 44.34100
C  -4.96300 20.96500 45.61000
H  -11.91300 21.84800 42.70400
H  -15.42700 16.45000 42.80800
H  -9.94900 13.09000 43.27000
H  -7.18500 21.08100 43.57800
H  -9.61000 22.42100 42.32200
H  -8.42300 22.16100 45.03300
H  -10.08100 21.38900 44.84800
H  -9.85600 23.05000 44.53500
H  -7.73700 22.30400 40.93000
H  -7.58900 20.53400 40.56800
H  -5.56200 21.32500 42.23000
H  -5.72900 22.62300 41.04100
H  -14.88300 22.14400 41.82300
H  -13.78400 22.38100 43.22300
H  -15.51800 21.88200 43.40300
H  -17.41400 17.10000 42.04600
H  -18.52000 18.17700 42.59000
H  -17.58500 17.37900 43.78200
H  -14.70600 13.64500 42.83000
H  -12.33900 12.66800 43.87600
H  -14.30300 14.98700 45.39600
H  -13.82800 13.28800 45.46900
H  -15.50700 13.83600 45.06000
H  -11.62900 12.80500 41.24800
H  -13.41900 12.86700 41.09900
H  -13.27100 10.66900 41.08200
H  -12.83300 10.68200 42.80400
H  -11.51800 10.68500 41.59600
H  -6.24800 13.52000 44.16700
H  -6.14100 13.48000 42.36100
H  -7.42500 12.55800 43.26800
H  -5.50200 18.94200 42.53500
H  -4.46800 20.37000 46.37700
H  -5.95300 21.28700 45.93100
H  -4.37800 21.85600 45.38100

