158

Mg 48.22000 44.72900 42.39700
C  44.85400 43.97400 42.19500
C  48.82600 41.27900 41.89000
C  51.47700 45.37100 42.16500
C  47.40000 48.09200 42.07600
N  46.96500 42.80300 41.95100
C  45.57800 42.82400 41.99600
C  44.99200 41.38800 41.96600
C  46.33800 40.49800 42.09900
C  47.47100 41.55400 41.96900
C  46.51400 39.52600 43.28800
C  43.92900 41.10500 40.80200
C  44.07900 41.96100 39.53100
H  44.34300 41.18300 38.24400
N  49.98000 43.50600 42.10200
C  49.99200 42.15500 41.95900
C  51.38300 41.74100 41.84000
C  52.19100 42.91400 41.95900
C  51.25700 43.97900 42.13700
C  51.74000 40.25300 41.66000
C  53.72100 42.98800 41.72000
O  54.38300 42.02800 41.28000
C  54.41600 44.31100 41.89400
N  49.26400 46.48000 42.12000
C  50.64200 46.45500 42.15200
C  51.23900 47.91500 42.13000
C  49.90600 48.79900 42.08100
C  48.73300 47.75300 41.99400
C  52.29700 48.21800 43.18800
C  49.78200 49.75200 40.90700
C  50.00300 51.25500 41.20300
N  46.45600 45.85700 42.26000
C  46.27400 47.27400 42.17600
C  44.87200 47.59800 42.23600
C  44.23800 46.33800 42.35300
C  45.26400 45.34200 42.33100
C  44.33600 48.96100 42.14700
C  42.98000 45.65500 42.39000
O  41.83000 46.05000 42.38700
C  43.30000 44.09600 42.33600
C  42.71300 43.44400 43.53900
O  41.89900 42.54300 43.57900
O  43.33400 43.99200 44.64400
C  42.96000 43.52000 46.03000
H  49.13300 40.23900 41.76200
H  52.50100 45.74600 42.21800
H  47.16500 49.15900 42.08900
H  44.36100 41.37700 42.85500
H  46.50100 39.92200 41.18800
H  46.56900 38.51800 42.87900
H  45.72600 39.55600 44.04100
H  47.49200 39.64900 43.75300
H  42.92000 41.29200 41.16800
H  43.93400 40.04100 40.56400
H  44.82300 42.75500 39.59900
H  43.15500 42.53900 39.54000
H  52.82400 40.17400 41.58100
H  51.33800 39.77500 40.76700
H  51.36700 39.73200 42.54200
H  54.14100 45.13800 41.24000
H  55.48800 44.11300 41.87000
H  54.12600 44.57000 42.91300
H  51.77400 47.90500 41.18000
H  49.61700 49.34100 42.98200
H  52.03400 47.55000 44.00800
H  52.17900 49.25200 43.51100
H  53.35200 48.03900 42.98100
H  48.79600 49.73100 40.44500
H  50.52200 49.51400 40.14200
H  49.18400 51.82600 40.76400
H  50.84200 51.77600 40.74200
H  50.30900 51.45500 42.22900
H  44.77300 49.53700 41.33100
H  44.53800 49.42200 43.11400
H  43.25500 48.99900 42.01200
H  42.78700 43.66000 41.47900
H  42.12700 44.12500 46.38800
H  43.84900 43.69500 46.63500
H  42.59100 42.49500 46.07100
Mg 42.27100 41.72700 26.34500
C  40.96300 43.93000 28.64900
C  42.90700 39.48100 28.80000
C  43.51400 39.73800 23.99500
C  41.69100 44.24100 23.92300
N  42.08300 41.76300 28.53900
C  41.36000 42.71700 29.23700
C  41.31500 42.37500 30.76400
C  42.02200 40.99000 30.73400
C  42.37300 40.68700 29.27400
C  43.26600 40.77000 31.60100
C  39.90700 42.39400 31.38600
C  39.58000 41.66000 32.63100
H  39.30200 42.50000 33.88500
N  42.92000 39.85400 26.38100
C  43.10200 39.00800 27.44600
C  43.46700 37.67700 27.05800
C  43.60700 37.74100 25.63900
C  43.40800 39.20800 25.29400
C  43.50500 36.45600 27.98100
C  43.70200 36.68400 24.62300
O  43.94900 36.79900 23.43900
C  43.61500 35.22800 25.11200
N  42.48200 41.93800 24.21500
C  43.24200 41.03500 23.51500
C  43.56500 41.52900 22.14300
C  42.68300 42.81500 21.99000
C  42.24500 43.04100 23.46100
C  45.13200 41.67900 21.94200
C  41.51900 42.77200 21.01000
C  40.07300 43.03400 21.42900
N  41.55100 43.62600 26.24800
C  41.36100 44.54100 25.20500
C  40.72900 45.78200 25.64600
C  40.64600 45.59500 27.05300
C  41.08200 44.27800 27.33600
C  40.29700 46.96100 24.88800
C  40.20900 46.22800 28.28700
O  39.74900 47.36200 28.47200
C  40.46700 45.16400 29.37200
C  41.50100 45.74600 30.30500
O  42.68100 45.75400 30.18100
O  40.93600 46.17600 31.47700
C  41.76100 46.50500 32.64600
H  43.29200 38.79100 29.55400
H  44.01300 39.28200 23.13800
H  41.56300 45.03300 23.18200
H  42.03000 43.03200 31.26000
H  41.22600 40.29100 30.99000
H  44.11600 40.75700 30.91900
H  43.16700 39.86800 32.20500
H  43.40100 41.62200 32.26800
H  39.13500 42.09700 30.67600
H  39.66800 43.45400 31.48200
H  40.48400 41.09500 32.85500
H  38.80300 40.91100 32.48000
H  44.45100 36.01500 27.66600
H  42.66000 35.80700 27.75000
H  43.54100 36.72100 29.03800
H  43.54000 34.63700 24.19900
H  42.63700 35.10700 25.57900
H  44.55500 34.94600 25.58500
H  43.18900 40.83500 21.39100
H  43.27800 43.71100 21.81100
H  45.67600 41.42000 22.85100
H  45.31300 42.74500 21.80200
H  45.54500 41.10400 21.11300
H  41.58200 41.84200 20.44500
H  41.75100 43.50700 20.23800
H  39.43900 42.57400 20.67200
H  39.88200 44.08600 21.21800
H  39.74800 42.78100 22.43900
H  39.77900 46.57600 24.00900
H  41.04000 47.72600 24.66400
H  39.72900 47.59600 25.56800
H  39.52700 45.04800 29.91300
H  41.57500 47.50000 33.04900
H  42.81500 46.57100 32.37600
H  41.59300 45.70300 33.36500

