158

Mg 53.58800 24.71400 45.06500
C  50.74000 26.70800 44.35900
C  51.95700 22.01800 43.57300
C  56.47500 23.39900 44.69800
C  55.16400 27.92000 45.76900
N  51.76700 24.50300 43.83500
C  50.70600 25.40500 43.69300
C  49.53200 24.74700 42.88600
C  49.76500 23.27900 43.42100
C  51.27300 23.23700 43.54500
C  49.00700 22.88500 44.69800
C  49.85800 24.97600 41.37700
C  48.58800 25.41700 40.54100
H  48.32000 24.54900 39.27100
N  54.14800 22.87100 44.40200
C  53.29400 21.85900 43.83200
C  54.13200 20.70700 43.56300
C  55.51200 21.06700 43.78200
C  55.43200 22.48200 44.38400
C  53.54200 19.36100 43.08300
C  56.75500 20.19100 43.57200
O  56.66000 19.07800 43.09400
C  58.14800 20.62700 43.81900
N  55.54800 25.54100 45.03100
C  56.57300 24.71900 44.98600
C  57.90500 25.45600 45.26600
C  57.45300 26.92300 45.60000
C  55.93100 26.79600 45.45900
C  58.74100 24.88200 46.43200
C  58.16100 28.08500 44.82000
C  59.01100 29.14800 45.59700
N  53.00200 26.72300 45.47700
C  53.75400 27.83000 45.78200
C  52.84800 28.91300 46.01900
C  51.64500 28.55000 45.46200
C  51.81900 27.24000 45.10600
C  53.31400 30.23900 46.58600
C  50.29800 28.96900 45.16100
O  49.81000 30.04400 45.37300
C  49.68300 27.77200 44.36100
C  49.33800 28.38600 43.06500
O  50.19300 28.61800 42.19700
O  48.02300 28.72600 43.16000
C  47.56900 29.46300 41.97700
H  51.32800 21.15300 43.35000
H  57.40300 22.82700 44.74400
H  55.73300 28.83500 45.94800
H  48.58600 25.21100 43.16400
H  49.43200 22.67400 42.57700
H  49.79800 22.71500 45.42800
H  48.54800 21.91600 44.50500
H  48.37600 23.70900 45.03200
H  50.22300 23.99000 41.08900
H  50.60600 25.76200 41.27700
H  48.82100 26.40000 40.13300
H  47.64300 25.46800 41.08200
H  53.64300 19.18400 42.01300
H  52.52000 19.43900 43.45500
H  53.91500 18.53000 43.68100
H  58.31800 21.43100 43.10400
H  58.93100 19.87300 43.73600
H  58.05700 21.00100 44.83900
H  58.43500 25.36900 44.31800
H  57.69400 27.11000 46.64600
H  58.13400 24.07600 46.84500
H  59.03200 25.63700 47.16200
H  59.72700 24.58100 46.07900
H  57.36400 28.65300 44.33900
H  58.74000 27.63000 44.01600
H  60.05600 28.84400 45.53200
H  58.83100 29.24600 46.66800
H  58.77900 30.12100 45.16400
H  52.46500 30.62700 47.14800
H  53.56800 31.08500 45.94600
H  54.08800 29.89500 47.27100
H  48.79100 27.28900 44.76000
H  46.58800 29.89200 42.18000
H  47.54600 28.65600 41.24400
H  48.18600 30.33200 41.75000
Mg 6.78400 53.82400 41.16000
C  6.29400 50.33200 41.66600
C  9.89700 53.10100 39.78800
C  7.08900 56.99900 40.32700
C  3.70800 54.31500 42.73700
N  7.84300 51.98500 40.53300
C  7.49800 50.66500 41.02400
C  8.65400 49.75100 40.69300
C  9.88900 50.71000 40.53700
C  9.15000 52.04400 40.31200
C  10.90500 50.75200 41.71300
C  8.37200 48.91000 39.44600
C  7.34100 49.31300 38.40400
H  6.70800 48.23700 37.45500
N  8.20700 54.89400 40.05500
C  9.39000 54.40300 39.53700
C  10.14100 55.49200 39.03100
C  9.40000 56.70400 39.21600
C  8.18300 56.24200 39.89600
C  11.48600 55.29500 38.33000
C  9.88100 58.08000 38.77900
O  10.88800 58.12200 38.06000
C  9.22100 59.30600 39.27300
N  5.41900 55.41400 41.30200
C  5.87200 56.66700 40.98300
C  4.78100 57.68200 41.34500
C  3.84200 56.87000 42.30400
C  4.36300 55.42100 42.16200
C  5.34800 58.97600 41.89000
C  2.32100 56.96700 42.01600
C  1.32600 57.01200 43.14900
N  5.31200 52.59900 42.04500
C  4.09700 52.92900 42.68300
C  3.40500 51.71200 43.23100
C  4.31200 50.67900 42.89300
C  5.33300 51.29400 42.04800
C  2.20400 51.68400 44.03500
C  4.61600 49.21900 43.00300
O  3.97900 48.31900 43.56700
C  5.84800 48.93100 42.07800
C  5.68600 47.90700 41.00700
O  5.02900 48.11400 39.99300
O  6.30700 46.68900 41.36700
C  6.26700 45.63000 40.38600
H  10.90600 52.81900 39.47800
H  7.17900 58.08300 40.22600
H  2.72000 54.38400 43.19700
H  8.88400 49.08600 41.52500
H  10.38700 50.43200 39.60800
H  11.92500 50.54100 41.39500
H  10.56200 50.05700 42.47900
H  10.84500 51.77300 42.09200
H  8.05700 47.93500 39.81900
H  9.31500 48.86700 38.90100
H  7.96900 49.89000 37.72500
H  6.46600 49.78700 38.85000
H  11.57100 55.47700 37.25800
H  11.93000 54.31600 38.50600
H  12.16000 56.04500 38.74300
H  9.37000 59.43100 40.34600
H  8.18100 59.30300 38.94500
H  9.68000 60.16500 38.78400
H  4.03400 57.92800 40.59000
H  3.87500 57.17700 43.34900
H  6.40800 58.99400 42.14100
H  4.81300 59.12700 42.82800
H  5.16900 59.87200 41.29600
H  2.03000 56.04500 41.51400
H  2.11900 57.71000 41.24400
H  0.45800 57.60500 42.86200
H  1.84500 57.37800 44.03500
H  0.96200 56.03700 43.47500
H  1.87700 50.66500 44.24200
H  1.34800 52.26500 43.69100
H  2.40700 52.22700 44.95800
H  6.51300 48.38500 42.74700
H  6.36500 44.66700 40.88800
H  7.19900 45.79300 39.84400
H  5.40400 45.64900 39.72100

