158

Mg 36.27800 1.12800 29.92400
C  33.77600 1.98700 32.42400
C  38.56500 0.96700 32.59300
C  38.68300 0.61600 27.71800
C  33.90200 1.65400 27.50900
N  36.12400 1.42000 32.33300
C  35.01400 1.78600 33.06200
C  35.37900 1.96200 34.57100
C  36.92900 1.82600 34.52300
C  37.24600 1.32300 33.09500
C  37.68700 3.14800 34.80500
C  34.71900 0.78400 35.26800
C  34.38900 1.04100 36.78000
H  34.81200 2.31600 37.55200
N  38.29600 0.62800 30.14200
C  39.01000 0.57700 31.29100
C  40.37300 0.05900 30.89700
C  40.45200 -0.00600 29.51100
C  39.10300 0.43400 29.04100
C  41.43900 -0.05400 31.99200
C  41.63200 -0.32300 28.49800
O  41.47300 -0.38400 27.27000
C  42.92400 -0.70800 29.08000
N  36.27100 1.07900 27.93200
C  37.42000 0.87500 27.17000
C  37.09300 1.02900 25.67200
C  35.52600 1.06400 25.62900
C  35.19000 1.30900 27.07500
C  37.70200 2.27200 25.00700
C  34.99900 -0.32900 25.11000
C  33.93800 -0.26800 23.99800
N  34.28300 1.69900 29.86000
C  33.44600 1.78800 28.83300
C  32.14500 2.10200 29.27000
C  32.21800 2.21900 30.68600
C  33.55000 1.95400 30.99000
C  30.93300 2.27300 28.42400
C  31.47900 2.63300 31.84100
O  30.34200 3.05400 32.00100
C  32.45600 2.44700 33.02600
C  32.67700 3.73900 33.71000
O  33.52300 4.54100 33.36900
O  31.68600 3.86700 34.66200
C  31.66600 5.16400 35.35600
H  39.24800 0.98200 33.44600
H  39.35800 0.66900 26.86200
H  33.14300 1.93300 26.77400
H  35.03900 2.86900 35.07100
H  37.21600 0.98800 35.15900
H  36.95400 3.94200 34.94700
H  38.33800 3.51500 34.01100
H  38.11300 2.95100 35.78800
H  35.40600 -0.05300 35.38800
H  33.81200 0.47400 34.74800
H  34.97700 0.36100 37.39700
H  33.32600 0.80200 36.80600
H  42.14400 0.76700 31.86400
H  41.96900 -1.00300 31.90300
H  41.13300 -0.00400 33.03700
H  43.19600 -0.14000 29.97000
H  43.72700 -0.72000 28.34400
H  42.74000 -1.75000 29.34200
H  37.58600 0.18600 25.18800
H  35.11600 1.90600 25.07200
H  38.37400 2.61800 25.79300
H  36.93700 3.02700 24.82700
H  38.38100 2.02800 24.19100
H  34.63900 -0.93400 25.94300
H  35.78500 -0.90200 24.61800
H  33.79900 0.73800 23.60200
H  33.05000 -0.69600 24.46100
H  34.26600 -0.94900 23.21300
H  31.20600 2.69700 27.45800
H  30.13100 2.73400 29.00200
H  30.48100 1.30700 28.19600
H  31.98700 1.75500 33.72600
H  31.88500 5.12400 36.42300
H  30.69000 5.58700 35.11800
H  32.39000 5.86300 34.93600
Mg 30.67000 59.56800 38.69600
C  27.72600 58.24100 37.39800
C  32.27300 56.68300 37.84300
C  33.70100 61.10000 38.93500
C  29.06600 62.61400 39.20000
N  30.14900 57.71900 37.56600
C  28.84300 57.39500 37.34600
C  28.82000 55.93900 36.87400
C  30.06100 55.34700 37.67300
C  30.89500 56.64200 37.69100
C  29.55200 54.84500 39.08200
C  28.85700 55.87600 35.29500
C  27.87400 54.87500 34.54700
H  27.09000 55.31300 33.29500
N  32.72400 58.94600 38.47600
C  33.20200 57.71300 38.13300
C  34.60800 57.59300 38.08400
C  35.11900 58.90200 38.41800
C  33.85000 59.73600 38.67100
C  35.42700 56.31700 37.76900
C  36.59200 59.29100 38.50400
O  37.45800 58.43200 38.25000
C  37.03900 60.64900 38.91800
N  31.27500 61.54600 39.01100
C  32.58600 61.98500 38.99200
C  32.70400 63.52700 39.23100
C  31.19300 63.92200 39.42600
C  30.44700 62.57500 39.21200
C  33.57300 63.94900 40.43400
C  30.70000 65.13500 38.54300
C  29.80800 66.19700 39.25500
N  28.67200 60.30600 38.58200
C  28.19300 61.55000 38.79500
C  26.73700 61.47800 38.72000
C  26.50900 60.17400 38.17300
C  27.76200 59.54200 38.01800
C  25.82000 62.63900 38.77600
C  25.45500 59.27400 37.66600
O  24.26500 59.42800 37.52300
C  26.23200 58.05400 37.08100
C  25.59300 56.84600 37.77700
O  25.60900 56.53700 38.96400
O  24.95600 56.06000 36.83800
C  24.55400 54.67800 37.24500
H  32.65800 55.68000 37.64900
H  34.63600 61.66300 38.90100
H  28.52600 63.55100 39.35300
H  27.89900 55.48500 37.23800
H  30.54900 54.65400 36.98900
H  29.75900 55.65500 39.78200
H  30.08600 53.92600 39.32200
H  28.47900 54.66900 39.00300
H  29.83900 55.47500 35.04400
H  28.85000 56.90300 34.92700
H  27.19100 54.56900 35.33900
H  28.50600 54.01400 34.32700
H  36.16100 56.59400 37.01200
H  34.76100 55.65900 37.21200
H  35.74300 55.85000 38.70100
H  38.12500 60.60900 39.00600
H  36.62400 61.01600 39.85600
H  36.92500 61.35700 38.09700
H  33.02900 64.00400 38.30700
H  30.97400 64.00600 40.49100
H  33.07500 64.81900 40.86300
H  34.60700 64.21100 40.21000
H  33.45100 63.09100 41.09500
H  30.11400 64.63900 37.76900
H  31.50700 65.67600 38.04900
H  29.90000 66.04000 40.33000
H  28.77100 65.92400 39.05800
H  30.13900 67.20600 39.00600
H  25.40000 62.74800 37.77700
H  26.34100 63.57900 38.95800
H  25.01600 62.48300 39.49500
H  25.99700 58.12000 36.01900
H  23.66000 54.67200 37.86800
H  25.33200 54.30800 37.91300
H  24.44300 54.19500 36.27400

