158

Mg 47.66800 24.66800 28.19200
C  48.54500 27.25000 30.63900
C  47.12200 22.55700 30.79200
C  47.12600 22.31400 25.89500
C  48.55500 26.96500 25.71300
N  48.02100 24.90800 30.50100
C  48.21200 26.02900 31.28300
C  47.80200 25.77600 32.76400
C  47.69600 24.21300 32.82700
C  47.50800 23.86000 31.32200
C  48.97000 23.54000 33.39900
C  46.49200 26.50500 33.16900
C  46.53900 27.29800 34.53300
H  47.17200 26.65200 35.71500
N  46.97200 22.78100 28.30800
C  46.83100 22.07700 29.49800
C  46.39600 20.73900 29.11500
C  46.36600 20.67300 27.74800
C  46.81800 21.93700 27.27500
C  45.98100 19.65000 30.19700
C  45.91400 19.48400 26.82900
O  45.66900 19.53000 25.67700
C  45.98300 18.13100 27.55900
N  47.84600 24.59800 26.09900
C  47.59200 23.47600 25.34200
C  47.64300 23.76500 23.81100
C  48.26200 25.24200 23.76700
C  48.16300 25.66500 25.27600
C  48.38100 22.70600 22.99800
C  47.57000 26.36300 22.80000
C  48.58700 27.26300 22.11500
N  48.42300 26.64700 28.13600
C  48.66300 27.43000 26.97900
C  49.13100 28.74200 27.42100
C  49.10100 28.68500 28.84000
C  48.66000 27.43300 29.21600
C  49.59600 29.89600 26.53000
C  49.33400 29.49200 30.04700
O  49.76200 30.65400 30.16600
C  48.87200 28.65400 31.30500
C  49.88500 28.46200 32.33000
O  50.95800 27.91400 32.21100
O  49.41600 29.12400 33.43200
C  49.92400 28.78200 34.80000
H  46.96100 21.86600 31.62200
H  46.90400 21.65600 25.05200
H  48.64000 27.75100 24.95900
H  48.59900 26.16500 33.39800
H  46.85900 23.92300 33.46200
H  49.23800 24.18400 34.23600
H  49.79800 23.53600 32.69000
H  48.85000 22.51800 33.76000
H  45.63800 25.83000 33.21300
H  46.17100 27.29200 32.48700
H  45.47800 27.32200 34.78300
H  46.95100 28.29400 34.37100
H  46.62400 18.77000 30.20500
H  44.99600 19.21300 30.02600
H  45.99400 20.04900 31.21100
H  45.86400 17.38400 26.77400
H  45.16500 18.02100 28.27100
H  46.98500 18.11100 27.98700
H  46.59700 23.94100 23.55900
H  49.32300 25.09700 23.56300
H  47.60600 22.28300 22.35800
H  48.89000 21.97900 23.63100
H  49.04200 23.19000 22.28000
H  46.95700 27.07100 23.35700
H  46.88900 26.04100 22.01200
H  48.63100 28.30700 22.42600
H  48.48800 27.20800 21.03100
H  49.58000 26.88100 22.35000
H  49.78300 30.67000 27.27400
H  48.81100 30.21800 25.84500
H  50.56100 29.70900 26.05900
H  48.02900 29.13800 31.79900
H  50.53300 27.87900 34.82900
H  49.12500 28.77700 35.54100
H  50.65600 29.51400 35.14200
Mg -5.55500 26.01600 25.77700
C  -4.48700 27.45300 28.75200
C  -7.57200 23.76200 27.54100
C  -6.26100 24.56400 22.88500
C  -3.14300 28.01600 24.02600
N  -5.73900 25.55200 27.86500
C  -5.40300 26.39700 28.87400
C  -6.06100 25.97400 30.18100
C  -6.71500 24.57500 29.79500
C  -6.73900 24.65300 28.27800
C  -5.86500 23.36400 30.28000
C  -6.99400 26.97800 30.86200
C  -7.03900 27.20400 32.36100
H  -6.45000 26.10000 33.20100
N  -6.74900 24.36100 25.25500
C  -7.55000 23.61300 26.10500
C  -8.28200 22.65400 25.29200
C  -7.92800 22.80000 23.92600
C  -6.95400 23.95000 23.95000
C  -9.12100 21.63000 25.93400
C  -8.29700 21.96700 22.73400
O  -7.83600 22.14600 21.62000
C  -9.36900 20.83300 22.95500
N  -4.72600 26.15600 23.75900
C  -5.19100 25.45800 22.73100
C  -4.55000 25.79900 21.41200
C  -3.60300 26.93200 21.79100
C  -3.80200 27.05100 23.28700
C  -3.78800 24.67200 20.69900
C  -3.99400 28.19800 20.92200
C  -2.86100 29.23100 20.67100
N  -4.20600 27.49400 26.22100
C  -3.35300 28.22100 25.45000
C  -2.70400 29.20500 26.23100
C  -3.09800 28.95200 27.58400
C  -4.00400 27.89400 27.51000
C  -1.74000 30.14900 25.75900
C  -2.95300 29.31900 28.99800
O  -2.24600 30.18900 29.52500
C  -3.80500 28.33000 29.75900
C  -2.83800 27.65900 30.61000
O  -2.02600 26.86200 30.23700
O  -3.05800 27.88200 31.97400
C  -2.29800 27.17000 32.96300
H  -8.13200 23.10000 28.20400
H  -6.59400 24.21000 21.90800
H  -2.41100 28.67400 23.55300
H  -5.28000 25.82900 30.92800
H  -7.77200 24.43600 30.02300
H  -5.04200 23.61200 30.95100
H  -5.38300 22.84700 29.45100
H  -6.50000 22.65100 30.80500
H  -8.00100 26.60300 30.67800
H  -6.88800 27.96000 30.40100
H  -8.10800 27.32600 32.53800
H  -6.52400 28.12200 32.64300
H  -10.13500 21.67900 25.53700
H  -9.09400 21.56800 27.02200
H  -8.72700 20.64000 25.70300
H  -9.10300 20.09700 23.71300
H  -9.59200 20.35200 22.00300
H  -10.27200 21.38100 23.22600
H  -5.37300 26.10400 20.76600
H  -2.57500 26.66400 21.54600
H  -2.91800 25.08600 20.18900
H  -4.37400 24.33900 19.84300
H  -3.58100 23.74300 21.23100
H  -4.85900 28.68900 21.36700
H  -4.10700 27.80400 19.91200
H  -2.47700 29.23600 19.65100
H  -1.97500 29.10900 21.29400
H  -3.29400 30.17700 20.99500
H  -0.79800 29.76200 25.37100
H  -1.40900 30.94700 26.42400
H  -2.21000 30.74500 24.97800
H  -4.49400 28.89200 30.38900
H  -1.26600 27.02100 32.64600
H  -2.74600 26.22700 33.27400
H  -2.36700 27.77300 33.86900

