158

Mg -0.46600 6.98600 24.44600
C  0.54600 9.03700 27.17500
C  0.19800 4.30200 26.31200
C  -1.29000 5.20500 21.75200
C  -0.43000 9.86400 22.45700
N  0.54700 6.77400 26.41400
C  0.54800 7.69900 27.42900
C  0.55800 6.99900 28.87900
C  0.43200 5.53600 28.51000
C  0.41200 5.54200 26.96100
C  1.46400 4.50700 28.99000
C  -0.63100 7.39500 29.76100
C  -0.25300 7.79800 31.23200
H  1.08400 7.32000 31.76100
N  -0.54800 4.92900 24.09400
C  -0.21800 4.03100 24.98200
C  -0.47500 2.71300 24.37300
C  -0.96100 2.91700 23.03900
C  -0.97500 4.41800 22.89100
C  -0.13900 1.44400 25.17400
C  -1.23200 1.89100 21.94700
O  -1.62800 2.18600 20.82500
C  -0.89000 0.40600 22.13000
N  -0.81800 7.44000 22.45700
C  -1.18600 6.57400 21.49600
C  -1.35900 7.11200 20.13400
C  -1.26900 8.63400 20.43400
C  -0.75900 8.70600 21.90400
C  -0.31000 6.61700 19.11400
C  -2.57400 9.29200 20.37000
C  -2.66900 10.34100 19.19900
N  -0.03500 8.99600 24.66700
C  -0.02700 10.05800 23.78000
C  0.33300 11.33600 24.38600
C  0.46100 10.96900 25.72500
C  0.32100 9.56700 25.89500
C  0.41800 12.73000 23.79500
C  0.69200 11.49600 27.06400
O  0.90100 12.65700 27.42300
C  0.70600 10.23500 28.09800
C  2.05500 10.36300 28.80500
O  3.17900 10.23400 28.35200
O  1.79000 10.92000 30.07800
C  2.82200 11.22300 31.03200
H  0.24100 3.43000 26.96700
H  -1.50400 4.53700 20.91500
H  -0.52100 10.82800 21.95200
H  1.49100 7.36200 29.30900
H  -0.48400 5.06800 28.87100
H  2.14700 4.98200 29.69400
H  2.11700 4.28600 28.14600
H  1.01000 3.61700 29.42600
H  -1.40200 6.62700 29.81700
H  -1.15900 8.20100 29.25100
H  -1.04400 7.34900 31.83200
H  -0.42400 8.86600 31.36700
H  -0.42000 1.48300 26.22700
H  0.92900 1.22500 25.20200
H  -0.66400 0.62400 24.68400
H  -1.69900 -0.03900 22.70900
H  0.12700 0.47300 22.51700
H  -0.84600 -0.13300 21.18400
H  -2.29900 6.68400 19.78700
H  -0.50200 9.17900 19.88300
H  0.66500 6.34100 19.51600
H  -0.15700 7.50600 18.50200
H  -0.69400 5.78500 18.52500
H  -2.82600 9.78100 21.31100
H  -3.34300 8.54600 20.16800
H  -3.44200 10.05000 18.48700
H  -1.73300 10.44400 18.65000
H  -2.94500 11.29900 19.63900
H  -0.23200 12.90000 22.93700
H  1.44300 12.89800 23.46500
H  0.08400 13.46400 24.52800
H  -0.03300 10.44500 28.87100
H  3.04000 12.28900 30.96300
H  3.72300 10.62500 30.89100
H  2.38300 11.04500 32.01300
Mg 1.34500 41.76800 25.75000
C  3.21400 41.95000 28.76400
C  -1.23100 40.62800 27.76700
C  -0.39300 41.35500 23.03700
C  4.21300 42.72400 23.98900
N  1.06700 41.40600 28.12800
C  1.93000 41.71600 29.09500
C  1.35400 41.67100 30.50300
C  -0.11700 41.15500 30.07000
C  -0.11300 41.02100 28.54900
C  -0.60500 39.84100 30.89400
C  1.46800 43.05700 31.28200
C  2.10900 43.11700 32.64800
H  1.72700 42.05700 33.66700
N  -0.44400 40.90400 25.43300
C  -1.38400 40.58400 26.35700
C  -2.59100 39.99800 25.64900
C  -2.44500 40.37300 24.28500
C  -1.06000 40.91300 24.14600
C  -3.66600 39.29800 26.38700
C  -3.39700 40.28800 23.17900
O  -3.21700 40.68800 22.08600
C  -4.72100 39.85400 23.43900
N  1.85800 41.94000 23.79400
C  0.91600 41.73100 22.82300
C  1.61200 41.81000 21.44000
C  2.95600 42.43800 21.73900
C  3.03100 42.39200 23.26900
C  1.73000 40.47000 20.73400
C  3.08600 43.89700 21.12800
C  4.32400 44.08200 20.38000
N  3.33100 42.22600 26.19200
C  4.34800 42.57300 25.38300
C  5.50300 42.72000 26.16600
C  5.15800 42.44700 27.49400
C  3.73600 42.19100 27.48200
C  6.80900 43.26400 25.77400
C  5.73600 42.22600 28.78200
O  6.85400 42.29600 29.22600
C  4.43200 42.10500 29.69700
C  4.76200 40.91600 30.57900
O  4.52500 39.75100 30.29500
O  5.35300 41.34200 31.73400
C  5.63600 40.38400 32.76300
H  -2.10100 40.38000 28.37800
H  -0.87300 41.25000 22.06200
H  5.14300 43.03600 23.51000
H  1.89700 40.89400 31.04100
H  -0.86000 41.87600 30.41000
H  -1.29900 40.27400 31.61500
H  0.26400 39.51800 31.46700
H  -1.15700 39.10300 30.31100
H  0.42900 43.37700 31.35900
H  1.96200 43.74400 30.59600
H  1.73600 44.04000 33.09300
H  3.19000 43.15000 32.50900
H  -3.36500 38.95900 27.37800
H  -3.98400 38.42000 25.82500
H  -4.54600 39.93300 26.48800
H  -5.15900 40.40900 24.26900
H  -4.74500 38.77000 23.54500
H  -5.29800 40.06300 22.53900
H  0.95100 42.44500 20.85000
H  3.84900 41.86400 21.49300
H  1.45900 39.56600 21.28000
H  2.77900 40.39800 20.44600
H  1.12600 40.52800 19.82900
H  3.03800 44.65700 21.90800
H  2.24500 44.10000 20.46500
H  4.86200 44.86100 20.92100
H  4.05400 44.47100 19.39800
H  4.84700 43.12900 20.30500
H  6.68100 44.08400 25.06700
H  7.24700 42.42200 25.23800
H  7.41600 43.60400 26.61200
H  4.23700 42.94800 30.36000
H  5.50400 40.76100 33.77700
H  6.49200 39.70900 32.73000
H  4.75300 39.75100 32.67300

