158

Mg 30.48800 58.53500 40.60500
C  27.89700 56.28900 39.46500
C  32.70400 56.21400 39.28100
C  32.82200 60.69000 41.00400
C  27.98700 60.85000 41.16700
N  30.23500 56.55300 39.47200
C  29.17000 55.89300 39.01200
C  29.52300 54.62100 38.18900
C  31.05500 54.48300 38.47500
C  31.39700 55.79900 39.13100
C  31.54100 53.40600 39.47400
C  29.25300 54.77800 36.61800
C  28.00800 54.17600 36.05500
H  27.04700 55.00700 35.22300
N  32.48300 58.51600 40.22000
C  33.24700 57.48500 39.75000
C  34.66700 57.95700 39.62100
C  34.74900 59.11800 40.37800
C  33.33500 59.53300 40.55200
C  35.73400 57.13200 39.14500
C  36.01100 59.83700 40.85500
O  37.14300 59.41100 40.58100
C  36.02300 61.06400 41.65100
N  30.41600 60.54100 40.93600
C  31.52400 61.23200 41.22300
C  31.23700 62.69200 41.52900
C  29.66700 62.71900 41.61000
C  29.30600 61.32200 41.25100
C  32.02300 63.25700 42.77800
C  28.85700 63.79600 40.73800
C  27.56400 64.43600 41.33800
N  28.41400 58.58200 40.43000
C  27.55700 59.56300 40.82400
C  26.15900 59.12100 40.70200
C  26.29400 57.83600 40.19000
C  27.64300 57.52000 40.03600
C  25.00700 59.88900 41.17900
C  25.50300 56.73300 39.61800
O  24.31600 56.57700 39.46200
C  26.58300 55.60600 39.14400
C  26.41600 54.40400 40.04900
O  26.75200 54.32000 41.20600
O  25.58500 53.55500 39.38200
C  25.03100 52.49200 40.16600
H  33.43400 55.61200 38.73700
H  33.52300 61.49000 41.25000
H  27.25800 61.60800 41.45800
H  28.87300 53.79400 38.47600
H  31.58600 54.43300 37.52500
H  32.58300 53.15300 39.27600
H  30.86500 52.56200 39.33600
H  31.39100 53.76700 40.49200
H  30.05500 54.37800 35.99600
H  29.40400 55.83100 36.38200
H  27.36500 53.89400 36.88800
H  28.17900 53.20400 35.59300
H  35.38800 56.63300 38.24000
H  36.04600 56.36200 39.85000
H  36.64600 57.63700 38.82900
H  35.87500 61.99800 41.11000
H  36.99200 61.06600 42.15100
H  35.31800 60.99200 42.47900
H  31.63200 63.31300 40.72500
H  29.38100 62.97400 42.63000
H  32.76000 62.47200 42.95300
H  31.37700 63.34000 43.65200
H  32.57700 64.14500 42.47400
H  28.51400 63.28800 39.83600
H  29.50000 64.63200 40.46400
H  26.70700 64.46100 40.66400
H  27.73600 65.47300 41.62800
H  27.29900 63.84100 42.21100
H  24.28100 59.07900 41.25400
H  24.77300 60.66400 40.44900
H  25.17600 60.33400 42.15900
H  26.46400 55.43200 38.07400
H  25.84700 51.88600 40.55900
H  24.36700 51.78700 39.66600
H  24.51400 52.81600 41.06900
Mg -1.94400 35.32100 27.12400
C  -3.98700 34.07600 29.67100
C  -1.02900 37.93900 29.07800
C  -0.34600 36.72500 24.41000
C  -3.15000 32.80400 24.97900
N  -2.46200 35.91400 29.23800
C  -3.27900 35.23100 30.06700
C  -3.30000 35.89400 31.48700
C  -2.40600 37.20700 31.23700
C  -1.95400 37.02100 29.72800
C  -3.13700 38.55900 31.44100
C  -2.68000 35.00000 32.65100
C  -3.30400 35.11300 33.99900
H  -2.70100 36.18700 34.85700
N  -0.93700 37.05400 26.77800
C  -0.67900 38.04100 27.69000
C  0.09500 39.12200 27.12800
C  0.27000 38.80500 25.73500
C  -0.32100 37.46800 25.59000
C  0.43100 40.36200 27.96000
C  0.95800 39.67600 24.66500
O  0.78700 39.46400 23.49400
C  1.82400 40.92700 25.04200
N  -1.76100 34.85600 24.95800
C  -0.97500 35.50600 24.12000
C  -0.86800 34.88200 22.73100
C  -1.91500 33.75300 22.87400
C  -2.28900 33.77700 24.36400
C  -0.93400 35.83800 21.47200
C  -1.42500 32.41700 22.35000
C  -2.14100 32.04600 21.03800
N  -3.14400 33.73100 27.25800
C  -3.59100 32.79100 26.34900
C  -4.54400 31.90400 26.92200
C  -4.64500 32.37800 28.24400
C  -3.81800 33.51200 28.39100
C  -5.28700 30.82100 26.21100
C  -5.23700 31.93700 29.48300
O  -5.92700 31.01200 29.84900
C  -4.75300 33.10000 30.44100
C  -5.95800 33.72700 31.02100
O  -6.53100 34.66900 30.50100
O  -6.28000 33.08300 32.17400
C  -7.46600 33.65800 32.78500
H  -0.81700 38.70400 29.82800
H  0.26700 37.14700 23.61100
H  -3.59300 31.99700 24.39100
H  -4.31200 36.26000 31.65900
H  -1.52700 37.16400 31.88100
H  -2.56900 39.10400 32.19500
H  -4.17300 38.41300 31.74500
H  -3.36900 39.07700 30.51000
H  -1.66200 35.28800 32.91400
H  -2.72200 33.96800 32.30200
H  -3.19800 34.15100 34.50100
H  -4.36600 35.27500 33.81900
H  1.41300 40.33400 28.43100
H  -0.36200 40.52400 28.68900
H  0.52200 41.25000 27.33500
H  2.36900 40.83900 25.98100
H  1.09000 41.72300 25.17100
H  2.55000 41.10700 24.24900
H  0.09900 34.38000 22.72900
H  -2.81300 34.16700 22.41700
H  -1.50000 36.74300 21.69700
H  -1.59600 35.35300 20.75600
H  0.05400 36.04300 21.05900
H  -1.74200 31.63400 23.03900
H  -0.36000 32.18800 22.29700
H  -2.97300 31.39400 21.30600
H  -1.36600 31.55500 20.44900
H  -2.42600 32.95400 20.50600
H  -6.20600 30.58400 26.74600
H  -4.83100 29.85300 26.00000
H  -5.57600 31.32900 25.29100
H  -4.28000 32.61800 31.29700
H  -8.16800 33.80700 31.96500
H  -7.21200 34.53700 33.37700
H  -8.02200 32.99500 33.44700

