158

Mg 47.23600 25.59600 27.63400
C  48.41600 27.61400 30.34300
C  46.39300 23.13200 30.12900
C  46.81900 23.32100 25.15900
C  48.76500 27.70000 25.56600
N  47.36900 25.41700 30.03800
C  47.79100 26.46500 30.87100
C  47.51200 26.09900 32.30200
C  46.92700 24.61000 32.23900
C  46.88600 24.35700 30.75900
C  47.77400 23.60500 32.96700
C  46.57700 27.17200 32.95700
C  47.16500 27.92000 34.17800
H  46.23500 28.07500 35.30200
N  46.58000 23.50100 27.66000
C  46.26100 22.68600 28.77400
C  45.72600 21.42700 28.22100
C  45.81500 21.56900 26.78500
C  46.40400 22.85100 26.48100
C  45.12000 20.34100 29.02900
C  45.33700 20.46000 25.75300
O  45.33300 20.65300 24.54600
C  44.91500 19.06700 26.14400
N  47.87800 25.46200 25.69100
C  47.50100 24.44300 24.84200
C  47.90300 24.73700 23.39700
C  48.24000 26.27800 23.56500
C  48.23400 26.50800 25.00900
C  49.22600 23.85400 23.04300
C  47.19500 27.18600 22.83400
C  45.83300 27.24100 23.60400
N  48.37700 27.31000 27.81900
C  48.83800 28.12900 26.87900
C  49.49500 29.31700 27.46100
C  49.32700 29.12700 28.80100
C  48.68000 27.89300 28.99200
C  50.27200 30.49100 26.74900
C  49.66200 29.66500 30.11500
O  50.27700 30.67400 30.42000
C  49.06900 28.64100 31.16900
C  50.17300 28.16400 32.01000
O  50.98600 27.32700 31.66400
O  50.33100 28.92800 33.12800
C  51.61700 28.73200 33.85700
H  45.98800 22.41000 30.84100
H  46.62800 22.61600 24.34800
H  49.04700 28.50600 24.88500
H  48.44700 26.03600 32.85800
H  45.94300 24.71000 32.69600
H  47.15100 22.76000 33.25900
H  48.36800 24.06200 33.75800
H  48.44300 23.14900 32.23700
H  45.56800 26.82000 33.17300
H  46.31400 27.93300 32.22100
H  47.40300 28.93400 33.85600
H  48.12700 27.51600 34.49100
H  45.21400 20.47400 30.10600
H  45.69400 19.44700 28.78700
H  44.06300 20.35200 28.76200
H  45.80200 18.59000 26.56000
H  44.83800 18.40300 25.28300
H  44.05400 19.06600 26.81300
H  47.09900 24.45500 22.71800
H  49.25400 26.40800 23.18500
H  50.11100 24.45700 22.84200
H  48.92700 23.19600 22.22700
H  49.44100 23.38700 24.00500
H  46.89500 26.76500 21.87500
H  47.63900 28.17100 22.69100
H  45.82200 27.97600 24.40900
H  45.65300 26.28700 24.09900
H  45.02300 27.30100 22.87700
H  50.92000 30.09600 25.96600
H  50.87400 30.98900 27.50900
H  49.52300 31.10000 26.24200
H  48.41400 29.20400 31.83400
H  51.52100 28.13600 34.76400
H  51.91800 29.70600 34.24400
H  52.51800 28.47800 33.29800
Mg -5.54500 24.66600 26.16500
C  -4.26700 26.31700 29.11200
C  -7.90700 23.20000 28.01200
C  -6.39200 23.07400 23.37100
C  -3.15300 26.59500 24.39300
N  -5.96500 24.63000 28.30400
C  -5.35200 25.40200 29.32500
C  -6.10300 25.18900 30.67300
C  -7.22600 24.11700 30.29700
C  -7.05100 24.02800 28.75100
C  -7.00300 22.67400 31.01000
C  -6.89600 26.46200 31.20100
C  -6.78900 26.64700 32.79700
H  -6.16400 25.50600 33.59900
N  -6.90800 23.26600 25.74600
C  -7.84700 22.81600 26.63600
C  -8.73100 21.92000 25.98500
C  -8.30400 21.85300 24.65300
C  -7.14600 22.76800 24.52100
C  -9.89800 21.27500 26.70100
C  -8.81200 20.93200 23.59600
O  -8.24300 20.89100 22.50200
C  -9.87700 19.87100 23.86600
N  -4.94400 24.89300 24.17700
C  -5.41400 24.02200 23.18800
C  -4.60000 24.28400 21.97200
C  -3.89300 25.67700 22.17800
C  -3.94400 25.71300 23.68800
C  -3.66100 23.07300 21.65500
C  -4.67500 26.86400 21.57500
C  -3.98800 27.61300 20.40000
N  -3.89700 25.96700 26.61300
C  -3.07700 26.65400 25.77000
C  -2.31600 27.64000 26.45500
C  -2.73200 27.43900 27.79100
C  -3.63000 26.44400 27.87400
C  -1.31200 28.60700 25.88200
C  -2.44600 27.97100 29.04900
O  -1.60200 28.76500 29.47900
C  -3.46900 27.29400 29.96100
C  -2.72500 26.59900 31.10500
O  -2.13000 25.59700 31.02500
O  -2.77700 27.47300 32.14900
C  -2.10200 27.00600 33.34600
H  -8.71900 22.81000 28.63000
H  -6.66100 22.40200 22.55300
H  -2.55200 27.23900 23.74600
H  -5.31000 24.71700 31.25400
H  -8.24600 24.48200 30.42400
H  -7.92400 22.40800 31.53000
H  -6.17000 22.60200 31.70900
H  -6.75700 21.89000 30.29500
H  -7.94500 26.44000 30.90500
H  -6.56600 27.33400 30.63600
H  -7.79800 26.90400 33.11700
H  -6.16500 27.49800 33.07200
H  -10.69400 21.38000 25.96300
H  -10.13600 21.73300 27.66100
H  -9.76700 20.20700 26.87000
H  -10.80900 20.41600 24.01300
H  -9.46200 19.36300 24.73600
H  -9.90000 19.18000 23.02300
H  -5.30000 24.45200 21.15300
H  -2.86000 25.62800 21.83400
H  -3.86900 22.26400 22.35600
H  -2.65000 23.40400 21.89000
H  -3.82800 22.66900 20.65700
H  -4.79300 27.69800 22.26600
H  -5.64700 26.55600 21.19000
H  -3.58900 28.55900 20.76800
H  -4.74500 27.70600 19.62200
H  -3.22300 26.92800 20.03600
H  -0.73100 28.97100 26.72900
H  -1.85500 29.41200 25.38600
H  -0.68700 28.10800 25.14100
H  -4.16600 27.90700 30.53200
H  -1.37900 27.75100 33.67700
H  -1.67700 26.00400 33.39500
H  -2.80000 27.09100 34.17900

