158

Mg 40.48900 9.29700 29.21200
C  42.09400 10.67400 31.96600
C  38.28100 7.78000 31.38300
C  39.19000 7.75400 26.67600
C  43.38700 10.23200 27.24600
N  40.23300 9.17700 31.35900
C  40.90100 9.97500 32.28500
C  40.23300 9.94100 33.66400
C  39.25100 8.74700 33.48700
C  39.28400 8.47100 32.02200
C  39.45500 7.53700 34.41200
C  39.64500 11.31400 34.13400
C  38.91400 11.34700 35.50400
H  39.53700 12.25400 36.60000
N  38.98700 8.00700 28.97700
C  38.13900 7.63400 29.99400
C  37.06500 6.80200 29.41700
C  37.28000 6.70300 27.94600
C  38.48800 7.50400 27.78100
C  35.97000 6.17600 30.22300
C  36.44900 5.92100 26.94400
O  36.78400 5.90600 25.75800
C  35.36200 4.96500 27.32800
N  41.32500 8.90100 27.29000
C  40.43800 8.35100 26.43000
C  40.92700 8.53700 24.93000
C  42.29300 9.24600 25.10300
C  42.37700 9.50000 26.62400
C  40.96800 7.28500 24.00000
C  42.54800 10.53700 24.22800
C  41.79400 11.86700 24.61700
N  42.29100 10.33600 29.49300
C  43.36100 10.63400 28.65500
C  44.32200 11.51000 29.26900
C  43.92400 11.48500 30.59600
C  42.71700 10.77700 30.65400
C  45.45500 12.22100 28.67700
C  44.27300 11.89200 31.84700
O  45.25300 12.54300 32.16400
C  43.15400 11.37500 32.81100
C  43.68700 10.40200 33.86600
O  44.57600 9.55800 33.66100
O  43.16000 10.73700 35.09700
C  43.68600 9.84800 36.21800
H  37.49100 7.42300 32.04800
H  38.70000 7.31500 25.80500
H  44.29700 10.52200 26.71800
H  41.03700 9.70100 34.36000
H  38.32800 9.30300 33.65200
H  39.97000 6.73200 33.88900
H  38.48400 7.28300 34.83800
H  40.19800 7.83500 35.15100
H  38.86700 11.59800 33.42500
H  40.50100 11.98800 34.14400
H  38.82300 10.30200 35.80300
H  37.87900 11.68800 35.49500
H  35.07900 6.19500 29.59600
H  35.74600 6.67000 31.16800
H  36.23600 5.14000 30.43000
H  34.41700 5.50400 27.39600
H  35.58100 4.35900 28.20700
H  35.25800 4.23300 26.52700
H  40.23700 9.29000 24.54700
H  43.11600 8.57300 24.86400
H  40.06400 7.23500 23.39400
H  41.09500 6.42300 24.65500
H  41.77700 7.47800 23.29500
H  42.65900 10.49400 23.14500
H  43.57400 10.83300 24.44800
H  42.59100 12.50600 24.99900
H  41.02400 11.57400 25.33000
H  41.30000 12.21100 23.70800
H  45.56800 12.12600 27.59700
H  46.36100 11.78800 29.10200
H  45.42100 13.27300 28.96000
H  42.75300 12.24400 33.33200
H  43.13900 10.04200 37.14100
H  44.76600 9.95100 36.32200
H  43.42300 8.86900 35.81800
Mg 46.82600 16.65200 28.38300
C  44.51400 16.33500 31.18600
C  48.71000 18.51700 30.30900
C  48.56100 17.18900 25.58800
C  44.23100 15.21200 26.47100
N  46.69300 17.17500 30.57700
C  45.70200 16.98000 31.54700
C  46.31000 17.23400 32.96500
C  47.55300 18.12500 32.60500
C  47.62200 17.98500 31.06800
C  47.57200 19.71000 33.06300
C  46.53300 15.89200 33.76900
C  46.08700 15.97700 35.21000
H  45.61300 17.27900 35.94200
N  48.39900 17.67500 27.99100
C  49.05500 18.51000 28.91400
C  50.17300 19.09200 28.22900
C  50.14000 18.62800 26.87400
C  49.02500 17.76800 26.75200
C  51.16200 20.00500 28.98300
C  51.13600 18.94900 25.77000
O  50.91000 18.69600 24.55400
C  52.37100 19.78100 26.05700
N  46.40900 16.25900 26.30200
C  47.36000 16.51800 25.41000
C  46.97100 15.96300 24.00900
C  45.60000 15.15600 24.31900
C  45.42800 15.45800 25.77600
C  46.81800 17.09900 22.99500
C  45.59200 13.64500 23.84300
C  45.76300 13.31100 22.35700
N  44.80300 15.99000 28.72300
C  43.93300 15.42300 27.82900
C  42.68200 14.97700 28.47500
C  42.93800 15.37400 29.80000
C  44.15400 15.97200 29.87300
C  41.54500 14.24200 27.88300
C  42.38300 15.32700 31.12500
O  41.30600 14.93800 31.56300
C  43.36100 16.07300 32.08500
C  42.67300 17.28600 32.49500
O  42.46800 18.29500 31.85200
O  42.19900 16.97700 33.74600
C  41.54100 18.04600 34.38800
H  49.41600 19.09900 30.90400
H  49.13300 17.12700 24.65900
H  43.50700 14.64000 25.88700
H  45.61700 17.92000 33.45200
H  48.39900 17.71000 33.15400
H  47.51000 20.43100 32.24800
H  48.52800 19.92500 33.54200
H  46.86900 19.94300 33.86300
H  47.60000 15.67300 33.81200
H  46.05400 15.03700 33.29000
H  46.81100 15.57100 35.91600
H  45.21800 15.32100 35.16200
H  52.13400 19.55200 29.18000
H  50.71100 20.32800 29.92200
H  51.26400 20.99300 28.53400
H  52.07800 20.76500 26.42200
H  52.95200 19.91100 25.14400
H  52.94000 19.16200 26.75100
H  47.69400 15.21400 23.68700
H  44.70200 15.69300 24.01600
H  45.84000 17.02700 22.51800
H  47.57300 17.04600 22.21000
H  46.90200 18.02300 23.56700
H  44.62100 13.25800 24.15100
H  46.39300 13.05500 24.28800
H  44.92900 12.76400 21.91700
H  46.67000 12.74200 22.15300
H  45.81100 14.27400 21.84800
H  41.27200 14.70400 26.93500
H  40.74000 14.47300 28.58100
H  41.69700 13.18300 27.67600
H  43.71000 15.48800 32.93600
H  40.50300 18.20100 34.09400
H  42.17900 18.91700 34.23500
H  41.60300 17.94600 35.47200

