158

Mg 17.27100 -1.89500 27.69100
C  16.18400 0.22600 30.29000
C  19.19200 -3.58600 29.95300
C  18.71400 -3.51900 25.05300
C  15.47100 0.15700 25.42900
N  17.68600 -1.64000 29.87600
C  17.03600 -0.79000 30.75500
C  17.36300 -1.05100 32.22100
C  18.45400 -2.22400 32.16000
C  18.44100 -2.54100 30.60000
C  19.94200 -1.97000 32.72600
C  16.22100 -1.39600 33.15500
C  16.20100 -0.57100 34.43500
H  17.53900 -0.44800 35.15700
N  18.77700 -3.35600 27.58600
C  19.41000 -3.93600 28.61900
C  20.24600 -5.04800 28.14000
C  20.12400 -4.97300 26.67100
C  19.24800 -3.88900 26.35000
C  21.19900 -5.90700 29.03500
C  20.90600 -5.85400 25.65000
O  20.74800 -5.62900 24.44600
C  21.93700 -6.92200 26.05700
N  17.29100 -1.59800 25.58500
C  17.88000 -2.41200 24.71000
C  17.46900 -2.13600 23.24400
C  16.18800 -1.18000 23.42400
C  16.29900 -0.87400 24.95600
C  18.70500 -1.55700 22.47600
C  14.81100 -1.84200 22.99800
C  13.94600 -2.55500 24.02100
N  16.02000 -0.17400 27.74400
C  15.34000 0.53500 26.74200
C  14.50100 1.52500 27.32600
C  14.85900 1.54400 28.71500
C  15.78400 0.40900 28.89000
C  13.39500 2.29200 26.70100
C  14.68400 2.13400 30.06700
O  13.96900 3.11700 30.28500
C  15.53700 1.35500 31.09000
C  16.38200 2.26100 31.89600
O  17.61900 2.31900 31.91000
O  15.58600 2.82100 32.86800
C  16.29400 3.49600 33.93500
H  19.72500 -4.28500 30.60100
H  19.06400 -4.14900 24.23200
H  14.75200 0.75000 24.86000
H  17.83400 -0.12400 32.54900
H  18.21700 -3.15700 32.66900
H  20.70000 -2.00100 31.94300
H  20.29500 -2.67500 33.47900
H  20.04300 -0.96200 33.12600
H  16.26100 -2.44500 33.44900
H  15.34300 -1.11500 32.57200
H  15.53600 -0.99900 35.18500
H  15.92300 0.42900 34.10200
H  20.84800 -6.93200 28.91000
H  21.21700 -5.73500 30.11100
H  22.23100 -5.82700 28.69300
H  22.22500 -7.63400 25.28400
H  21.48100 -7.49300 26.86700
H  22.80300 -6.41900 26.48600
H  17.25100 -3.13300 22.86100
H  16.35400 -0.19100 22.99700
H  18.31000 -0.73700 21.87700
H  19.17900 -2.25300 21.78500
H  19.44700 -1.20400 23.19200
H  14.79600 -2.49200 22.12300
H  14.35300 -1.00200 22.47600
H  14.43200 -2.77300 24.97100
H  13.58900 -3.50000 23.61300
H  13.06900 -1.96800 24.29500
H  13.73900 3.25900 26.33300
H  12.52300 2.31600 27.35400
H  12.97200 1.67200 25.91100
H  14.74000 0.95500 31.71700
H  17.08100 4.12300 33.51800
H  16.71400 2.83700 34.69500
H  15.67300 4.21300 34.47200
Mg -11.66400 38.91700 41.92800
C  -9.65700 36.08200 40.69100
C  -9.34800 40.92400 40.25900
C  -13.83200 41.41100 42.24600
C  -13.88800 36.53000 43.17100
N  -9.79800 38.50500 40.55100
C  -9.16600 37.33100 40.18900
C  -7.96900 37.56800 39.30200
C  -7.84100 39.19500 39.24000
C  -9.01700 39.55800 40.10700
C  -6.43900 39.60800 39.69700
C  -8.09300 36.85600 37.91400
C  -6.83700 35.88300 37.65100
H  -5.76900 36.43100 36.60300
N  -11.55400 40.96800 41.39300
C  -10.50100 41.61200 40.78400
C  -10.77400 42.99400 40.80500
C  -12.14300 43.17500 41.26200
C  -12.58800 41.83600 41.69200
C  -9.86700 44.00900 40.34300
C  -12.95600 44.50900 41.20800
O  -12.41100 45.55100 40.74400
C  -14.36900 44.62400 41.76600
N  -13.68500 38.97500 42.36700
C  -14.29400 40.14200 42.65400
C  -15.56700 39.92100 43.50400
C  -15.47500 38.38100 43.79500
C  -14.28800 37.89900 43.05900
C  -15.61300 40.74300 44.79400
C  -16.79200 37.56800 43.52600
C  -17.99300 37.91800 44.43400
N  -11.72700 36.83700 41.99100
C  -12.62700 35.99800 42.66300
C  -12.21700 34.66600 42.55100
C  -11.02800 34.69700 41.80000
C  -10.80900 36.01300 41.43300
C  -12.90700 33.49800 43.32600
C  -10.02600 33.82700 41.18600
O  -9.92800 32.55500 41.19000
C  -8.92000 34.78200 40.68000
C  -7.92000 34.76700 41.75400
O  -8.01600 35.29500 42.85700
O  -6.89800 33.85700 41.51500
C  -5.96500 33.37300 42.54600
H  -8.69500 41.61000 39.71600
H  -14.49700 42.24500 42.47900
H  -14.47700 35.82300 43.75800
H  -7.13600 37.21100 39.90700
H  -7.97000 39.63700 38.25200
H  -6.38800 39.53900 40.78400
H  -6.18400 40.55800 39.22800
H  -5.71300 38.93900 39.23500
H  -7.99100 37.55300 37.08300
H  -9.01600 36.27900 37.95900
H  -7.22500 34.98400 37.17200
H  -6.24000 35.71900 38.54900
H  -9.76000 44.86100 41.01500
H  -10.32300 44.30800 39.40000
H  -8.88600 43.59000 40.12200
H  -15.04400 43.97900 41.20300
H  -14.66300 45.66700 41.65300
H  -14.48400 44.25000 42.78300
H  -16.36200 40.17400 42.80200
H  -15.08300 38.16000 44.78800
H  -16.41600 41.47700 44.73900
H  -14.70000 41.32300 44.93100
H  -15.55900 40.09700 45.66900
H  -16.66800 36.49800 43.69400
H  -17.12200 37.67700 42.49300
H  -18.91000 37.99700 43.85100
H  -17.89600 38.83600 45.01300
H  -18.02500 37.02700 45.06100
H  -13.75900 33.71200 43.97100
H  -12.12000 33.13800 43.98800
H  -13.20700 32.85700 42.49700
H  -8.51100 34.39300 39.74700
H  -5.71300 32.32400 42.39100
H  -6.38300 33.34800 43.55200
H  -5.07900 34.00800 42.55900

