158

Mg 2.15200 -1.21700 43.54000
C  5.62200 -0.49600 43.19500
C  1.41900 1.37700 41.46800
C  -0.91900 -2.59900 43.26200
C  3.27600 -4.13500 45.31000
N  3.46900 0.23900 42.50600
C  4.80300 0.35600 42.41800
C  5.31000 1.57600 41.50700
C  3.93500 2.14500 41.13000
C  2.83900 1.25000 41.76200
C  3.65500 3.57600 41.54400
C  6.15300 1.04600 40.35100
C  7.06200 2.08500 39.67700
H  6.62900 2.53700 38.31400
N  0.48000 -0.67200 42.51300
C  0.34000 0.41100 41.73000
C  -0.98600 0.57600 41.31200
C  -1.67300 -0.58700 41.75600
C  -0.70000 -1.41100 42.53800
C  -1.34900 1.78700 40.39700
C  -3.10400 -1.03300 41.28200
O  -3.91200 -0.19800 40.77100
C  -3.53100 -2.39600 41.38700
N  1.33100 -3.06200 44.04300
C  -0.00100 -3.33600 44.02400
C  -0.44900 -4.51100 44.90600
C  0.93900 -5.21000 45.11600
C  1.98000 -4.09800 44.83300
C  -1.25600 -3.96400 46.11400
C  1.20500 -6.53400 44.28400
C  1.20700 -7.84400 45.08100
N  4.06200 -2.10800 44.33000
C  4.29400 -3.31600 45.01100
C  5.73400 -3.46600 45.16900
C  6.25900 -2.33700 44.54600
C  5.21700 -1.53800 44.01100
C  6.54800 -4.64600 45.74700
C  7.53300 -1.71800 44.21800
O  8.67900 -1.92200 44.49500
C  7.16200 -0.51300 43.27600
C  7.76100 0.77400 43.73300
O  8.36900 1.45100 42.91500
O  7.48900 1.22700 45.00700
C  8.04800 2.55200 45.40000
H  1.09100 2.21300 40.84800
H  -1.89300 -3.08900 43.31600
H  3.49000 -5.07700 45.81900
H  5.94600 2.21600 42.11800
H  3.83900 2.20700 40.04600
H  3.37100 4.17200 40.67700
H  4.55400 4.00800 41.98300
H  2.88600 3.47200 42.31000
H  5.59300 0.60800 39.52500
H  6.87200 0.28900 40.66600
H  8.09900 1.75400 39.71500
H  7.16500 3.01400 40.23900
H  -0.72300 1.83600 39.50600
H  -1.25000 2.63600 41.07300
H  -2.40500 1.72500 40.13500
H  -4.33900 -2.51200 40.66500
H  -3.83700 -2.60000 42.41300
H  -2.65500 -2.93600 41.02800
H  -1.01500 -5.27700 44.37700
H  1.10700 -5.45800 46.16400
H  -2.27700 -4.31600 46.26600
H  -1.26600 -2.87500 46.14100
H  -0.75600 -4.19200 47.05600
H  2.19100 -6.47100 43.82500
H  0.46000 -6.69200 43.50500
H  0.45100 -8.55600 44.74800
H  0.81000 -7.81600 46.09500
H  2.14400 -8.40000 45.11000
H  5.94300 -4.95800 46.59700
H  7.46000 -4.18300 46.12500
H  6.76400 -5.36000 44.95300
H  7.61800 -0.84300 42.34200
H  7.42000 3.11600 46.09000
H  8.39800 3.21100 44.60500
H  8.92700 2.28900 45.98800
Mg 41.17700 40.27900 27.25600
C  40.31100 42.94900 29.37900
C  42.20200 38.59100 29.92500
C  42.32900 38.00800 25.04500
C  40.83500 42.44400 24.44200
N  40.98700 40.55600 29.39400
C  40.60300 41.71200 30.03300
C  40.35100 41.51600 31.51900
C  41.05200 40.08800 31.73700
C  41.58700 39.76600 30.22600
C  42.36600 40.18500 32.66500
C  38.79500 41.65600 31.84200
C  38.51400 42.62400 32.98700
H  37.88400 42.04800 34.30200
N  42.10900 38.53000 27.45800
C  42.47500 37.99500 28.66400
C  43.10100 36.72000 28.44500
C  43.08300 36.47000 26.98600
C  42.49900 37.69100 26.43600
C  43.73100 35.94200 29.64500
C  43.59400 35.21100 26.20200
O  43.50400 34.89400 25.04300
C  44.20300 34.13900 26.96800
N  41.61600 40.29400 25.07700
C  41.99600 39.15900 24.34600
C  42.04600 39.40500 22.84300
C  41.46900 40.85300 22.74700
C  41.29600 41.23700 24.17200
C  43.49200 39.10400 22.23900
C  40.11700 40.88100 22.00300
C  38.84800 40.06600 22.47000
N  40.68800 42.29600 26.89700
C  40.58200 43.01600 25.72700
C  40.13800 44.35500 26.06400
C  40.03200 44.38100 27.50700
C  40.36800 43.05900 27.95800
C  39.90200 45.43400 25.04600
C  39.81900 45.17800 28.66800
O  39.57600 46.38100 28.78900
C  39.94500 44.29800 29.91700
C  41.08100 44.79600 30.77400
O  42.26800 44.78000 30.57100
O  40.57800 45.18300 31.99600
C  41.49700 45.56200 33.08800
H  42.49700 37.98300 30.78300
H  42.62300 37.11300 24.49200
H  40.60200 43.08000 23.58500
H  40.88300 42.28600 32.07800
H  40.35600 39.35900 32.15200
H  42.51500 41.22700 32.94900
H  43.22900 39.70100 32.20800
H  42.14800 39.52400 33.50400
H  38.48200 40.61500 31.92100
H  38.34100 42.03500 30.92700
H  37.72600 43.30800 32.67300
H  39.43200 43.05200 33.39100
H  44.04800 36.68100 30.38000
H  44.59700 35.34300 29.36200
H  43.00900 35.27600 30.11900
H  43.35300 33.94300 27.62100
H  45.02800 34.57800 27.52900
H  44.52500 33.24800 26.42900
H  41.37700 38.65700 22.41700
H  42.24700 41.43300 22.25100
H  44.16800 38.84500 23.05400
H  43.92800 39.88700 21.61900
H  43.41900 38.21600 21.61100
H  40.40000 40.47000 21.03300
H  39.75100 41.90400 21.92400
H  38.58200 39.36800 21.67600
H  37.93900 40.66200 22.55800
H  39.00800 39.42900 23.34000
H  40.63500 45.34500 24.24400
H  40.13900 46.40100 25.49000
H  38.87500 45.57900 24.70900
H  39.06900 44.26600 30.56500
H  42.54200 45.26100 33.00900
H  41.00500 45.08300 33.93500
H  41.41400 46.64700 33.15600

