158

Mg 17.51600 -1.21300 28.21100
C  16.53700 0.67400 31.02100
C  19.70300 -3.03400 30.24500
C  19.03700 -2.60500 25.54700
C  15.83000 1.00500 26.17300
N  18.17200 -1.01300 30.31900
C  17.45200 -0.34900 31.31400
C  17.96100 -0.64900 32.74800
C  19.10100 -1.70300 32.39600
C  18.92500 -2.00200 30.90800
C  20.55900 -1.30100 32.61000
C  16.90000 -1.18200 33.76000
C  16.68900 -0.19800 34.94200
H  17.86700 0.45300 35.51400
N  18.90100 -2.88500 27.95300
C  19.64500 -3.46700 28.90400
C  20.55900 -4.35800 28.23100
C  20.19500 -4.34000 26.83000
C  19.32200 -3.28000 26.74600
C  21.43700 -5.35400 29.06300
C  20.71100 -5.19500 25.70500
O  20.59600 -4.96600 24.54200
C  21.53900 -6.50400 25.90800
N  17.54700 -0.74200 26.11100
C  18.23700 -1.53700 25.25600
C  18.15500 -1.01400 23.86000
C  17.06400 0.05100 24.04200
C  16.78100 0.16800 25.54600
C  19.56600 -0.67300 23.28600
C  15.82300 -0.26400 23.12100
C  14.64100 -0.86300 23.84200
N  16.36900 0.51500 28.48900
C  15.63100 1.24800 27.59500
C  14.88000 2.28700 28.30200
C  15.22200 2.00700 29.64600
C  16.15000 0.99700 29.75100
C  14.05100 3.33600 27.67400
C  14.89900 2.47100 30.96300
O  14.16200 3.32100 31.40400
C  15.78000 1.63700 31.90000
C  16.68600 2.64000 32.57000
O  17.82800 2.80600 32.17500
O  16.01000 3.17700 33.63000
C  16.82100 4.11700 34.44400
H  20.35300 -3.62200 30.89600
H  19.46300 -2.87400 24.57800
H  15.31500 1.71600 25.52300
H  18.43600 0.27400 33.08000
H  18.85000 -2.63000 32.91300
H  21.02200 -0.92400 31.69800
H  21.19700 -2.04200 33.09300
H  20.61700 -0.48600 33.33100
H  17.09500 -2.18100 34.15200
H  15.94900 -1.37000 33.26100
H  16.17100 -0.72400 35.74300
H  15.99800 0.56100 34.57700
H  22.15300 -4.81000 29.67900
H  22.07100 -5.89800 28.36300
H  20.76100 -6.02600 29.59100
H  21.16100 -7.15700 26.69500
H  22.55400 -6.22200 26.18600
H  21.60000 -7.05300 24.96800
H  17.77700 -1.87100 23.30300
H  17.41800 1.04500 23.76900
H  20.47800 -1.00400 23.78200
H  19.68200 0.41100 23.26600
H  19.68200 -1.09600 22.28800
H  16.04900 -1.03200 22.38100
H  15.47500 0.68000 22.70300
H  14.05500 -0.00800 24.18000
H  15.00500 -1.39000 24.72400
H  14.08000 -1.55400 23.21300
H  14.50000 3.70500 26.75200
H  14.03500 4.13500 28.41500
H  13.03200 3.07500 27.38800
H  15.15600 1.27100 32.71500
H  17.85800 4.36300 34.21600
H  16.76700 3.79900 35.48500
H  16.28600 5.06600 34.49300
Mg -10.91800 40.41500 39.62900
C  -9.56000 37.31400 38.60500
C  -7.85500 41.84600 38.77600
C  -12.27400 43.39900 40.06000
C  -14.06000 38.87200 39.66900
N  -8.99000 39.69500 38.73300
C  -8.64100 38.38500 38.50600
C  -7.20200 38.25700 38.01000
C  -6.59500 39.64900 38.28700
C  -7.86000 40.42600 38.66500
C  -5.57700 39.80100 39.43600
C  -7.21000 37.91600 36.49900
C  -6.15800 37.04100 35.87900
H  -6.65900 36.20800 34.67500
N  -10.20300 42.37300 39.32400
C  -8.87000 42.79500 39.06800
C  -8.79200 44.20500 39.19800
C  -10.05700 44.69800 39.48100
C  -10.94000 43.47700 39.64800
C  -7.54300 45.09100 38.98300
C  -10.47000 46.16800 39.52100
O  -9.55900 46.99800 39.43000
C  -11.92200 46.60300 39.55600
N  -12.92000 40.97600 39.75900
C  -13.16800 42.33000 39.96000
C  -14.65200 42.56600 40.26100
C  -15.26700 41.16900 40.11200
C  -14.00900 40.25400 39.80600
C  -15.01500 43.09900 41.69800
C  -16.34500 41.13600 38.86300
C  -17.68700 41.76100 39.32200
N  -11.72400 38.41400 39.39400
C  -12.98400 37.97400 39.41800
C  -13.00000 36.54500 39.24500
C  -11.66300 36.23100 38.93700
C  -10.92900 37.45700 39.00900
C  -14.18600 35.60100 39.36500
C  -10.73900 35.17100 38.52100
O  -10.89300 33.98700 38.32900
C  -9.32200 35.82100 38.25500
C  -8.39500 35.12500 39.14400
O  -8.66000 34.76100 40.27200
O  -7.33800 34.69900 38.36600
C  -6.41400 33.78800 39.06800
H  -6.85300 42.26100 38.64800
H  -12.63300 44.34800 40.46400
H  -15.09300 38.58400 39.87300
H  -6.62700 37.49300 38.53400
H  -6.06800 40.10600 37.45000
H  -5.12100 40.77600 39.26600
H  -4.73200 39.11700 39.35500
H  -5.98700 39.81400 40.44600
H  -7.10700 38.83900 35.92900
H  -8.17900 37.52600 36.18700
H  -5.69100 36.40000 36.62600
H  -5.42200 37.69700 35.41500
H  -7.53600 45.47800 37.96400
H  -6.65700 44.45800 38.92800
H  -7.35000 45.81800 39.77200
H  -11.95300 47.45600 38.87800
H  -12.36500 46.77300 40.53700
H  -12.50500 45.87600 38.99000
H  -15.13100 43.27600 39.58600
H  -15.82000 40.84200 40.99300
H  -14.13000 43.50000 42.19300
H  -15.52700 42.53100 42.47400
H  -15.64100 43.95200 41.43700
H  -16.56800 40.22300 38.31000
H  -15.87500 41.80200 38.14000
H  -17.44100 42.65400 39.89700
H  -18.10300 40.98200 39.96100
H  -18.34600 42.03300 38.49800
H  -14.28500 35.01900 38.44900
H  -15.11700 36.16500 39.42600
H  -14.12200 34.84800 40.14900
H  -9.01100 35.66700 37.22200
H  -5.37100 34.03700 38.87300
H  -6.72400 32.74500 39.00100
H  -6.45200 33.92000 40.15000

