158

Mg 48.27600 44.60900 43.80500
C  44.79700 44.25300 43.39300
C  48.57000 41.14300 43.34800
C  51.59100 44.95300 43.49600
C  47.81400 48.06400 43.78000
N  46.80600 42.87700 43.36600
C  45.43900 42.98600 43.46500
C  44.74500 41.59400 43.38300
C  45.97000 40.63500 43.77800
C  47.22300 41.58000 43.54800
C  46.02100 40.05900 45.17900
C  44.11400 41.08700 42.14300
C  44.32900 41.81900 40.72300
H  45.07800 41.03900 39.67500
N  49.81500 43.25300 43.37400
C  49.74800 41.86200 43.39000
C  51.07200 41.29100 43.25200
C  51.99400 42.40500 43.24900
C  51.11200 43.61700 43.39100
C  51.43600 39.89100 42.96700
C  53.47900 42.28200 42.99100
O  54.03000 41.24100 42.95100
C  54.42100 43.44700 42.87900
N  49.52100 46.20500 43.76100
C  50.89100 46.11800 43.78000
C  51.49700 47.51400 43.79900
C  50.37200 48.51100 44.02500
C  49.14100 47.57100 43.80000
C  52.72600 47.75700 44.67200
C  50.38400 49.88100 43.20200
C  49.79000 51.06300 43.94200
N  46.68100 45.96500 43.66500
C  46.65300 47.32400 43.74200
C  45.29300 47.82600 43.59600
C  44.56400 46.65100 43.44500
C  45.43300 45.51100 43.49400
C  44.90700 49.29900 43.73700
C  43.20900 46.11200 43.39600
O  42.17000 46.70300 43.35800
C  43.30600 44.58300 43.40900
C  42.62700 44.06400 44.66300
O  41.60800 43.37200 44.69900
O  43.23700 44.50600 45.79600
C  42.88700 43.86200 47.04700
H  48.63400 40.05400 43.30800
H  52.67700 45.05800 43.48000
H  47.81100 49.14000 43.96800
H  44.05200 41.66700 44.22100
H  46.08000 39.76100 43.13500
H  45.29000 40.56200 45.81200
H  46.99200 40.15800 45.66300
H  45.66300 39.03400 45.07900
H  43.04800 41.04300 42.36500
H  44.38900 40.06300 41.89100
H  44.93200 42.69500 40.96200
H  43.40400 42.15900 40.25800
H  52.05300 40.00300 42.07600
H  50.56800 39.28800 42.70200
H  51.85100 39.42600 43.86200
H  53.90600 44.13300 42.20600
H  55.26600 43.21100 42.23200
H  54.58600 43.80100 43.89700
H  51.92400 47.64800 42.80500
H  50.43300 48.69400 45.09800
H  53.63600 47.64700 44.08200
H  52.80900 47.26600 45.64100
H  52.75900 48.83100 44.85500
H  49.67500 49.91300 42.37400
H  51.33400 50.11200 42.72000
H  49.56900 50.82900 44.98400
H  48.83900 51.33200 43.48300
H  50.43500 51.93100 43.80900
H  44.93900 49.74800 42.74500
H  45.63800 49.71600 44.43000
H  43.90800 49.27500 44.17200
H  42.61300 44.20000 42.66000
H  43.75500 43.82400 47.70600
H  42.50700 42.84000 47.03900
H  42.15800 44.47100 47.58200
Mg 41.80000 41.15500 26.87800
C  40.91200 43.31500 29.56000
C  42.85300 38.95800 29.36900
C  43.16800 39.27100 24.50400
C  40.84300 43.52100 24.65000
N  41.82500 41.20900 29.28500
C  41.42200 42.14300 30.16800
C  41.58300 41.78600 31.69300
C  42.31900 40.43100 31.47000
C  42.38100 40.19800 29.90300
C  43.72600 40.41100 32.13600
C  40.13400 41.78200 32.47100
C  40.05300 40.99800 33.84800
H  39.91700 41.77200 35.12900
N  42.85000 39.40000 26.96400
C  43.11700 38.64000 28.03900
C  43.74200 37.44000 27.62700
C  43.98200 37.56100 26.23900
C  43.32200 38.78300 25.83800
C  44.07600 36.33500 28.57900
C  44.66400 36.55400 25.33300
O  44.76900 36.75800 24.13300
C  45.30400 35.34500 25.92100
N  42.21500 41.42200 24.92700
C  42.54100 40.45200 24.11200
C  42.26700 40.82600 22.63400
C  41.20700 41.87500 22.78100
C  41.42800 42.29600 24.20000
C  43.53600 41.28600 21.85000
C  39.73300 41.63000 22.31000
C  39.00100 40.33400 22.77100
N  41.10700 43.08700 27.03800
C  40.80800 43.91200 26.00000
C  40.31800 45.11700 26.51000
C  40.37200 44.93600 27.92800
C  40.80400 43.64600 28.16700
C  39.87800 46.25800 25.74300
C  39.99500 45.56600 29.17300
O  39.50500 46.69300 29.46000
C  40.20200 44.49700 30.22100
C  41.13900 45.04100 31.27000
O  42.23600 45.57600 31.13000
O  40.51400 44.97900 32.48100
C  41.15000 45.62200 33.67500
H  43.00100 38.22900 30.16800
H  43.47200 38.65600 23.65400
H  40.38600 44.14200 23.87700
H  42.27800 42.55300 32.03500
H  41.70400 39.64400 31.90600
H  44.03400 41.22700 32.78900
H  44.42500 40.26200 31.31300
H  43.79700 39.58800 32.84600
H  39.37300 41.43000 31.77500
H  39.87400 42.81300 32.71400
H  41.03500 40.52800 33.89000
H  39.38200 40.14200 33.91400
H  45.14300 36.45600 28.76600
H  43.71700 35.38600 28.18000
H  43.53300 36.41800 29.52100
H  46.03700 35.70300 26.64500
H  45.86600 34.78400 25.17500
H  44.65500 34.61800 26.41000
H  41.79700 39.96100 22.16500
H  41.52900 42.67000 22.10900
H  44.36800 40.77300 22.33200
H  43.71500 42.33300 22.09500
H  43.56700 41.06700 20.78300
H  39.67100 41.62300 21.22100
H  39.16900 42.48000 22.69300
H  38.46600 39.86200 21.94600
H  38.24300 40.64200 23.49100
H  39.75200 39.76400 23.31800
H  39.57400 45.96600 24.73800
H  40.64800 47.01200 25.58100
H  38.95600 46.63700 26.18500
H  39.18000 44.32300 30.56000
H  41.68300 44.88400 34.27400
H  40.37800 46.14300 34.24100
H  41.78000 46.46900 33.40100

