158

Mg 16.34300 51.79300 25.43900
C  18.00100 50.70600 28.21200
C  13.66300 52.87200 27.35200
C  14.55300 52.41000 22.52300
C  18.75800 50.11200 23.44100
N  15.88300 51.68100 27.49100
C  16.80700 51.39400 28.45200
C  16.38900 51.91700 29.84800
C  14.88900 52.31400 29.50500
C  14.83900 52.38200 28.00900
C  13.70800 51.44400 30.02500
C  17.33100 53.09600 30.35600
C  18.01200 52.94100 31.77000
H  17.33700 52.06800 32.80600
N  14.38500 52.61900 25.02000
C  13.42900 52.91900 25.96100
C  12.31100 53.51800 25.23500
C  12.65200 53.50700 23.82900
C  13.94600 52.88100 23.75700
C  11.22500 54.22200 25.86400
C  11.77600 53.88300 22.64800
O  12.19900 53.97700 21.49100
C  10.34400 54.24000 22.85800
N  16.68300 51.27000 23.33700
C  15.70900 51.59900 22.40900
C  16.10900 51.17800 21.00900
C  17.52200 50.59300 21.22700
C  17.70700 50.65000 22.75300
C  15.08500 50.27500 20.29300
C  18.77500 51.32700 20.61700
C  18.75700 52.82100 20.67800
N  17.96000 50.61500 25.68800
C  18.90000 50.08100 24.83300
C  19.93500 49.38800 25.55400
C  19.59800 49.54100 26.88300
C  18.34700 50.25500 26.92800
C  21.16200 48.64600 25.01600
C  20.04000 49.36100 28.26200
O  21.11800 48.83100 28.61900
C  18.97400 50.03100 29.24600
C  18.43200 49.02100 30.10300
O  17.35500 48.41800 30.06300
O  19.37200 48.69800 31.05000
C  18.92500 47.77500 32.12500
H  12.94200 53.28700 28.05900
H  14.01000 52.50100 21.58000
H  19.47700 49.56100 22.83100
H  16.51700 51.10800 30.56700
H  14.79100 53.34900 29.83300
H  13.53700 50.54100 29.43900
H  12.79100 51.94100 30.34400
H  14.02100 51.04700 30.99100
H  16.87000 54.04700 30.09000
H  18.13300 52.98000 29.62700
H  17.98800 53.97200 32.12400
H  19.06400 52.70300 31.61100
H  10.84800 55.07600 25.30200
H  11.49400 54.57000 26.86100
H  10.53600 53.40700 26.08600
H  10.06000 55.24200 23.17800
H  10.01700 53.50300 23.59100
H  9.89900 54.01800 21.88800
H  16.04200 52.02100 20.32200
H  17.53600 49.54000 20.94600
H  14.19100 50.27000 20.91600
H  15.51400 49.27400 20.23500
H  14.70100 50.62700 19.33600
H  18.70100 50.98700 19.58300
H  19.72600 50.99900 21.03600
H  17.90400 53.30600 21.15200
H  18.84000 53.29400 19.69900
H  19.56500 53.05700 21.37100
H  21.06500 48.56500 23.93300
H  21.30900 47.60500 25.30300
H  22.10600 49.15100 25.22100
H  19.48900 50.83800 29.76600
H  19.21000 46.79800 31.73500
H  17.85100 47.76200 32.31100
H  19.40300 48.04100 33.06800
Mg 8.70300 47.51700 27.90900
C  7.10500 46.99500 30.83500
C  11.59600 47.87000 29.71700
C  10.28300 48.63900 25.13300
C  5.69800 47.74700 26.20800
N  9.26000 47.59100 30.09600
C  8.48200 47.21100 31.10000
C  9.21500 47.25700 32.43100
C  10.60400 47.95600 32.05600
C  10.53000 47.74400 30.53500
C  10.78300 49.41000 32.50400
C  9.23500 45.96500 33.24100
C  8.92400 46.02800 34.77400
H  9.46300 44.93600 35.68300
N  10.73800 47.89400 27.45000
C  11.78400 48.00600 28.27600
C  13.02300 48.28500 27.53300
C  12.59100 48.51100 26.20300
C  11.15000 48.37600 26.22900
C  14.43100 48.28300 28.11800
C  13.39900 48.83100 24.91800
O  12.89000 48.85600 23.78800
C  14.83600 48.84800 24.88300
N  8.06700 48.05700 25.94300
C  8.93300 48.54700 25.00300
C  8.20000 48.98700 23.73100
C  6.75000 48.38600 24.04100
C  6.83100 47.98200 25.49500
C  8.30200 50.50700 23.51000
C  6.29600 47.17000 23.07300
C  6.27900 47.54500 21.56900
N  6.71800 47.56900 28.36600
C  5.61200 47.54000 27.58000
C  4.45700 47.28800 28.42300
C  4.96400 47.00000 29.66200
C  6.36100 47.20700 29.58800
C  3.08700 47.18400 27.88400
C  4.66100 46.70500 31.04700
O  3.55100 46.54600 31.55100
C  6.08200 46.59400 31.81000
C  6.18200 45.31100 32.45700
O  6.59100 44.27600 31.96500
O  5.76400 45.34300 33.78500
C  5.74600 43.98200 34.46200
H  12.59600 48.05500 30.11400
H  10.70100 49.12200 24.24700
H  4.76100 47.75400 25.64800
H  8.59700 48.02100 32.90300
H  11.40700 47.30300 32.39800
H  10.04700 49.55300 33.29600
H  10.53400 50.12100 31.71700
H  11.76400 49.54000 32.96100
H  10.26200 45.61500 33.14200
H  8.51800 45.28700 32.77800
H  7.85300 45.93700 34.95500
H  9.25700 47.02200 35.07000
H  14.36700 48.05100 29.18200
H  14.91500 49.25800 28.07400
H  15.07100 47.62500 27.53100
H  15.11000 49.70300 25.50100
H  15.13700 49.04600 23.85400
H  15.20900 47.89200 25.24900
H  8.58900 48.42800 22.88000
H  6.01000 49.18300 23.97000
H  7.35300 50.83300 23.93600
H  8.27600 50.63800 22.42800
H  9.22900 50.91600 23.91200
H  5.33600 46.80900 23.44200
H  6.97800 46.33900 23.25500
H  6.54300 48.58100 21.36000
H  5.26300 47.46100 21.18200
H  6.91700 46.86500 21.00400
H  2.67300 48.18800 27.79400
H  2.52500 46.71700 28.69400
H  3.08800 46.68300 26.91600
H  6.01600 47.30000 32.63700
H  5.89500 44.12400 35.53200
H  6.60300 43.42100 34.08900
H  4.80300 43.50300 34.19700

