158

Mg 2.63700 -2.85100 45.28800
C  5.64700 -1.29400 44.20900
C  0.84800 -0.35600 43.73900
C  -0.10200 -4.68600 45.63000
C  4.68700 -5.57000 46.55600
N  3.14800 -1.15600 43.96500
C  4.42800 -0.59900 43.81100
C  4.35600 0.71100 42.98000
C  2.86600 1.12100 43.18900
C  2.21200 -0.23200 43.60000
C  2.59100 2.13500 44.39200
C  4.71700 0.43200 41.44100
C  5.99700 1.15300 41.01800
H  7.04800 0.55500 40.12800
N  0.57200 -2.51800 44.86200
C  0.06200 -1.45800 44.23300
C  -1.31800 -1.60000 44.13000
C  -1.68400 -2.91000 44.61800
C  -0.44300 -3.43400 45.11200
C  -2.30300 -0.59200 43.42700
C  -3.04100 -3.48200 44.52000
O  -4.03600 -2.78800 44.09800
C  -3.26200 -4.81100 44.87000
N  2.38500 -4.69900 46.12800
C  1.12000 -5.25100 46.03700
C  1.16500 -6.74900 46.49000
C  2.64400 -6.94300 46.88600
C  3.32200 -5.70600 46.42600
C  0.25700 -7.04400 47.69000
C  3.18800 -8.27400 46.39400
C  4.04500 -8.97800 47.48700
N  4.76100 -3.36500 45.43100
C  5.39800 -4.40000 46.03800
C  6.82800 -4.19000 45.92200
C  6.94000 -3.02700 45.25200
C  5.62800 -2.56700 44.84900
C  7.92500 -5.05500 46.53400
C  7.93800 -2.07000 44.85300
O  9.16200 -2.01100 45.09100
C  7.05900 -0.86700 44.14000
C  7.25100 0.40400 44.93300
O  6.88500 0.60300 46.06100
O  7.76400 1.36600 44.08800
C  7.85500 2.71200 44.71000
H  0.34800 0.52700 43.33500
H  -0.97700 -5.33900 45.65000
H  5.24700 -6.42700 46.93600
H  5.01100 1.49900 43.35200
H  2.57800 1.62500 42.26700
H  2.10400 3.04200 44.03200
H  3.48200 2.26800 45.00700
H  1.90100 1.65100 45.08200
H  3.96300 0.88000 40.79400
H  4.89900 -0.62500 41.24400
H  6.45900 1.62900 41.88300
H  5.57900 2.06000 40.58000
H  -2.47000 -1.06500 42.45900
H  -1.93400 0.39100 43.13300
H  -3.22200 -0.32100 43.94600
H  -2.65000 -5.31600 44.12300
H  -4.30500 -5.08300 44.70500
H  -2.94000 -4.81900 45.91100
H  0.85100 -7.40500 45.67800
H  2.75000 -6.73600 47.95000
H  0.31900 -6.21300 48.39200
H  0.51100 -7.99500 48.15800
H  -0.75700 -7.06800 47.29200
H  3.82500 -8.10500 45.52600
H  2.39900 -8.98300 46.14100
H  3.60100 -9.91000 47.83500
H  4.17100 -8.29400 48.32700
H  5.10300 -9.05700 47.24000
H  8.41000 -5.60100 45.72500
H  7.60900 -5.62500 47.40800
H  8.70900 -4.36200 46.84000
H  7.47300 -0.73200 43.14100
H  7.03400 2.92100 45.39500
H  8.00700 3.41900 43.89400
H  8.79100 2.86400 45.24600
Mg 16.64900 -2.45300 27.93100
C  15.55700 -0.13200 30.42700
C  18.72800 -3.75400 30.12700
C  18.06800 -4.09900 25.30800
C  14.67800 -0.71400 25.56700
N  16.83800 -2.10800 30.10000
C  16.35400 -1.14300 30.91200
C  16.96300 -1.31200 32.27300
C  18.09300 -2.40000 32.15500
C  17.90500 -2.81200 30.67600
C  19.55900 -1.82400 32.39600
C  15.91100 -1.60200 33.41600
C  16.21700 -1.33700 34.88500
H  17.44500 -0.49900 35.26700
N  18.07700 -3.90600 27.72900
C  18.75800 -4.34000 28.83100
C  19.60600 -5.44600 28.33900
C  19.57900 -5.48200 26.93100
C  18.48300 -4.49500 26.59900
C  20.45800 -6.26200 29.36100
C  20.33600 -6.34100 25.98200
O  20.05000 -6.31200 24.76700
C  21.31200 -7.32300 26.44400
N  16.51700 -2.22700 25.64500
C  17.15600 -3.14800 24.83900
C  16.83900 -2.94700 23.30400
C  15.45200 -2.16200 23.50600
C  15.52500 -1.69900 25.02400
C  17.94900 -2.31500 22.40700
C  14.20600 -3.04900 23.18400
C  13.05800 -2.58200 22.23600
N  15.36000 -0.85900 27.90200
C  14.63400 -0.26200 26.87600
C  13.82200 0.81700 27.49500
C  14.21500 0.94000 28.85500
C  15.17400 -0.06300 29.03300
C  12.82300 1.73300 26.72500
C  14.02100 1.74700 30.00600
O  13.22700 2.61400 30.30300
C  14.81500 0.99800 31.13500
C  15.70900 2.11600 31.72400
O  16.73200 2.47100 31.21000
O  15.17500 2.60100 32.86200
C  16.10800 3.30700 33.76800
H  19.56700 -4.06700 30.75200
H  18.55000 -4.63600 24.48900
H  14.02300 -0.19300 24.86500
H  17.46700 -0.36600 32.46900
H  17.80400 -3.25800 32.76200
H  19.55600 -0.99600 33.10500
H  19.95800 -1.57000 31.41400
H  20.11800 -2.63900 32.85500
H  15.82900 -2.68900 33.42900
H  15.03000 -1.03800 33.11000
H  16.18000 -2.31900 35.35700
H  15.34500 -0.77200 35.21500
H  20.58100 -7.31100 29.09200
H  19.99700 -6.17700 30.34500
H  21.44100 -5.80000 29.45600
H  21.99300 -6.84900 27.15100
H  21.89100 -7.73500 25.61800
H  20.72300 -8.12800 26.88500
H  16.68400 -3.92400 22.84600
H  15.39300 -1.27100 22.88000
H  18.84800 -2.01700 22.94700
H  17.52700 -1.41100 21.96600
H  18.22000 -3.05000 21.65000
H  13.79100 -3.25100 24.17100
H  14.58000 -4.02200 22.86600
H  12.19500 -2.54500 22.90100
H  12.81000 -3.11200 21.31700
H  13.42300 -1.61600 21.88700
H  12.04200 1.96400 27.45000
H  12.37100 1.13900 25.93000
H  13.29500 2.62800 26.32100
H  14.12700 0.69300 31.92300
H  16.21500 4.36000 33.50700
H  17.11600 2.92100 33.92500
H  15.56100 3.28000 34.71000

