158

Mg 47.57300 24.34600 28.26300
C  48.48600 26.56900 30.84900
C  46.76200 21.97300 30.66100
C  46.71300 22.18600 25.80900
C  48.44900 26.78900 26.00400
N  47.56800 24.25300 30.48900
C  47.95800 25.29600 31.34900
C  47.63000 24.90300 32.81500
C  47.25300 23.37100 32.65700
C  47.18800 23.17700 31.18100
C  48.28800 22.41400 33.32600
C  46.56700 25.74100 33.52100
C  46.16500 25.42200 34.91900
H  46.47100 26.46000 36.03200
N  46.84500 22.36900 28.22500
C  46.49900 21.55800 29.33600
C  45.93600 20.33300 28.91800
C  45.92200 20.33600 27.48700
C  46.53900 21.62100 27.08400
C  45.41100 19.26600 29.79400
C  45.52700 19.23900 26.53200
O  45.52000 19.41100 25.29900
C  45.12700 17.86100 27.08700
N  47.78100 24.38000 26.16600
C  47.32200 23.41800 25.38000
C  47.38500 23.79200 23.80500
C  47.71000 25.28900 23.98800
C  48.02700 25.55700 25.47700
C  48.39300 23.00100 23.03100
C  46.56200 26.28400 23.50800
C  47.08100 27.59900 22.71100
N  48.26900 26.26600 28.27900
C  48.61200 27.16500 27.30400
C  48.98600 28.46000 27.78400
C  48.81400 28.24000 29.13300
C  48.48100 26.87200 29.42000
C  49.33000 29.69600 27.06400
C  48.97800 29.00200 30.42900
O  49.34400 30.15000 30.65800
C  48.77000 27.89000 31.57400
C  49.90400 27.80400 32.50300
O  51.00000 27.25800 32.32700
O  49.55100 28.43700 33.62900
C  50.37400 28.33400 34.87900
H  46.48800 21.22000 31.40300
H  46.36900 21.63300 24.93200
H  48.63900 27.55700 25.25100
H  48.59100 25.06300 33.30400
H  46.24200 23.23200 33.04000
H  48.68900 21.73300 32.57500
H  47.78500 21.72700 34.00600
H  49.14300 22.81200 33.87300
H  45.63400 25.60100 32.97500
H  46.75700 26.80300 33.37100
H  46.63700 24.49800 35.25200
H  45.11200 25.14900 34.84900
H  45.50200 19.42500 30.86800
H  46.03200 18.38000 29.65800
H  44.39500 19.09700 29.43900
H  44.26700 17.92400 27.75500
H  45.92600 17.46900 27.71600
H  44.84000 17.26200 26.22300
H  46.38200 23.60000 23.42300
H  48.58500 25.46600 23.36300
H  49.36600 23.49200 23.06600
H  48.19600 22.84500 21.97000
H  48.54600 22.02800 23.49900
H  45.96900 26.63400 24.35300
H  45.92500 25.67900 22.86300
H  48.16700 27.55200 22.63400
H  46.72000 28.47200 23.25500
H  46.52100 27.68100 21.77900
H  49.07200 30.51700 27.73300
H  48.71000 29.79500 26.17300
H  50.37500 29.75500 26.76100
H  47.82200 28.15000 32.04600
H  51.10900 29.13800 34.83200
H  50.97500 27.42500 34.85700
H  49.79000 28.41900 35.79500
Mg 8.56400 48.87900 25.00200
C  6.53900 49.40300 27.90100
C  11.10800 50.37500 26.86600
C  10.51300 48.37900 22.43600
C  5.71200 48.40200 23.14900
N  8.77100 49.83800 27.15700
C  7.88600 49.72300 28.21600
C  8.50900 50.16300 29.59600
C  9.82200 50.84300 29.07000
C  9.90500 50.38100 27.57900
C  9.88200 52.36100 29.16800
C  8.80600 49.09800 30.67800
C  8.33300 49.54700 32.04600
H  8.14300 48.50200 33.07300
N  10.56500 49.27200 24.69700
C  11.44800 49.79500 25.59700
C  12.79100 49.55800 25.04700
C  12.64200 48.80100 23.80300
C  11.23200 48.80200 23.59000
C  13.98100 50.02700 25.75400
C  13.59400 48.08100 22.79300
O  13.26900 47.41500 21.85700
C  15.10200 48.22800 22.96900
N  8.22900 48.45600 23.08800
C  9.17900 48.28200 22.16700
C  8.61800 47.92000 20.76500
C  7.03300 47.97600 21.00900
C  7.00100 48.18000 22.52900
C  9.06700 48.97300 19.72200
C  6.31400 46.60200 20.63200
C  5.46200 46.59600 19.38000
N  6.54100 48.88400 25.38400
C  5.49900 48.64100 24.56800
C  4.25600 48.77200 25.28600
C  4.61100 49.02100 26.61500
C  6.00800 49.13400 26.66500
C  2.88700 48.72900 24.63600
C  4.11800 49.25800 27.94400
O  2.92600 49.22900 28.35700
C  5.37600 49.48900 28.85400
C  5.36500 48.50600 29.88300
O  5.82900 47.32600 29.71300
O  4.55200 48.90500 30.94100
C  4.27100 47.84500 32.01800
H  11.86300 50.76600 27.55100
H  11.14800 48.13600 21.58200
H  4.80900 48.38500 22.53500
H  8.00500 51.06200 29.95000
H  10.75700 50.52400 29.53100
H  9.13000 52.82900 29.80300
H  9.57900 52.61300 28.15100
H  10.90800 52.65600 29.38500
H  9.88000 48.94800 30.78900
H  8.46200 48.08700 30.45900
H  7.42800 50.07700 31.74800
H  9.08900 50.17800 32.51300
H  14.65100 50.66500 25.17800
H  14.59500 49.21500 26.14600
H  13.70700 50.61100 26.63300
H  15.30200 49.29800 23.02400
H  15.58800 47.72100 22.13600
H  15.31700 47.83500 23.96200
H  8.90800 46.92600 20.42500
H  6.54000 48.83700 20.55700
H  9.88900 49.53900 20.15900
H  8.22800 49.54600 19.32700
H  9.38400 48.34400 18.89000
H  5.62500 46.25600 21.40200
H  7.12900 45.89100 20.76300
H  5.47900 47.59200 18.93700
H  4.43500 46.37600 19.67100
H  5.79800 45.79200 18.72500
H  2.10300 49.21500 25.21700
H  2.60600 47.67700 24.58500
H  2.81200 49.06700 23.60200
H  5.20100 50.49200 29.24400
H  3.64600 48.27700 32.79900
H  5.19800 47.54000 32.50300
H  3.66400 47.07100 31.55000

