158

Mg 1.69200 -1.82200 44.17300
C  4.98500 -0.62700 43.62800
C  0.50500 0.93500 42.34500
C  -1.33000 -3.06200 44.36200
C  3.12700 -4.80600 45.28000
N  2.63500 -0.21800 42.92100
C  3.99500 0.09300 42.86800
C  4.28700 1.26400 41.94800
C  2.83600 1.95600 41.78800
C  1.92400 0.88800 42.40900
C  2.77300 3.21000 42.66500
C  4.87000 0.75500 40.61700
C  5.99100 1.67100 40.02200
H  5.73500 2.25200 38.65700
N  -0.18600 -1.11900 43.43600
C  -0.47600 -0.01900 42.75700
C  -1.88400 0.12200 42.58500
C  -2.46100 -1.06200 43.10000
C  -1.33200 -1.81000 43.71200
C  -2.59000 1.21700 41.89600
C  -3.93200 -1.34400 43.02900
O  -4.74200 -0.54700 42.49800
C  -4.48000 -2.63600 43.58300
N  1.02200 -3.78600 44.47600
C  -0.30000 -3.96600 44.80900
C  -0.60600 -5.18700 45.47400
C  0.81500 -5.82500 45.74500
C  1.79900 -4.78400 45.05100
C  -1.41400 -5.05100 46.80500
C  1.01000 -7.23900 45.21400
C  0.97800 -7.32700 43.69000
N  3.71000 -2.59700 44.42200
C  4.05800 -3.83800 44.86200
C  5.46400 -3.87000 45.09000
C  5.95300 -2.59500 44.63900
C  4.80100 -1.93100 44.21400
C  6.22600 -5.03400 45.71400
C  7.08800 -1.71300 44.39500
O  8.28800 -1.84500 44.51000
C  6.46500 -0.37800 43.79000
C  6.78600 0.81300 44.57400
O  6.12000 1.20800 45.50800
O  7.92200 1.34900 44.06300
C  8.36200 2.69700 44.55700
H  0.16400 1.89700 41.95600
H  -2.28900 -3.54400 44.56300
H  3.71900 -5.62300 45.69900
H  4.94500 1.87300 42.56800
H  2.57900 2.13700 40.74500
H  3.75100 3.68800 42.72400
H  2.47400 3.13900 43.71100
H  2.08900 3.95500 42.26000
H  4.11400 0.44500 39.89600
H  5.48900 -0.07000 40.97100
H  6.93200 1.12100 40.04400
H  6.18800 2.53200 40.66000
H  -3.23200 0.77800 41.13200
H  -1.95700 1.92600 41.36200
H  -3.21300 1.75300 42.61200
H  -4.10100 -3.48100 43.00900
H  -5.56100 -2.67200 43.44700
H  -4.29800 -2.86000 44.63400
H  -1.13700 -5.72400 44.68700
H  1.04700 -5.96800 46.80000
H  -1.36300 -4.00200 47.09500
H  -0.93700 -5.67100 47.56400
H  -2.44500 -5.40400 46.76200
H  0.31800 -8.01900 45.53100
H  1.96400 -7.66100 45.52900
H  0.31900 -8.04500 43.20300
H  1.99700 -7.52700 43.35800
H  0.66400 -6.43500 43.14800
H  5.78500 -5.25300 46.68700
H  7.28700 -4.78100 45.72400
H  6.09300 -5.83400 44.98600
H  6.93700 -0.23400 42.81800
H  7.68200 3.35900 44.01900
H  9.41800 2.83500 44.32500
H  8.21500 2.75400 45.63500
Mg 24.50200 -4.99800 46.10700
C  26.41900 -2.74900 44.23600
C  21.96100 -4.37000 43.99200
C  23.05500 -7.75100 47.38600
C  27.48900 -5.74200 47.97000
N  24.27200 -3.79900 44.23800
C  25.12400 -2.85400 43.73100
C  24.59900 -2.11900 42.56200
C  23.04400 -2.41600 42.67800
C  23.02200 -3.57400 43.73700
C  22.09900 -1.24400 43.05400
C  25.34200 -2.59000 41.22000
C  25.98800 -1.50700 40.29600
H  25.81200 -1.56600 38.71400
N  22.68000 -5.93600 45.74900
C  21.74300 -5.40900 44.93000
C  20.51500 -6.13900 45.06200
C  20.83500 -7.24900 45.99200
C  22.28300 -7.01100 46.45400
C  19.25500 -5.81900 44.26500
C  19.93400 -8.38700 46.41500
O  18.86800 -8.48400 45.76500
C  20.24000 -9.50100 47.30900
N  25.17900 -6.58100 47.39100
C  24.37500 -7.52800 47.88100
C  25.04000 -8.25700 49.05800
C  26.34100 -7.53000 49.21800
C  26.37200 -6.57400 48.08300
C  24.28800 -8.57200 50.33400
C  27.59200 -8.43100 49.28100
C  27.50300 -9.64700 50.22200
N  26.49400 -4.43700 46.20000
C  27.56100 -4.71500 46.97700
C  28.72300 -3.86900 46.78800
C  28.27800 -3.09900 45.70400
C  26.94700 -3.47300 45.39600
C  29.98300 -3.82100 47.63600
C  28.67500 -2.00700 44.75900
O  29.73800 -1.46700 44.48500
C  27.56900 -1.77700 43.80100
C  27.07100 -0.36700 44.03100
O  26.24600 -0.03900 44.84000
O  27.50900 0.36200 43.01700
C  26.76200 1.67200 42.81400
H  21.13100 -4.11100 43.33200
H  22.59700 -8.58000 47.93000
H  28.41600 -5.89200 48.52700
H  24.77400 -1.09300 42.88500
H  22.73300 -2.76600 41.69400
H  22.61000 -0.28400 43.13000
H  21.79700 -1.45300 44.08100
H  21.35700 -1.19400 42.25800
H  24.58100 -3.08300 40.61500
H  26.18000 -3.22400 41.50900
H  27.07300 -1.57900 40.37000
H  25.78200 -0.53800 40.75100
H  18.47400 -6.57800 44.30500
H  19.40800 -6.02300 43.20600
H  18.91500 -4.78500 44.32100
H  21.13900 -10.03500 47.00100
H  19.43800 -10.23900 47.30800
H  20.37000 -9.08500 48.30800
H  25.35700 -9.20600 48.62600
H  26.39100 -6.88900 50.09800
H  24.66700 -8.27300 51.31100
H  24.13100 -9.62700 50.55400
H  23.31000 -8.11400 50.18800
H  28.42900 -7.81900 49.61700
H  27.79600 -8.76300 48.26300
H  28.05500 -9.52500 51.15400
H  27.89100 -10.46000 49.60800
H  26.50000 -9.94700 50.52500
H  30.64000 -4.65400 47.38300
H  29.66500 -3.97300 48.66700
H  30.42300 -2.84700 47.42600
H  27.90300 -1.88200 42.76900
H  25.70900 1.48200 43.02000
H  26.92300 1.99200 41.78500
H  26.93500 2.47900 43.52600

