158

Mg 24.96300 -4.20900 45.45200
C  26.55200 -1.59000 43.78900
C  22.32100 -3.75000 43.27700
C  23.97800 -7.27900 46.28200
C  28.07200 -4.89100 47.22200
N  24.51100 -2.76800 43.78600
C  25.27400 -1.82000 43.28700
C  24.61600 -1.10700 42.11700
C  23.12100 -1.61600 42.15100
C  23.29400 -2.82400 43.12300
C  21.97200 -0.71400 42.73100
C  25.38300 -1.45300 40.76000
C  25.73100 -0.26200 39.78100
H  25.88500 -0.47400 38.29100
N  23.28700 -5.25500 45.05500
C  22.29700 -4.87400 44.15500
C  21.20200 -5.83400 44.24700
C  21.61200 -6.85600 45.06200
C  22.99600 -6.53300 45.53600
C  19.82000 -5.64700 43.54200
C  20.72500 -8.01400 45.46900
O  19.55200 -8.17700 44.94500
C  21.15200 -8.98800 46.47400
N  25.91800 -5.90200 46.65500
C  25.23600 -7.02500 46.79100
C  26.03100 -8.18200 47.43200
C  27.36100 -7.36800 47.75700
C  27.12200 -5.93300 47.21100
C  25.39000 -8.83500 48.65700
C  28.63100 -7.99600 47.08700
C  29.77400 -8.43200 47.95400
N  26.90500 -3.29400 45.64600
C  27.99800 -3.70100 46.38700
C  29.10200 -2.84200 46.03100
C  28.50200 -1.95100 45.11000
C  27.25500 -2.34800 44.79700
C  30.43900 -2.57300 46.72300
C  28.75600 -0.83200 44.25300
O  29.75000 -0.11900 44.22400
C  27.51900 -0.55300 43.37000
C  27.03700 0.82100 43.76700
O  26.22900 1.10600 44.64700
O  27.68200 1.76100 42.94000
C  27.07700 3.10200 42.91500
H  21.52100 -3.65300 42.54100
H  23.67900 -8.31000 46.48200
H  29.00100 -5.32200 47.60100
H  24.68800 -0.04000 42.32900
H  22.62900 -1.97400 41.24600
H  22.29900 0.24100 42.32000
H  21.95800 -0.71300 43.82000
H  21.02400 -0.95100 42.24700
H  24.76600 -2.13100 40.17000
H  26.27200 -2.02700 41.02000
H  26.67200 0.15600 40.13800
H  24.91000 0.44600 39.88900
H  19.59100 -6.53500 42.95200
H  19.98000 -4.87700 42.78800
H  18.97000 -5.35600 44.15900
H  22.03100 -9.58500 46.23000
H  20.27700 -9.63700 46.51000
H  21.32000 -8.57400 47.46800
H  26.26200 -8.91900 46.66200
H  27.50800 -7.13100 48.81100
H  24.33700 -8.55800 48.61100
H  25.97800 -8.51400 49.51700
H  25.47700 -9.91900 48.58000
H  29.01300 -7.27300 46.36700
H  28.21100 -8.82300 46.51400
H  29.47000 -8.56900 48.99200
H  30.53900 -7.65600 47.96800
H  30.13900 -9.41300 47.65000
H  31.11100 -3.43000 46.69800
H  30.27700 -2.14200 47.71000
H  30.87700 -1.71700 46.20900
H  27.90800 -0.52100 42.35300
H  26.02400 3.02900 42.64300
H  27.49500 3.75600 42.15000
H  27.17000 3.63600 43.86000
Mg 17.09500 -0.41900 27.76700
C  15.94300 1.61400 30.41600
C  19.10300 -2.02400 29.92600
C  18.72400 -1.75900 25.19200
C  15.28100 1.61700 25.52400
N  17.55300 -0.12500 29.91300
C  16.88400 0.68800 30.87100
C  17.51900 0.49400 32.22900
C  18.74600 -0.48300 31.91700
C  18.42700 -0.93700 30.45600
C  20.19900 0.06100 32.13300
C  16.33600 -0.16900 33.15600
C  16.36500 0.33500 34.63500
H  17.64900 0.91000 35.25600
N  18.58600 -1.87700 27.61100
C  19.19700 -2.45800 28.61100
C  19.98800 -3.50300 28.09500
C  20.01800 -3.33600 26.68900
C  19.09500 -2.29100 26.40600
C  20.83900 -4.38200 28.99800
C  20.78800 -4.13300 25.57300
O  20.45300 -4.00300 24.38300
C  21.76500 -5.18900 25.90600
N  16.95000 -0.15900 25.67600
C  17.84200 -0.71800 24.80800
C  17.68000 -0.30600 23.43300
C  16.43400 0.57500 23.49300
C  16.18800 0.73200 25.00200
C  18.93500 0.32300 22.74900
C  15.24500 -0.15200 22.77100
C  15.11500 0.20500 21.28300
N  15.66800 1.06900 27.91200
C  15.04200 1.80500 26.91900
C  14.24000 2.91800 27.47500
C  14.48000 2.75300 28.84100
C  15.45000 1.76400 29.04900
C  13.27500 3.85400 26.80000
C  14.23900 3.33500 30.18100
O  13.37800 4.18000 30.53500
C  15.14000 2.63200 31.25800
C  15.89700 3.62900 32.06000
O  16.90700 4.29300 31.80300
O  15.19300 3.72800 33.25800
C  15.70600 4.70900 34.17800
H  19.75100 -2.53600 30.63900
H  19.35900 -1.97500 24.33000
H  14.77100 2.31000 24.85200
H  17.83600 1.46700 32.60300
H  18.51800 -1.38800 32.48000
H  20.63700 -0.60700 32.87600
H  20.17400 0.99200 32.70000
H  20.74800 0.27800 31.21700
H  16.59000 -1.22300 33.26900
H  15.34300 0.06800 32.77300
H  16.01100 -0.45800 35.29300
H  15.58800 1.09900 34.63100
H  20.14700 -4.76200 29.74900
H  21.51500 -3.75400 29.57800
H  21.35700 -5.26700 28.62700
H  22.43400 -5.36800 25.06400
H  21.11400 -6.01900 26.18000
H  22.28500 -4.74800 26.75700
H  17.48800 -1.26200 22.94600
H  16.56400 1.60800 23.17000
H  19.73800 0.46800 23.47100
H  18.80500 1.30900 22.30100
H  19.18300 -0.37900 21.95300
H  14.32400 0.21400 23.22600
H  15.22300 -1.21000 23.03000
H  15.98700 0.74300 20.91100
H  14.21900 0.76000 21.00700
H  15.13100 -0.65900 20.61800
H  13.51400 3.88600 25.73700
H  13.36900 4.85600 27.21900
H  12.30400 3.41500 27.03300
H  14.40600 2.14000 31.89600
H  15.20700 5.66700 34.02700
H  16.79200 4.78700 34.21900
H  15.43900 4.40200 35.18900

