158

Mg 30.39500 59.85200 39.22800
C  27.35900 58.40200 38.40600
C  32.05100 57.10100 37.98700
C  33.34200 61.55500 39.38800
C  28.70200 62.89900 39.70000
N  29.67900 57.96800 38.29500
C  28.43800 57.55200 38.10800
C  28.46400 56.13400 37.43900
C  29.91400 55.70600 37.66800
C  30.64700 57.03700 37.98300
C  30.29300 54.62800 38.74000
C  28.24900 56.26100 35.83200
C  27.00700 55.45900 35.32600
H  26.05600 56.12200 34.35300
N  32.41900 59.39000 38.82700
C  32.87700 58.15900 38.30100
C  34.34200 58.26800 38.22000
C  34.75500 59.51500 38.76400
C  33.45000 60.21500 39.00500
C  35.08600 57.02600 37.92100
C  36.16000 59.95300 38.90200
O  37.07700 59.20600 38.50200
C  36.68900 61.20700 39.71200
N  30.92800 61.86100 39.55000
C  32.21600 62.34200 39.60800
C  32.31300 63.81700 39.98000
C  30.85300 64.23400 40.15800
C  30.11000 62.98100 39.66900
C  33.24600 64.21300 41.12100
C  30.49300 65.57800 39.38000
C  29.97200 66.70800 40.27700
N  28.42200 60.56600 39.16600
C  27.90500 61.79200 39.38500
C  26.40600 61.69800 39.32900
C  26.23300 60.42700 38.82500
C  27.40700 59.70200 38.86600
C  25.43100 62.81800 39.45200
C  25.17700 59.42400 38.52300
O  23.94300 59.44100 38.56400
C  25.98400 58.19700 38.09900
C  25.43200 57.06400 38.81400
O  25.35200 56.94600 40.04300
O  24.91700 56.11900 37.99900
C  24.31200 54.98300 38.67100
H  32.50700 56.11700 37.86200
H  34.26000 62.14100 39.46400
H  28.11300 63.80800 39.84100
H  27.84200 55.40200 37.95400
H  30.40600 55.38900 36.74800
H  31.15900 53.99700 38.53700
H  29.44700 53.96700 38.93100
H  30.67100 55.15400 39.61700
H  29.10000 55.92200 35.24100
H  28.17000 57.31200 35.55200
H  26.41500 55.19000 36.20000
H  27.44300 54.55700 34.89600
H  34.56600 56.45000 37.15600
H  35.13800 56.43500 38.83500
H  36.07800 57.26300 37.53400
H  37.77000 61.23000 39.57000
H  36.38600 61.16500 40.75900
H  36.25800 62.05200 39.17500
H  32.66500 64.37100 39.10900
H  30.60700 64.31700 41.21700
H  33.93500 64.97000 40.74600
H  33.85700 63.38100 41.47000
H  32.73300 64.63900 41.98200
H  29.72100 65.41600 38.62800
H  31.34000 66.02200 38.85700
H  30.43200 67.66900 40.04800
H  30.14400 66.55300 41.34200
H  28.90600 66.65100 40.05500
H  24.73600 62.75200 38.61500
H  25.85000 63.82300 39.40700
H  24.79800 62.78800 40.33900
H  25.91100 58.07000 37.01900
H  23.27800 55.28000 38.84700
H  24.80000 54.72000 39.60900
H  24.44800 54.10600 38.03900
Mg 35.55500 49.65700 25.65200
C  35.41100 47.95700 28.80500
C  34.31400 52.52700 27.34900
C  35.20700 51.04500 22.72500
C  36.27000 46.56200 24.20200
N  34.94600 50.16100 27.85800
C  34.99100 49.32700 28.94700
C  34.85900 50.12500 30.25600
C  34.34000 51.61000 29.81900
C  34.48500 51.45500 28.27800
C  32.88600 52.05500 30.28000
C  36.24400 50.19800 31.02300
C  36.21800 49.66600 32.48600
H  35.78600 50.68400 33.53900
N  34.82100 51.49300 25.06900
C  34.38100 52.54000 25.88500
C  34.07500 53.64100 24.99800
C  34.39300 53.27100 23.68600
C  34.87100 51.87200 23.81300
C  33.51700 55.01500 25.45500
C  34.30700 54.06000 22.34000
O  34.56300 53.54000 21.23400
C  34.10800 55.45400 22.49400
N  35.57900 48.81500 23.70400
C  35.51500 49.67200 22.66100
C  35.94300 48.96100 21.35600
C  36.27800 47.57500 21.94800
C  36.07800 47.67400 23.37500
C  34.81300 49.12600 20.29600
C  37.49300 46.85400 21.43800
C  38.81800 46.99700 22.18700
N  36.00600 47.75400 26.39500
C  36.17600 46.60900 25.64400
C  36.33200 45.50800 26.53600
C  36.09500 46.02400 27.84100
C  35.81200 47.34400 27.62200
C  36.58100 44.15300 26.16500
C  35.83500 45.56500 29.13100
O  35.80700 44.42000 29.59100
C  35.38400 46.92400 29.89400
C  34.15500 46.84600 30.64800
O  32.99000 46.99900 30.17300
O  34.43900 46.57800 32.00500
C  33.28200 46.51100 32.91600
H  34.03800 53.46300 27.83900
H  35.34000 51.60100 21.79500
H  36.37100 45.65400 23.60300
H  34.06100 49.81200 30.92800
H  35.06300 52.36800 30.12100
H  32.27200 52.29100 29.41100
H  32.85600 52.96600 30.87700
H  32.39500 51.28900 30.87900
H  36.73400 51.17200 31.04000
H  37.05800 49.64900 30.55000
H  37.16200 49.24300 32.82800
H  35.45900 48.88800 32.56800
H  32.54900 55.35000 25.08200
H  34.29100 55.77700 25.37100
H  33.43800 55.02600 26.54200
H  33.10000 55.68500 22.84000
H  34.14900 55.93500 21.51700
H  34.93800 55.85000 23.07900
H  36.77700 49.55700 20.98500
H  35.44400 46.92800 21.67800
H  33.80800 49.34000 20.65900
H  34.77500 48.22600 19.68200
H  35.04300 49.92900 19.59700
H  37.73300 47.29300 20.47000
H  37.15400 45.85600 21.16200
H  38.58800 47.55700 23.09300
H  39.50600 47.57300 21.56800
H  39.21600 46.01900 22.45600
H  35.83800 43.84500 25.43000
H  36.64000 43.48500 27.02500
H  37.50200 44.19600 25.58400
H  36.29500 47.09100 30.47000
H  32.23900 46.54100 32.60200
H  33.34600 47.34200 33.61900
H  33.46600 45.56700 33.42900

