158

Mg 9.39500 47.93600 25.17800
C  7.40700 48.35100 27.86700
C  11.94000 49.63000 26.87300
C  11.43200 47.36600 22.59700
C  6.66800 46.86800 23.23900
N  9.60200 48.85200 27.14800
C  8.68600 48.77600 28.14600
C  9.30800 49.21700 29.46900
C  10.51800 50.00400 28.96300
C  10.70900 49.60300 27.51000
C  10.21700 51.53500 29.04300
C  9.72500 48.12100 30.46900
C  9.06200 48.21800 31.86900
H  9.45100 47.10000 32.88500
N  11.41800 48.44100 24.75900
C  12.32300 49.08700 25.62400
C  13.63000 49.04900 25.06600
C  13.48600 48.43700 23.82200
C  12.08400 48.03900 23.65500
C  14.87900 49.58900 25.82900
C  14.57300 48.23100 22.72000
O  14.40900 47.69100 21.59700
C  15.98600 48.74500 22.98200
N  9.02800 47.33600 23.09500
C  10.07500 47.17900 22.27400
C  9.68800 46.48600 20.94100
C  8.09300 46.39000 21.12300
C  7.85700 46.89100 22.58700
C  10.00200 47.37400 19.69800
C  7.49800 44.96200 20.87800
C  7.69000 43.95200 22.04500
N  7.45700 47.55600 25.45100
C  6.37200 47.17700 24.56500
C  5.16200 47.26700 25.30900
C  5.46900 47.62100 26.61700
C  6.89400 47.84400 26.62000
C  3.87700 47.07100 24.76600
C  4.94700 47.74800 27.92000
O  3.82700 47.64300 28.35300
C  6.21100 48.19900 28.86200
C  6.37500 47.12500 29.90900
O  7.26800 46.23700 29.83800
O  5.44000 47.15600 30.87000
C  5.70500 46.21100 31.97300
H  12.70400 50.05600 27.52600
H  12.06000 47.03700 21.76700
H  5.84200 46.45900 22.65300
H  8.58800 49.85200 29.98400
H  11.39300 49.80300 29.58100
H  10.38800 51.96200 30.03100
H  9.19100 51.79500 28.78000
H  10.79800 52.12500 28.33400
H  10.79000 48.16100 30.69900
H  9.55400 47.10700 30.11000
H  7.97300 48.26100 31.83200
H  9.35000 49.16500 32.32400
H  14.58400 49.86000 26.84300
H  15.51500 50.37000 25.41400
H  15.50200 48.70500 25.96100
H  15.96400 49.83500 22.97500
H  16.66000 48.44700 22.17800
H  16.38100 48.33300 23.91000
H  10.15600 45.50100 20.91300
H  7.58100 46.94200 20.33500
H  10.11100 48.42600 19.96100
H  9.23200 47.33300 18.92800
H  10.96700 47.05000 19.31100
H  8.06500 44.57100 20.03300
H  6.43100 45.04300 20.66900
H  8.15800 43.04900 21.65400
H  6.66400 43.68800 22.30000
H  8.22800 44.35100 22.90400
H  3.92200 46.68900 23.74600
H  3.26100 47.96300 24.88200
H  3.42600 46.24400 25.31400
H  6.04000 49.16900 29.32800
H  5.89400 45.17700 31.68500
H  4.73800 46.09800 32.46400
H  6.36400 46.57200 32.76200
Mg -2.66900 34.31300 26.44500
C  -4.46200 33.09200 29.12100
C  -1.80300 37.09400 28.29200
C  -1.04800 35.61100 23.69900
C  -3.79300 31.76400 24.48200
N  -3.13900 34.94100 28.46500
C  -3.70700 34.17000 29.44700
C  -3.49500 34.78100 30.85100
C  -2.99400 36.25400 30.48000
C  -2.53600 36.10500 28.92400
C  -3.99800 37.47500 30.67000
C  -2.46700 33.94200 31.65100
C  -2.51200 34.46100 33.17700
H  -2.72400 33.34400 34.25100
N  -1.60200 36.12900 26.10300
C  -1.45100 37.13800 26.93200
C  -0.73300 38.19800 26.31400
C  -0.43700 37.81700 25.00200
C  -1.05800 36.44300 24.89100
C  -0.37900 39.47100 27.06400
C  0.27200 38.50400 23.88100
O  0.22800 38.02500 22.75700
C  0.94400 39.91400 24.06000
N  -2.55100 33.89000 24.31600
C  -1.73500 34.46700 23.43300
C  -1.72700 33.71500 22.12600
C  -2.56400 32.47900 22.37100
C  -3.01500 32.72600 23.83200
C  -2.27400 34.59000 20.99500
C  -1.73500 31.19900 22.19300
C  -2.49900 30.02600 21.52400
N  -4.06900 32.81800 26.62900
C  -4.33500 31.84700 25.80500
C  -5.22800 30.90800 26.41700
C  -5.33200 31.36300 27.71400
C  -4.56200 32.53100 27.82000
C  -5.94600 29.77800 25.80200
C  -5.87900 31.09300 29.02600
O  -6.59900 30.16300 29.41400
C  -5.28400 32.18400 29.94300
C  -6.44800 32.96800 30.51800
O  -6.91700 33.98600 30.07700
O  -6.95400 32.34800 31.64700
C  -7.88300 33.08300 32.55800
H  -1.47300 37.98100 28.83600
H  -0.35600 35.85800 22.89100
H  -4.05200 30.90600 23.85700
H  -4.47400 34.80800 31.32900
H  -2.13300 36.51500 31.09500
H  -4.80100 37.25700 31.37500
H  -4.20000 37.80900 29.65300
H  -3.42600 38.26800 31.15200
H  -1.52900 33.96300 31.09700
H  -2.76600 32.89400 31.63000
H  -3.27700 35.22300 33.32600
H  -1.58900 34.98500 33.42600
H  -0.84800 39.69300 28.02200
H  -0.48600 40.28000 26.34100
H  0.68300 39.42100 27.30100
H  1.65600 39.80300 24.87800
H  0.06900 40.52800 24.27200
H  1.29100 40.25200 23.08400
H  -0.69300 33.41900 21.94800
H  -3.50500 32.45400 21.82200
H  -3.04200 35.21900 21.44500
H  -2.80100 34.00500 20.24100
H  -1.47900 35.15500 20.51000
H  -1.31800 30.88300 23.14900
H  -0.94900 31.35300 21.45400
H  -3.38800 30.44600 21.05400
H  -2.89800 29.31100 22.24300
H  -1.88100 29.51300 20.78700
H  -6.30100 29.95500 24.78700
H  -6.81400 29.49600 26.39900
H  -5.20600 28.98300 25.70100
H  -4.80300 31.65200 30.76400
H  -8.88300 33.28800 32.17800
H  -7.51000 34.10100 32.67400
H  -7.94100 32.53400 33.49800

