158

Mg 52.89200 24.73100 44.27900
C  50.05100 26.98100 43.73100
C  50.85500 22.30600 42.94500
C  55.62800 22.97000 44.00400
C  54.68400 27.63300 45.26800
N  50.78700 24.72400 43.24500
C  49.83400 25.72500 43.13300
C  48.43800 25.19600 42.75900
C  48.58200 23.66300 42.98400
C  50.15300 23.52500 43.07700
C  47.80800 23.19000 44.22400
C  47.90500 25.67800 41.32400
C  49.02500 26.02200 40.21700
H  48.90000 25.37300 38.78300
N  53.23900 22.91900 43.61100
C  52.30800 22.05600 43.09800
C  52.91500 20.74400 42.83000
C  54.31800 20.94500 43.09000
C  54.42300 22.32000 43.61200
C  52.26200 19.52200 42.33200
C  55.46100 19.96300 42.70700
O  55.15400 18.82300 42.31500
C  56.96100 20.34100 42.70600
N  54.92000 25.29600 44.51900
C  55.85000 24.32600 44.39100
C  57.23000 24.81200 44.92500
C  56.85600 26.39400 45.27100
C  55.38300 26.47600 44.99500
C  57.98700 24.04800 46.07900
C  57.63500 27.45800 44.42100
C  58.46700 28.62200 45.20200
N  52.47100 26.79700 44.66400
C  53.27900 27.83300 45.10100
C  52.49600 28.97300 45.40000
C  51.20000 28.70900 44.86400
C  51.21700 27.40400 44.37000
C  52.98200 30.22700 46.09000
C  49.88700 29.28800 44.59800
O  49.42200 30.42800 44.78000
C  49.20100 28.21400 43.69300
C  49.00500 28.78100 42.32200
O  49.87400 28.94100 41.40600
O  47.72300 29.22300 42.24500
C  47.31000 29.97400 41.10200
H  50.14000 21.48900 42.82700
H  56.58400 22.44500 44.03900
H  55.31700 28.42900 45.66700
H  47.82300 25.54900 43.58700
H  48.38200 23.01700 42.13000
H  48.49100 22.99600 45.05100
H  47.15200 22.33200 44.07400
H  47.12000 23.95500 44.58500
H  47.34200 26.61000 41.37200
H  47.20900 24.92800 40.94900
H  49.99500 25.75900 40.64000
H  48.90000 27.09200 40.05000
H  52.52900 19.13700 41.34800
H  51.19500 19.74300 42.35100
H  52.45500 18.68300 43.00000
H  57.51200 19.65700 42.06000
H  57.10700 20.26500 43.78300
H  57.07300 21.37500 42.37800
H  57.93600 24.89100 44.09900
H  57.01100 26.56600 46.33600
H  57.50500 23.10500 46.33400
H  58.00900 24.74900 46.91400
H  58.96600 23.81700 45.65800
H  56.81600 28.05300 44.01800
H  58.09900 27.02800 43.53300
H  59.53400 28.46500 45.04800
H  58.23600 28.48500 46.25800
H  58.03300 29.51900 44.75900
H  53.74300 30.07800 46.85600
H  52.14300 30.77600 46.52000
H  53.35900 30.99400 45.41300
H  48.23000 28.03600 44.15500
H  46.29200 30.32800 41.26600
H  47.32300 29.23300 40.30300
H  48.05100 30.72900 40.84100
Mg -11.12800 38.83700 41.72800
C  -9.62400 35.77800 40.86100
C  -8.42300 40.49400 40.35500
C  -12.80200 41.64900 42.07100
C  -13.81000 36.97900 43.05800
N  -9.35400 38.12700 40.57200
C  -8.91900 36.85000 40.39600
C  -7.56800 36.85400 39.64400
C  -7.04600 38.31600 39.86600
C  -8.31000 39.04100 40.27500
C  -5.87000 38.44000 40.91000
C  -7.88900 36.45500 38.17500
C  -7.42300 35.14100 37.74600
H  -6.42300 35.26700 36.57300
N  -10.58900 40.81300 41.34900
C  -9.46200 41.30800 40.72200
C  -9.57600 42.76200 40.72000
C  -10.84600 43.08900 41.20100
C  -11.49600 41.84800 41.54700
C  -8.39700 43.61100 40.28700
C  -11.40600 44.57700 41.33400
O  -10.70900 45.51700 40.94400
C  -12.72100 44.90500 41.95900
N  -13.01800 39.26000 42.40100
C  -13.52900 40.47400 42.44500
C  -14.89600 40.63300 43.16400
C  -15.21100 39.06500 43.27800
C  -13.95200 38.38800 42.87400
C  -14.90400 41.42400 44.49500
C  -16.48100 38.45700 42.63100
C  -17.37000 37.41700 43.36200
N  -11.66000 36.79900 41.87000
C  -12.72600 36.16400 42.55200
C  -12.49600 34.75800 42.73600
C  -11.35800 34.53300 41.95900
C  -10.85600 35.80700 41.55600
C  -13.33300 33.76500 43.50200
C  -10.51100 33.54100 41.51400
O  -10.57300 32.35200 41.67900
C  -9.35300 34.29000 40.73400
C  -8.02000 33.77100 41.20900
O  -7.53700 32.74900 40.86000
O  -7.57000 34.51800 42.23800
C  -6.39800 34.15300 43.05800
H  -7.55200 40.99200 39.92300
H  -13.37500 42.56000 42.25600
H  -14.59200 36.47200 43.62700
H  -6.91400 36.08200 40.04800
H  -6.72200 38.77100 38.93000
H  -4.97600 38.41800 40.28700
H  -5.81700 37.50700 41.47200
H  -5.92200 39.39600 41.43000
H  -7.61700 37.17200 37.40000
H  -8.97000 36.35100 38.08600
H  -8.27400 34.53800 37.43000
H  -6.89900 34.53100 38.48200
H  -7.44300 43.12300 40.48500
H  -8.46200 44.55300 40.83200
H  -8.37000 43.74100 39.20500
H  -13.60400 44.44700 41.51300
H  -12.70700 45.98300 41.79600
H  -12.67000 44.54900 42.98800
H  -15.58700 41.14300 42.49300
H  -15.33600 38.87500 44.34400
H  -15.14900 42.47400 44.33700
H  -13.91100 41.30700 44.93000
H  -15.63900 41.04900 45.20700
H  -16.13400 37.96100 41.72400
H  -17.11700 39.32600 42.46100
H  -18.39300 37.78800 43.30500
H  -17.03800 37.36000 44.39900
H  -17.18300 36.41800 42.96800
H  -13.78400 34.12600 44.42600
H  -12.72700 32.87100 43.65200
H  -14.17400 33.48800 42.86600
H  -9.32300 34.07800 39.66500
H  -5.64000 34.81200 42.63500
H  -6.10500 33.13300 42.81000
H  -6.66800 34.37200 44.09100

