158

Mg 42.16500 41.43500 27.03700
C  41.44600 43.73800 29.53200
C  43.01600 39.14200 29.54000
C  43.42800 39.42100 24.59800
C  41.92500 44.08200 24.66800
N  42.16200 41.43800 29.21200
C  41.68600 42.40200 29.96600
C  41.54600 41.96700 31.49400
C  42.23800 40.59300 31.46400
C  42.51200 40.34300 29.99500
C  43.52300 40.40500 32.35000
C  40.07700 41.99200 32.02100
C  39.72100 43.15300 32.98100
H  38.90200 42.75400 34.26100
N  42.95100 39.43800 27.05300
C  43.18100 38.63900 28.16300
C  43.51900 37.28100 27.69900
C  43.49500 37.34300 26.26400
C  43.25600 38.76500 25.93900
C  43.76600 36.16700 28.65100
C  43.67300 36.21900 25.24500
O  43.70000 36.35200 24.01900
C  43.73600 34.70500 25.72000
N  42.76100 41.72900 25.02900
C  43.20300 40.76400 24.21500
C  43.56800 41.29200 22.82800
C  42.57200 42.49100 22.84100
C  42.39800 42.83200 24.27000
C  45.03300 41.63200 22.49400
C  41.22000 42.18600 22.13900
C  40.36200 40.95000 22.54400
N  41.81900 43.52800 27.05200
C  41.68100 44.42100 26.02000
C  41.41800 45.68600 26.60600
C  41.36700 45.50900 27.98600
C  41.57600 44.15900 28.20400
C  41.18400 46.93100 25.89700
C  41.17300 46.15500 29.23900
O  40.97700 47.31900 29.60700
C  41.11500 45.00200 30.25500
C  42.05000 45.47700 31.30100
O  43.25600 45.54400 31.07500
O  41.48500 45.90100 32.47300
C  42.47800 46.45500 33.45200
H  43.27400 38.45600 30.34800
H  43.88200 38.78900 23.83200
H  41.72500 44.86400 23.93100
H  42.24400 42.66900 31.95100
H  41.52600 39.83500 31.79000
H  44.10900 39.60000 31.90500
H  43.16800 40.22300 33.36400
H  44.14100 41.29800 32.44800
H  39.83100 41.11100 32.61400
H  39.34800 42.00500 31.21100
H  39.01900 43.94400 32.71700
H  40.64000 43.58900 33.37300
H  44.58800 35.56100 28.27000
H  42.87500 35.54100 28.64400
H  44.01000 36.52400 29.65200
H  44.67600 34.59800 26.26100
H  43.71800 34.04000 24.85600
H  42.91600 34.46900 26.39800
H  43.14400 40.63900 22.06500
H  43.03800 43.34100 22.34300
H  45.31700 42.64400 22.78300
H  45.12100 41.48700 21.41700
H  45.78400 40.95700 22.90400
H  41.54100 42.08800 21.10200
H  40.59200 43.07400 22.21300
H  40.29900 40.29100 21.67800
H  39.45700 41.44800 22.88900
H  40.87700 40.47200 23.37800
H  40.14600 47.26300 25.92800
H  41.54000 46.81100 24.87300
H  41.74700 47.77100 26.30200
H  40.12700 44.92500 30.71000
H  43.37800 46.88000 33.00800
H  42.69300 45.65400 34.16000
H  42.08700 47.29800 34.02100
Mg -6.00700 24.97700 26.84700
C  -4.59900 26.38500 29.68100
C  -7.87600 22.88900 28.76900
C  -7.08000 23.43500 23.92000
C  -3.79200 26.91400 24.84900
N  -6.15700 24.68000 29.07900
C  -5.56400 25.42100 30.00500
C  -6.10000 24.99600 31.37500
C  -7.04900 23.75400 31.09800
C  -7.12800 23.77600 29.51800
C  -6.61900 22.36300 31.69600
C  -6.84700 26.19000 32.10200
C  -7.07400 26.04600 33.61200
H  -6.35600 24.95600 34.41600
N  -7.29400 23.47800 26.41100
C  -7.97900 22.72900 27.36300
C  -8.83300 21.86800 26.67200
C  -8.64900 21.98900 25.29000
C  -7.62400 23.00600 25.16900
C  -9.72000 20.89600 27.40300
C  -9.36200 21.24400 24.10900
O  -9.21400 21.63400 22.97600
C  -10.37800 20.09200 24.41200
N  -5.30800 24.95500 24.69000
C  -6.04900 24.36400 23.72000
C  -5.41700 24.66200 22.35800
C  -4.41700 25.85900 22.62800
C  -4.52900 25.96200 24.14900
C  -4.77300 23.43000 21.67200
C  -4.67200 27.21100 21.83100
C  -3.62900 27.69600 20.88000
N  -4.51200 26.31800 27.11500
C  -3.71400 27.04400 26.26600
C  -2.84200 27.95900 27.03400
C  -3.25000 27.71200 28.38300
C  -4.20000 26.73700 28.38600
C  -1.71300 28.84800 26.56200
C  -2.98700 28.13600 29.72700
O  -2.20800 29.02700 30.18900
C  -3.85900 27.26900 30.62600
C  -2.98000 26.44600 31.44500
O  -2.58100 25.31800 31.23400
O  -2.58300 27.17100 32.58800
C  -1.80600 26.35100 33.56100
H  -8.60800 22.29100 29.31500
H  -7.43300 22.98100 22.99200
H  -3.05700 27.48500 24.27800
H  -5.22300 24.74200 31.97000
H  -8.05300 24.02400 31.42600
H  -5.72600 22.43200 32.31700
H  -6.42700 21.81100 30.77600
H  -7.40200 21.84500 32.25000
H  -7.84100 26.13800 31.65800
H  -6.39500 27.14100 31.82200
H  -8.13800 25.93500 33.81900
H  -6.86900 27.01700 34.06300
H  -9.87500 19.95900 26.86800
H  -10.71100 21.29400 27.61900
H  -9.27000 20.62300 28.35800
H  -11.11100 19.97000 23.61500
H  -11.00800 20.42900 25.23500
H  -9.81100 19.19900 24.67600
H  -6.22800 25.02500 21.72700
H  -3.42600 25.47600 22.38300
H  -3.69200 23.51600 21.77600
H  -5.01100 23.48000 20.60900
H  -5.06800 22.50100 22.15800
H  -4.96700 28.05300 22.45800
H  -5.54600 26.93400 21.24100
H  -2.74100 27.07100 20.96900
H  -3.43600 28.75800 21.03100
H  -3.90600 27.49200 19.84600
H  -1.88800 29.78300 27.09600
H  -1.88400 29.07000 25.50900
H  -0.66700 28.59800 26.74300
H  -4.39600 27.92100 31.31600
H  -0.75400 26.42600 33.28700
H  -2.15100 25.31900 33.50100
H  -1.85700 26.73000 34.58200

