158

Mg 25.46600 1.08400 29.30600
C  27.48700 0.66700 32.08500
C  22.64200 1.14400 31.34800
C  23.55800 0.88700 26.44300
C  28.23700 0.49400 27.23600
N  25.16000 0.83400 31.44300
C  26.10800 0.80800 32.41700
C  25.50000 0.85800 33.82600
C  23.94600 1.05100 33.54500
C  23.86500 1.00000 32.03800
C  22.98100 -0.00100 34.21200
C  26.07600 2.10200 34.75500
C  25.92000 1.83300 36.26200
H  25.46200 2.99700 37.15500
N  23.35800 1.05500 28.99300
C  22.39000 1.23300 29.96400
C  21.13300 1.44800 29.27900
C  21.39900 1.24500 27.83600
C  22.83500 1.01700 27.71900
C  19.92800 1.78600 30.06900
C  20.36400 1.20500 26.69300
O  20.67300 0.89400 25.51900
C  18.92600 1.54500 27.09800
N  25.84200 0.66300 27.03100
C  24.86800 0.74500 26.14800
C  25.52600 0.60000 24.75300
C  27.05600 0.67200 24.94900
C  27.07400 0.63400 26.45400
C  25.00000 -0.65900 24.03300
C  27.76200 1.85700 24.28500
C  28.18000 1.61700 22.86500
N  27.40600 0.70400 29.55800
C  28.46100 0.52200 28.60400
C  29.75700 0.32100 29.32200
C  29.44600 0.41300 30.70400
C  28.05500 0.65000 30.77500
C  31.09500 0.00100 28.66000
C  29.94100 0.40400 32.08500
O  31.08600 0.38100 32.48700
C  28.66300 0.45100 33.02000
C  28.54400 -0.65200 33.92000
O  28.13900 -1.79900 33.64500
O  28.79700 -0.31800 35.18600
C  28.26800 -1.25900 36.22000
H  21.76200 1.38300 31.94800
H  22.98400 1.00700 25.52100
H  29.16000 0.29100 26.68800
H  25.73500 -0.11500 34.25900
H  23.66900 2.04800 33.88700
H  23.01000 -0.03400 35.30100
H  23.01000 -1.00600 33.78900
H  21.99500 0.40700 33.99100
H  25.51500 3.02700 34.62200
H  27.10500 2.28000 34.44200
H  26.91800 1.65500 36.66200
H  25.31400 0.95800 36.50100
H  20.22100 2.37300 30.93900
H  19.55400 0.87100 30.52800
H  19.22400 2.39800 29.50500
H  18.34500 1.29700 26.20900
H  18.81600 2.59000 27.39100
H  18.57900 0.87400 27.88300
H  25.25800 1.37700 24.03700
H  27.54200 -0.27300 24.70200
H  25.77400 -1.42600 23.99100
H  24.65800 -0.40900 23.02900
H  24.22700 -1.10700 24.65800
H  28.62300 2.11200 24.90200
H  27.27100 2.81600 24.44600
H  27.79700 2.40900 22.22200
H  27.73600 0.72300 22.42700
H  29.27000 1.64400 22.89200
H  31.67700 0.88600 28.40500
H  30.90600 -0.56200 27.74600
H  31.66600 -0.67000 29.30200
H  28.98800 1.28400 33.64300
H  29.05200 -1.28200 36.97600
H  28.04600 -2.25300 35.83200
H  27.38400 -0.79900 36.66300
Mg 48.73300 35.77100 29.03800
C  46.28500 33.98400 30.96900
C  48.66500 38.33900 31.21200
C  50.15500 37.57600 26.65300
C  48.14500 33.25800 26.52600
N  47.48500 36.11500 30.79500
C  46.75100 35.25300 31.53700
C  46.44600 35.87200 32.91400
C  46.98700 37.32100 32.80500
C  47.83200 37.23900 31.51000
C  46.05100 38.49500 32.86700
C  47.03700 35.05300 34.17700
C  48.51600 35.14100 34.54500
H  48.83000 35.90200 35.82900
N  49.44100 37.69600 28.98400
C  49.40500 38.52600 29.97900
C  50.06600 39.82900 29.56900
C  50.42900 39.63700 28.20100
C  49.96900 38.26500 27.86900
C  50.38600 40.93200 30.45500
C  51.14000 40.54600 27.23200
O  51.68000 40.11000 26.20600
C  51.23100 42.07000 27.56200
N  49.12100 35.43100 26.91600
C  49.83100 36.30900 26.18200
C  50.02700 35.85400 24.71400
C  49.57100 34.34900 24.78800
C  48.94900 34.32100 26.17500
C  49.27300 36.68000 23.59200
C  50.68200 33.33100 24.57400
C  50.40300 32.26500 23.43100
N  47.68300 33.92500 28.82700
C  47.54400 33.03900 27.77300
C  46.61600 31.96400 28.11500
C  46.11900 32.37100 29.37400
C  46.69200 33.56100 29.74200
C  46.17700 30.65600 27.35900
C  45.20500 31.84900 30.41700
O  44.51700 30.81800 30.53700
C  45.18400 32.98800 31.46300
C  45.40300 32.37400 32.80100
O  46.23200 31.55600 33.08700
O  44.37900 32.82500 33.62500
C  44.13300 32.31400 34.96300
H  48.72600 39.13500 31.95800
H  50.71400 38.10300 25.87600
H  47.82200 32.58600 25.72900
H  45.37200 35.97800 33.06400
H  47.75200 37.51900 33.55500
H  46.48200 39.40800 33.28000
H  45.25600 38.16500 33.53500
H  45.61500 38.75100 31.90100
H  46.95600 34.02300 33.83100
H  46.46000 35.36600 35.04600
H  49.08300 35.54600 33.70700
H  48.93500 34.13700 34.60900
H  51.34500 41.38700 30.20700
H  50.49600 40.58200 31.48100
H  49.58700 41.66100 30.32600
H  50.39600 42.40200 28.17900
H  51.26500 42.57100 26.59500
H  52.23800 42.13200 27.97400
H  51.10000 35.95800 24.55400
H  48.82600 34.12900 24.02300
H  48.54300 37.37900 23.99900
H  48.67000 36.10200 22.89200
H  49.97800 37.28900 23.02600
H  50.76700 32.78300 25.51300
H  51.67700 33.75000 24.43000
H  49.49400 32.45500 22.86100
H  50.30500 31.28400 23.89500
H  51.27200 32.19600 22.77700
H  45.67000 30.08100 28.13400
H  46.96100 30.06300 26.88700
H  45.60900 30.93800 26.47300
H  44.22500 33.50600 31.43600
H  44.03400 33.11300 35.69800
H  44.90800 31.71200 35.43700
H  43.16700 31.80800 34.97200

