158

Mg 41.57600 41.37000 26.53100
C  40.80800 43.81800 28.93000
C  42.98900 39.38700 28.98500
C  42.37600 39.00100 24.23900
C  40.47600 43.48600 24.13400
N  41.84400 41.54100 28.83800
C  41.42300 42.70300 29.59100
C  41.76700 42.38400 31.01600
C  42.65300 41.07100 30.94700
C  42.51600 40.58400 29.48700
C  44.10700 41.40700 31.36500
C  40.45100 42.11600 31.89100
C  40.74300 41.66700 33.38100
H  39.75400 42.22300 34.51100
N  42.48600 39.39400 26.62500
C  42.99200 38.82300 27.69000
C  43.72300 37.65700 27.28100
C  43.26200 37.34000 25.97200
C  42.71700 38.61400 25.55300
C  44.51400 36.76600 28.35800
C  43.20000 36.02200 25.13300
O  42.68200 35.90800 24.06300
C  43.72600 34.75400 25.70300
N  41.46100 41.26800 24.49900
C  41.85400 40.21700 23.71100
C  41.52200 40.37700 22.20000
C  40.83800 41.80800 22.14500
C  40.88000 42.17600 23.72400
C  42.83800 40.06100 21.36900
C  39.40800 41.77800 21.54000
C  38.40800 40.97400 22.44800
N  40.85100 43.23400 26.47400
C  40.51100 44.04600 25.44000
C  40.00300 45.35700 25.88500
C  40.08900 45.25000 27.28000
C  40.60300 43.98500 27.59100
C  39.45500 46.52500 25.02600
C  39.88800 45.99400 28.54900
O  39.43400 47.13100 28.72200
C  40.29200 45.03600 29.64800
C  41.21900 45.73100 30.58500
O  42.37400 46.01400 30.38500
O  40.52400 45.99000 31.78000
C  41.30000 46.70500 32.79300
H  43.63900 38.94300 29.74200
H  42.53400 38.31700 23.40200
H  40.26700 44.13100 23.27900
H  42.34700 43.23500 31.37400
H  42.29600 40.33400 31.66700
H  44.60300 40.44300 31.25100
H  44.15500 41.66900 32.42200
H  44.66900 42.04700 30.68500
H  39.98000 41.33400 31.29500
H  39.83100 43.01200 31.87700
H  41.77800 41.87200 33.65100
H  40.70300 40.58300 33.48000
H  44.75900 37.31800 29.26600
H  45.37000 36.16200 28.05600
H  43.72200 36.08300 28.66400
H  44.78700 34.77700 25.45500
H  43.17100 33.88600 25.34700
H  43.61100 34.69400 26.78500
H  40.81400 39.62100 21.85900
H  41.54100 42.37200 21.53300
H  43.76600 39.87500 21.91000
H  43.07300 40.82900 20.63200
H  42.56500 39.14400 20.84800
H  39.48300 41.15900 20.64600
H  39.02200 42.76300 21.27600
H  37.47300 41.49800 22.64600
H  38.76200 40.58700 23.40300
H  38.08300 40.05300 21.96500
H  38.95600 46.06600 24.17300
H  40.18500 47.20000 24.58000
H  38.77900 46.92400 25.78200
H  39.35100 44.83500 30.15900
H  42.16500 47.28900 32.48000
H  41.67100 45.99600 33.53300
H  40.69100 47.35500 33.42200
Mg -10.52600 16.90300 41.18400
C  -7.07200 16.71300 41.09700
C  -10.29700 20.31400 40.64200
C  -13.92900 16.96900 40.78500
C  -10.55400 13.31600 41.21100
N  -8.85100 18.27800 40.87100
C  -7.50900 17.97800 40.94800
C  -6.69700 19.33000 40.70400
C  -7.77600 20.46600 41.02400
C  -9.06700 19.67500 40.77700
C  -7.56900 21.21900 42.38800
C  -6.15500 19.38300 39.22700
C  -4.66200 19.20000 39.05900
H  -4.14600 18.49700 37.78500
N  -11.96300 18.51400 40.74600
C  -11.68900 19.82600 40.61000
C  -12.90300 20.56000 40.40000
C  -13.97000 19.64500 40.41500
C  -13.31900 18.27100 40.59300
C  -12.93700 22.05900 40.16900
C  -15.40400 19.98600 40.29300
O  -15.89000 21.11900 40.11100
C  -16.45100 18.88900 40.33200
N  -12.07400 15.34100 40.79900
C  -13.41900 15.68200 40.89400
C  -14.26200 14.40900 41.13900
C  -13.15500 13.27000 41.24600
C  -11.83500 14.00300 41.17700
C  -15.31200 14.34600 42.27800
C  -13.29100 12.04500 40.36700
C  -12.57200 12.04700 39.02500
N  -9.09400 15.20900 41.07600
C  -9.24700 13.81800 41.22300
C  -7.90100 13.22800 41.51000
C  -7.03700 14.30200 41.35100
C  -7.80100 15.49800 41.13300
C  -7.48100 11.86600 41.87100
C  -5.64600 14.68700 41.49400
O  -4.67100 14.00100 41.81100
C  -5.64300 16.27400 41.23500
C  -4.99600 17.09300 42.39500
O  -3.87500 17.56600 42.22800
O  -5.71800 17.01700 43.63600
C  -5.17200 17.83500 44.67800
H  -10.13000 21.38800 40.53800
H  -15.02000 16.98200 40.81700
H  -10.50000 12.25500 41.46300
H  -5.90400 19.43400 41.44500
H  -7.68200 21.26300 40.28700
H  -7.07400 22.18700 42.30800
H  -7.09300 20.52400 43.07900
H  -8.55200 21.39400 42.82600
H  -6.39500 20.38500 38.87200
H  -6.59100 18.58800 38.62200
H  -4.30100 18.58900 39.88700
H  -4.12800 20.13000 39.25700
H  -13.10400 22.28200 39.11500
H  -11.96500 22.44000 40.48200
H  -13.70000 22.49900 40.81100
H  -16.27000 18.28200 39.44500
H  -17.41700 19.37500 40.19700
H  -16.54400 18.37200 41.28700
H  -14.86500 14.39800 40.23200
H  -13.16100 12.85300 42.25300
H  -16.23100 13.85600 41.95800
H  -15.65600 15.33400 42.58200
H  -14.92500 13.87100 43.18000
H  -14.37000 12.05000 40.20800
H  -13.00700 11.13700 40.89900
H  -13.17500 11.42300 38.36400
H  -11.59000 11.57700 39.06500
H  -12.46500 13.02100 38.54800
H  -6.40100 11.83500 41.72600
H  -7.94800 11.26000 41.09500
H  -7.88100 11.72100 42.87400
H  -5.20200 16.44400 40.25300
H  -5.82400 18.70500 44.74800
H  -4.14100 18.16400 44.54100
H  -5.35800 17.29100 45.60300

