158

Mg 48.66100 35.01700 26.89700
C  46.79300 33.73600 29.53900
C  49.04000 37.92000 28.53300
C  49.70000 36.33900 23.92800
C  47.74600 32.04100 24.96300
N  48.01100 35.65000 28.88900
C  47.37600 34.96300 29.89900
C  47.33200 35.77200 31.23200
C  47.77600 37.23700 30.70300
C  48.40900 36.88300 29.33300
C  46.63900 38.31600 30.61300
C  48.49300 35.25700 32.19900
C  48.07900 35.20200 33.67800
H  48.43700 36.42100 34.55100
N  49.52400 36.77600 26.40200
C  49.61200 37.90800 27.25600
C  50.23400 39.00200 26.57700
C  50.47100 38.53300 25.22200
C  49.91600 37.14400 25.09400
C  50.60300 40.31400 27.25300
C  51.06400 39.32100 24.07900
O  51.20400 38.89700 22.92500
C  51.58100 40.76800 24.40000
N  48.82700 34.18600 24.79000
C  49.31600 34.96200 23.75200
C  49.27500 34.21700 22.37100
C  48.88100 32.77800 22.78000
C  48.50000 32.99500 24.27600
C  48.28800 34.94300 21.47200
C  50.03100 31.75000 22.57700
C  49.63700 30.60300 21.59700
N  47.48000 33.28800 27.11500
C  47.25700 32.11800 26.31800
C  46.59100 31.13800 27.11300
C  46.29700 31.85000 28.26000
C  46.90400 33.11500 28.30400
C  46.12700 29.77900 26.73900
C  45.64900 31.58600 29.50500
O  45.06400 30.58700 29.84100
C  45.83700 32.84700 30.42400
C  46.26500 32.50400 31.74300
O  47.38800 32.07600 31.98900
O  45.19600 32.56200 32.65100
C  45.50800 32.38400 34.07200
H  49.15800 38.81000 29.15400
H  49.93700 36.82000 22.97700
H  47.43300 31.17900 24.36900
H  46.36300 35.80300 31.73100
H  48.64900 37.64800 31.21100
H  47.03700 39.23700 31.03900
H  45.75700 38.08800 31.21100
H  46.35600 38.53500 29.58300
H  49.35500 35.91900 32.11400
H  48.96100 34.34100 31.83700
H  48.52800 34.36400 34.21200
H  47.03100 34.93000 33.79900
H  51.68900 40.33500 27.16800
H  50.48100 40.31600 28.33600
H  50.23200 41.22400 26.78000
H  52.13700 41.17300 23.55500
H  52.25900 40.61500 25.24000
H  50.68000 41.31200 24.68500
H  50.22700 34.27400 21.84300
H  47.99400 32.50000 22.21100
H  47.35800 35.23600 21.95900
H  48.05400 34.30800 20.61800
H  48.81400 35.84100 21.14600
H  50.31600 31.32100 23.53700
H  50.90400 32.21600 22.11900
H  49.94400 29.61900 21.95200
H  50.34800 30.67400 20.77500
H  48.61000 30.68000 21.23900
H  46.89400 29.06600 27.04100
H  45.88000 29.74500 25.67800
H  45.23400 29.56900 27.32800
H  44.90300 33.40600 30.47600
H  44.85500 31.62400 34.50100
H  45.24700 33.30800 34.58800
H  46.52900 32.14900 34.37200
Mg -2.76300 34.60000 27.03700
C  -4.39300 32.63600 29.35600
C  -1.48200 36.54800 29.66700
C  -1.38700 36.66500 24.74500
C  -4.60900 32.99700 24.56300
N  -3.05300 34.70800 29.29000
C  -3.65800 33.68500 29.97400
C  -3.38400 33.91800 31.51400
C  -2.57000 35.23300 31.62400
C  -2.35800 35.49300 30.13000
C  -3.22900 36.31500 32.52400
C  -2.65500 32.68200 32.07700
C  -3.39500 31.84000 33.15600
H  -2.85300 31.90800 34.56800
N  -1.45500 36.27700 27.17000
C  -1.12200 36.95600 28.29800
C  -0.09600 37.95100 27.99500
C  0.02100 38.00100 26.57300
C  -0.98800 37.00700 26.06300
C  0.63600 38.75800 28.96300
C  0.79400 38.89400 25.58800
O  0.81200 38.66500 24.41900
C  1.76400 39.95300 26.13900
N  -3.18100 34.92500 25.00500
C  -2.29900 35.67300 24.26600
C  -2.67900 35.65900 22.85800
C  -3.58700 34.36700 22.74900
C  -3.87700 34.11100 24.21900
C  -3.40400 36.91300 22.26400
C  -2.81100 33.25400 21.98500
C  -2.77600 33.45500 20.46000
N  -4.17600 33.08900 26.91900
C  -4.76600 32.46000 25.83300
C  -5.45400 31.19800 26.27300
C  -5.42800 31.29100 27.67100
C  -4.59600 32.45800 27.99700
C  -6.06300 30.25000 25.35200
C  -5.87100 30.72100 28.87200
O  -6.56300 29.73200 29.10700
C  -5.20100 31.47300 30.00300
C  -6.25800 32.07500 30.82600
O  -6.85200 33.09900 30.67700
O  -6.61700 31.16000 31.82500
C  -7.67700 31.57900 32.74500
H  -0.94100 37.06300 30.46400
H  -0.95800 37.23400 23.91700
H  -4.92300 32.35200 23.73900
H  -4.31100 33.93200 32.08600
H  -1.57700 35.06000 32.03800
H  -2.58500 36.73800 33.29500
H  -4.12900 35.98300 33.04300
H  -3.44600 37.11600 31.81800
H  -1.80300 33.15500 32.56600
H  -2.28400 32.11900 31.22100
H  -3.37400 30.80500 32.81400
H  -4.41200 32.20000 33.31100
H  0.30500 38.52700 29.97600
H  0.44300 39.80900 28.75100
H  1.69900 38.53400 28.86400
H  2.53100 39.50100 26.76800
H  1.13300 40.60200 26.74600
H  2.27200 40.54800 25.38000
H  -1.74900 35.46100 22.32600
H  -4.45000 34.60900 22.12900
H  -4.13900 37.24700 22.99600
H  -3.99000 36.57600 21.40900
H  -2.66800 37.58500 21.82300
H  -3.14600 32.24400 22.22100
H  -1.73800 33.24400 22.18000
H  -3.28700 34.34000 20.08000
H  -3.30000 32.62700 19.98300
H  -1.72100 33.37700 20.19800
H  -6.21200 29.31200 25.88600
H  -5.33300 30.13100 24.55200
H  -7.01200 30.62800 24.97100
H  -4.67400 30.65000 30.48600
H  -8.18500 32.47400 32.38600
H  -7.27000 31.77900 33.73600
H  -8.45900 30.82600 32.84900

