158

Mg -1.63200 17.73700 26.68600
C  -2.15700 15.66200 29.36300
C  -2.40300 20.35400 28.68800
C  -1.55500 19.87300 23.92700
C  -1.37000 15.01900 24.59200
N  -2.30900 17.92000 28.80000
C  -2.35600 16.94100 29.75700
C  -2.83400 17.43300 31.12800
C  -3.13000 19.00400 30.78300
C  -2.52100 19.12200 29.36400
C  -4.57500 19.54300 30.97200
C  -1.70700 17.27900 32.21000
C  -2.04700 16.48800 33.42100
H  -1.13100 16.54600 34.63600
N  -1.95100 19.78900 26.37000
C  -2.19300 20.67800 27.34500
C  -2.08900 22.00300 26.85700
C  -1.79800 21.92700 25.45200
C  -1.77100 20.50400 25.19600
C  -2.36100 23.22800 27.67000
C  -1.63300 23.01100 24.45900
O  -1.44700 22.85900 23.28300
C  -1.58600 24.39100 24.79900
N  -1.53600 17.46400 24.57500
C  -1.53100 18.49000 23.63400
C  -1.47300 17.89600 22.21200
C  -1.08100 16.41100 22.47300
C  -1.27300 16.22100 23.99300
C  -2.78700 18.06300 21.45000
C  0.31200 15.94300 21.90200
C  1.55700 16.49000 22.69600
N  -1.59300 15.71400 26.94300
C  -1.49000 14.73200 26.01000
C  -1.65500 13.43800 26.60400
C  -1.89300 13.74000 27.95100
C  -1.85300 15.15500 28.09700
C  -1.77100 12.16000 25.76800
C  -2.14900 13.15800 29.27400
O  -2.26600 11.96800 29.61200
C  -2.20200 14.40600 30.23800
C  -1.04400 14.20500 31.15900
O  0.10200 14.56300 30.97000
O  -1.39200 13.43600 32.25100
C  -0.42300 13.24900 33.29500
H  -2.53500 21.20300 29.36100
H  -1.46000 20.61400 23.13100
H  -1.25100 14.21600 23.86100
H  -3.74300 16.89200 31.39000
H  -2.57200 19.70000 31.40900
H  -4.85500 19.76100 29.94100
H  -4.45400 20.51100 31.45900
H  -5.37900 18.94100 31.39500
H  -1.35700 18.25400 32.54700
H  -0.90900 16.82300 31.62300
H  -2.27800 15.44600 33.20100
H  -2.92900 16.89100 33.92000
H  -3.36700 23.57600 27.43700
H  -1.51900 23.89100 27.47300
H  -2.23000 23.14100 28.74900
H  -1.49500 25.02800 23.92000
H  -0.77800 24.49100 25.52400
H  -2.58100 24.44200 25.24200
H  -0.69900 18.48700 21.72200
H  -1.80000 15.71700 22.03800
H  -3.41600 18.82500 21.91100
H  -3.29500 17.10200 21.36700
H  -2.57700 18.54100 20.49300
H  0.27800 16.31500 20.87800
H  0.36500 14.86000 21.78700
H  1.33200 17.01600 23.62400
H  2.17400 17.13200 22.06800
H  2.28400 15.72800 22.97700
H  -2.81700 12.02800 25.48700
H  -1.62700 11.23300 26.32400
H  -1.05000 12.15600 24.95100
H  -3.14600 14.38500 30.78300
H  0.28300 14.07900 33.31400
H  0.08800 12.28700 33.23700
H  -1.08900 13.12300 34.14900
Mg 48.11100 15.45900 28.28500
C  45.86500 15.92400 30.89900
C  50.39100 17.19100 30.04500
C  50.01900 15.42100 25.48200
C  45.49100 14.04400 26.36600
N  48.03000 16.51600 30.16200
C  47.07600 16.46700 31.13300
C  47.55300 17.14200 32.42500
C  48.84600 17.80000 31.97000
C  49.16400 17.06400 30.64400
C  48.92100 19.38900 31.87400
C  47.57200 16.21900 33.63100
C  47.38200 16.90300 34.96600
H  47.37600 18.38900 35.11100
N  49.91600 16.23000 27.85500
C  50.71100 16.91900 28.69600
C  51.96500 17.18600 28.08700
C  51.95000 16.68800 26.79200
C  50.60900 16.04300 26.64800
C  52.99200 17.96300 28.86800
C  52.98400 16.78900 25.63800
O  52.69300 16.25200 24.55200
C  54.33400 17.39800 25.84300
N  47.74900 14.95300 26.16900
C  48.75200 14.91800 25.28200
C  48.29700 14.36400 23.89800
C  46.82300 13.83600 24.22700
C  46.64900 14.31400 25.68800
C  48.31400 15.40900 22.82600
C  46.48900 12.30800 24.02900
C  47.14200 11.32500 24.94300
N  46.12600 14.91200 28.57500
C  45.19100 14.31300 27.75100
C  44.01200 14.07400 28.49400
C  44.21600 14.70200 29.73200
C  45.53000 15.21400 29.73000
C  42.77300 13.45300 27.98100
C  43.54600 14.94500 30.99700
O  42.38100 14.73600 31.34200
C  44.60500 15.72400 31.91200
C  43.99500 16.91200 32.50600
O  44.05800 18.02100 32.04300
O  43.37800 16.55800 33.65700
C  42.79200 17.64400 34.43600
H  51.07800 17.78500 30.65200
H  50.67100 15.26200 24.62100
H  44.70300 13.45600 25.89000
H  46.83900 17.95200 32.57000
H  49.67600 17.47700 32.59800
H  49.39900 19.79200 32.76700
H  47.99000 19.92600 31.69200
H  49.55800 19.65100 31.02900
H  48.51700 15.67700 33.67800
H  46.80500 15.44500 33.63700
H  48.15900 16.43800 35.57200
H  46.38100 16.59000 35.26200
H  53.89300 18.17300 28.29200
H  53.19300 17.34400 29.74300
H  52.41100 18.83000 29.18400
H  54.03300 18.43700 25.97700
H  54.95400 17.29300 24.95200
H  54.84500 16.96700 26.70300
H  48.98100 13.58000 23.57100
H  46.10700 14.38800 23.61800
H  48.28800 16.39300 23.29200
H  47.56000 15.46200 22.04000
H  49.33100 15.48700 22.44200
H  47.01200 12.04400 23.11000
H  45.41200 12.14000 24.05900
H  47.80400 10.63500 24.42200
H  46.31100 10.79400 25.40600
H  47.79100 11.85400 25.64000
H  42.90600 13.07000 26.96900
H  42.02000 14.24100 27.97800
H  42.52300 12.58700 28.59300
H  44.92500 15.06800 32.72200
H  42.68900 18.65700 34.04700
H  43.47700 17.70400 35.28200
H  41.87700 17.24600 34.87400

