158

Mg 30.30600 57.79500 40.62100
C  27.60400 55.69600 39.60200
C  32.51400 55.49400 39.72200
C  32.66900 60.17500 40.92400
C  27.88500 60.19000 41.21300
N  30.04100 55.94800 39.61900
C  28.89100 55.21900 39.30700
C  29.28900 53.91800 38.66800
C  30.83800 53.70300 38.99700
C  31.14000 55.11000 39.55100
C  31.15500 52.51800 39.99700
C  29.05800 53.95000 37.16700
C  28.14300 52.85200 36.54200
H  27.22000 53.32800 35.38100
N  32.37900 57.83500 40.34800
C  33.07400 56.75200 40.05100
C  34.51000 57.04300 40.09000
C  34.64300 58.38400 40.37100
C  33.19700 58.85800 40.55000
C  35.58300 55.95800 39.83700
C  35.91100 59.12500 40.70500
O  37.00000 58.53800 40.71100
C  36.00800 60.57300 41.02700
N  30.31300 59.94500 40.90900
C  31.40400 60.63300 41.16300
C  31.06300 62.06800 41.52300
C  29.52700 61.98400 41.85500
C  29.19500 60.58600 41.35200
C  32.02300 62.68600 42.63200
C  28.71200 63.22700 41.29900
C  27.72600 63.91500 42.24300
N  28.16400 57.93900 40.52600
C  27.37600 59.01200 40.77100
C  25.97500 58.67100 40.63300
C  26.02100 57.37100 40.09000
C  27.40700 56.97000 40.11600
C  24.77000 59.50200 40.69400
C  25.20300 56.26400 39.59000
O  23.99500 56.15100 39.39900
C  26.24000 55.05600 39.26400
C  25.67600 53.95400 39.95600
O  26.05900 53.55200 41.07100
O  24.85200 53.24600 39.09900
C  24.65300 51.87900 39.59700
H  33.20500 54.64900 39.67500
H  33.48500 60.86900 41.13500
H  27.24300 61.03700 41.46400
H  28.64200 53.15100 39.09300
H  31.48500 53.63600 38.12300
H  32.23500 52.46700 39.85400
H  30.76000 51.55300 39.67900
H  30.87500 52.60600 41.04600
H  30.01300 53.96800 36.64200
H  28.55800 54.88600 36.92000
H  27.50600 52.35300 37.27400
H  28.80900 52.22000 35.95500
H  35.42900 55.24000 40.64300
H  36.64500 56.20500 39.80600
H  35.42800 55.37300 38.93100
H  35.34000 60.66600 41.88300
H  35.74200 61.15000 40.14100
H  36.95300 60.97600 41.39300
H  31.17000 62.67600 40.62400
H  29.49500 61.95900 42.94400
H  32.55300 61.88300 43.14500
H  31.50900 63.28600 43.38200
H  32.76100 63.29600 42.11100
H  28.35700 62.86800 40.33300
H  29.48100 63.95100 41.02900
H  27.95800 63.71500 43.28900
H  26.73400 63.52800 42.00700
H  27.71900 65.00400 42.19500
H  23.89300 58.89800 40.92900
H  24.61900 59.95200 39.71300
H  24.85300 60.30200 41.43000
H  26.11100 54.88000 38.19600
H  23.66700 51.73300 40.03800
H  25.43300 51.44700 40.22500
H  24.66200 51.29900 38.67400
Mg 37.12200 49.17100 24.98200
C  37.53700 47.27000 27.97200
C  35.81500 51.67000 26.89400
C  36.20500 50.74000 22.18500
C  38.29900 46.36800 23.20000
N  36.51700 49.33000 27.13000
C  36.95100 48.54200 28.18800
C  36.68200 49.15800 29.58500
C  36.04600 50.59600 29.15800
C  36.14000 50.51900 27.63100
C  34.61500 50.83500 29.64900
C  37.99500 49.41700 30.40400
C  37.87400 49.67400 31.95400
H  36.53600 49.63600 32.64400
N  36.13500 51.04700 24.56200
C  35.83000 51.95500 25.52500
C  35.29800 53.10300 24.83100
C  35.30600 52.83900 23.43000
C  35.89500 51.49000 23.33400
C  34.87000 54.35100 25.57600
C  34.87300 53.76600 22.24400
O  34.92900 53.38800 21.06900
C  34.51500 55.17900 22.43300
N  37.18300 48.65900 23.02600
C  36.74400 49.42600 22.01900
C  36.96900 48.84000 20.62300
C  37.69200 47.50100 20.97200
C  37.75300 47.49800 22.46200
C  35.70700 48.71600 19.75300
C  39.16800 47.41500 20.36900
C  40.11300 48.47200 20.89500
N  37.75300 47.20000 25.44000
C  38.22600 46.22300 24.58500
C  38.69800 45.10500 25.41000
C  38.32800 45.46200 26.70100
C  37.78000 46.74600 26.69700
C  39.24800 43.82100 25.01000
C  38.38000 45.03800 28.10600
O  38.73200 43.99000 28.61500
C  37.63000 46.14800 28.97300
C  36.24700 45.68300 29.35300
O  35.36300 45.26500 28.62600
O  36.15400 45.80400 30.71700
C  34.86500 45.46800 31.34700
H  35.40400 52.46200 27.52400
H  35.95400 51.27300 21.26500
H  38.83300 45.54200 22.72400
H  35.97600 48.58400 30.18500
H  36.73200 51.33300 29.57500
H  34.21300 49.99100 30.21000
H  34.05200 51.08100 28.74900
H  34.64700 51.76500 30.21700
H  38.58800 50.23000 29.98500
H  38.50300 48.47700 30.19200
H  38.27800 50.68000 32.06600
H  38.51100 48.93400 32.43900
H  35.63700 55.10400 25.39700
H  35.00100 54.20600 26.64800
H  33.87100 54.64800 25.25500
H  34.37900 55.67200 21.47100
H  35.35100 55.71600 22.88200
H  33.67200 55.07700 23.11600
H  37.71200 49.36400 20.02100
H  37.32600 46.51400 20.68900
H  35.21700 47.78800 20.05000
H  35.81600 48.64400 18.67100
H  34.97000 49.48200 19.99300
H  39.08100 47.52000 19.28800
H  39.61500 46.43500 20.54000
H  40.99600 48.02100 21.34800
H  39.72400 49.05300 21.73000
H  40.41000 49.17700 20.11800
H  39.40100 43.71100 23.93600
H  38.70500 42.91100 25.26800
H  40.23000 43.73100 25.47400
H  38.28000 46.43300 29.80000
H  34.99400 44.42400 31.63200
H  33.91800 45.49400 30.80700
H  34.81100 46.03900 32.27400

