158

Mg 24.28300 -4.61800 45.68300
C  26.34300 -2.19900 44.08100
C  21.65500 -3.40000 43.57400
C  22.51600 -7.38400 46.35000
C  27.05100 -5.82800 47.35700
N  24.07700 -3.03600 43.97800
C  25.00900 -2.16000 43.61100
C  24.58300 -1.25900 42.44900
C  23.04900 -1.37100 42.60300
C  22.91300 -2.69900 43.42100
C  22.33300 -0.22100 43.35600
C  25.12100 -1.87800 41.05400
C  25.77700 -0.76300 40.16800
H  25.34400 -0.88600 38.68000
N  22.27100 -5.25600 45.12400
C  21.44000 -4.64200 44.25100
C  20.23500 -5.45800 44.15900
C  20.41900 -6.66200 44.93500
C  21.78900 -6.45700 45.51500
C  19.11200 -5.12700 43.29000
C  19.38400 -7.72000 45.17900
O  18.29600 -7.65300 44.60000
C  19.63800 -8.75300 46.20000
N  24.69900 -6.29300 46.68100
C  23.82900 -7.34100 46.84500
C  24.24100 -8.42100 47.78400
C  25.65300 -7.88800 48.20600
C  25.79700 -6.54400 47.42400
C  23.24800 -8.78500 48.91300
C  26.88700 -8.85400 48.04900
C  28.05400 -8.74500 49.03600
N  26.32800 -4.12400 45.81800
C  27.31900 -4.66000 46.57000
C  28.60100 -3.96700 46.42700
C  28.28300 -2.98200 45.38100
C  26.88000 -3.11500 45.05100
C  29.98700 -4.35500 47.10000
C  28.80400 -1.92700 44.54500
O  29.91000 -1.35300 44.49600
C  27.58200 -1.36600 43.65400
C  27.36000 0.06900 43.92400
O  26.61200 0.58100 44.78100
O  28.07100 0.75700 42.95000
C  27.82800 2.19100 43.01000
H  20.87400 -2.94000 42.96400
H  21.93200 -8.25300 46.66100
H  27.85000 -6.22500 47.98700
H  24.96700 -0.25000 42.59900
H  22.56400 -1.39500 41.62800
H  21.73500 -0.62700 44.17200
H  21.62400 0.19200 42.63800
H  22.99800 0.60500 43.61100
H  24.27700 -2.21300 40.45000
H  25.79600 -2.72900 41.14500
H  26.86700 -0.77300 40.14000
H  25.48500 0.21700 40.54500
H  18.93000 -5.97900 42.63500
H  19.17700 -4.12700 42.86100
H  18.23300 -5.08600 43.93400
H  18.74500 -9.37900 46.20600
H  19.77300 -8.33200 47.19600
H  20.38600 -9.50800 45.95700
H  24.44500 -9.28300 47.14900
H  25.44100 -7.69100 49.25700
H  22.44400 -8.05000 48.96600
H  23.74700 -8.72500 49.88000
H  22.70500 -9.73000 48.88000
H  27.30300 -8.83200 47.04200
H  26.50600 -9.87400 48.00100
H  28.12200 -9.53900 49.78000
H  27.79800 -7.88600 49.65600
H  29.01100 -8.62000 48.53000
H  30.08300 -5.43000 46.94400
H  30.03200 -4.14200 48.16800
H  30.85600 -3.86000 46.66600
H  27.82700 -1.60300 42.61900
H  26.90400 2.50400 43.49500
H  27.71800 2.53100 41.98000
H  28.60600 2.83400 43.42200
Mg 5.05800 54.17700 41.50400
C  3.26000 51.01400 40.97500
C  7.67900 52.59900 39.96000
C  6.45400 57.10000 41.31900
C  2.12700 55.51100 42.59400
N  5.33300 52.09900 40.28500
C  4.52800 50.99500 40.35700
C  5.20600 49.87000 39.58200
C  6.67100 50.28000 39.59600
C  6.56900 51.75800 39.89400
C  7.47600 49.51700 40.63300
C  4.62800 49.83000 38.18400
C  4.39400 48.47800 37.68600
H  5.09700 48.15600 36.32500
N  6.86300 54.80400 40.69600
C  7.81300 53.99700 40.19100
C  8.97200 54.79800 39.95900
C  8.68400 56.17600 40.22500
C  7.31000 56.11600 40.79700
C  10.23900 54.15400 39.36600
C  9.60100 57.42000 39.95600
O  10.61400 57.24800 39.23600
C  9.26200 58.73100 40.39600
N  4.45700 55.97800 42.06400
C  5.18300 57.09400 41.83400
C  4.47900 58.39500 42.26500
C  3.25000 57.83200 42.97500
C  3.27400 56.36300 42.49100
C  5.27000 59.42900 43.04700
C  1.88500 58.63700 42.66300
C  1.71600 59.95100 43.45000
N  3.13400 53.40100 41.90900
C  2.02400 54.13800 42.29900
C  0.90100 53.19600 42.48000
C  1.37100 51.93600 42.06800
C  2.72100 52.13200 41.63600
C  -0.40400 53.65200 43.07100
C  1.05100 50.60700 41.84000
O  -0.00800 50.05400 42.10500
C  2.35900 49.85800 41.29900
C  1.96700 48.84600 40.33900
O  1.27100 49.00100 39.38400
O  2.63700 47.68500 40.70200
C  2.18700 46.43500 40.00600
H  8.60100 52.09900 39.65500
H  6.96600 58.06200 41.23500
H  1.18200 55.99700 42.84600
H  4.93700 48.95000 40.10200
H  7.20100 50.25100 38.64300
H  8.28700 49.07300 40.05600
H  7.04100 48.62900 41.09300
H  7.71300 50.19900 41.44900
H  5.26400 50.31500 37.44300
H  3.79500 50.51800 38.32600
H  3.32600 48.42700 37.47500
H  4.67700 47.71300 38.40900
H  11.13200 54.77900 39.39000
H  10.08300 53.72600 38.37500
H  10.48600 53.31900 40.02100
H  8.32100 59.09300 39.98100
H  10.10400 59.30600 40.01200
H  9.37100 58.74700 41.48100
H  4.09500 58.83900 41.34600
H  3.42100 57.72300 44.04600
H  5.20300 60.41200 42.58100
H  6.32800 59.24300 43.22700
H  4.76600 59.51600 44.01000
H  1.02400 58.01200 42.89800
H  1.87600 58.83600 41.59100
H  1.67700 59.87600 44.53700
H  0.70000 60.14600 43.10700
H  2.23900 60.77200 42.95800
H  -0.93300 54.13500 42.24900
H  -0.32500 54.39100 43.86800
H  -0.99300 52.79700 43.40100
H  2.69300 49.44100 42.24900
H  1.16700 46.40400 39.62400
H  2.25000 45.65500 40.76500
H  2.95700 46.21900 39.26500

