158

Mg 36.16000 48.77400 25.95700
C  36.34300 47.22600 29.08100
C  34.67800 51.48300 27.58800
C  35.54200 50.07500 22.97400
C  37.03200 45.78000 24.49500
N  35.52700 49.25600 28.06700
C  35.86400 48.55100 29.13900
C  35.46700 49.32700 30.46200
C  34.67700 50.56300 29.94300
C  34.99600 50.44700 28.42700
C  33.19900 50.64100 30.31400
C  36.79700 49.73500 31.19600
C  37.09500 49.18500 32.57200
H  36.10800 49.53800 33.74500
N  35.32300 50.61300 25.33800
C  34.77200 51.59500 26.20800
C  34.32700 52.69100 25.37700
C  34.61300 52.32100 23.97100
C  35.08800 50.95600 24.03700
C  33.82700 54.06600 26.02800
C  34.41600 53.05700 22.67500
O  34.62200 52.56000 21.54000
C  33.87100 54.42200 22.69900
N  36.22900 48.00500 24.00600
C  36.06400 48.80200 22.99100
C  36.27300 48.03000 21.66200
C  36.81300 46.57900 22.15400
C  36.83300 46.82900 23.60200
C  34.97700 47.99700 20.80700
C  38.18500 46.33100 21.54700
C  38.22900 45.30200 20.42100
N  36.46600 46.83500 26.57800
C  36.82200 45.70900 25.92400
C  36.96200 44.57000 26.84000
C  36.85800 45.16500 28.10600
C  36.54300 46.51100 27.88500
C  37.26400 43.14700 26.49400
C  36.96700 44.85500 29.54500
O  37.24100 43.84900 30.10700
C  36.67400 46.24200 30.24400
C  35.55300 46.12200 31.17100
O  34.34400 46.16200 30.88400
O  36.00800 45.74100 32.45900
C  35.08800 45.39500 33.50200
H  34.05200 52.25300 28.04500
H  35.44000 50.49400 21.97000
H  37.19100 44.81400 24.01000
H  34.81800 48.69000 31.06400
H  35.07600 51.52600 30.26300
H  32.62300 50.65900 29.38900
H  33.08200 51.56300 30.88200
H  33.04200 49.74100 30.90900
H  36.77400 50.81000 31.37700
H  37.65200 49.59500 30.53500
H  38.09500 49.53900 32.82300
H  37.29600 48.11500 32.62100
H  34.61500 54.72500 26.39300
H  33.17400 53.89900 26.88400
H  33.29900 54.55900 25.21100
H  34.39200 55.23100 23.21200
H  32.85300 54.39600 23.09000
H  33.71900 54.64000 21.64100
H  37.00900 48.58300 21.07800
H  36.13200 45.75300 21.95300
H  34.90700 47.02300 20.32100
H  34.92200 48.81100 20.08500
H  34.08300 48.18600 21.40100
H  38.80700 45.79400 22.26300
H  38.71100 47.21000 21.17500
H  38.50400 45.75000 19.46600
H  37.25400 44.85700 20.21900
H  38.97500 44.54300 20.65700
H  38.20100 42.99400 27.02900
H  37.45900 43.01300 25.43000
H  36.60000 42.34100 26.80500
H  37.52500 46.60300 30.82000
H  35.34800 44.36900 33.76100
H  34.03100 45.52400 33.26900
H  35.10900 46.02400 34.39100
Mg 17.43000 52.39500 25.30700
C  19.27800 51.01700 28.01300
C  14.83500 52.98400 27.49600
C  15.82700 53.81000 22.84400
C  20.08600 51.45700 23.24900
N  17.08000 51.78400 27.46500
C  18.06000 51.51400 28.40900
C  17.67200 51.92900 29.82700
C  16.10000 51.91800 29.65000
C  15.92400 52.26100 28.09700
C  15.32900 50.68300 30.16200
C  18.38200 53.17900 30.35800
C  18.60200 53.20900 31.89500
H  17.82600 52.36800 32.84200
N  15.59100 53.20900 25.21800
C  14.69100 53.46200 26.19900
C  13.65900 54.36000 25.68500
C  13.82300 54.40800 24.28700
C  15.17400 53.84200 24.06600
C  12.64500 55.03700 26.56600
C  12.84000 54.93400 23.20900
O  13.03900 55.00000 21.99900
C  11.53300 55.56900 23.68200
N  17.88400 52.56600 23.36700
C  17.03600 53.22700 22.47800
C  17.64300 53.40200 21.07600
C  19.00100 52.57600 21.21900
C  19.00700 52.15800 22.66800
C  16.66300 52.99800 19.91300
C  20.24400 53.40000 20.71300
C  20.76700 54.46200 21.66000
N  19.29700 51.38000 25.54200
C  20.22800 51.05600 24.57100
C  21.34800 50.41200 25.23700
C  21.04200 50.38800 26.65800
C  19.77500 50.96300 26.73700
C  22.62900 50.00000 24.60200
C  21.58300 50.08100 27.91900
O  22.61000 49.47400 28.23100
C  20.45400 50.53800 28.84500
C  20.21300 49.35700 29.69100
O  19.76000 48.30700 29.31800
O  20.40100 49.66400 31.03300
C  19.95600 48.66800 31.97600
H  14.15400 53.26600 28.30100
H  15.18100 54.36900 22.16400
H  21.00700 51.26600 22.69400
H  17.87300 51.07400 30.47100
H  15.78800 52.71600 30.32400
H  15.77800 50.25100 31.05600
H  15.14700 49.97100 29.35700
H  14.37900 51.01700 30.57700
H  17.77400 54.07400 30.22700
H  19.25400 53.37500 29.73500
H  18.54700 54.24000 32.24500
H  19.60900 52.79800 31.96700
H  12.83400 56.10900 26.51400
H  12.72700 54.75300 27.61500
H  11.61700 54.81300 26.27800
H  11.60000 56.49500 24.25200
H  11.01200 54.75400 24.18400
H  10.92900 55.87400 22.82800
H  17.85200 54.45500 20.89100
H  18.81500 51.65600 20.66400
H  15.71900 52.79200 20.41600
H  16.98300 52.11100 19.36600
H  16.76300 53.85400 19.24600
H  19.97900 53.95600 19.81400
H  21.00200 52.67500 20.41800
H  20.59900 54.12600 22.68300
H  20.32600 55.45000 21.52500
H  21.84300 54.60200 21.55900
H  22.84200 50.63200 23.74000
H  22.51900 48.99800 24.18800
H  23.39500 50.09100 25.37200
H  20.96900 51.33000 29.39000
H  20.71800 47.89300 31.89000
H  18.94300 48.33400 31.75400
H  19.88900 48.97400 33.02000

