158

Mg 46.25800 4.90500 48.54100
C  44.65700 7.95900 47.63900
C  43.41900 3.24000 47.78500
C  47.96800 2.13800 48.54500
C  49.18900 6.74900 49.07500
N  44.28800 5.52200 47.97000
C  43.86400 6.84200 47.63700
C  42.37900 6.81300 47.36600
C  41.96800 5.33100 47.56500
C  43.24800 4.62100 47.81300
C  40.89400 4.97700 48.65900
C  42.06200 7.47900 46.05100
C  40.70900 8.19100 46.09500
H  39.80400 7.60700 45.02200
N  45.76000 2.96300 48.24700
C  44.56900 2.46400 47.93400
C  44.58800 1.08300 47.98300
C  45.95100 0.70300 48.11400
C  46.64800 1.96200 48.27900
C  43.49600 0.17300 47.78100
C  46.48700 -0.71000 48.30100
O  45.74300 -1.68300 48.24200
C  47.94900 -1.03200 48.53700
N  48.40900 4.54000 48.44700
C  48.75200 3.25100 48.82800
C  50.11900 3.18500 49.50200
C  50.54700 4.61200 49.32400
C  49.30900 5.37200 49.00700
C  50.18500 2.58400 50.94500
C  51.77500 4.89600 48.33300
C  53.05900 5.61900 48.96200
N  46.84500 6.97100 48.37600
C  48.05000 7.56800 48.74900
C  47.95600 8.99000 48.57500
C  46.60700 9.24700 48.17600
C  45.96300 7.97500 48.04000
C  48.96300 10.09100 49.07000
C  45.60100 10.24400 47.79300
O  45.84600 11.43200 47.58400
C  44.25600 9.49600 47.49600
C  43.26600 9.82700 48.55600
O  43.31700 9.37700 49.71200
O  42.25700 10.57600 48.03100
C  41.21700 10.92400 48.95200
H  42.46600 2.73100 47.62600
H  48.44200 1.19600 48.82600
H  50.03000 7.36200 49.40300
H  41.90000 7.43200 48.12400
H  41.56900 4.87000 46.66200
H  40.62000 5.97200 49.01100
H  41.41400 4.38400 49.41200
H  40.03700 4.43800 48.25400
H  41.94100 6.67800 45.32200
H  42.80300 8.16900 45.64700
H  40.87500 9.26000 45.96100
H  40.24700 8.08600 47.07700
H  43.38900 -0.45400 48.66600
H  43.63700 -0.47700 46.91700
H  42.56500 0.72500 47.65400
H  48.66100 -0.79500 47.74700
H  47.95900 -2.12100 48.50900
H  48.28200 -0.68100 49.51400
H  50.73200 2.55200 48.86100
H  50.75200 5.00300 50.32000
H  50.03600 3.44200 51.60100
H  51.10600 2.08000 51.23700
H  49.34400 1.93700 51.19300
H  51.50800 5.44100 47.42800
H  52.08500 3.96700 47.85400
H  52.99500 6.66700 48.67100
H  54.04800 5.27800 48.65600
H  53.03800 5.43900 50.03700
H  49.58200 9.63500 49.84200
H  48.39100 10.91700 49.49100
H  49.52800 10.47200 48.21900
H  43.81400 9.76000 46.53600
H  41.03900 10.10700 49.65200
H  40.32900 11.09000 48.34200
H  41.41100 11.89600 49.40500
Mg -2.76300 34.60000 27.03700
C  -4.39300 32.63600 29.35600
C  -1.48200 36.54800 29.66700
C  -1.38700 36.66500 24.74500
C  -4.60900 32.99700 24.56300
N  -3.05300 34.70800 29.29000
C  -3.65800 33.68500 29.97400
C  -3.38400 33.91800 31.51400
C  -2.57000 35.23300 31.62400
C  -2.35800 35.49300 30.13000
C  -3.22900 36.31500 32.52400
C  -2.65500 32.68200 32.07700
C  -3.39500 31.84000 33.15600
H  -2.85300 31.90800 34.56800
N  -1.45500 36.27700 27.17000
C  -1.12200 36.95600 28.29800
C  -0.09600 37.95100 27.99500
C  0.02100 38.00100 26.57300
C  -0.98800 37.00700 26.06300
C  0.63600 38.75800 28.96300
C  0.79400 38.89400 25.58800
O  0.81200 38.66500 24.41900
C  1.76400 39.95300 26.13900
N  -3.18100 34.92500 25.00500
C  -2.29900 35.67300 24.26600
C  -2.67900 35.65900 22.85800
C  -3.58700 34.36700 22.74900
C  -3.87700 34.11100 24.21900
C  -3.40400 36.91300 22.26400
C  -2.81100 33.25400 21.98500
C  -2.77600 33.45500 20.46000
N  -4.17600 33.08900 26.91900
C  -4.76600 32.46000 25.83300
C  -5.45400 31.19800 26.27300
C  -5.42800 31.29100 27.67100
C  -4.59600 32.45800 27.99700
C  -6.06300 30.25000 25.35200
C  -5.87100 30.72100 28.87200
O  -6.56300 29.73200 29.10700
C  -5.20100 31.47300 30.00300
C  -6.25800 32.07500 30.82600
O  -6.85200 33.09900 30.67700
O  -6.61700 31.16000 31.82500
C  -7.67700 31.57900 32.74500
H  -0.94100 37.06300 30.46400
H  -0.95800 37.23400 23.91700
H  -4.92300 32.35200 23.73900
H  -4.31100 33.93200 32.08600
H  -1.57700 35.06000 32.03800
H  -2.58500 36.73800 33.29500
H  -4.12900 35.98300 33.04300
H  -3.44600 37.11600 31.81800
H  -1.80300 33.15500 32.56600
H  -2.28400 32.11900 31.22100
H  -3.37400 30.80500 32.81400
H  -4.41200 32.20000 33.31100
H  0.30500 38.52700 29.97600
H  0.44300 39.80900 28.75100
H  1.69900 38.53400 28.86400
H  2.53100 39.50100 26.76800
H  1.13300 40.60200 26.74600
H  2.27200 40.54800 25.38000
H  -1.74900 35.46100 22.32600
H  -4.45000 34.60900 22.12900
H  -4.13900 37.24700 22.99600
H  -3.99000 36.57600 21.40900
H  -2.66800 37.58500 21.82300
H  -3.14600 32.24400 22.22100
H  -1.73800 33.24400 22.18000
H  -3.28700 34.34000 20.08000
H  -3.30000 32.62700 19.98300
H  -1.72100 33.37700 20.19800
H  -6.21200 29.31200 25.88600
H  -5.33300 30.13100 24.55200
H  -7.01200 30.62800 24.97100
H  -4.67400 30.65000 30.48600
H  -8.18500 32.47400 32.38600
H  -7.27000 31.77900 33.73600
H  -8.45900 30.82600 32.84900

