158

Mg 43.13400 41.55300 26.34500
C  41.97800 43.87100 28.54200
C  44.29100 39.50600 28.82000
C  44.68000 39.72100 23.93000
C  42.42400 43.93100 23.78500
N  43.24000 41.79900 28.46100
C  42.47000 42.69400 29.12800
C  42.36200 42.41900 30.66100
C  43.16500 41.01100 30.69700
C  43.62700 40.74500 29.24500
C  44.47200 41.01200 31.51200
C  40.85200 42.25400 31.27500
C  40.72400 41.47300 32.57100
H  39.91900 42.05000 33.71100
N  44.18300 39.78200 26.37000
C  44.49600 39.07400 27.47300
C  45.09000 37.81800 27.06600
C  45.19300 37.81600 25.68300
C  44.70300 39.16600 25.26300
C  45.53600 36.83800 28.08500
C  45.64200 36.77500 24.67300
O  45.71900 37.00300 23.45300
C  46.04700 35.42800 25.11000
N  43.73200 41.88700 24.13200
C  44.23900 40.89900 23.40700
C  44.25200 41.25900 21.86700
C  43.47000 42.63200 21.80300
C  43.21300 42.90000 23.32400
C  45.64000 41.27200 21.24700
C  42.19300 42.54300 20.98300
C  42.01100 43.61000 19.88700
N  42.33500 43.50100 26.14200
C  42.08500 44.25800 25.06000
C  41.46100 45.50800 25.48200
C  41.30800 45.43100 26.89100
C  41.86300 44.19500 27.19200
C  41.01400 46.61200 24.59700
C  40.83100 46.02300 28.12000
O  40.28400 47.11000 28.23500
C  41.20100 45.01200 29.28100
C  42.17400 45.71800 30.13000
O  43.38400 45.82300 30.03600
O  41.55000 46.11300 31.29600
C  42.44400 46.56200 32.46700
H  44.38500 38.78500 29.63500
H  45.14200 39.13300 23.13400
H  42.04800 44.61000 23.01700
H  42.90900 43.19400 31.19700
H  42.51200 40.22200 31.07000
H  44.24700 41.81400 32.21400
H  45.31500 41.32500 30.89500
H  44.72600 40.09700 32.04700
H  40.20100 41.92800 30.46400
H  40.59800 43.25000 31.63700
H  41.66300 41.07200 32.95400
H  40.20600 40.53200 32.38800
H  44.99300 35.90200 27.95300
H  45.46900 37.13100 29.13300
H  46.55100 36.57500 27.78800
H  45.31700 34.99200 25.79300
H  46.99600 35.55400 25.63100
H  46.28500 34.78600 24.26200
H  43.78900 40.42300 21.34300
H  44.13000 43.43900 21.48400
H  46.33300 40.95100 22.02500
H  45.88100 42.23600 20.80100
H  45.71400 40.46700 20.51600
H  41.33700 42.68300 21.64300
H  42.05900 41.58300 20.48500
H  41.89800 43.09300 18.93400
H  42.91400 44.13500 19.57500
H  41.19600 44.33400 19.92900
H  40.51800 47.37000 25.20400
H  40.43200 46.17800 23.78400
H  41.87100 47.18000 24.23500
H  40.31700 44.49500 29.65300
H  43.51000 46.68400 32.27200
H  42.27900 45.74500 33.17000
H  42.03700 47.48100 32.88700
Mg 36.30000 49.33300 25.20400
C  36.56500 47.60600 28.28200
C  34.92900 51.79700 26.72500
C  35.92000 50.66000 22.22000
C  37.43800 46.36600 23.60100
N  35.63000 49.56800 27.29300
C  35.87000 48.85800 28.37700
C  35.60300 49.63500 29.68600
C  34.79600 50.82600 29.05700
C  35.14500 50.78200 27.63900
C  33.24900 50.83100 29.23300
C  36.86600 50.04300 30.54000
C  36.83900 49.84700 32.09900
H  35.54800 49.97400 32.90000
N  35.55200 51.07700 24.53900
C  34.96900 51.98400 25.36800
C  34.48700 53.14000 24.60200
C  35.00900 52.89100 23.27000
C  35.53000 51.45900 23.26000
C  33.81000 54.40800 25.16100
C  34.97700 53.76100 22.07500
O  35.40300 53.35400 20.98800
C  34.52600 55.25300 22.20700
N  36.61000 48.59200 23.12300
C  36.31900 49.33600 22.09000
C  36.55000 48.60100 20.80400
C  37.21800 47.23500 21.21600
C  36.98300 47.36700 22.71600
C  35.36900 48.46400 19.79500
C  38.68500 47.07300 20.93500
C  39.05200 47.23900 19.43500
N  36.84000 47.38500 25.78500
C  37.33100 46.32800 25.02500
C  37.63700 45.15500 25.89300
C  37.35700 45.65000 27.18900
C  36.79400 46.96200 27.05700
C  38.25800 43.81300 25.49100
C  37.35300 45.30300 28.50800
O  37.58300 44.25100 29.06800
C  36.85400 46.52400 29.32300
C  35.67000 46.04900 30.01500
O  34.64100 45.90700 29.42100
O  35.71800 46.17700 31.34600
C  34.48400 46.11300 32.14800
H  34.52400 52.65000 27.27300
H  35.70700 51.14500 21.26500
H  37.81800 45.40800 23.24100
H  34.95000 48.97600 30.25800
H  35.12500 51.74300 29.54700
H  32.98200 50.06100 29.95600
H  32.63700 50.99700 28.34600
H  32.98700 51.73000 29.79200
H  37.22600 51.05800 30.37000
H  37.66400 49.39400 30.17800
H  37.60400 50.52700 32.47500
H  37.20500 48.82500 32.19200
H  33.59900 54.32500 26.22700
H  32.77600 54.57300 24.85600
H  34.47700 55.26400 25.06600
H  34.56200 55.88800 21.32200
H  35.25200 55.69600 22.88900
H  33.52800 55.29500 22.64200
H  37.33500 49.14700 20.28200
H  36.70400 46.37700 20.78300
H  34.58800 49.11200 20.19500
H  35.05400 47.43400 19.96000
H  35.47200 48.77000 18.75400
H  39.13500 46.15300 21.30700
H  39.01900 47.89500 21.56700
H  38.16200 46.95700 18.87200
H  39.88400 46.56900 19.22200
H  39.51300 48.18000 19.13500
H  38.65600 43.84500 24.47700
H  37.52200 43.02400 25.64900
H  39.08400 43.68800 26.19100
H  37.60200 46.78300 30.07200
H  34.20800 45.07200 32.31300
H  33.65800 46.74100 31.81500
H  34.79800 46.48500 33.12400

