158

Mg 44.17900 4.10500 47.63200
C  42.15900 6.93400 47.04400
C  41.37100 2.12300 47.39200
C  46.25800 1.54300 47.94200
C  47.02300 6.37300 47.53000
N  41.99400 4.52700 47.13000
C  41.44500 5.72400 46.98200
C  39.97200 5.55500 46.56700
C  39.63900 4.09300 47.01400
C  41.08200 3.47900 47.17500
C  38.83600 3.94300 48.25500
C  39.77000 5.79500 45.07600
C  38.85500 6.97100 44.65800
H  39.27700 7.72100 43.46000
N  43.88900 2.05800 47.73600
C  42.62600 1.45200 47.57200
C  42.78600 0.05700 47.69200
C  44.18400 -0.18600 47.95800
C  44.85100 1.14900 47.90600
C  41.75700 -0.94500 47.46600
C  44.74800 -1.60800 48.08800
O  44.10500 -2.65700 48.02000
C  46.21200 -1.75200 48.25000
N  46.31700 3.98200 47.59500
C  46.86600 2.78800 47.83500
C  48.40500 2.90300 47.70000
C  48.65700 4.44900 47.55400
C  47.23400 5.00400 47.47800
C  49.31400 2.19100 48.79700
C  49.59600 4.88500 46.38700
C  50.73000 5.89300 46.69700
N  44.60800 6.30100 47.40800
C  45.77300 7.04200 47.50200
C  45.39400 8.48500 47.43000
C  44.00600 8.50700 47.23300
C  43.57100 7.12000 47.17200
C  46.27100 9.76000 47.69900
C  42.79600 9.39200 47.08900
O  42.64000 10.56900 47.05000
C  41.59300 8.36800 46.86000
C  40.40700 8.56800 47.84900
O  40.31900 8.01500 48.90700
O  39.54800 9.51800 47.32600
C  38.35600 9.80900 48.11600
H  40.49200 1.47700 47.36000
H  46.94600 0.70200 48.05400
H  47.92700 6.96800 47.67500
H  39.42700 6.28900 47.16000
H  39.19800 3.53900 46.18500
H  38.49700 4.96600 48.42100
H  39.37500 3.57700 49.12900
H  37.97000 3.28300 48.18900
H  39.44900 4.88100 44.57500
H  40.74800 6.11200 44.71400
H  38.80000 7.69100 45.47500
H  37.86300 6.67500 44.31600
H  40.86800 -0.55800 46.96800
H  41.45800 -1.44200 48.38800
H  42.15800 -1.62600 46.71500
H  46.85000 -1.68400 47.37000
H  46.61100 -2.58900 48.82400
H  46.49800 -0.96700 48.95000
H  48.71600 2.36500 46.80500
H  48.95600 4.82600 48.53100
H  48.53700 1.86200 49.48700
H  50.07200 2.81100 49.27600
H  49.84200 1.28000 48.51400
H  48.94100 5.37300 45.66600
H  50.01900 3.99400 45.92300
H  50.55300 6.89700 46.31100
H  51.70900 5.44800 46.51600
H  50.81100 6.00300 47.77800
H  45.81900 10.63800 47.23800
H  47.23300 9.57200 47.22000
H  46.43300 9.79200 48.77600
H  41.25800 8.35100 45.82300
H  38.31600 9.17200 48.99900
H  37.55900 9.73800 47.37600
H  38.39400 10.84300 48.45900
Mg -1.98100 34.33200 26.32400
C  -3.16400 32.41900 29.06900
C  -0.70800 36.49200 28.56400
C  -1.47200 36.18000 23.62900
C  -3.42400 31.90100 24.24700
N  -2.04200 34.47500 28.61900
C  -2.45900 33.47500 29.48500
C  -2.15000 33.89500 30.97700
C  -1.31400 35.22100 30.72600
C  -1.42800 35.47000 29.18500
C  -1.81900 36.49500 31.50700
C  -1.39100 32.74900 31.78200
C  -2.17000 32.12900 32.99500
H  -1.42200 32.36600 34.40000
N  -1.20900 36.02000 26.11700
C  -0.69200 36.85400 27.15000
C  -0.07700 37.99500 26.58800
C  -0.25700 37.90100 25.15400
C  -1.05400 36.66900 24.90600
C  0.59300 39.09700 27.29800
C  0.28700 38.81000 24.06800
O  0.22000 38.57600 22.86600
C  1.12500 39.99200 24.42700
N  -2.40500 34.09400 24.28400
C  -2.07200 34.98100 23.28200
C  -2.58800 34.62500 21.92400
C  -3.06700 33.22200 22.14600
C  -2.91400 33.03000 23.67800
C  -3.53100 35.49000 21.10500
C  -2.27600 32.14400 21.33400
C  -0.81300 31.83500 21.68900
N  -3.07600 32.51500 26.52500
C  -3.65500 31.68600 25.61900
C  -4.43600 30.64800 26.26500
C  -4.20600 30.85700 27.60300
C  -3.38800 32.02500 27.73000
C  -5.24700 29.58500 25.59000
C  -4.62500 30.39800 28.85300
O  -5.43000 29.53000 29.16200
C  -4.00800 31.42600 29.85600
C  -5.02500 32.20200 30.51900
O  -5.47500 33.24900 30.23000
O  -5.30000 31.56100 31.66500
C  -5.98800 32.37600 32.69500
H  -0.22600 37.17300 29.26900
H  -1.43800 36.83600 22.75700
H  -3.93100 31.20500 23.57600
H  -3.12100 34.22900 31.34500
H  -0.28700 35.06700 31.05600
H  -1.03900 36.99800 32.07900
H  -2.55500 36.14300 32.23000
H  -2.45700 37.11200 30.87500
H  -0.41000 33.10000 32.10200
H  -1.07700 31.89500 31.18200
H  -2.24500 31.05200 32.84700
H  -3.16800 32.56700 32.97600
H  0.65600 38.99800 28.38100
H  0.08500 40.05200 27.15900
H  1.61800 39.14000 26.93100
H  2.10700 39.63100 24.73300
H  0.77500 40.66500 25.21000
H  1.27300 40.64300 23.56600
H  -1.67100 34.58700 21.33500
H  -4.12100 33.17800 21.87000
H  -4.26900 34.83200 20.64400
H  -3.03100 36.01700 20.29200
H  -4.00700 36.24000 21.73700
H  -2.27000 32.44800 20.28800
H  -2.86900 31.23000 21.33300
H  -0.35800 32.31800 22.55300
H  -0.25800 31.96200 20.75900
H  -0.88300 30.76400 21.87900
H  -5.43800 28.71400 26.21600
H  -4.72200 29.25600 24.69300
H  -6.26100 29.93800 25.40400
H  -3.37700 30.86600 30.54500
H  -6.89500 32.74700 32.21600
H  -5.39400 33.21700 33.05300
H  -6.25600 31.73000 33.53100

