158

Mg 46.85200 46.48000 43.91000
C  43.51900 46.40200 43.04500
C  47.19100 43.35200 42.30600
C  50.08700 46.64700 44.43200
C  46.49500 49.96900 44.39200
N  45.60700 45.23500 42.68600
C  44.21400 45.26900 42.64000
C  43.67700 44.25700 41.62800
C  44.79100 43.19200 41.68800
C  46.00500 43.98800 42.22200
C  44.33600 41.93500 42.56100
C  43.34000 44.91400 40.20300
C  42.05500 44.48900 39.56400
H  42.22900 43.42200 38.50500
N  48.40900 45.12800 43.48200
C  48.40900 43.90600 42.78200
C  49.74100 43.35500 42.75600
C  50.61500 44.31600 43.31200
C  49.70500 45.41100 43.80900
C  50.08200 41.97100 42.02000
C  52.11100 44.17100 43.50700
O  52.66300 43.19000 43.10900
C  52.95100 45.37400 43.95000
N  48.08600 48.09400 44.27100
C  49.43900 47.87300 44.60200
C  50.12700 49.24300 45.05200
C  48.95800 50.28100 44.80200
C  47.73800 49.41000 44.45900
C  50.60500 49.27200 46.50200
C  49.25400 51.29700 43.66600
C  49.02800 50.90600 42.18600
N  45.24900 48.00500 43.92600
C  45.26900 49.36600 44.06800
C  43.89700 49.81400 44.05800
C  43.15400 48.68800 43.66500
C  44.01400 47.61900 43.56200
C  43.48900 51.24100 44.23200
C  41.88700 48.16900 43.26900
O  40.89600 48.76700 43.06600
C  42.01400 46.68900 42.95000
C  41.05800 45.88500 43.74600
O  40.03200 45.49400 43.29500
O  41.46000 45.76400 45.06400
C  40.57100 44.99200 45.93900
H  47.25400 42.37500 41.82300
H  51.08800 46.71800 44.86200
H  46.46600 51.04100 44.59500
H  42.71400 43.86600 41.95700
H  45.09900 42.75300 40.74000
H  44.43200 41.01100 41.99100
H  43.29900 41.94700 42.89700
H  44.88700 41.97900 43.50100
H  44.06500 44.56300 39.46800
H  43.43700 45.99600 40.28800
H  41.58800 45.32900 39.04900
H  41.32100 44.07200 40.25400
H  49.18500 41.44700 41.69000
H  50.62300 41.27100 42.65800
H  50.70400 42.28000 41.18000
H  52.75000 46.27100 43.36400
H  54.00300 45.09100 43.96900
H  52.65500 45.55700 44.98300
H  51.00100 49.48900 44.44900
H  48.67100 50.87100 45.67300
H  51.67500 49.47900 46.49700
H  50.42400 48.33600 47.03100
H  50.14300 50.06200 47.09400
H  50.15500 51.91000 43.69300
H  48.52100 52.09400 43.78400
H  47.97800 50.74600 41.94300
H  49.58600 49.99200 41.98400
H  49.41700 51.69200 41.53800
H  44.29900 51.96900 44.20500
H  42.88600 51.29200 45.13800
H  42.97400 51.41600 43.28700
H  41.67800 46.55000 41.92300
H  40.86400 45.34300 46.92800
H  40.77200 43.93000 46.07500
H  39.52500 45.06600 45.64400
Mg 41.51600 41.61100 27.18400
C  40.65100 44.09200 29.54500
C  42.10200 39.40000 29.81500
C  42.37800 39.39300 25.00100
C  40.96600 44.02800 24.68200
N  41.58000 41.81500 29.41300
C  40.92700 42.82400 30.13000
C  40.91600 42.53300 31.62300
C  41.33500 41.00100 31.60300
C  41.74500 40.69600 30.18800
C  42.36400 40.55600 32.64100
C  39.55700 42.89500 32.28500
C  38.89600 42.15000 33.49000
H  38.00700 42.88100 34.57600
N  42.11700 39.62900 27.42800
C  42.28100 38.87300 28.53900
C  42.58200 37.52400 28.20200
C  42.60200 37.46600 26.82400
C  42.35100 38.90900 26.36700
C  42.86600 36.37500 29.17000
C  42.85400 36.31800 25.91400
O  42.89100 36.36800 24.69100
C  43.12000 34.93400 26.46100
N  41.87600 41.79400 25.10800
C  42.08000 40.61300 24.43800
C  41.93000 40.87700 22.88900
C  41.24000 42.25300 22.88200
C  41.33300 42.71800 24.33600
C  43.32800 40.78500 22.26800
C  39.63800 42.24300 22.56300
C  38.80400 41.20300 23.39100
N  40.94800 43.63000 27.15400
C  40.93400 44.53900 26.04500
C  40.57000 45.82000 26.49500
C  40.47900 45.73000 27.87700
C  40.77600 44.34300 28.21200
C  40.35700 47.01800 25.68300
C  40.09000 46.48800 29.07700
O  39.67200 47.60300 29.28800
C  40.19400 45.42500 30.18000
C  41.12200 45.94300 31.20800
O  42.33100 45.97200 31.06200
O  40.43300 46.37000 32.28400
C  41.15000 46.90400 33.44100
H  42.16300 38.65800 30.61300
H  42.77100 38.74800 24.21200
H  40.95900 44.71700 23.83500
H  41.63600 43.22300 32.06300
H  40.44200 40.41100 31.81000
H  41.87600 39.88400 33.34800
H  42.68900 41.43100 33.20300
H  43.21200 40.03500 32.19600
H  38.77800 42.95100 31.52500
H  39.73900 43.87000 32.73600
H  39.63500 41.47100 33.91600
H  38.14000 41.47400 33.09100
H  42.20200 35.51100 29.18900
H  42.97400 36.55700 30.24000
H  43.83300 36.00600 28.83000
H  42.23400 34.72000 27.05900
H  44.04000 35.06300 27.03100
H  43.22300 34.10500 25.76000
H  41.16400 40.22100 22.47600
H  41.80300 42.99500 22.31600
H  43.66900 41.69100 21.76800
H  43.20900 39.93400 21.59600
H  44.19400 40.63300 22.91200
H  39.45700 41.88700 21.54900
H  39.13200 43.20500 22.64100
H  38.12400 41.71000 24.07600
H  39.33900 40.37100 23.84800
H  38.22200 40.73800 22.59600
H  39.89700 47.75200 26.34600
H  39.69900 46.86300 24.82800
H  41.33600 47.34900 25.33800
H  39.22000 45.35800 30.66500
H  41.35000 46.16800 34.22000
H  40.53600 47.63000 33.97300
H  42.14400 47.27300 33.18900

