158

Mg 49.65400 45.95200 42.73200
C  46.20500 46.68400 41.99100
C  49.24200 42.94700 41.31400
C  52.98900 45.56700 43.10300
C  49.77000 49.24000 44.04700
N  47.86400 44.99500 41.81400
C  46.65200 45.38200 41.54700
C  45.77600 44.34000 40.90200
C  46.70300 43.17200 40.61800
C  48.03800 43.75600 41.28200
C  46.37800 41.79900 41.20800
C  44.94100 44.77200 39.66100
C  43.81900 43.81100 39.10900
H  43.98000 43.03500 37.81000
N  50.94000 44.49500 42.18700
C  50.59500 43.22600 41.74000
C  51.76600 42.45100 41.78300
C  52.83700 43.16300 42.40000
C  52.28800 44.48900 42.54500
C  51.71600 40.93400 41.38200
C  54.23000 42.64800 42.73900
O  54.39400 41.47500 42.56600
C  55.42100 43.53800 43.08600
N  51.25600 47.25600 43.31200
C  52.56600 46.88900 43.39500
C  53.46900 48.10800 43.85400
C  52.39700 49.15300 44.33900
C  50.99900 48.52300 43.91000
C  54.61500 47.75500 44.86400
C  52.67900 50.65300 43.85700
C  52.72500 51.87000 44.85500
N  48.36400 47.63100 42.97800
C  48.55000 48.78700 43.64300
C  47.33700 49.51900 43.77000
C  46.35600 48.66300 43.16900
C  47.05800 47.54600 42.66900
C  47.01600 50.96700 44.25000
C  44.95900 48.59400 42.82400
O  44.03800 49.33800 42.92100
C  44.85700 47.27600 41.97900
C  43.76000 46.50400 42.64900
O  43.85300 45.87000 43.66600
O  42.63500 46.57900 41.81200
C  41.33600 46.21000 42.40600
H  49.10600 41.90700 41.00800
H  54.06000 45.54000 43.31400
H  49.71100 50.20700 44.55000
H  45.09800 43.99500 41.68300
H  47.01800 43.16000 39.57400
H  46.76700 41.67500 42.21800
H  46.97300 41.06400 40.66600
H  45.36500 41.40500 41.11700
H  45.61600 44.77500 38.80400
H  44.52000 45.76600 39.81400
H  42.96700 44.45100 38.87800
H  43.45000 43.13400 39.87900
H  52.60800 40.64800 40.82300
H  50.84600 40.97900 40.72700
H  51.51900 40.33000 42.26700
H  55.36700 43.91600 44.10700
H  55.60000 44.22100 42.25500
H  56.36300 42.99100 43.08600
H  53.84400 48.51100 42.91400
H  52.20900 49.15200 45.41300
H  55.48400 47.95900 44.23700
H  54.66400 46.73100 45.23300
H  54.70300 48.42400 45.72000
H  51.95600 50.86600 43.06900
H  53.67900 50.69500 43.42700
H  52.27100 52.75600 44.41000
H  53.75400 52.13100 45.10400
H  52.10500 51.57800 45.70200
H  47.68100 51.07400 45.10600
H  45.99600 51.26800 44.49000
H  47.41600 51.58500 43.44600
H  44.51100 47.67700 41.02600
H  41.25200 46.75100 43.34900
H  41.23900 45.14300 42.60600
H  40.53800 46.47700 41.71300
Mg 36.27900 49.45300 26.84300
C  36.63000 47.42000 29.52600
C  35.46600 52.03900 28.96700
C  36.01100 51.42600 24.15300
C  36.97100 46.69600 24.73600
N  36.19500 49.71300 29.01900
C  36.45700 48.74900 29.93700
C  36.29200 49.25500 31.39200
C  35.49300 50.61200 31.08500
C  35.73800 50.88000 29.61300
C  34.03800 50.59200 31.56700
C  37.65700 49.41200 32.23200
C  37.55900 49.35400 33.74300
H  36.23700 49.66900 34.40900
N  35.84200 51.48900 26.63200
C  35.51500 52.39400 27.58800
C  35.06200 53.62700 26.96200
C  35.38000 53.48500 25.58400
C  35.70800 52.08800 25.39900
C  34.60600 54.86400 27.78100
C  35.39600 54.60000 24.50400
O  35.77200 54.45700 23.37500
C  34.89500 56.01800 24.92900
N  36.35200 49.02800 24.69900
C  36.27000 50.06900 23.82300
C  36.59800 49.57000 22.43000
C  36.96100 48.09000 22.64000
C  36.80600 47.93300 24.13800
C  35.46500 49.71500 21.39000
C  38.41600 47.76500 22.18400
C  38.63500 46.93200 20.89900
N  36.64700 47.43400 27.01200
C  36.95600 46.40400 26.09700
C  37.26200 45.17300 26.80100
C  37.04800 45.54500 28.09100
C  36.69800 46.88900 28.18500
C  37.65400 43.90000 26.18600
C  37.11900 45.02900 29.47500
O  37.46200 43.89100 29.82200
C  36.79600 46.19200 30.43100
C  35.63200 45.92400 31.26000
O  34.47100 45.83600 30.87100
O  36.07500 45.76700 32.58100
C  35.03500 45.59400 33.55500
H  35.13600 52.85100 29.61700
H  35.93100 52.12200 23.31500
H  37.26200 45.94400 23.99900
H  35.55800 48.71000 31.98600
H  35.95500 51.44900 31.60800
H  33.61400 49.62400 31.83100
H  33.38000 50.97700 30.78800
H  33.90000 51.29800 32.38600
H  38.16700 50.34800 32.00600
H  38.31500 48.61400 31.88600
H  38.31000 50.03800 34.13800
H  37.84400 48.36600 34.10600
H  35.42900 55.54900 27.98600
H  34.44500 54.61700 28.83100
H  33.69200 55.38500 27.49700
H  35.51400 56.44400 25.71900
H  33.86100 55.87200 25.24200
H  34.98000 56.58100 24.00000
H  37.46100 50.17100 22.14300
H  36.26800 47.35900 22.22300
H  35.45300 50.74900 21.04300
H  34.47400 49.50400 21.79100
H  35.71900 49.03900 20.57400
H  39.00400 47.29500 22.97300
H  38.91000 48.72600 22.03900
H  38.63700 45.87800 21.17700
H  39.58800 47.17400 20.43000
H  37.84200 47.17100 20.19100
H  38.66500 43.87200 25.77900
H  37.16400 43.71300 25.23100
H  37.44600 43.02800 26.80500
H  37.65200 46.29900 31.09800
H  34.34200 44.87300 33.12100
H  34.58500 46.55000 33.82300
H  35.44000 45.18700 34.48100

