158

Mg 36.29000 50.01500 24.98600
C  36.51000 47.86200 27.76500
C  34.91500 52.46700 26.93100
C  35.45300 51.77900 22.20300
C  37.07800 47.16600 23.08600
N  35.73200 50.14900 27.07000
C  35.98900 49.16800 28.04600
C  35.64600 49.73600 29.44200
C  35.03200 51.12700 29.12300
C  35.29100 51.33000 27.64100
C  33.47500 51.51700 29.49100
C  36.99300 49.80000 30.24900
C  36.98800 49.61900 31.80200
H  35.59000 49.50900 32.50900
N  35.43300 51.87700 24.66100
C  34.97100 52.77100 25.55700
C  34.59500 54.02200 24.86800
C  34.71900 53.85500 23.44200
C  35.16000 52.43600 23.37500
C  34.12000 55.26400 25.63800
C  34.40100 54.86500 22.36100
O  34.51600 54.62800 21.14000
C  33.86500 56.25300 22.68600
N  36.08800 49.53000 22.86700
C  35.89300 50.51700 21.94200
C  36.33500 49.94900 20.58300
C  37.18100 48.64200 20.93900
C  36.68100 48.36700 22.39600
C  35.23200 49.82000 19.49300
C  38.68700 48.84000 20.87100
C  39.58500 47.77800 20.30900
N  36.77400 47.91600 25.25300
C  37.08100 46.88200 24.44900
C  37.42300 45.71600 25.17300
C  37.21800 46.07800 26.54000
C  36.77100 47.37600 26.47000
C  37.76100 44.43200 24.47000
C  37.10200 45.52000 27.91700
O  37.24400 44.36700 28.37000
C  36.76800 46.74300 28.74600
C  35.60300 46.41300 29.65900
O  34.39700 46.53000 29.38100
O  36.05000 45.78100 30.77300
C  34.95900 45.14800 31.54600
H  34.65000 53.35600 27.50800
H  35.37800 52.38300 21.29600
H  37.47700 46.42000 22.39600
H  34.88500 49.06700 29.84400
H  35.61100 51.95900 29.52300
H  33.23700 51.00200 30.42200
H  32.72900 51.27400 28.73400
H  33.56200 52.58500 29.69000
H  37.52500 50.72700 30.03300
H  37.70000 49.06100 29.87200
H  37.43000 50.54800 32.16300
H  37.75500 48.88300 32.04300
H  34.63900 56.19800 25.42200
H  34.03300 55.08300 26.70900
H  33.06500 55.43900 25.43000
H  32.95200 56.33400 23.27600
H  33.71000 56.77900 21.74400
H  34.72700 56.63800 23.23200
H  36.96700 50.71300 20.13000
H  36.77500 47.79500 20.38600
H  34.41000 50.23800 20.07400
H  35.08100 48.81000 19.11300
H  35.44100 50.51800 18.68200
H  39.12300 48.82600 21.87000
H  38.96600 49.80900 20.45700
H  39.73900 47.08400 21.13500
H  40.55400 48.19800 20.04000
H  39.05100 47.33500 19.46800
H  37.80300 44.53900 23.38600
H  36.97100 43.70900 24.67600
H  38.66400 43.97700 24.87700
H  37.61700 46.92400 29.40400
H  34.05300 45.73500 31.69700
H  35.32500 44.93500 32.55000
H  34.66400 44.19300 31.11100
Mg 6.90800 52.59100 42.12800
C  6.50100 49.04400 41.74300
C  10.26400 52.18200 41.02800
C  7.08100 55.82300 41.84900
C  3.52700 52.75200 42.75000
N  8.22700 50.81500 41.46800
C  7.80300 49.46500 41.34600
C  9.04000 48.59900 40.93100
C  10.25400 49.64600 41.12700
C  9.55800 50.99000 41.22100
C  11.33600 49.32500 42.22500
C  8.99400 47.86900 39.56700
C  8.82800 48.73400 38.25300
H  7.95100 48.17300 37.12700
N  8.50800 53.85000 41.58300
C  9.78100 53.55000 41.16800
C  10.55100 54.73200 41.02800
C  9.61200 55.84200 41.28400
C  8.31000 55.20500 41.52000
C  12.06600 54.65200 40.74300
C  10.02100 57.28200 41.12900
O  11.22000 57.56200 40.93200
C  9.03800 58.37700 41.42900
N  5.49100 54.06100 42.13700
C  5.83300 55.31900 42.22900
C  4.73200 56.22300 42.62600
C  3.56400 55.32300 43.05600
C  4.17900 53.94100 42.61000
C  5.03600 57.22400 43.79400
C  2.14900 55.60100 42.46600
C  2.01300 55.21000 40.98200
N  5.32900 51.23500 42.17600
C  4.01700 51.48600 42.48000
C  3.39400 50.23300 42.77100
C  4.31700 49.25000 42.37300
C  5.47400 49.89100 42.02600
C  1.94900 50.11800 43.28800
C  4.50200 47.84700 42.18300
O  3.76900 46.86700 42.30100
C  5.92200 47.68900 41.65800
C  5.71300 47.13300 40.29000
O  5.40400 47.72800 39.24300
O  6.09500 45.88700 40.37700
C  5.93900 44.98800 39.34500
H  11.32100 52.00900 40.81400
H  7.02400 56.90100 41.68400
H  2.47800 52.75600 43.05200
H  9.07700 47.84900 41.72200
H  10.86600 49.68800 40.22600
H  11.09600 48.48000 42.87100
H  11.59600 50.15900 42.87700
H  12.30500 49.05500 41.80300
H  8.32100 47.01700 39.46400
H  10.01600 47.49200 39.53100
H  9.85100 48.87100 37.90300
H  8.46700 49.73000 38.50900
H  12.55000 55.61100 40.92600
H  12.22800 54.41200 39.69200
H  12.51300 53.94000 41.43700
H  8.22300 58.28300 40.71100
H  9.61800 59.29300 41.32100
H  8.74800 58.14400 42.45400
H  4.49100 56.86700 41.78000
H  3.47800 55.16000 44.13000
H  4.14300 57.81200 44.00800
H  5.76100 57.91300 43.36100
H  5.37700 56.81900 44.74700
H  1.91700 56.66400 42.53300
H  1.49800 55.10100 43.18400
H  0.97900 55.40900 40.70200
H  2.14900 54.13400 40.87500
H  2.70100 55.75800 40.33800
H  1.77300 49.24000 43.91000
H  1.33800 50.06800 42.38600
H  1.67600 50.92400 43.96900
H  6.30800 46.91700 42.32400
H  6.88500 44.51100 39.08600
H  5.50200 45.42900 38.44900
H  5.34100 44.17700 39.76200

