158

Mg 48.06100 34.92200 27.49500
C  46.10800 33.30300 29.88900
C  48.11100 37.65100 29.61000
C  49.57800 36.76500 25.07700
C  47.60300 32.32000 25.21600
N  47.31000 35.30600 29.43700
C  46.62100 34.48700 30.36300
C  46.75400 35.01300 31.79100
C  46.95600 36.48800 31.58500
C  47.47600 36.47000 30.07100
C  45.65500 37.29100 31.83000
C  47.89300 34.36600 32.73500
C  47.55800 34.08800 34.23800
H  46.62600 35.01200 34.92700
N  48.74400 36.98500 27.33900
C  48.74500 37.92500 28.37300
C  49.36100 39.11300 27.91100
C  49.76600 38.87400 26.60800
C  49.31900 37.51100 26.24100
C  49.51600 40.36800 28.84800
C  50.53800 39.82500 25.64900
O  50.84900 39.53100 24.48600
C  51.03100 41.15100 26.21200
N  48.52800 34.59100 25.42400
C  49.12200 35.50200 24.64000
C  49.33700 34.91700 23.14600
C  48.92100 33.43700 23.30900
C  48.37100 33.44100 24.76500
C  48.56300 35.66000 22.05100
C  50.11300 32.51900 23.24000
C  50.82000 32.33200 21.92600
N  47.09500 33.13600 27.51800
C  47.03100 32.16200 26.53400
C  46.20200 31.05300 27.05400
C  45.78000 31.51500 28.33400
C  46.35100 32.76300 28.61600
C  45.81800 29.77600 26.25900
C  45.00700 31.11600 29.52000
O  44.44600 30.12400 29.86700
C  45.01200 32.34200 30.50500
C  45.14900 31.86000 31.85800
O  46.05800 31.15000 32.20600
O  44.22600 32.44300 32.63500
C  44.15600 31.94300 34.02600
H  48.08800 38.44100 30.36400
H  50.18500 37.31000 24.35100
H  47.60400 31.50700 24.48800
H  45.79900 34.92000 32.30800
H  47.69500 36.92100 32.25900
H  46.03700 38.17000 32.34700
H  45.01600 36.71100 32.49600
H  45.17100 37.64700 30.92000
H  48.70600 35.09000 32.68400
H  48.23000 33.42200 32.30600
H  48.54700 34.25300 34.66600
H  47.22800 33.05100 34.30500
H  49.40800 40.16800 29.91400
H  48.77800 41.13900 28.62600
H  50.50800 40.82000 28.86100
H  50.14700 41.65200 26.60600
H  51.64200 41.62600 25.44400
H  51.62700 41.00800 27.11300
H  50.40300 34.88100 22.92100
H  48.14200 33.17500 22.59300
H  48.26400 36.66700 22.34100
H  47.66300 35.16000 21.69400
H  49.37200 35.72700 21.32300
H  49.63200 31.55600 23.41400
H  50.77300 32.74800 24.07600
H  50.32600 32.95200 21.17700
H  50.74700 31.31400 21.54300
H  51.89700 32.47300 22.02000
H  46.10300 28.88000 26.81000
H  46.24200 29.76900 25.25500
H  44.73800 29.73700 26.11700
H  44.05700 32.86400 30.45900
H  43.49100 31.08900 34.15500
H  43.72700 32.75100 34.61900
H  45.10200 31.63700 34.47400
Mg -1.74500 34.23100 26.95700
C  -3.68300 32.77500 29.43000
C  -0.63700 36.53500 29.11500
C  -0.16300 35.74200 24.34000
C  -3.22100 32.07400 24.65000
N  -2.20700 34.65400 28.99900
C  -2.89600 33.81600 29.87500
C  -2.70400 34.40600 31.33500
C  -1.83000 35.67500 31.08300
C  -1.54900 35.63200 29.63900
C  -2.27600 37.00900 31.66600
C  -2.06400 33.33200 32.25800
C  -3.00800 32.73400 33.39100
H  -2.27400 32.48800 34.70200
N  -0.46100 35.85700 26.72300
C  -0.09800 36.65800 27.82100
C  0.77800 37.71800 27.26100
C  0.85900 37.50900 25.85500
C  0.05500 36.32600 25.54500
C  1.33300 38.81100 28.15600
C  1.48500 38.44200 24.85400
O  1.46200 38.24800 23.65600
C  2.35500 39.53700 25.29000
N  -1.73400 34.05700 24.72800
C  -0.96400 34.75600 23.91100
C  -1.02600 34.15400 22.46700
C  -1.96500 32.90200 22.61900
C  -2.26700 32.94200 24.10900
C  -1.49000 35.10700 21.23000
C  -1.41000 31.54300 22.14600
C  -0.79300 30.60000 23.14700
N  -3.29400 32.91200 26.92500
C  -3.76200 32.08200 25.93000
C  -4.80600 31.24200 26.43300
C  -4.74900 31.44400 27.87100
C  -3.83700 32.44700 28.06700
C  -5.67900 30.29000 25.67400
C  -5.42100 31.09300 29.11600
O  -6.39300 30.37400 29.28800
C  -4.60200 31.83600 30.25500
C  -5.56300 32.54800 31.19300
O  -6.26400 33.45400 30.85100
O  -5.80600 31.86000 32.35300
C  -6.85900 32.42600 33.23400
H  -0.26500 37.21600 29.88300
H  0.41900 36.09000 23.48400
H  -3.61700 31.32700 23.95900
H  -3.68500 34.68500 31.72000
H  -0.83500 35.55400 31.51200
H  -2.56800 37.81900 30.99800
H  -1.48700 37.38700 32.31700
H  -3.17400 37.01000 32.28400
H  -1.21100 33.79000 32.75900
H  -1.59600 32.50800 31.72100
H  -3.49900 31.79400 33.13800
H  -3.77500 33.50300 33.47900
H  2.42100 38.73500 28.14500
H  1.11300 38.57000 29.19600
H  0.88000 39.79700 28.05800
H  2.66300 40.04400 24.37600
H  3.15300 39.08100 25.87600
H  1.68200 40.18800 25.84900
H  0.02400 33.89400 22.33600
H  -2.89300 33.05200 22.06800
H  -1.79800 36.05400 21.67400
H  -2.24400 34.66700 20.57800
H  -0.59600 35.29100 20.63400
H  -0.74400 31.68000 21.29400
H  -2.34800 31.14000 21.76500
H  -0.06600 29.97800 22.62500
H  -1.60900 30.01500 23.57000
H  -0.31700 31.24300 23.88700
H  -5.35200 30.39200 24.63900
H  -6.72500 30.35500 25.97400
H  -5.30700 29.28200 25.86200
H  -4.06400 31.07500 30.82200
H  -7.85000 32.40000 32.78200
H  -6.79400 33.48700 33.47300
H  -6.78100 31.81200 34.13100

