158

Mg 24.66100 -3.95800 45.58200
C  26.84800 -1.89700 44.07300
C  22.17500 -2.96000 43.68800
C  22.96600 -6.96800 46.19700
C  27.40100 -5.51000 47.26000
N  24.47000 -2.45500 44.22100
C  25.47800 -1.74500 43.59100
C  24.97000 -0.89900 42.42100
C  23.41900 -0.95700 42.61100
C  23.36600 -2.21200 43.54200
C  22.62100 0.15500 43.26700
C  25.51000 -1.13500 40.97000
C  24.83400 -0.33400 39.84600
H  25.19200 -0.71600 38.40000
N  22.78700 -4.78400 45.15300
C  21.87400 -4.17400 44.36000
C  20.65500 -4.86300 44.44900
C  20.80900 -6.02300 45.22500
C  22.23800 -5.92500 45.59800
C  19.41100 -4.43900 43.66100
C  19.79600 -7.08100 45.69600
O  18.62900 -7.06000 45.19400
C  20.14600 -8.03300 46.80100
N  25.27000 -6.20800 46.32400
C  24.34900 -7.17100 46.55400
C  24.87100 -8.30700 47.38700
C  26.40200 -7.79500 47.70400
C  26.42200 -6.47600 47.02900
C  23.95200 -8.67500 48.62700
C  27.45600 -8.79900 47.14200
C  27.85200 -9.99600 48.04900
N  26.67200 -3.63400 45.86900
C  27.66100 -4.36700 46.51300
C  28.95000 -3.71300 46.37800
C  28.71400 -2.74700 45.37900
C  27.27500 -2.73900 45.15200
C  30.27500 -4.07800 47.03300
C  29.29500 -1.81400 44.47100
O  30.50100 -1.60400 44.35900
C  28.06200 -1.09900 43.61200
C  28.05300 0.32700 43.94500
O  27.68100 0.79500 45.03600
O  28.65600 1.03800 42.93300
C  29.13700 2.33700 43.39100
H  21.33300 -2.58900 43.10100
H  22.37300 -7.82000 46.53500
H  28.28900 -5.89400 47.76600
H  25.41100 0.07400 42.63900
H  22.84400 -1.23100 41.72700
H  23.07300 1.03300 43.72800
H  22.07500 -0.28400 44.10200
H  21.96100 0.59600 42.52100
H  25.38600 -2.21600 40.90800
H  26.57700 -0.91800 40.91800
H  25.10400 0.70600 40.02700
H  23.74400 -0.35200 39.87700
H  19.42100 -5.03300 42.74800
H  19.64700 -3.43300 43.31400
H  18.47600 -4.55100 44.21200
H  19.15300 -8.38500 47.07900
H  20.54300 -7.52600 47.68100
H  20.64800 -8.93300 46.44500
H  24.92100 -9.14600 46.69200
H  26.49900 -7.76600 48.78900
H  23.50100 -9.64100 48.40000
H  23.07800 -8.03800 48.76500
H  24.63000 -8.71700 49.47900
H  28.31600 -8.14000 47.02500
H  27.19000 -9.16500 46.15000
H  27.77600 -10.93000 47.49200
H  27.17200 -10.01900 48.90100
H  28.84000 -9.87300 48.49100
H  30.07500 -4.14300 48.10300
H  30.91100 -3.20900 46.86600
H  30.68900 -5.04800 46.75800
H  28.18700 -1.11900 42.52900
H  28.66800 3.02500 42.68800
H  30.19700 2.21900 43.16500
H  28.95000 2.65400 44.41700
Mg -12.12600 17.03300 42.14500
C  -8.95100 15.49300 41.78300
C  -10.80000 19.74900 40.59500
C  -15.22200 18.21700 41.89200
C  -13.36800 13.88500 43.17800
N  -10.08500 17.51800 41.25200
C  -8.88800 16.79800 41.25500
C  -7.68400 17.59500 40.53800
C  -8.38500 19.04200 40.52000
C  -9.81000 18.81100 40.82400
C  -7.86400 20.25000 41.44800
C  -7.18600 16.96800 39.20100
C  -5.75400 16.55300 39.17100
H  -5.52900 15.32700 38.20200
N  -12.90100 18.81300 41.43000
C  -12.19400 19.86500 40.85300
C  -13.01900 21.01100 40.72100
C  -14.34300 20.55500 41.14800
C  -14.22600 19.10200 41.43900
C  -12.53800 22.36000 40.27000
C  -15.57000 21.44300 41.33700
O  -15.39700 22.65200 41.08200
C  -16.90400 20.95600 41.80600
N  -14.04200 16.17600 42.48600
C  -15.16100 16.91700 42.38500
C  -16.39300 16.06000 42.66100
C  -15.75800 14.69400 43.08600
C  -14.26000 14.95700 42.92400
C  -17.54800 16.65600 43.60300
C  -16.39500 13.50900 42.40700
C  -15.85200 13.03200 41.03600
N  -11.33700 15.03500 42.62400
C  -11.98400 13.89800 43.07700
C  -10.96900 12.86500 43.23400
C  -9.82400 13.39600 42.76000
C  -10.08400 14.70700 42.32300
C  -11.24900 11.46000 43.80100
C  -8.41000 13.10500 42.49800
O  -7.75600 12.11600 42.71400
C  -7.83100 14.43000 41.80600
C  -6.51600 14.64800 42.51800
O  -6.41100 14.96600 43.71400
O  -5.56500 14.10900 41.70700
C  -4.24400 13.93600 42.37200
H  -10.23000 20.61000 40.23900
H  -16.20300 18.69600 41.91000
H  -13.87300 12.93900 43.38600
H  -6.85900 17.78100 41.22500
H  -8.27100 19.32400 39.47300
H  -8.59200 20.70000 42.12300
H  -7.43800 21.04500 40.83600
H  -6.96900 19.84700 41.92200
H  -7.34100 17.79200 38.50400
H  -7.82900 16.14300 38.89300
H  -5.46800 16.35700 40.20400
H  -5.03800 17.23500 38.71000
H  -12.85400 22.55300 39.24500
H  -11.45800 22.47200 40.36300
H  -12.84100 23.13200 40.97700
H  -17.58500 21.80800 41.80800
H  -16.76400 20.55500 42.80900
H  -17.24900 20.18500 41.11800
H  -16.78300 15.92300 41.65200
H  -15.87300 14.68300 44.17000
H  -17.21000 17.65200 43.88900
H  -17.67900 16.10900 44.53600
H  -18.51500 16.55700 43.11000
H  -17.41400 13.83500 42.19600
H  -16.46200 12.62200 43.03700
H  -16.57500 12.98600 40.22200
H  -15.41100 12.04000 41.13400
H  -15.08000 13.69200 40.64000
H  -11.27800 10.60100 43.13100
H  -12.08200 11.50900 44.50200
H  -10.49500 11.06300 44.48000
H  -7.62300 14.16400 40.76900
H  -3.53800 13.74400 41.56300
H  -4.34400 13.09800 43.06100
H  -4.02300 14.88300 42.86500

