158

Mg 5.05800 54.17700 41.50400
C  3.26000 51.01400 40.97500
C  7.67900 52.59900 39.96000
C  6.45400 57.10000 41.31900
C  2.12700 55.51100 42.59400
N  5.33300 52.09900 40.28500
C  4.52800 50.99500 40.35700
C  5.20600 49.87000 39.58200
C  6.67100 50.28000 39.59600
C  6.56900 51.75800 39.89400
C  7.47600 49.51700 40.63300
C  4.62800 49.83000 38.18400
C  4.39400 48.47800 37.68600
H  5.09700 48.15600 36.32500
N  6.86300 54.80400 40.69600
C  7.81300 53.99700 40.19100
C  8.97200 54.79800 39.95900
C  8.68400 56.17600 40.22500
C  7.31000 56.11600 40.79700
C  10.23900 54.15400 39.36600
C  9.60100 57.42000 39.95600
O  10.61400 57.24800 39.23600
C  9.26200 58.73100 40.39600
N  4.45700 55.97800 42.06400
C  5.18300 57.09400 41.83400
C  4.47900 58.39500 42.26500
C  3.25000 57.83200 42.97500
C  3.27400 56.36300 42.49100
C  5.27000 59.42900 43.04700
C  1.88500 58.63700 42.66300
C  1.71600 59.95100 43.45000
N  3.13400 53.40100 41.90900
C  2.02400 54.13800 42.29900
C  0.90100 53.19600 42.48000
C  1.37100 51.93600 42.06800
C  2.72100 52.13200 41.63600
C  -0.40400 53.65200 43.07100
C  1.05100 50.60700 41.84000
O  -0.00800 50.05400 42.10500
C  2.35900 49.85800 41.29900
C  1.96700 48.84600 40.33900
O  1.27100 49.00100 39.38400
O  2.63700 47.68500 40.70200
C  2.18700 46.43500 40.00600
H  8.60100 52.09900 39.65500
H  6.96600 58.06200 41.23500
H  1.18200 55.99700 42.84600
H  4.93700 48.95000 40.10200
H  7.20100 50.25100 38.64300
H  8.28700 49.07300 40.05600
H  7.04100 48.62900 41.09300
H  7.71300 50.19900 41.44900
H  5.26400 50.31500 37.44300
H  3.79500 50.51800 38.32600
H  3.32600 48.42700 37.47500
H  4.67700 47.71300 38.40900
H  11.13200 54.77900 39.39000
H  10.08300 53.72600 38.37500
H  10.48600 53.31900 40.02100
H  8.32100 59.09300 39.98100
H  10.10400 59.30600 40.01200
H  9.37100 58.74700 41.48100
H  4.09500 58.83900 41.34600
H  3.42100 57.72300 44.04600
H  5.20300 60.41200 42.58100
H  6.32800 59.24300 43.22700
H  4.76600 59.51600 44.01000
H  1.02400 58.01200 42.89800
H  1.87600 58.83600 41.59100
H  1.67700 59.87600 44.53700
H  0.70000 60.14600 43.10700
H  2.23900 60.77200 42.95800
H  -0.93300 54.13500 42.24900
H  -0.32500 54.39100 43.86800
H  -0.99300 52.79700 43.40100
H  2.69300 49.44100 42.24900
H  1.16700 46.40400 39.62400
H  2.25000 45.65500 40.76500
H  2.95700 46.21900 39.26500
Mg -11.53600 38.41800 41.16300
C  -9.72300 35.35700 40.46300
C  -8.86000 40.13000 39.87200
C  -13.48300 41.17900 41.11200
C  -14.30700 36.41000 41.69500
N  -9.58000 37.77500 40.12300
C  -9.03100 36.44800 40.03700
C  -7.63900 36.47800 39.56300
C  -7.25000 38.01500 39.38900
C  -8.63600 38.70800 39.82600
C  -5.93400 38.45400 40.13400
C  -7.41900 35.77600 38.24000
C  -6.12800 34.87400 38.12500
H  -5.07700 35.42700 37.14500
N  -11.13200 40.38600 40.80100
C  -10.00100 40.93800 40.23700
C  -10.06100 42.38800 40.26800
C  -11.40000 42.71300 40.61300
C  -12.07500 41.37700 40.84500
C  -8.98800 43.31400 39.79600
C  -12.04200 44.07000 40.76300
O  -11.44900 45.08800 40.24200
C  -13.33500 44.25000 41.43800
N  -13.67500 38.73300 41.29200
C  -14.16700 39.95800 41.35200
C  -15.70500 39.92000 41.55800
C  -15.90500 38.44200 42.03400
C  -14.54400 37.78600 41.67800
C  -16.23200 41.04800 42.59800
C  -17.21300 37.83800 41.53700
C  -17.11500 37.19100 40.13300
N  -12.01000 36.35900 41.18300
C  -13.11600 35.66000 41.46600
C  -12.84200 34.19700 41.55200
C  -11.50600 34.05600 41.26600
C  -11.03500 35.38400 40.95500
C  -13.75000 33.20900 42.19800
C  -10.45100 33.04600 41.15500
O  -10.38900 31.83300 41.26600
C  -9.27900 33.92200 40.56000
C  -8.08500 33.58800 41.31700
O  -7.44400 32.57500 41.06700
O  -7.73100 34.62400 42.16800
C  -6.40800 34.60400 42.75300
H  -8.03300 40.78500 39.59100
H  -14.28000 41.91400 40.98400
H  -15.17200 35.81500 41.99300
H  -7.02700 36.16000 40.40700
H  -7.27100 38.33500 38.34700
H  -5.69200 37.89700 41.04000
H  -6.02600 39.50600 40.40100
H  -4.99900 38.45500 39.57400
H  -7.56700 36.38600 37.34900
H  -8.18300 35.00000 38.19900
H  -6.47500 33.87700 37.85500
H  -5.75900 34.75500 39.14400
H  -8.11100 42.84900 39.34600
H  -8.61900 43.99500 40.56300
H  -9.43300 43.96500 39.04300
H  -13.51500 43.59700 42.29200
H  -14.07600 44.20500 40.64000
H  -13.22500 45.26300 41.82600
H  -16.23300 39.98000 40.60600
H  -15.79800 38.49900 43.11700
H  -17.04700 40.66300 43.21000
H  -16.76000 41.79800 42.00800
H  -15.42200 41.50800 43.16300
H  -17.93700 38.65300 41.52700
H  -17.52700 37.17100 42.33900
H  -16.54600 37.70800 39.36000
H  -18.12200 37.23900 39.71700
H  -16.72500 36.17500 40.18900
H  -13.35000 32.20100 42.29800
H  -14.73800 33.34100 41.75600
H  -13.83000 33.59500 43.21500
H  -9.06100 33.59500 39.54300
H  -5.69800 34.95200 42.00300
H  -6.05400 33.65300 43.15200
H  -6.35300 35.28700 43.60000

