158

Mg 8.85700 3.77400 27.57700
C  10.23200 2.26100 30.47100
C  6.90900 5.78600 29.82100
C  7.61300 5.36000 24.92400
C  10.72600 1.67600 25.57300
N  8.67000 3.96300 29.88400
C  9.38300 3.28900 30.88200
C  8.94100 3.69600 32.28300
C  8.03400 4.90100 32.00100
C  7.81100 4.85500 30.47800
C  6.65400 5.05500 32.75800
C  10.10000 4.02300 33.21300
C  9.93200 4.98600 34.40700
H  10.73200 4.66600 35.67200
N  7.36200 5.28500 27.36400
C  6.73000 6.02100 28.40300
C  5.94900 7.12600 27.75200
C  6.20800 7.03000 26.32500
C  7.09900 5.86000 26.15400
C  5.00600 8.06400 28.50000
C  5.81300 7.92400 25.15600
O  6.01600 7.73400 23.96400
C  4.94800 9.18300 25.47000
N  9.17100 3.58100 25.55300
C  8.56200 4.38500 24.61000
C  8.88300 3.92700 23.17100
C  9.97700 2.76400 23.37200
C  10.00700 2.66400 24.93500
C  7.59800 3.59300 22.35700
C  11.33400 3.08100 22.69500
C  11.88300 2.03400 21.72100
N  10.17200 2.22800 27.89700
C  10.87600 1.49300 27.03200
C  11.65900 0.45700 27.75600
C  11.45400 0.83000 29.08100
C  10.53400 1.90000 29.14100
C  12.43400 -0.67100 27.14500
C  11.78500 0.36700 30.42300
O  12.58400 -0.51800 30.87800
C  11.04800 1.31500 31.38500
C  10.21100 0.49100 32.33200
O  9.06900 0.06700 32.08000
O  10.73800 0.43500 33.59200
C  9.86600 -0.07200 34.58400
H  6.34900 6.44000 30.49200
H  7.35000 5.85700 23.98700
H  11.49400 1.03500 25.13500
H  8.41200 2.78700 32.56800
H  8.54800 5.85500 32.11700
H  6.42900 6.10800 32.92700
H  6.52700 4.45900 33.66200
H  5.83000 4.67800 32.15200
H  11.01700 4.29200 32.68900
H  10.30400 3.06100 33.68300
H  8.88800 4.84200 34.68600
H  10.17700 5.97100 34.01000
H  5.49200 9.02200 28.68600
H  4.90700 7.60500 29.48300
H  4.14200 8.09500 27.83600
H  3.99000 8.82500 25.84900
H  4.77700 9.65500 24.50300
H  5.35300 9.83400 26.24400
H  9.37600 4.67000 22.54400
H  9.53700 1.87400 22.92100
H  7.84500 2.75100 21.70900
H  7.18600 4.50500 21.92600
H  6.87900 3.19200 23.07100
H  12.06000 3.37300 23.45400
H  11.24600 4.00500 22.12200
H  11.04300 1.36900 21.52000
H  12.73300 1.47200 22.10900
H  12.16500 2.52800 20.79100
H  13.29000 -0.26800 26.60400
H  11.75600 -1.09700 26.40500
H  12.88100 -1.42900 27.78900
H  11.87200 1.78300 31.92400
H  9.30100 -0.93500 34.23200
H  9.20600 0.78200 34.73800
H  10.29400 -0.42800 35.52200
Mg 50.02900 44.96300 40.86400
C  47.11600 45.72200 39.06000
C  49.89900 41.76300 39.56100
C  53.41800 44.72800 41.50300
C  50.25200 48.29900 41.77500
N  48.61000 43.86100 39.51400
C  47.52500 44.42300 38.85100
C  46.74900 43.34100 38.08800
C  47.55900 42.02800 38.48700
C  48.79400 42.54100 39.18100
C  46.71000 40.99100 39.36300
C  46.76300 43.63500 36.51000
C  45.35200 43.56800 35.86400
H  45.05800 44.41600 34.59900
N  51.38700 43.39100 40.71400
C  51.11200 42.15300 40.08800
C  52.33900 41.35800 40.11400
C  53.33600 42.15200 40.84600
C  52.73600 43.49700 41.01200
C  52.47200 39.95200 39.54600
C  54.79700 41.70600 41.24000
O  55.17800 40.55400 40.91600
C  55.73500 42.51200 41.99700
N  51.52900 46.26100 41.68700
C  52.80700 45.94400 41.78900
C  53.68400 47.05100 42.26200
C  52.64300 48.21900 42.52300
C  51.35200 47.53500 42.00100
C  54.86000 46.76500 43.32800
C  53.02000 49.61000 42.01500
C  53.21000 50.63300 43.22000
N  48.81700 46.67900 40.75500
C  49.04300 47.98400 41.09700
C  48.04200 48.83900 40.62100
C  47.20900 48.03700 39.86800
C  47.70500 46.72800 39.91500
C  47.92300 50.31200 41.01500
C  46.04100 48.04500 38.99500
O  45.22300 48.89800 38.58800
C  45.93000 46.55200 38.49400
C  44.67100 45.99600 39.06000
O  43.66800 45.70600 38.36400
O  44.64100 45.98200 40.40100
C  43.33700 46.19500 41.15300
H  49.83900 40.72000 39.24300
H  54.48400 44.65700 41.73300
H  50.17200 49.35900 42.02500
H  45.73200 43.30800 38.47900
H  48.00300 41.51100 37.63600
H  46.88700 39.95400 39.07800
H  45.64300 41.17200 39.23400
H  47.00200 41.13900 40.40200
H  47.40600 42.86600 36.08300
H  47.23900 44.56800 36.20900
H  44.59600 43.84100 36.60100
H  45.15900 42.51800 35.64500
H  53.16200 39.89100 38.70400
H  51.51100 39.74800 39.07300
H  52.70000 39.16900 40.27000
H  55.22200 42.99500 42.82900
H  56.16900 43.25700 41.33100
H  56.59100 41.99700 42.43200
H  54.12200 47.36300 41.31300
H  52.49800 48.25900 43.60300
H  55.78100 46.70300 42.74900
H  54.58200 45.77400 43.68800
H  54.88000 47.53500 44.09900
H  52.19200 50.02700 41.44100
H  53.87700 49.62200 41.34200
H  52.51000 51.46800 43.18300
H  54.24000 50.98500 43.27700
H  53.10200 50.07300 44.14900
H  48.81100 50.92200 40.84700
H  47.80100 50.25700 42.09700
H  47.08200 50.80400 40.52700
H  45.92800 46.51700 37.40500
H  43.45000 47.11800 41.72100
H  43.08500 45.34300 41.78400
H  42.42900 46.32300 40.56300

