158

Mg 47.18700 25.90800 29.16800
C  48.12700 27.95400 31.83400
C  45.87100 23.62600 31.52800
C  46.64000 23.60400 26.80800
C  48.71400 28.02100 26.99300
N  46.90500 25.85800 31.51100
C  47.34000 26.90600 32.34000
C  46.79400 26.62200 33.75000
C  46.28700 25.09100 33.73100
C  46.30700 24.84400 32.20400
C  47.07000 24.03300 34.64700
C  45.60800 27.62700 34.14300
C  45.75100 28.44800 35.49600
H  46.33200 27.65100 36.70500
N  46.36000 23.85800 29.18900
C  45.91400 23.14800 30.23300
C  45.33600 21.91800 29.74200
C  45.43000 21.85900 28.33900
C  46.15500 23.12900 28.03800
C  44.63600 20.89500 30.59300
C  44.96500 20.84000 27.26400
O  45.12200 21.02400 26.06100
C  44.24900 19.49700 27.65200
N  47.74400 25.80500 27.18800
C  47.35700 24.74500 26.37400
C  47.55900 25.11800 24.90900
C  48.16800 26.57400 24.89300
C  48.19900 26.89400 26.40400
C  48.41800 24.16700 24.07300
C  47.32000 27.57100 24.05300
C  48.08800 28.21000 22.87500
N  48.26200 27.54400 29.35700
C  48.78900 28.36600 28.38100
C  49.35200 29.53300 28.98500
C  49.13500 29.41200 30.34500
C  48.42900 28.18300 30.52200
C  50.20000 30.50600 28.14200
C  49.36600 30.08000 31.62000
O  50.02900 31.07100 31.85400
C  48.69200 29.12100 32.67500
C  49.74300 28.75600 33.67200
O  50.30500 27.66500 33.85200
O  49.70900 29.81800 34.60500
C  50.42300 29.53600 35.91800
H  45.34400 22.94100 32.19600
H  46.43100 23.02100 25.90900
H  48.99900 28.86300 26.35900
H  47.68600 26.67200 34.37500
H  45.25100 25.01400 34.05800
H  46.45300 23.51000 35.37900
H  47.93900 24.41500 35.18200
H  47.61400 23.33100 34.01400
H  44.62500 27.17300 34.01800
H  45.66400 28.34000 33.32100
H  44.77300 28.74400 35.87700
H  46.29500 29.37000 35.29300
H  43.58300 20.89200 30.31100
H  44.74600 21.18400 31.63800
H  45.04500 19.89100 30.48000
H  43.31600 19.83500 28.10400
H  44.91100 19.07200 28.40600
H  44.01100 18.85600 26.80300
H  46.54500 25.12800 24.50900
H  49.18200 26.50600 24.50000
H  48.08100 23.13300 24.14200
H  49.45700 24.27100 24.38800
H  48.31200 24.46400 23.03000
H  46.94200 28.33800 24.72900
H  46.44300 27.11900 23.58800
H  47.41100 28.40100 22.04200
H  48.79100 27.47900 22.47400
H  48.65900 29.11600 23.07900
H  49.64900 31.21500 27.52500
H  50.96800 29.92200 27.63500
H  50.71100 31.25100 28.75100
H  47.91300 29.71400 33.15500
H  50.66400 30.44700 36.46500
H  51.38200 29.02800 35.81400
H  49.75900 28.87900 36.47900
Mg 10.36600 47.29800 25.92000
C  8.36700 47.64300 28.80400
C  12.95900 48.48900 27.66400
C  12.17400 47.07900 23.10300
C  7.38200 46.61900 24.02900
N  10.47600 48.20900 27.87700
C  9.60400 48.18200 28.93300
C  10.23700 48.73400 30.15300
C  11.56200 49.30700 29.68800
C  11.72100 48.65100 28.30500
C  11.60700 50.85600 29.64300
C  10.58400 47.68500 31.31000
C  10.19700 48.00700 32.76400
H  10.01200 46.92000 33.81800
N  12.34700 47.55800 25.46900
C  13.26600 47.97500 26.43900
C  14.56500 47.84900 25.94300
C  14.39400 47.41600 24.56500
C  12.95900 47.26200 24.31100
C  15.84900 48.14800 26.67300
C  15.50600 47.18200 23.48200
O  15.23400 46.70000 22.38800
C  16.91800 47.53000 23.90800
N  9.81600 47.14700 23.79800
C  10.82900 47.08500 22.85500
C  10.20200 46.77300 21.52300
C  8.67600 46.52100 21.84400
C  8.57900 46.76400 23.34000
C  10.50100 47.88400 20.41000
C  8.19600 45.08500 21.57400
C  8.76000 43.99600 22.52000
N  8.22900 47.17300 26.30100
C  7.22400 46.77100 25.44200
C  6.05500 46.52400 26.30200
C  6.43700 46.86800 27.65900
C  7.81200 47.19700 27.56800
C  4.68200 46.19100 25.88100
C  6.01700 46.99200 28.98900
O  4.94800 46.71300 29.44900
C  7.32900 47.35300 29.81200
C  7.62600 46.27100 30.83100
O  8.09500 45.20000 30.58100
O  7.15200 46.59800 32.08200
C  7.08900 45.43200 32.97400
H  13.77000 48.80800 28.32200
H  12.74800 46.92800 22.18600
H  6.53400 46.25500 23.44400
H  9.63600 49.52200 30.60500
H  12.38700 49.07200 30.36000
H  10.58900 51.24500 29.66200
H  12.13200 51.29300 28.79300
H  12.09700 51.19700 30.55400
H  11.63400 47.41600 31.42400
H  10.19200 46.70100 31.05600
H  9.23800 48.52000 32.70200
H  11.03000 48.64900 33.05100
H  16.64900 47.41000 26.61800
H  15.69600 48.18100 27.75200
H  16.22100 49.10500 26.30800
H  17.19200 48.53200 24.24000
H  17.51500 47.39900 23.00600
H  17.33700 46.83100 24.63200
H  10.65400 45.83700 21.19300
H  8.00300 47.19800 21.31800
H  11.14800 48.71200 20.70000
H  9.57400 48.38300 20.13000
H  10.87600 47.40400 19.50600
H  8.51600 44.77700 20.57800
H  7.10700 45.05900 21.61700
H  7.94100 43.56400 23.09600
H  9.60600 44.43100 23.05100
H  9.13900 43.19200 21.88800
H  4.18000 47.12300 25.62300
H  4.16300 45.54300 26.58800
H  4.68000 45.67500 24.92000
H  7.11200 48.31500 30.27700
H  6.18500 44.83400 32.86000
H  7.14100 45.78300 34.00500
H  7.91400 44.75400 32.75600

