158

Mg 30.99300 57.31300 40.01000
C  28.51500 55.32200 38.90800
C  33.35700 54.94100 39.12000
C  33.61100 59.56800 40.43400
C  28.78100 59.95800 40.39200
N  30.87900 55.47000 38.95600
C  29.78500 54.76500 38.74200
C  30.11200 53.37300 38.24300
C  31.63600 53.18400 38.58900
C  32.00700 54.61800 38.97900
C  31.92300 52.05400 39.65300
C  29.76800 53.07500 36.74700
C  29.99400 54.11600 35.64000
H  29.06900 54.25600 34.38400
N  33.21400 57.20100 39.90700
C  33.95000 56.19100 39.41400
C  35.35900 56.60000 39.40000
C  35.44600 57.85400 39.98200
C  34.05100 58.27700 40.18700
C  36.43500 55.67800 38.92400
C  36.71500 58.59000 40.30100
O  37.81100 58.13900 39.89100
C  36.78300 59.78000 41.15300
N  31.13900 59.58700 40.08400
C  32.31600 60.15000 40.49600
C  32.20200 61.63000 40.93400
C  30.58400 61.72300 40.97700
C  30.08000 60.36500 40.41200
C  33.05900 62.12500 42.15000
C  29.90900 62.93400 40.23500
C  28.81400 63.81400 40.90700
N  28.98900 57.62600 39.87100
C  28.17800 58.74900 40.02800
C  26.83600 58.32100 39.77900
C  26.92300 56.95800 39.29800
C  28.25200 56.56000 39.40900
C  25.63500 59.14700 39.85900
C  26.11000 55.88500 38.83500
O  24.91500 55.78500 38.68100
C  27.17200 54.74500 38.50100
C  26.79600 53.50800 39.21100
O  26.83200 53.22500 40.40000
O  26.07100 52.78300 38.29200
C  25.17100 51.67500 38.76100
H  33.98800 54.10800 38.80300
H  34.31700 60.39600 40.51600
H  28.07300 60.72300 40.71900
H  29.46700 52.76600 38.87900
H  32.11200 52.92300 37.64300
H  32.42600 51.26900 39.08900
H  31.03800 51.76100 40.21700
H  32.66200 52.39000 40.38100
H  28.72800 52.75200 36.77900
H  30.38100 52.25500 36.37400
H  30.99900 53.89700 35.27800
H  30.02000 55.12000 36.06300
H  36.83400 56.08600 37.99500
H  36.12700 54.65200 38.72100
H  37.20500 55.51200 39.67700
H  37.50600 59.57700 41.94300
H  35.88400 59.78500 41.77000
H  36.87300 60.69500 40.56700
H  32.54300 62.16900 40.04900
H  30.28800 61.66900 42.02500
H  33.77000 62.92000 41.92400
H  33.57900 61.37500 42.74500
H  32.30100 62.53500 42.81700
H  29.41500 62.64000 39.30900
H  30.77500 63.55700 40.01300
H  29.20700 64.81300 40.71700
H  28.69400 63.60100 41.96900
H  27.86000 63.46400 40.51200
H  24.86800 58.50300 40.29000
H  25.25600 59.37700 38.86300
H  25.88100 60.08200 40.36200
H  27.09800 54.66000 37.41600
H  25.45200 51.32400 39.75500
H  25.31200 50.90700 38.00000
H  24.14000 52.01800 38.67600
Mg 6.81500 54.55500 40.87500
C  6.03300 51.18700 40.28500
C  10.01000 53.99200 40.12800
C  7.32300 57.88800 41.16200
C  3.33900 55.22100 41.28000
N  7.90400 52.78500 40.27000
C  7.39800 51.48300 40.02000
C  8.52200 50.56200 39.54200
C  9.77900 51.42300 39.98200
C  9.20400 52.84600 40.16100
C  10.61000 50.84700 41.22200
C  8.47500 50.44100 37.93500
C  8.74600 49.06700 37.23600
H  7.71800 48.47800 36.26600
N  8.39700 55.79700 40.61900
C  9.68500 55.34000 40.25800
C  10.54800 56.41600 40.07100
C  9.87300 57.56300 40.55800
C  8.47100 57.15500 40.83300
C  11.94100 56.37800 39.53300
C  10.50700 58.96400 40.63800
O  11.68800 59.09900 40.21600
C  9.75700 60.19100 41.09500
N  5.56700 56.26800 41.05300
C  6.02400 57.48700 41.37100
C  4.89600 58.48800 41.68600
C  3.63000 57.64000 41.52900
C  4.22300 56.25600 41.32500
C  5.08600 58.98900 43.13100
C  2.72100 58.08800 40.29400
C  1.56700 59.06200 40.60600
N  5.02600 53.42900 40.83200
C  3.70700 53.85600 41.07800
C  2.86200 52.59900 41.06200
C  3.78000 51.55400 40.93700
C  5.02500 52.14100 40.70500
C  1.33300 52.53900 41.27000
C  3.93200 50.08100 40.83800
O  3.04600 49.22800 40.96600
C  5.44000 49.76400 40.54300
C  5.51700 48.81300 39.35500
O  5.26400 49.13900 38.18900
O  5.97900 47.60800 39.75000
C  6.30700 46.55500 38.79200
H  11.07800 53.82900 39.96900
H  7.46600 58.97100 41.17700
H  2.27500 55.31100 41.50800
H  8.65700 49.65100 40.12600
H  10.40100 51.39800 39.08700
H  10.92600 51.70100 41.82100
H  11.43300 50.25200 40.82700
H  9.90400 50.30700 41.85200
H  9.25800 51.13800 37.63500
H  7.47300 50.76300 37.65300
H  8.90300 48.26100 37.95300
H  9.68100 49.18700 36.68900
H  11.98900 57.14800 38.76300
H  12.15600 55.40400 39.09300
H  12.63600 56.54700 40.35500
H  9.00900 60.35400 40.31900
H  10.57400 60.90900 41.02400
H  9.34500 59.92300 42.06800
H  4.92400 59.29400 40.95300
H  3.08000 57.61900 42.47000
H  5.29500 60.05500 43.21600
H  5.89800 58.44100 43.60900
H  4.25300 58.84300 43.81900
H  2.20000 57.22100 39.88700
H  3.39600 58.42800 39.50900
H  0.55700 58.71300 40.39300
H  1.69000 59.96700 40.01000
H  1.61700 59.42100 41.63400
H  0.89900 51.67800 40.76300
H  0.99600 53.39900 40.69200
H  1.01500 52.61400 42.31000
H  5.83500 49.19400 41.38400
H  5.94900 45.58400 39.13500
H  7.37900 46.42300 38.64700
H  5.79200 46.66400 37.83700

