158

Mg 36.01100 50.06700 25.40300
C  36.36400 48.32600 28.40100
C  34.70400 52.75300 27.10900
C  35.72500 51.65700 22.50200
C  37.46000 47.36900 23.75400
N  35.58500 50.50300 27.50900
C  35.81700 49.63700 28.56100
C  35.41900 50.24700 29.93600
C  34.70500 51.58900 29.51300
C  35.00100 51.62700 27.93100
C  33.19200 51.57500 29.82000
C  36.66500 50.46600 30.92100
C  36.39700 50.25000 32.38700
H  34.96600 50.09100 32.96600
N  35.18600 51.85400 24.83200
C  34.83300 52.84700 25.72600
C  34.55900 54.08400 24.98400
C  34.81800 53.78500 23.57400
C  35.26200 52.39600 23.56900
C  34.07700 55.33800 25.63800
C  34.80200 54.69000 22.30100
O  35.04700 54.17200 21.19800
C  34.48800 56.18300 22.41000
N  36.57400 49.56400 23.36200
C  36.34000 50.41300 22.33800
C  36.78900 49.79700 20.98300
C  37.66400 48.61100 21.55900
C  37.17300 48.43900 22.98000
C  35.59800 49.30600 20.16500
C  39.24500 48.98100 21.60700
C  40.18300 48.16100 20.62300
N  36.66800 48.21600 25.97200
C  37.26200 47.25400 25.18300
C  37.71900 46.12900 25.99900
C  37.31900 46.44600 27.31400
C  36.66700 47.73600 27.19500
C  38.50000 44.87700 25.58600
C  37.40500 46.02900 28.70800
O  37.88800 45.03100 29.21600
C  36.81700 47.33900 29.49000
C  35.75500 46.64700 30.37800
O  34.82300 46.01300 29.95800
O  36.15000 46.61200 31.74000
C  35.34100 45.63400 32.51000
H  34.27700 53.62500 27.60900
H  35.52600 52.11700 21.53100
H  38.23800 46.72200 23.34300
H  34.76200 49.53300 30.43300
H  35.18300 52.45600 29.96800
H  32.97300 50.69600 30.42700
H  32.54600 51.52200 28.94400
H  32.95700 52.49900 30.34800
H  37.14500 51.42100 30.70900
H  37.33900 49.66900 30.60500
H  36.82100 51.12500 32.87900
H  37.05300 49.42400 32.65900
H  34.10600 56.22300 25.00200
H  34.76000 55.52900 26.46600
H  33.11100 55.28000 26.13900
H  35.20300 56.71300 23.03900
H  33.45800 56.33200 22.73700
H  34.63300 56.54000 21.39100
H  37.42500 50.50400 20.45000
H  37.47500 47.65500 21.07100
H  35.79400 49.73700 19.18300
H  34.66100 49.65700 20.59700
H  35.61400 48.23100 19.98100
H  39.70000 48.72800 22.56500
H  39.40700 50.03400 21.38100
H  39.53000 47.95500 19.77500
H  40.59200 47.25400 21.06800
H  40.94700 48.88300 20.33500
H  39.26300 44.59500 26.31200
H  38.94400 45.12300 24.62200
H  37.86400 44.02200 25.36200
H  37.60000 47.70900 30.15300
H  35.34200 44.68900 31.96600
H  34.34400 45.97300 32.79000
H  35.75700 45.47900 33.50600
Mg -5.98700 25.02300 25.52200
C  -4.04700 26.23600 28.45100
C  -7.49200 22.75100 27.56600
C  -7.01400 23.33900 22.72800
C  -3.53700 26.63700 23.60300
N  -5.70300 24.55000 27.74900
C  -5.11600 25.33400 28.73500
C  -5.55900 24.89200 30.18800
C  -6.43200 23.61700 29.77700
C  -6.59600 23.63400 28.24900
C  -5.85000 22.25900 30.23500
C  -6.44400 25.90100 31.01600
C  -6.44000 25.72500 32.59300
H  -5.71700 24.58300 33.27000
N  -7.23700 23.38500 25.17100
C  -7.86900 22.62600 26.16900
C  -8.80100 21.76800 25.57200
C  -8.47700 21.70000 24.20600
C  -7.55800 22.84800 23.92700
C  -9.66500 20.75100 26.35100
C  -8.94900 20.73600 23.04500
O  -8.69700 20.96500 21.91000
C  -9.75900 19.57000 23.44400
N  -5.38500 25.05100 23.45700
C  -6.02800 24.27100 22.50200
C  -5.61500 24.74200 21.08500
C  -4.60700 25.88100 21.39100
C  -4.47700 25.88200 22.87900
C  -5.12300 23.61800 20.21500
C  -4.79900 27.36200 20.79100
C  -3.59400 28.09600 20.13800
N  -4.28200 26.30900 25.86400
C  -3.38000 26.81800 24.96400
C  -2.38000 27.54900 25.64500
C  -2.55900 27.37900 27.00100
C  -3.76100 26.62700 27.13000
C  -1.37700 28.45500 25.04600
C  -2.05300 27.77700 28.35500
O  -1.08300 28.42300 28.70200
C  -3.09400 27.09300 29.34600
C  -2.28700 26.16500 30.23700
O  -1.80900 25.06500 30.02000
O  -2.25400 26.80000 31.49200
C  -1.47400 26.08700 32.51300
H  -8.09200 22.09400 28.20000
H  -7.19100 22.66100 21.89000
H  -2.76800 27.06700 22.95900
H  -4.68200 24.67100 30.79600
H  -7.43500 23.75900 30.17900
H  -4.77400 22.38600 30.35700
H  -5.93600 21.56700 29.39700
H  -6.30000 21.90700 31.16300
H  -7.42900 25.79600 30.56100
H  -6.12300 26.92100 30.80500
H  -7.47900 25.96900 32.81500
H  -5.83400 26.56200 32.94100
H  -9.23700 19.77100 26.14000
H  -10.65000 20.96500 25.93400
H  -9.71500 20.93200 27.42400
H  -10.15600 18.94500 22.64400
H  -10.58900 19.90400 24.06600
H  -9.03900 18.86000 23.85100
H  -6.52200 25.25200 20.76200
H  -3.61000 25.67000 21.00400
H  -4.08400 23.76100 19.91600
H  -5.79200 23.57900 19.35600
H  -5.14300 22.70700 20.81400
H  -5.06500 27.96300 21.66100
H  -5.62200 27.32700 20.07800
H  -3.34200 28.93300 20.79000
H  -3.90400 28.44700 19.15400
H  -2.66400 27.52800 20.17000
H  -1.38700 28.50100 23.95700
H  -0.34500 28.25700 25.33500
H  -1.59400 29.44200 25.45500
H  -3.67000 27.90000 29.79900
H  -0.50000 25.93100 32.04800
H  -1.87300 25.20300 33.01000
H  -1.26900 26.78800 33.32200

