158

Mg 2.23900 -3.04800 44.95900
C  5.36100 -1.82100 44.00600
C  0.76800 -0.73300 42.81300
C  -0.76700 -4.54700 45.64000
C  3.86000 -5.75900 46.49200
N  3.08400 -1.56700 43.31200
C  4.37600 -1.15400 43.33600
C  4.53800 0.02100 42.25700
C  3.10600 0.42100 42.11000
C  2.24600 -0.70000 42.75300
C  2.87400 1.72200 42.85400
C  5.33100 -0.56800 40.97600
C  6.69000 -0.03100 40.58700
H  7.08400 0.23000 39.15900
N  0.27300 -2.64100 44.35600
C  -0.12600 -1.71100 43.39500
C  -1.58600 -1.65500 43.50100
C  -2.05700 -2.76500 44.22000
C  -0.84500 -3.38300 44.84500
C  -2.36400 -0.63700 42.64700
C  -3.48500 -3.12700 44.51200
O  -4.43100 -2.57900 43.92100
C  -3.86000 -4.19400 45.56800
N  1.59300 -4.88500 46.01100
C  0.34600 -5.32000 46.07500
C  0.24800 -6.70600 46.61100
C  1.69800 -7.08400 46.79000
C  2.47000 -5.81300 46.47000
C  -0.75500 -6.89100 47.78200
C  2.17500 -8.20200 45.77200
C  3.19300 -9.19000 46.37100
N  4.12900 -3.68000 45.27000
C  4.64000 -4.75600 45.95700
C  6.08300 -4.69100 46.03800
C  6.43400 -3.52200 45.37400
C  5.19700 -3.02700 44.79400
C  7.00300 -5.56100 46.80800
C  7.55000 -2.65900 44.94800
O  8.78700 -2.77800 45.05500
C  6.87600 -1.49100 44.08900
C  7.11700 -0.25300 44.93200
O  6.33400 0.21400 45.72500
O  8.35300 0.26800 44.69400
C  8.67800 1.60300 45.22400
H  0.29300 0.17300 42.43000
H  -1.57600 -5.24600 45.86100
H  4.42900 -6.61400 46.86500
H  5.14000 0.78000 42.75600
H  2.83600 0.49000 41.05600
H  3.20200 1.66800 43.89200
H  1.80300 1.85500 42.69900
H  3.41600 2.53800 42.37800
H  4.69300 -0.33500 40.12400
H  5.51800 -1.64200 40.98900
H  7.40600 -0.75500 40.97600
H  6.97300 0.78100 41.25800
H  -2.81400 0.06300 43.35100
H  -3.17700 -1.12700 42.11200
H  -1.73800 -0.05900 41.96700
H  -3.70400 -5.15400 45.07600
H  -4.90900 -3.93100 45.70200
H  -3.28400 -3.98900 46.47000
H  -0.20300 -7.21200 45.75800
H  1.90300 -7.34400 47.82800
H  -1.27300 -5.96900 48.04500
H  -0.19800 -7.18600 48.67100
H  -1.44700 -7.63100 47.38100
H  2.68500 -7.89600 44.85800
H  1.36600 -8.85900 45.45100
H  2.77700 -10.16700 46.61700
H  3.68100 -8.77800 47.25500
H  3.89900 -9.31300 45.55000
H  7.66800 -6.10200 46.13400
H  6.57900 -6.22000 47.56700
H  7.63300 -4.87100 47.36900
H  7.41100 -1.38200 43.14600
H  7.82100 2.20300 45.53200
H  9.30500 2.16200 44.52900
H  9.30000 1.36800 46.08700
Mg 24.73300 -5.54700 45.42400
C  26.81300 -3.10300 43.90900
C  22.18100 -4.50200 43.42000
C  23.00600 -8.31200 46.29800
C  27.55500 -6.73500 47.19500
N  24.57500 -3.98500 43.86400
C  25.50700 -3.06400 43.45500
C  24.97100 -2.25200 42.25200
C  23.36800 -2.40700 42.39500
C  23.37200 -3.72800 43.26800
C  22.63800 -1.16600 43.12600
C  25.56400 -2.88700 40.86000
C  26.47900 -1.93200 39.97900
H  26.08200 -2.03400 38.51500
N  22.90000 -6.29100 44.97400
C  21.98200 -5.75900 44.10700
C  20.82100 -6.53100 44.12500
C  20.92800 -7.60000 45.03100
C  22.28300 -7.40400 45.58100
C  19.65100 -6.05200 43.25700
C  19.92300 -8.57400 45.38000
O  18.87000 -8.69100 44.71600
C  20.10500 -9.41800 46.64100
N  25.25700 -7.31900 46.56900
C  24.36700 -8.37900 46.71000
C  25.00200 -9.50200 47.51800
C  26.31700 -8.87000 48.02700
C  26.38300 -7.51700 47.27700
C  24.20800 -10.08800 48.72700
C  27.57000 -9.82600 47.85800
C  28.30600 -10.14100 49.11300
N  26.78200 -5.02400 45.61100
C  27.77500 -5.60700 46.37000
C  29.02500 -4.96600 46.10200
C  28.71900 -3.95600 45.18100
C  27.33300 -4.06900 44.89600
C  30.31100 -5.33100 46.71600
C  29.26200 -2.83200 44.36700
O  30.32100 -2.26400 44.39100
C  28.02400 -2.27200 43.50200
C  27.84300 -0.83400 43.71200
O  27.27400 -0.34000 44.64300
O  28.28500 -0.14700 42.57200
C  28.00600 1.25900 42.40500
H  21.33600 -4.10500 42.85400
H  22.50100 -9.18800 46.71100
H  28.42800 -6.95600 47.81300
H  25.03300 -1.18300 42.45500
H  22.95600 -2.58800 41.40200
H  22.05700 -1.45700 44.00200
H  21.92100 -0.65300 42.48600
H  23.36700 -0.44400 43.49400
H  24.79900 -3.23000 40.16400
H  26.15100 -3.75600 41.15800
H  27.47800 -2.33200 40.15000
H  26.34700 -0.90100 40.30900
H  18.89300 -6.80800 43.05300
H  20.07300 -5.66600 42.32900
H  19.18000 -5.27000 43.85100
H  20.82900 -10.21200 46.46000
H  19.14500 -9.79200 46.99600
H  20.55400 -8.79300 47.41300
H  25.25800 -10.33000 46.85700
H  26.20800 -8.56300 49.06700
H  23.18300 -9.72900 48.81800
H  24.71500 -10.08200 49.69200
H  24.05200 -11.14100 48.49500
H  28.34800 -9.39400 47.22800
H  27.24300 -10.78000 47.44500
H  27.73200 -9.65800 49.90300
H  29.18000 -9.51400 48.94000
H  28.46500 -11.20500 49.29100
H  31.01200 -4.53300 46.47000
H  30.65100 -6.29800 46.34500
H  30.25500 -5.36500 47.80400
H  28.07300 -2.37600 42.41800
H  27.13000 1.53900 42.99000
H  27.84200 1.48500 41.35200
H  28.86000 1.85700 42.72400

