158

Mg 40.93300 8.66700 28.79700
C  42.62800 10.13500 31.45600
C  38.79200 7.24500 31.15500
C  39.23200 6.96000 26.18900
C  43.38200 9.67000 26.67000
N  40.82600 8.66000 31.02100
C  41.47200 9.43500 31.85600
C  40.98600 9.45800 33.29000
C  39.73700 8.55100 33.18300
C  39.75400 8.08700 31.71000
C  39.77600 7.30200 34.17700
C  40.84500 10.92900 33.94600
C  39.81700 11.04800 35.05700
H  40.38900 11.14200 36.50100
N  39.21400 7.34800 28.66900
C  38.45900 6.89000 29.77900
C  37.36500 6.19000 29.31200
C  37.45100 6.14700 27.91600
C  38.67700 6.82200 27.50900
C  36.32300 5.57700 30.20000
C  36.48300 5.45200 26.92800
O  36.71800 5.48000 25.72500
C  35.22400 4.66400 27.39800
N  41.33500 8.13300 26.70400
C  40.48000 7.57100 25.83100
C  40.81400 7.96600 24.42600
C  42.08300 8.90200 24.60600
C  42.28000 8.92500 26.10800
C  40.93400 6.76700 23.48300
C  41.97700 10.28600 23.90700
C  41.45900 11.57500 24.62800
N  42.66700 9.68800 28.94800
C  43.60200 9.98400 28.00800
C  44.75500 10.66600 28.62700
C  44.31000 10.89100 29.92100
C  43.12900 10.17500 30.15000
C  45.91100 11.18300 27.87800
C  44.65800 11.53600 31.19500
O  45.60000 12.16300 31.57800
C  43.61600 11.03300 32.26600
C  44.20500 10.24800 33.35100
O  44.53600 9.06400 33.30100
O  44.40500 10.99200 34.47300
C  44.90600 10.39400 35.67200
H  38.05700 6.95400 31.90800
H  38.71100 6.50000 25.34700
H  44.07600 10.22300 26.03300
H  41.77900 8.95100 33.83900
H  38.82500 9.14600 33.23000
H  40.64700 7.43400 34.82000
H  39.87600 6.40900 33.55900
H  38.92300 7.31100 34.85600
H  40.58400 11.71300 33.23500
H  41.81600 11.29000 34.28500
H  39.35600 10.06000 35.09000
H  39.22800 11.90400 34.72700
H  36.57600 5.68500 31.25400
H  36.38600 4.49900 30.05000
H  35.34900 6.01800 29.98700
H  35.57200 3.77700 27.92700
H  34.62800 4.37600 26.53200
H  34.62100 5.38800 27.94600
H  40.09400 8.63500 23.95700
H  42.87900 8.24700 24.25400
H  41.28600 5.86600 23.98400
H  41.73600 7.18500 22.87500
H  39.97300 6.69900 22.97200
H  41.29500 10.08400 23.08100
H  42.93100 10.59200 23.47800
H  41.19600 11.50600 25.68300
H  40.55100 11.95400 24.15800
H  42.16900 12.38200 24.44700
H  46.86600 11.02000 28.37800
H  45.83000 12.23800 27.61800
H  46.02800 10.59100 26.97100
H  43.03900 11.86500 32.66900
H  45.34700 9.41200 35.50500
H  44.05300 10.30200 36.34400
H  45.58300 11.05800 36.21000
Mg 47.37000 16.16800 28.19200
C  45.22700 16.16100 31.09900
C  49.57300 18.01300 30.09100
C  48.98500 16.73500 25.34300
C  44.76100 14.73100 26.50000
N  47.28900 17.06900 30.23500
C  46.44700 16.79100 31.27100
C  47.00900 17.16800 32.64400
C  48.35200 17.88800 32.31900
C  48.43000 17.68800 30.75200
C  48.48100 19.30200 32.82300
C  47.15600 16.00600 33.66500
C  46.51300 16.17500 35.11200
H  46.18600 17.54700 35.58200
N  49.13400 17.07200 27.80100
C  49.89000 17.76600 28.69800
C  51.03100 18.39300 28.04300
C  50.90600 17.95500 26.64100
C  49.69100 17.15500 26.56300
C  52.01800 19.26500 28.66100
C  51.84000 18.23800 25.48900
O  51.60600 18.01500 24.30900
C  53.17200 18.77600 25.78100
N  47.01700 15.71700 26.20000
C  47.74500 16.13200 25.13500
C  47.11100 15.68000 23.82100
C  45.95300 14.72600 24.28400
C  45.90200 15.06100 25.76000
C  46.63300 16.81200 22.91500
C  46.16300 13.18700 23.90900
C  45.21800 12.57300 22.88000
N  45.39500 15.47500 28.65500
C  44.54900 14.87900 27.86200
C  43.36500 14.40300 28.69100
C  43.56200 14.88400 29.94700
C  44.84600 15.48500 29.89100
C  42.11500 13.78300 28.26300
C  43.08200 14.98200 31.33800
O  42.12800 14.48500 31.89600
C  44.14700 15.84300 32.13800
C  43.45700 16.95800 32.81100
O  43.34200 18.11300 32.37600
O  42.86200 16.44200 33.94800
C  41.93200 17.36900 34.62500
H  50.37700 18.45600 30.68200
H  49.47700 17.02000 24.41100
H  44.10000 14.04800 25.96200
H  46.29400 17.91700 32.98700
H  49.21600 17.39200 32.76300
H  49.27600 19.35900 33.56700
H  47.50200 19.60800 33.19100
H  48.76000 19.96800 32.00700
H  48.23200 15.91100 33.81100
H  46.76000 15.11700 33.17400
H  47.30700 15.76600 35.73600
H  45.72200 15.42500 35.12100
H  52.21400 20.24900 28.23400
H  52.98600 18.76600 28.62300
H  51.83900 19.47800 29.71500
H  53.04000 19.62000 26.45800
H  53.58400 19.10100 24.82600
H  53.88100 18.01600 26.11000
H  47.92300 15.25200 23.23400
H  45.08900 15.10900 23.74100
H  45.75200 16.68200 22.28700
H  47.28100 16.80400 22.03900
H  46.55800 17.74700 23.47100
H  46.08500 12.52700 24.77300
H  47.14000 13.07500 23.43800
H  44.32600 13.17900 22.71700
H  44.74000 11.67800 23.27900
H  45.64200 12.27600 21.92100
H  41.86600 14.14600 27.26600
H  41.28100 14.10800 28.88400
H  42.26100 12.70300 28.25000
H  44.45100 15.11600 32.89200
H  42.16400 17.45900 35.68600
H  40.90700 17.02400 34.48600
H  41.85300 18.32800 34.11300

