158

Mg 6.69300 53.86600 40.22200
C  6.39000 50.45300 39.84800
C  9.94900 53.63100 38.84900
C  6.89700 57.24300 39.91400
C  3.25700 54.02200 40.70600
N  7.93800 52.25600 39.18300
C  7.64400 50.92000 39.34800
C  8.83000 50.00300 39.00800
C  10.03300 51.06300 39.01600
C  9.26100 52.41700 38.94700
C  10.99000 50.93300 40.21600
C  8.74900 49.20300 37.65400
C  8.10400 49.99000 36.42400
H  7.13800 49.47600 35.44500
N  8.26900 55.22400 39.49200
C  9.53200 54.96800 39.04300
C  10.26800 56.13500 38.94200
C  9.40800 57.26700 39.18600
C  8.12400 56.60700 39.60700
C  11.76300 56.17400 38.70900
C  9.70700 58.69900 39.21000
O  10.83500 59.04300 38.89100
C  8.69800 59.73400 39.77000
N  5.24200 55.42100 40.13700
C  5.62000 56.75200 40.20600
C  4.38700 57.64300 40.46000
C  3.22800 56.57200 40.64500
C  3.88400 55.21200 40.41400
C  4.57600 58.59200 41.73700
C  1.96900 56.81600 39.76600
C  1.61000 58.30800 39.30100
N  5.12400 52.55400 40.42200
C  3.80300 52.71800 40.71000
C  3.14700 51.42700 40.95500
C  4.13400 50.54600 40.64600
C  5.26200 51.21900 40.24700
C  1.65900 51.13100 41.21400
C  4.47700 49.10100 40.57300
O  3.72900 48.13500 40.89300
C  5.88000 49.01700 40.15600
C  5.80700 48.21800 38.98400
O  5.23300 48.62800 37.97400
O  6.53400 47.06000 39.06900
C  6.37400 46.09100 37.98600
H  11.01300 53.56100 38.61300
H  6.78200 58.31700 40.07400
H  2.18800 54.16700 40.87600
H  8.93900 49.27900 39.81500
H  10.65500 50.98900 38.12400
H  10.50100 50.34100 40.98900
H  11.24200 51.92000 40.60600
H  11.89400 50.33700 40.09500
H  8.31900 48.20200 37.70600
H  9.73600 49.17700 37.19100
H  8.85900 50.27800 35.69200
H  7.72500 50.91500 36.85700
H  12.02600 56.95900 38.00100
H  12.13200 55.25400 38.25500
H  12.28000 56.33400 39.65500
H  7.86600 59.88100 39.08000
H  9.26900 60.66100 39.81400
H  8.37000 59.51800 40.78700
H  4.20500 58.21000 39.54700
H  2.83000 56.63800 41.65800
H  3.59500 58.76900 42.17800
H  4.93400 59.56600 41.40400
H  5.22700 58.08200 42.44700
H  1.22900 56.54600 40.52000
H  1.97600 56.25700 38.83000
H  2.25700 58.56300 38.46100
H  1.74700 59.01800 40.11600
H  0.55400 58.27300 39.03300
H  1.58100 50.07300 41.46500
H  1.12300 51.29200 40.27900
H  1.21100 51.83300 41.91700
H  6.40300 48.34900 40.84000
H  7.19400 46.02900 37.27100
H  5.47900 46.34600 37.41800
H  6.27800 45.05100 38.29800
Mg -5.15900 25.23100 26.87500
C  -4.15300 26.88000 29.87900
C  -7.05900 23.06300 28.89900
C  -5.58100 23.32600 24.11600
C  -2.92400 27.24800 25.19200
N  -5.64700 25.14400 29.08500
C  -5.07900 25.83200 30.13200
C  -5.54300 25.38300 31.53600
C  -6.24900 24.03200 31.16800
C  -6.44900 24.11600 29.63600
C  -5.44700 22.75200 31.55800
C  -6.51200 26.33800 32.17600
C  -6.55500 26.32500 33.71400
H  -5.84500 25.17700 34.53700
N  -6.31300 23.68800 26.59400
C  -7.06200 22.93600 27.45900
C  -7.98500 22.07500 26.66000
C  -7.52500 22.08300 25.32300
C  -6.30900 22.96900 25.32300
C  -9.15500 21.29100 27.26200
C  -8.17200 21.46700 24.09300
O  -7.72200 21.57200 22.91700
C  -9.44400 20.58500 24.18100
N  -4.36900 25.28500 24.95300
C  -4.63700 24.34200 23.99100
C  -4.08800 24.80500 22.60400
C  -3.39000 26.15100 22.94300
C  -3.62000 26.28700 24.42600
C  -3.14800 23.75100 21.98500
C  -3.75400 27.38800 22.02200
C  -2.79600 27.61100 20.77700
N  -3.83300 26.77900 27.37200
C  -3.06600 27.56400 26.54700
C  -2.45000 28.63000 27.31800
C  -2.82800 28.40600 28.67800
C  -3.62200 27.27900 28.65900
C  -1.65200 29.70500 26.78300
C  -2.71100 28.80700 30.10100
O  -2.07900 29.74300 30.58900
C  -3.52000 27.77900 30.89600
C  -2.53000 27.03500 31.71100
O  -1.62400 26.29500 31.34500
O  -2.72000 27.40900 33.01300
C  -1.89000 26.74300 33.95100
H  -7.69700 22.37700 29.46000
H  -5.73700 22.70400 23.23200
H  -2.32900 28.05200 24.75400
H  -4.70900 25.10400 32.18000
H  -7.25400 23.86700 31.55800
H  -5.97900 22.17800 32.31700
H  -4.43000 23.08800 31.76100
H  -5.39300 22.05100 30.72500
H  -7.46200 25.91900 31.84200
H  -6.35600 27.30300 31.69200
H  -7.56200 26.28600 34.12800
H  -6.23000 27.25900 34.17300
H  -8.99600 20.21300 27.26600
H  -10.07200 21.33400 26.67400
H  -9.32000 21.65900 28.27500
H  -9.51100 19.85700 24.99000
H  -9.52400 19.96400 23.28900
H  -10.33800 21.19600 24.30200
H  -4.98000 25.01200 22.01200
H  -2.30500 26.04500 22.94900
H  -2.10300 23.92700 21.73300
H  -3.55300 23.54100 20.99500
H  -3.20700 22.88600 22.64600
H  -3.82300 28.21700 22.72600
H  -4.77400 27.39500 21.63900
H  -2.31500 26.69400 20.43800
H  -2.04100 28.34100 21.06800
H  -3.29700 28.18300 19.99500
H  -1.90800 30.21200 25.85300
H  -0.64000 29.32000 26.65300
H  -1.79100 30.36800 27.63700
H  -4.30400 28.21700 31.51400
H  -0.82500 26.97000 33.89100
H  -2.07000 25.67000 33.89400
H  -2.18900 26.89000 34.98800

