158

Mg 48.82400 35.21300 26.45500
C  46.87400 34.26600 29.17300
C  49.27500 38.35100 27.85700
C  50.42300 36.28400 23.47500
C  47.57600 32.39000 24.66300
N  48.22700 36.18000 28.27900
C  47.53900 35.51000 29.31600
C  47.41700 36.39300 30.52700
C  48.02300 37.80700 30.04100
C  48.58300 37.43100 28.66000
C  47.10400 39.13100 29.97300
C  48.25100 35.80200 31.78500
C  47.48100 35.83300 33.04600
H  47.43000 37.05400 33.93400
N  49.76700 37.03300 25.82400
C  49.82900 38.19300 26.55000
C  50.42600 39.23100 25.71100
C  50.95600 38.57900 24.53900
C  50.39000 37.24900 24.54200
C  50.71900 40.63300 26.03200
C  51.85300 39.05300 23.37400
O  52.06200 38.49700 22.27600
C  52.62500 40.36600 23.58000
N  49.03600 34.41000 24.37700
C  49.78600 35.05700 23.41600
C  49.94500 34.11000 22.25400
C  49.27300 32.75400 22.67500
C  48.53100 33.18900 23.95700
C  49.48100 34.64800 20.90500
C  50.18100 31.43200 22.89700
C  49.64600 30.16800 22.24500
N  47.56500 33.60200 26.81100
C  47.14300 32.54400 25.99900
C  46.29600 31.71300 26.73500
C  46.08500 32.40900 27.97800
C  46.91100 33.52500 27.94500
C  45.76300 30.40500 26.17200
C  45.27900 32.37900 29.19400
O  44.32900 31.63500 29.50700
C  45.86000 33.61100 30.11400
C  46.36100 33.00700 31.38000
O  47.35400 32.30800 31.45800
O  45.52100 33.36500 32.40100
C  45.66900 32.98700 33.81300
H  49.47400 39.36300 28.21700
H  50.91200 36.49000 22.52100
H  47.30300 31.48600 24.11400
H  46.34500 36.52300 30.67500
H  48.81700 38.16200 30.69800
H  47.40700 39.78600 30.79000
H  46.06800 38.83900 30.14700
H  47.09200 39.47500 28.93800
H  49.15600 36.38900 31.94000
H  48.48200 34.75700 31.57900
H  47.86600 35.10800 33.76300
H  46.42100 35.60500 32.93600
H  51.79600 40.79800 26.05700
H  50.20000 40.72500 26.98600
H  50.14000 41.34500 25.44500
H  51.93700 41.17900 23.81200
H  53.16200 40.65800 22.67700
H  53.37500 40.12800 24.33500
H  51.02100 33.95100 22.18600
H  48.44300 32.62700 21.98000
H  49.26300 33.72600 20.36600
H  50.30600 35.20100 20.45700
H  48.63400 35.33000 20.98400
H  50.44300 31.21400 23.93200
H  51.11500 31.70100 22.40300
H  49.28600 29.42200 22.95300
H  50.34900 29.54400 21.69200
H  48.87000 30.39500 21.51400
H  46.43100 29.55600 26.31200
H  45.40400 30.30500 25.14800
H  44.90500 30.18800 26.80900
H  44.94300 34.15200 30.34500
H  46.70700 33.16500 34.09200
H  45.38700 31.95600 34.02500
H  45.10300 33.57900 34.53200
Mg 41.95300 41.28200 26.27200
C  41.25500 43.62100 28.73600
C  43.38000 39.27100 28.56700
C  42.80700 39.27300 23.64500
C  41.15900 43.85400 23.93500
N  42.30800 41.49200 28.38200
C  41.68200 42.43200 29.21600
C  41.81000 42.04200 30.69200
C  42.75400 40.79300 30.61400
C  42.88100 40.49100 29.09900
C  44.13600 41.06300 31.30400
C  40.43700 41.76400 31.40200
C  40.17900 42.59500 32.68300
H  39.85700 41.88200 33.96800
N  42.85700 39.46600 26.11500
C  43.39100 38.79300 27.20700
C  44.00800 37.54400 26.68700
C  43.82400 37.50400 25.28300
C  43.13700 38.80400 24.89500
C  44.84300 36.68100 27.60500
C  44.21200 36.47800 24.34200
O  44.08100 36.65900 23.12100
C  44.77800 35.14300 24.84500
N  41.84600 41.53400 24.15000
C  42.21800 40.50100 23.25100
C  42.01800 40.89600 21.74500
C  41.41600 42.39700 21.89300
C  41.42200 42.60500 23.41000
C  43.25800 40.76200 20.78600
C  40.03100 42.63400 21.28900
C  39.97700 43.45300 20.05700
N  41.33700 43.33200 26.29200
C  41.01000 44.22200 25.29500
C  40.54400 45.46100 25.81100
C  40.62600 45.31400 27.20600
C  41.13100 44.01700 27.45400
C  40.03300 46.64700 24.98800
C  40.32800 45.90300 28.41700
O  39.76200 47.00700 28.64700
C  40.69800 44.84000 29.50800
C  41.70800 45.47100 30.38400
O  42.91300 45.48600 30.18100
O  41.12400 46.10600 31.46400
C  42.06700 46.48700 32.45200
H  43.78200 38.66300 29.38100
H  42.98900 38.60300 22.80200
H  40.92300 44.56400 23.13900
H  42.30600 42.87800 31.18400
H  42.24900 39.98000 31.13500
H  44.84400 41.57300 30.65000
H  44.41800 40.04600 31.58000
H  44.07400 41.65100 32.21900
H  40.38100 40.69100 31.58500
H  39.58200 41.96700 30.75700
H  39.35500 43.29100 32.52700
H  41.01400 43.26900 32.87400
H  45.82200 36.52700 27.15000
H  44.44000 35.67900 27.75300
H  45.00400 37.10400 28.59700
H  44.73200 34.34100 24.10800
H  44.13500 34.90500 25.69200
H  45.81300 35.26300 25.16600
H  41.24300 40.26600 21.30900
H  42.08400 43.19800 21.57700
H  43.47800 41.73500 20.34700
H  43.26300 39.97200 20.03500
H  44.16700 40.69000 21.38200
H  39.33300 42.93600 22.07000
H  39.57400 41.68500 21.00800
H  39.40800 42.84300 19.35700
H  41.01800 43.60900 19.77400
H  39.50600 44.40700 20.29600
H  40.11100 46.53400 23.90700
H  40.59700 47.53100 25.28500
H  38.98500 46.81000 25.23700
H  39.83300 44.64300 30.14200
H  42.61800 47.37600 32.14600
H  42.79100 45.74800 32.79300
H  41.52900 46.94700 33.28100

