158

Mg 4.96700 54.84500 40.38900
C  4.47700 51.47200 41.05100
C  7.69200 54.21000 38.55500
C  4.76100 57.99600 39.24100
C  1.67600 55.34800 41.75200
N  5.85400 53.00800 39.70700
C  5.60800 51.73900 40.25100
C  6.58600 50.73100 39.70500
C  7.84100 51.69700 39.36600
C  7.09600 53.03700 39.19000
C  8.93100 51.70000 40.46900
C  6.13700 49.86400 38.49000
C  4.83000 50.20300 37.74100
H  4.94500 49.76500 36.25800
N  6.11700 56.04400 39.08000
C  7.21200 55.56100 38.45600
C  7.82100 56.68800 37.81300
C  7.03700 57.78000 38.00100
C  5.92100 57.34200 38.80100
C  9.16800 56.52700 37.07700
C  7.35400 59.15200 37.40700
O  8.21000 59.35500 36.50000
C  6.69700 60.35900 37.94800
N  3.32500 56.35100 40.36500
C  3.61300 57.56100 39.87500
C  2.49100 58.57500 40.21100
C  1.37600 57.73600 40.74800
C  2.14700 56.40700 40.94600
C  2.90400 59.75600 41.09900
C  0.12600 57.62200 39.74900
C  -1.27600 58.04300 40.40600
N  3.46600 53.73900 41.44400
C  2.26900 54.06500 41.99300
C  1.78000 52.95900 42.81000
C  2.73600 51.94600 42.52100
C  3.64100 52.42700 41.64200
C  0.47000 52.93900 43.74600
C  3.02100 50.52900 42.81900
O  2.59100 49.75400 43.56600
C  4.14900 50.19500 41.76800
C  3.58100 49.13100 40.89200
O  2.62100 49.34100 40.13200
O  4.32200 47.95400 41.03700
C  3.87400 46.72700 40.34400
H  8.70900 54.01800 38.20600
H  4.61000 59.01600 38.88300
H  0.71100 55.51700 42.23300
H  6.72900 50.10200 40.58400
H  8.25600 51.26400 38.45500
H  8.76700 50.86500 41.15000
H  8.93400 52.64800 41.00500
H  9.90300 51.64100 39.97900
H  5.92000 48.91400 38.97800
H  6.94000 49.63600 37.79000
H  4.68000 51.28000 37.80600
H  3.99900 49.61200 38.12800
H  9.80300 57.38700 36.86300
H  9.17300 55.94700 36.15500
H  9.74100 55.94100 37.79600
H  7.29700 61.24100 37.72100
H  6.46100 60.27500 39.00900
H  5.80600 60.40100 37.32200
H  2.20200 59.04200 39.27000
H  0.99500 58.13000 41.69000
H  2.30500 59.92300 41.99400
H  2.61000 60.69100 40.62100
H  3.98000 59.67200 41.25400
H  0.03700 56.61400 39.34200
H  0.20800 58.31100 38.90900
H  -1.15500 58.66700 41.29200
H  -1.74700 57.16500 40.84800
H  -1.90600 58.57500 39.69400
H  0.68800 52.69400 44.78500
H  -0.32100 52.30400 43.34800
H  -0.01800 53.91400 43.75900
H  5.00600 49.69600 42.22200
H  3.87500 45.86800 41.01500
H  4.55500 46.41200 39.55300
H  2.89500 46.77100 39.86600
Mg -0.41900 43.98000 26.03000
C  1.53100 43.61100 28.84100
C  -3.22400 42.88800 27.96400
C  -2.29200 43.57100 23.21100
C  2.43100 44.50600 24.18200
N  -0.82000 43.26500 28.05400
C  0.15400 43.43600 29.07800
C  -0.44400 43.26400 30.46400
C  -1.90700 42.84500 30.13700
C  -1.97000 42.92600 28.60600
C  -2.28900 41.38000 30.66200
C  -0.27000 44.54300 31.34600
C  0.21800 44.33800 32.80000
H  -0.10600 43.08000 33.51400
N  -2.53500 43.52700 25.64900
C  -3.50800 43.20000 26.58600
C  -4.78000 43.03200 25.88900
C  -4.53000 43.23300 24.54000
C  -3.03700 43.45700 24.36200
C  -6.04700 42.75200 26.57900
C  -5.40900 43.16900 23.36600
O  -5.03000 43.44400 22.20500
C  -6.83500 42.80400 23.61300
N  0.00100 44.06400 24.07700
C  -0.89600 43.91900 23.08700
C  -0.25900 44.10800 21.71400
C  1.09600 44.66600 22.05900
C  1.22800 44.33700 23.57700
C  -0.22900 42.83500 20.89700
C  1.22600 46.16200 21.84300
C  1.31700 46.53100 20.36300
N  1.59700 44.11800 26.42400
C  2.65100 44.39600 25.62200
C  3.84100 44.63500 26.36200
C  3.42400 44.29400 27.67200
C  2.10800 43.95800 27.63700
C  5.08200 45.15200 25.85700
C  3.92700 44.14300 29.03100
O  4.99900 44.29600 29.55900
C  2.60100 43.86200 29.89000
C  2.87100 42.62000 30.78700
O  2.56300 41.45900 30.56000
O  3.70000 42.95100 31.85900
C  4.13300 41.84000 32.77100
H  -4.14800 42.55700 28.44300
H  -2.60800 43.48700 22.16900
H  3.41400 44.63200 23.72300
H  -0.06300 42.34600 30.91400
H  -2.59300 43.57200 30.57200
H  -2.98600 41.71000 31.43200
H  -1.48800 40.93400 31.25100
H  -2.75000 40.68000 29.96500
H  -1.25300 45.01300 31.39000
H  0.43200 45.23000 30.87400
H  -0.23600 45.14700 33.37200
H  1.28100 44.56600 32.87100
H  -6.95400 43.25900 26.25000
H  -6.07200 43.03400 27.63200
H  -6.17600 41.67300 26.66600
H  -7.07500 42.01600 24.32700
H  -7.24500 42.58700 22.62600
H  -7.37400 43.65600 24.02700
H  -0.92800 44.76400 21.15800
H  1.95300 44.23600 21.54000
H  -0.92800 42.09800 21.29300
H  0.69700 42.26100 20.91900
H  -0.54300 43.13200 19.89700
H  2.10500 46.56700 22.34500
H  0.39000 46.68300 22.30900
H  0.63200 47.34100 20.11200
H  1.21900 45.69700 19.66700
H  2.31400 46.91700 20.15100
H  4.93500 45.50200 24.83600
H  5.85300 44.38300 25.90800
H  5.48800 45.91500 26.52100
H  2.57700 44.79600 30.45000
H  4.84600 42.43500 33.34100
H  4.59200 41.06900 32.15200
H  3.39300 41.36200 33.41300

