158

Mg 47.92100 25.28600 27.81200
C  48.74600 27.76800 30.14500
C  46.92200 23.22500 30.14800
C  47.47500 22.93700 25.32600
C  49.17000 27.54100 25.32800
N  47.97100 25.43900 29.97600
C  48.17200 26.56000 30.73600
C  47.81600 26.29300 32.21100
C  47.44300 24.71100 32.19800
C  47.39600 24.42700 30.67800
C  48.44700 23.75200 32.91000
C  46.80700 27.23900 32.80600
C  46.12700 26.87600 34.17600
H  45.93500 27.90100 35.33400
N  47.24500 23.32900 27.74600
C  46.76500 22.63600 28.82600
C  46.01500 21.40200 28.47500
C  46.16400 21.39700 27.04700
C  46.96500 22.55100 26.57400
C  45.42300 20.50300 29.43000
C  45.46400 20.42800 26.03300
O  45.46300 20.66800 24.82600
C  44.57700 19.40600 26.57400
N  48.37400 25.20200 25.58200
C  48.00100 24.14200 24.86300
C  48.30500 24.47900 23.42900
C  48.57500 26.01000 23.36200
C  48.72800 26.31400 24.77000
C  49.33100 23.57800 22.60500
C  47.45600 26.84900 22.80600
C  47.84700 27.93400 21.78700
N  48.83300 27.19400 27.67100
C  49.34900 27.92300 26.65000
C  50.00500 29.08400 27.11300
C  49.84300 29.09400 28.46200
C  49.08700 27.92700 28.80200
C  50.70000 30.14100 26.37300
C  50.13700 29.81500 29.69600
O  50.77600 30.84500 29.85300
C  49.35800 29.04900 30.86700
C  50.26900 28.59100 31.94500
O  51.08200 27.67100 31.89600
O  50.20500 29.45100 33.05000
C  51.10600 29.24900 34.18000
H  46.46100 22.71000 30.99300
H  47.24700 22.19900 24.55500
H  49.49900 28.22700 24.54400
H  48.75500 26.33400 32.76200
H  46.47400 24.45600 32.62600
H  48.90400 23.07900 32.18400
H  47.88700 23.03900 33.51500
H  49.20800 24.29000 33.47500
H  45.91500 27.13300 32.18700
H  47.21600 28.24400 32.90900
H  46.80100 26.16200 34.65000
H  45.11400 26.53000 33.97400
H  46.05700 19.67300 29.74500
H  44.47200 20.21500 28.98300
H  45.17200 21.03900 30.34500
H  44.38700 18.85000 25.65600
H  43.69200 20.01700 26.75100
H  44.96700 18.84100 27.42000
H  47.32900 24.33000 22.96700
H  49.54800 26.21800 22.91500
H  48.78500 23.23900 21.72400
H  49.60300 22.67900 23.15700
H  50.23200 24.11100 22.30200
H  46.85200 27.39900 23.52700
H  46.71600 26.27300 22.25000
H  47.39700 27.71900 20.81700
H  48.92400 28.02800 21.64900
H  47.50000 28.89500 22.16700
H  51.02900 29.76500 25.40400
H  51.49400 30.62100 26.94400
H  49.97900 30.88300 26.02800
H  48.55500 29.71000 31.19300
H  50.87300 28.38000 34.79600
H  51.05100 30.14400 34.79900
H  52.14100 29.07000 33.89200
Mg -10.66500 38.72900 41.55800
C  -9.22700 35.69800 40.62000
C  -8.09900 40.45000 40.11300
C  -12.47000 41.63600 41.86500
C  -13.54300 36.96500 42.57600
N  -8.87400 38.10600 40.52000
C  -8.41700 36.79100 40.28100
C  -7.16000 36.82500 39.44500
C  -6.76900 38.38800 39.48100
C  -7.99300 39.06500 40.02100
C  -5.49600 38.54300 40.29600
C  -7.44500 36.32600 37.98600
C  -6.81500 35.00100 37.65900
H  -5.63700 34.88900 36.74000
N  -10.25100 40.81400 41.22900
C  -9.12900 41.28600 40.61200
C  -9.17600 42.76000 40.49200
C  -10.50300 43.10200 40.94700
C  -11.14300 41.84000 41.41200
C  -8.05300 43.59400 39.76100
C  -11.04200 44.56100 40.87400
O  -10.35200 45.49700 40.46300
C  -12.46400 44.91800 41.24900
N  -12.76200 39.28700 42.15900
C  -13.24800 40.51900 42.06200
C  -14.78600 40.53200 42.31500
C  -15.11800 38.98900 42.38200
C  -13.73900 38.36400 42.48400
C  -15.17300 41.28000 43.66400
C  -15.85600 38.44000 41.19000
C  -17.22800 38.99400 40.87700
N  -11.25700 36.72400 41.73700
C  -12.40700 36.21300 42.30700
C  -12.19700 34.74200 42.40900
C  -11.09000 34.48300 41.70900
C  -10.50200 35.70800 41.26500
C  -12.94800 33.79300 43.23900
C  -10.23300 33.42000 41.30000
O  -10.32600 32.21600 41.45100
C  -8.95100 34.14600 40.56800
C  -7.75200 33.61000 41.25200
O  -7.10500 32.63300 40.89500
O  -7.48400 34.41400 42.33400
C  -6.34700 33.93700 43.23000
H  -7.34600 40.99800 39.54200
H  -13.10200 42.52500 41.92000
H  -14.38000 36.33900 42.89200
H  -6.39300 36.11800 39.76100
H  -6.66800 38.80000 38.47700
H  -4.86000 39.14500 39.64700
H  -4.99100 37.61700 40.56900
H  -5.76300 39.10800 41.18900
H  -7.25200 37.12800 37.27300
H  -8.53200 36.28500 37.90800
H  -7.62900 34.38000 37.28400
H  -6.51200 34.43700 38.54000
H  -8.26800 43.55300 38.69300
H  -7.10700 43.10100 39.98400
H  -7.98800 44.59900 40.18000
H  -12.65800 44.62300 42.28000
H  -13.12300 44.42300 40.53500
H  -12.63600 45.99100 41.15400
H  -15.38200 41.01200 41.53900
H  -15.61600 38.74300 43.32000
H  -15.52300 42.27400 43.38400
H  -14.29900 41.52100 44.26800
H  -15.94100 40.71100 44.18800
H  -15.86400 37.35000 41.19500
H  -15.21800 38.71500 40.35000
H  -17.08300 39.48600 39.91600
H  -17.69000 39.70800 41.55900
H  -17.93300 38.16900 40.77900
H  -13.80000 33.35300 42.72100
H  -13.47400 34.36700 44.00200
H  -12.14400 33.19500 43.66800
H  -8.89000 33.85600 39.51900
H  -5.66000 33.13200 42.96900
H  -6.71400 33.72400 44.23400
H  -5.74500 34.84200 43.31500

