158

Mg 2.17100 -1.98800 43.79100
C  5.55400 -0.89900 43.55900
C  1.25100 0.93900 42.29300
C  -0.86900 -3.12200 43.95800
C  3.44500 -5.00200 45.25500
N  3.31400 -0.18400 42.93500
C  4.65500 0.02000 42.93700
C  4.96900 1.31800 42.18100
C  3.59500 2.08100 42.09600
C  2.66300 0.85800 42.36600
C  3.33400 3.33200 43.03400
C  5.52700 1.12500 40.74500
C  6.80600 1.90300 40.55000
H  7.01900 2.56200 39.19900
N  0.49300 -1.27800 43.08200
C  0.24600 -0.04300 42.57400
C  -1.17100 0.09800 42.15700
C  -1.81900 -1.09700 42.63900
C  -0.73700 -1.89400 43.24200
C  -1.77300 1.29100 41.46400
C  -3.29600 -1.47000 42.45200
O  -4.07300 -0.64400 41.98400
C  -3.88600 -2.83900 42.79900
N  1.38100 -3.95500 44.37400
C  0.09700 -3.98500 44.56700
C  -0.29800 -5.29500 45.24000
C  1.08900 -6.00800 45.55800
C  2.03500 -4.91500 45.12900
C  -1.18100 -5.20100 46.42800
C  1.46900 -7.43000 44.96600
C  1.87200 -8.52700 46.03500
N  4.09300 -2.88600 44.25800
C  4.43600 -4.08900 44.78500
C  5.91200 -4.23600 44.78100
C  6.38100 -2.98600 44.40200
C  5.24500 -2.17100 44.05600
C  6.60700 -5.47500 45.22500
C  7.55600 -2.14800 44.21700
O  8.71800 -2.34700 44.45000
C  7.04300 -0.76600 43.64800
C  7.28000 0.21500 44.66700
O  6.98100 0.23400 45.84500
O  8.13500 1.10100 44.13000
C  8.43000 2.29900 44.86400
H  0.98100 1.94900 41.97500
H  -1.88900 -3.49500 44.07100
H  3.83800 -5.93900 45.65300
H  5.61800 1.88400 42.85000
H  3.25700 2.31300 41.08700
H  4.14400 3.47900 43.74800
H  2.45900 3.12000 43.64700
H  3.17900 4.16200 42.34400
H  4.75000 1.40700 40.03400
H  5.77800 0.07300 40.60500
H  7.59400 1.16900 40.71800
H  6.94600 2.63600 41.34400
H  -1.94400 1.97700 42.29400
H  -2.71300 1.20500 40.92000
H  -0.97000 1.81700 40.94800
H  -4.81100 -2.97200 42.23700
H  -4.08500 -2.84100 43.87100
H  -3.29200 -3.60500 42.30100
H  -0.86700 -5.92900 44.56000
H  1.14600 -6.06300 46.64500
H  -2.22900 -5.21000 46.12800
H  -0.98300 -4.25400 46.93000
H  -1.14400 -6.03100 47.13300
H  2.24300 -7.41600 44.19900
H  0.59600 -7.80200 44.43000
H  2.92700 -8.78700 45.94900
H  1.33900 -9.46200 45.85900
H  1.65200 -8.13600 47.02900
H  7.54900 -5.75100 44.75200
H  5.95100 -6.34100 45.14000
H  6.91200 -5.35000 46.26400
H  7.53300 -0.64400 42.68200
H  7.56200 2.75600 45.33900
H  8.81000 3.03200 44.15300
H  9.18000 2.00100 45.59700
Mg 29.73300 57.41700 41.20900
C  26.99000 55.51100 40.16800
C  31.83200 54.86500 39.95100
C  32.26000 59.59800 41.25100
C  27.39300 60.12000 41.69600
N  29.45600 55.46700 40.28700
C  28.27400 54.89700 39.92300
C  28.46600 53.47600 39.31400
C  29.99500 53.17200 39.56600
C  30.48500 54.59300 39.95500
C  30.27100 52.15100 40.71500
C  28.09400 53.38800 37.73200
C  28.45200 54.60900 36.91800
H  27.63100 55.06800 35.74000
N  31.77000 57.21800 40.75800
C  32.44000 56.06900 40.21800
C  33.90400 56.39500 40.32800
C  34.08700 57.76400 40.81200
C  32.67800 58.25300 40.85600
C  34.93700 55.40600 39.96700
C  35.46600 58.52800 41.10600
O  36.54200 57.91100 41.04000
C  35.40500 59.92600 41.48900
N  29.78300 59.52100 41.40800
C  31.03700 60.15700 41.53800
C  30.82700 61.69300 41.82500
C  29.27200 61.79100 41.84100
C  28.73900 60.41000 41.68800
C  31.46600 62.11300 43.16500
C  28.60600 62.79900 40.82700
C  28.02300 64.09400 41.37200
N  27.58300 57.77500 41.07000
C  26.79100 58.88600 41.23900
C  25.42300 58.59500 40.95200
C  25.48600 57.22800 40.60400
C  26.78800 56.82700 40.62100
C  24.19200 59.48500 40.99200
C  24.69200 56.07200 40.14100
O  23.52800 55.94200 39.82700
C  25.76200 54.92500 39.79200
C  25.30800 53.69100 40.47500
O  25.36400 53.42400 41.65800
O  24.53700 52.97400 39.54500
C  23.88400 51.77400 40.10600
H  32.57000 54.07500 39.79600
H  33.00400 60.39600 41.30500
H  26.78100 61.02400 41.72300
H  27.85500 52.79000 39.90000
H  30.44800 52.86000 38.62400
H  29.36900 51.84300 41.24500
H  31.01500 52.48400 41.43800
H  30.73000 51.25600 40.29400
H  27.10800 52.92200 37.72700
H  28.71700 52.61800 37.27600
H  29.43800 54.45900 36.47800
H  28.54100 55.51300 37.52000
H  35.85000 55.87100 39.59600
H  34.48900 54.89600 39.11500
H  35.19300 54.82100 40.85000
H  35.02900 60.54200 40.67300
H  36.46200 60.18600 41.54500
H  34.80800 60.00500 42.39800
H  31.32100 62.20800 41.00000
H  28.89000 62.08500 42.81900
H  32.22000 62.82800 42.83600
H  31.86900 61.21300 43.62800
H  30.77800 62.58800 43.86500
H  27.84000 62.32500 40.21300
H  29.33800 63.03900 40.05700
H  28.46400 64.94400 40.85200
H  28.30800 64.12800 42.42400
H  26.95600 64.00000 41.17100
H  23.60800 59.62000 40.08200
H  24.47700 60.45100 41.40800
H  23.59300 58.96400 41.73900
H  25.67500 54.86900 38.70700
H  24.43500 51.23200 40.87400
H  23.50900 51.16700 39.28200
H  22.90800 51.98400 40.54200

