158

Mg 43.79400 4.15000 48.47100
C  41.48600 6.79400 47.85200
C  41.02700 1.86900 48.11900
C  45.95600 1.59000 48.35800
C  46.33700 6.47800 48.06100
N  41.62300 4.30300 48.08500
C  40.93500 5.51500 47.81700
C  39.56200 5.27500 47.35900
C  39.28900 3.72900 47.66000
C  40.70300 3.24900 48.03200
C  38.14500 3.43900 48.77000
C  39.35800 5.52100 45.85200
C  38.08700 6.30600 45.40100
H  37.80500 6.57600 43.80700
N  43.48500 1.93000 48.37100
C  42.33100 1.24500 48.25700
C  42.62000 -0.18500 48.23100
C  44.02800 -0.28200 48.25800
C  44.58900 1.06000 48.35800
C  41.60600 -1.26100 48.12200
C  44.71000 -1.63500 48.20800
O  44.11400 -2.68800 47.98700
C  46.21800 -1.70700 48.51700
N  45.87300 3.97300 48.12500
C  46.52200 2.84500 48.23100
C  48.07500 3.09900 48.06900
C  48.14200 4.65000 47.83600
C  46.67700 5.12100 48.11000
C  48.94900 2.54500 49.22200
C  48.71800 4.98300 46.46500
C  50.29600 5.08000 46.46800
N  43.99200 6.23600 48.21700
C  45.07800 7.03900 48.19100
C  44.67200 8.45400 48.11400
C  43.25100 8.37800 47.97500
C  42.89300 7.04600 48.00100
C  45.64500 9.58100 47.97800
C  42.03300 9.15700 47.78600
O  41.88800 10.38100 47.80200
C  40.81300 8.14900 47.75000
C  39.81200 8.44400 48.77400
O  39.67800 7.83000 49.83600
O  39.05000 9.46800 48.32700
C  37.83500 9.89300 48.97400
H  40.16100 1.21700 47.99300
H  46.67100 0.76400 48.37300
H  47.19900 7.13300 47.92000
H  38.76800 5.88400 47.79200
H  39.05300 3.11700 46.78900
H  37.46100 4.27600 48.91300
H  38.60700 3.25400 49.74000
H  37.60700 2.55200 48.43600
H  39.44700 4.63100 45.22900
H  40.18700 6.15200 45.53400
H  38.03900 7.23000 45.97600
H  37.19600 5.75700 45.70600
H  41.81000 -1.82300 47.21000
H  40.61300 -0.81500 48.07800
H  41.56900 -1.92900 48.98200
H  46.77900 -1.24500 47.70500
H  46.49400 -2.76000 48.56900
H  46.34000 -1.23500 49.49200
H  48.22300 2.52700 47.15200
H  48.74400 4.92600 48.70200
H  49.65500 3.26900 49.62800
H  49.47600 1.67900 48.82100
H  48.25900 2.11300 49.94600
H  48.31000 5.95700 46.19300
H  48.26600 4.30400 45.74300
H  50.75600 4.61800 47.34200
H  50.75900 6.06400 46.39900
H  50.74800 4.55400 45.62700
H  45.12300 10.53700 47.99900
H  46.14000 9.63600 47.00800
H  46.41900 9.63900 48.74300
H  40.36700 8.34300 46.77400
H  37.91200 9.94400 50.06100
H  36.92600 9.36000 48.69800
H  37.67600 10.92400 48.65800
Mg 47.20400 24.89800 28.76400
C  48.02600 27.41600 31.25800
C  46.55000 22.78200 31.27200
C  46.97200 22.51500 26.45400
C  48.32400 27.15100 26.42300
N  47.37900 25.13100 31.06200
C  47.63500 26.19300 31.83700
C  47.37700 25.85200 33.33700
C  47.16400 24.32300 33.33500
C  47.03900 24.02200 31.82200
C  48.40700 23.51800 33.91500
C  46.19300 26.71600 33.91000
C  46.42300 27.28200 35.32900
H  45.36800 26.89400 36.42300
N  46.84400 22.91200 28.83500
C  46.50000 22.25100 29.97100
C  46.22300 20.80300 29.57100
C  46.39800 20.71000 28.14500
C  46.72600 22.04000 27.74700
C  45.79800 19.78300 30.59300
C  46.15300 19.58200 27.20100
O  46.14800 19.69000 25.98600
C  45.84200 18.23900 27.79700
N  47.89000 24.76800 26.69800
C  47.41800 23.71800 25.95400
C  47.52300 24.04000 24.46400
C  47.67300 25.61000 24.51400
C  48.03400 25.85400 25.92200
C  48.63400 23.20300 23.70800
C  46.35000 26.27800 23.93200
C  45.23200 26.56900 24.94500
N  47.85100 26.91100 28.80100
C  48.27500 27.72400 27.72900
C  48.57100 29.05500 28.10000
C  48.49500 28.95200 29.48300
C  48.09000 27.65900 29.86900
C  49.03000 30.25700 27.32000
C  48.71500 29.71400 30.71100
O  49.15400 30.85400 30.84300
C  48.33400 28.70500 31.96000
C  49.46000 28.74900 32.84300
O  50.61000 28.39400 32.63900
O  48.99900 29.20100 34.08400
C  49.98700 29.21000 35.18400
H  46.02800 22.12700 31.97200
H  46.93300 21.85200 25.58700
H  48.53000 27.74200 25.52800
H  48.34100 26.10200 33.77900
H  46.16600 24.06500 33.68900
H  49.03400 24.17000 34.52200
H  49.02500 23.04400 33.15300
H  47.93800 22.81400 34.60200
H  45.27900 26.13200 33.79800
H  45.89000 27.57100 33.30500
H  46.37600 28.36400 35.20600
H  47.38600 26.99700 35.75400
H  45.48800 20.18800 31.55600
H  46.54800 18.99200 30.61100
H  44.91500 19.31400 30.15800
H  46.74700 18.00700 28.36000
H  45.69900 17.47900 27.02900
H  45.03200 18.21000 28.52600
H  46.56200 23.87500 23.97700
H  48.63800 25.89700 24.09700
H  49.20900 22.67000 24.46400
H  49.34500 23.81000 23.14800
H  48.16200 22.47000 23.05400
H  45.83300 25.62700 23.22700
H  46.57000 27.22800 23.44400
H  44.41400 25.88400 24.72100
H  44.79000 27.56000 24.84800
H  45.45000 26.38700 25.99800
H  48.78300 31.06300 28.01100
H  48.43200 30.36500 26.41600
H  50.10800 30.19000 27.16900
H  47.50800 29.18900 32.48100
H  50.89200 28.63900 34.97200
H  49.52300 28.90100 36.12100
H  50.34700 30.21900 35.38300

