158

Mg 1.34300 -0.74900 43.87100
C  4.76300 -0.18800 43.23400
C  0.65100 2.13900 42.25100
C  -1.70700 -1.74100 43.57700
C  2.37200 -4.04900 44.88800
N  2.65400 0.71400 42.91000
C  4.02800 0.81500 42.78700
C  4.39600 2.12500 42.02600
C  3.07400 2.85100 41.81900
C  1.99900 1.84500 42.38900
C  2.95100 4.14000 42.68700
C  5.35300 2.00800 40.77700
C  5.09000 0.88500 39.74900
H  5.41700 1.26400 38.31200
N  -0.33000 0.12500 43.19100
C  -0.42700 1.28500 42.56600
C  -1.79900 1.63800 42.39800
C  -2.55200 0.52500 42.87500
C  -1.48500 -0.42900 43.21000
C  -2.34400 2.91300 41.78800
C  -4.04100 0.46500 43.09100
O  -4.72700 1.46800 43.04400
C  -4.94000 -0.72900 43.61800
N  0.55200 -2.65200 43.88100
C  -0.79200 -2.68100 43.92500
C  -1.24600 -4.08800 44.34800
C  -0.03900 -4.70300 45.07500
C  1.00600 -3.78300 44.52100
C  -2.59600 -4.19900 45.23100
C  0.14500 -6.24700 44.92100
C  0.37200 -7.05600 46.21200
N  3.19100 -1.86900 44.24300
C  3.42000 -3.10200 44.72500
C  4.81700 -3.28400 44.99800
C  5.36000 -2.13500 44.40000
C  4.34500 -1.32400 43.89100
C  5.55700 -4.45600 45.61300
C  6.63300 -1.53900 44.07500
O  7.79500 -1.90100 44.29300
C  6.28100 -0.28000 43.25800
C  7.03400 0.89300 43.88500
O  6.57100 1.50300 44.82600
O  8.27800 1.05100 43.41800
C  9.19100 1.85900 44.26000
H  0.35300 3.09300 41.80900
H  -2.77600 -1.95300 43.64500
H  2.64300 -4.93900 45.46100
H  5.03500 2.57000 42.78900
H  3.05800 2.98700 40.73800
H  2.16500 4.03000 43.43400
H  2.63900 4.98100 42.06900
H  3.90900 4.39900 43.13800
H  6.36700 1.84200 41.14000
H  5.31200 3.02500 40.38900
H  4.09000 0.45800 39.83200
H  5.63500 -0.01200 40.04300
H  -3.36900 2.73300 41.46400
H  -1.70800 3.24000 40.96500
H  -2.63800 3.70600 42.47500
H  -4.80700 -1.57100 42.93800
H  -5.98800 -0.44600 43.51600
H  -4.55400 -0.87800 44.62600
H  -1.47500 -4.66100 43.45000
H  -0.14000 -4.31700 46.08900
H  -2.53500 -3.32700 45.88300
H  -2.38200 -5.07300 45.84500
H  -3.59700 -4.22700 44.80100
H  1.06800 -6.49100 44.39400
H  -0.65800 -6.73300 44.36600
H  0.41000 -6.39600 47.07900
H  1.20300 -7.76000 46.25500
H  -0.52600 -7.66000 46.34100
H  5.32400 -5.31800 44.98800
H  5.04800 -4.59600 46.56700
H  6.63500 -4.30200 45.63800
H  6.68400 -0.35500 42.24800
H  9.86800 2.49600 43.69000
H  9.71800 1.09900 44.83600
H  8.74200 2.60400 44.91700
Mg -9.56600 40.35700 42.46000
C  -8.29300 37.17900 41.48900
C  -6.79900 41.71700 41.01600
C  -11.03000 43.37900 42.73400
C  -12.59600 38.72500 43.39800
N  -7.77700 39.49900 41.24600
C  -7.47700 38.21100 41.01400
C  -5.98500 38.05100 40.54700
C  -5.47000 39.55000 40.42100
C  -6.69900 40.26400 40.83800
C  -4.23400 39.98200 41.25900
C  -5.53700 37.08400 39.33200
C  -4.03200 36.90500 39.15500
H  -3.48900 37.67800 37.99500
N  -8.94700 42.36600 42.07100
C  -7.80600 42.63900 41.46000
C  -7.66300 44.07500 41.47200
C  -8.84700 44.67000 42.02500
C  -9.73900 43.50300 42.29300
C  -6.39500 44.77200 40.93300
C  -9.10100 46.17200 42.19500
O  -8.25400 46.96700 41.87200
C  -10.38000 46.64900 42.80000
N  -11.53900 40.95100 43.00700
C  -11.88000 42.28800 43.05600
C  -13.36500 42.34100 43.30900
C  -13.79900 40.88000 43.59900
C  -12.52900 40.11200 43.35800
C  -13.79800 43.35200 44.41800
C  -15.01100 40.41100 42.67400
C  -15.95700 39.34600 43.17600
N  -10.32100 38.35000 42.59400
C  -11.54900 37.86600 42.98700
C  -11.50800 36.38200 42.94100
C  -10.26100 36.08400 42.39600
C  -9.56700 37.29400 42.19500
C  -12.59600 35.53200 43.32100
C  -9.36700 35.04900 41.89000
O  -9.60000 33.84900 41.82500
C  -8.10300 35.70600 41.35600
C  -6.94200 35.22600 42.18600
O  -6.77300 35.51600 43.34700
O  -6.10700 34.34100 41.51300
C  -4.93000 33.86000 42.22400
H  -5.86900 42.21200 40.73100
H  -11.61000 44.29800 42.62400
H  -13.52300 38.28200 43.76800
H  -5.38200 37.64400 41.35800
H  -5.26200 39.95900 39.43300
H  -4.29600 40.94900 41.75800
H  -3.38900 40.08100 40.57800
H  -4.01400 39.25200 42.03800
H  -5.80700 37.73900 38.50400
H  -6.09100 36.14700 39.27800
H  -3.93800 35.83500 38.97000
H  -3.42700 37.20800 40.00900
H  -6.32600 45.85600 41.02600
H  -6.04400 44.28500 40.02300
H  -5.67900 44.54100 41.72200
H  -10.35200 47.73700 42.84800
H  -10.60300 46.08100 43.70300
H  -11.17800 46.40100 42.09900
H  -13.76700 42.67700 42.35300
H  -14.01400 40.64000 44.64100
H  -12.92800 43.98500 44.59500
H  -14.20100 42.84700 45.29600
H  -14.63400 43.93200 44.02700
H  -14.64700 40.00200 41.73200
H  -15.69000 41.24500 42.50400
H  -15.58400 39.17200 44.18500
H  -15.83800 38.44600 42.57200
H  -17.00300 39.60500 43.01600
H  -12.75100 35.72300 44.38300
H  -12.41500 34.46800 43.16600
H  -13.44900 35.98900 42.81800
H  -7.98400 35.31900 40.34400
H  -4.37200 34.75600 42.49500
H  -4.33100 33.27400 41.52600
H  -5.30700 33.12800 42.93800

