158

Mg -11.72500 38.89500 42.17300
C  -10.26600 35.96600 40.98000
C  -9.33200 40.73600 40.49900
C  -13.52200 41.64700 42.66300
C  -14.67100 36.91200 42.94500
N  -10.11000 38.40500 40.89900
C  -9.54400 37.18200 40.73400
C  -8.17700 37.23700 40.04200
C  -7.76900 38.72900 40.06400
C  -9.13600 39.34000 40.57100
C  -6.57200 39.17900 41.03700
C  -8.46600 36.73800 38.58400
C  -7.45800 35.68800 38.00400
H  -6.39000 36.24700 37.01600
N  -11.45400 40.89700 41.68100
C  -10.38100 41.48300 40.99000
C  -10.45300 42.91100 41.09900
C  -11.65100 43.17200 41.82800
C  -12.32100 41.87100 42.03300
C  -9.43800 43.92000 40.51700
C  -12.20000 44.51900 42.35800
O  -11.55600 45.43900 42.00700
C  -13.37300 44.74400 43.25500
N  -13.83500 39.19700 42.64700
C  -14.19800 40.47200 42.97700
C  -15.65700 40.51900 43.40400
C  -16.11800 38.98000 43.35400
C  -14.81100 38.27200 42.94700
C  -15.80300 41.16200 44.79700
C  -17.32200 38.59300 42.48300
C  -17.15500 38.07400 41.03400
N  -12.32000 36.84400 42.15600
C  -13.51700 36.22800 42.47600
C  -13.34300 34.80000 42.32400
C  -12.03500 34.64100 41.81000
C  -11.53800 35.88000 41.61300
C  -14.40400 33.76800 42.70100
C  -11.00700 33.66600 41.36600
O  -11.03800 32.45300 41.37900
C  -9.74400 34.49400 40.91700
C  -8.76500 34.19600 42.03700
O  -7.71000 33.53700 41.97800
O  -9.16400 34.89100 43.10300
C  -8.13200 34.79800 44.16100
H  -8.42600 41.31000 40.29100
H  -14.11200 42.51300 42.97200
H  -15.54600 36.28200 43.11700
H  -7.48800 36.48000 40.41700
H  -7.61200 39.07600 39.04300
H  -5.69700 39.43900 40.44100
H  -6.22200 38.28000 41.54500
H  -6.75100 40.06100 41.65100
H  -8.50100 37.60500 37.92400
H  -9.47300 36.32700 38.50500
H  -8.04600 34.90400 37.52700
H  -6.92500 35.09600 38.74600
H  -8.41800 43.54000 40.57800
H  -9.40500 44.86300 41.06200
H  -9.65800 44.14100 39.47300
H  -13.15400 45.77100 43.54700
H  -13.33700 44.06300 44.10600
H  -14.34800 44.81000 42.77300
H  -16.15100 41.11700 42.63800
H  -16.36300 38.73700 44.38700
H  -14.95500 40.99000 45.46000
H  -16.67300 40.70200 45.26300
H  -15.93700 42.24100 44.72400
H  -17.92600 39.48900 42.33900
H  -17.79400 37.86200 43.13900
H  -17.68800 37.13000 41.14900
H  -16.16600 37.85100 40.63600
H  -17.75400 38.68000 40.35400
H  -13.94100 32.84100 42.36200
H  -15.36500 33.98000 42.23400
H  -14.63100 33.66900 43.76300
H  -9.39600 34.17600 39.93500
H  -8.28300 35.69600 44.75900
H  -7.12400 34.86100 43.75100
H  -8.14800 33.87700 44.74400
Mg 1.53600 42.01600 26.28000
C  3.78700 41.98900 29.12600
C  -0.99600 41.35700 28.36300
C  -0.14800 41.40900 23.57000
C  4.56900 42.08400 24.36200
N  1.44600 41.85900 28.50500
C  2.41000 41.92700 29.43900
C  1.76800 41.80300 30.81900
C  0.32000 41.27100 30.51000
C  0.23200 41.56700 29.05400
C  0.06600 39.77600 30.87100
C  1.84900 43.08800 31.72700
C  2.21200 42.91600 33.19200
H  1.80600 41.62400 33.86600
N  -0.29900 41.52100 26.05100
C  -1.24700 41.36000 26.99100
C  -2.51900 41.05200 26.40600
C  -2.24800 40.91400 24.98100
C  -0.85000 41.29100 24.78800
C  -3.82800 40.98800 27.20800
C  -3.25800 40.55300 23.94600
O  -3.02700 40.59900 22.73600
C  -4.61400 40.22400 24.45100
N  2.12700 41.93200 24.23300
C  1.17900 41.81600 23.28800
C  1.85500 41.96400 21.90600
C  3.28700 42.47600 22.25200
C  3.39000 42.10300 23.72400
C  1.85700 40.59200 21.17500
C  3.57100 44.01000 22.00000
C  4.58500 44.39500 20.93100
N  3.75200 41.99200 26.64500
C  4.80800 42.08400 25.73400
C  6.13200 42.24800 26.39600
C  5.77500 42.20100 27.76600
C  4.33400 42.07200 27.81000
C  7.46900 42.33000 25.78600
C  6.28300 42.19600 29.06900
O  7.40200 42.28100 29.46300
C  4.95400 42.21600 30.02200
C  5.18100 41.21100 31.09400
O  4.94900 39.97600 30.97800
O  5.62000 41.81600 32.19200
C  6.11500 40.88700 33.21800
H  -1.80000 40.97300 28.99400
H  -0.74000 41.20900 22.67500
H  5.43900 42.29100 23.73600
H  2.36100 41.04800 31.33600
H  -0.46000 41.76800 31.08600
H  -0.20000 39.15600 30.01500
H  -0.79700 39.68200 31.53000
H  0.88900 39.32600 31.42700
H  1.03000 43.79600 31.59600
H  2.66600 43.71900 31.37500
H  1.53700 43.60000 33.70700
H  3.29200 43.03200 33.27700
H  -3.76900 41.30600 28.24900
H  -4.11900 39.93700 27.21100
H  -4.60200 41.64100 26.80400
H  -5.12800 41.14000 24.73900
H  -4.61400 39.48000 25.24800
H  -5.19500 39.74000 23.66600
H  1.49900 42.85100 21.38300
H  3.99000 41.91300 21.63800
H  1.16600 39.88000 21.62800
H  2.79900 40.09300 21.40200
H  1.63000 40.57300 20.10900
H  3.97400 44.35700 22.95200
H  2.60500 44.48700 21.83300
H  5.39400 44.86800 21.48800
H  4.13800 45.09300 20.22300
H  4.92700 43.52200 20.37500
H  7.76200 43.37300 25.66800
H  7.59500 41.82500 24.82800
H  8.17000 41.85600 26.47300
H  4.89600 43.21300 30.45900
H  6.67200 40.10900 32.69500
H  5.38800 40.30600 33.78400
H  6.73100 41.47300 33.90000

