158

Mg -12.02800 37.66800 42.48300
C  -9.49600 35.21700 41.66600
C  -10.06000 39.97400 40.97400
C  -14.52400 39.87200 42.59700
C  -14.11700 35.01000 43.30900
N  -10.16900 37.49500 41.23600
C  -9.26000 36.44500 41.05600
C  -8.21000 36.80600 40.11300
C  -8.25600 38.35100 40.01400
C  -9.57100 38.64100 40.85400
C  -6.99100 39.12000 40.56000
C  -8.38200 35.97100 38.74500
C  -7.21200 35.02700 38.45000
H  -6.12500 35.54900 37.55400
N  -12.21900 39.69000 42.05100
C  -11.29700 40.43300 41.48800
C  -11.79500 41.83900 41.35300
C  -13.05800 41.83200 41.97000
C  -13.33600 40.44600 42.25200
C  -10.90200 43.07600 40.92500
C  -13.96100 43.00300 42.24500
O  -13.54200 44.14200 41.94900
C  -15.07600 42.89400 43.21300
N  -14.00800 37.52900 42.97300
C  -14.83500 38.59400 42.99700
C  -16.26500 38.11600 43.36600
C  -16.13700 36.62200 43.73300
C  -14.67300 36.34400 43.30200
C  -16.97400 38.92300 44.51400
C  -17.17300 35.70900 43.09000
C  -17.86800 34.63200 43.92600
N  -11.82400 35.54100 42.52400
C  -12.75500 34.62800 43.06200
C  -12.01300 33.41500 43.30500
C  -10.74900 33.58400 42.75900
C  -10.70800 34.89900 42.32600
C  -12.60100 32.20300 43.91000
C  -9.43400 32.95900 42.58600
O  -8.93200 31.87500 42.87700
C  -8.57800 34.02000 41.79600
C  -7.28300 34.33800 42.49300
O  -7.24500 34.78800 43.64500
O  -6.22000 33.90200 41.75300
C  -4.91900 34.03800 42.43100
H  -9.34800 40.74000 40.66100
H  -15.38800 40.53700 42.66400
H  -14.71200 34.14700 43.61500
H  -7.27800 36.44700 40.54800
H  -8.35000 38.46100 38.93400
H  -6.62000 39.71400 39.72500
H  -6.23000 38.37100 40.77900
H  -7.26200 39.71800 41.42900
H  -8.33800 36.66600 37.90600
H  -9.31700 35.44500 38.55000
H  -7.64500 34.12500 38.01700
H  -6.84000 34.75400 39.43800
H  -11.13200 43.46100 39.93100
H  -9.82700 42.94000 41.04600
H  -11.05700 43.84500 41.68200
H  -15.97300 42.72500 42.61800
H  -15.13200 43.81200 43.79800
H  -14.87100 42.09500 43.92600
H  -16.93700 38.24700 42.51700
H  -16.15800 36.44300 44.80800
H  -16.27600 39.64000 44.94700
H  -17.61300 38.31500 45.15500
H  -17.73500 39.59300 44.11300
H  -16.59300 35.18300 42.33100
H  -18.07000 36.23500 42.76300
H  -18.89900 34.87700 44.18000
H  -17.37400 34.58000 44.89700
H  -17.95000 33.67700 43.40600
H  -13.38500 32.34800 44.65300
H  -11.74100 31.69000 44.34000
H  -13.10500 31.67900 43.09800
H  -8.49200 33.58900 40.79800
H  -5.04100 33.78500 43.48400
H  -4.59500 35.07600 42.36500
H  -4.22700 33.34000 41.95700
Mg -6.14100 25.52300 25.65900
C  -4.55800 26.62500 28.46300
C  -7.91700 23.34700 27.63300
C  -7.59400 24.15100 22.81600
C  -4.51000 27.90800 23.72200
N  -6.27200 25.01400 27.82900
C  -5.50000 25.59100 28.80300
C  -5.95100 25.21000 30.19000
C  -6.63400 23.86000 29.83700
C  -6.97500 24.04900 28.36600
C  -5.82000 22.54200 30.07000
C  -6.83100 26.34600 30.76300
C  -6.90100 26.54200 32.20200
H  -6.09500 25.61100 33.06600
N  -7.53200 23.89700 25.30900
C  -8.17000 23.20300 26.27200
C  -9.10800 22.31400 25.66000
C  -8.83000 22.40400 24.26400
C  -7.97500 23.52600 24.04600
C  -10.00400 21.44200 26.50900
C  -9.30400 21.45400 23.16000
O  -9.06700 21.71800 21.97900
C  -10.17200 20.21700 23.49800
N  -5.99600 25.82900 23.57700
C  -6.69500 25.15800 22.61500
C  -6.40500 25.70500 21.18000
C  -5.66200 27.11000 21.49800
C  -5.35100 26.96300 23.03000
C  -5.51400 24.74500 20.32000
C  -6.38300 28.47300 20.99100
C  -5.63500 29.37100 19.94400
N  -4.68900 26.98700 25.96800
C  -4.13800 27.86200 25.12900
C  -3.20200 28.75400 25.86400
C  -3.36900 28.19200 27.18300
C  -4.31100 27.21100 27.20600
C  -2.19000 29.66800 25.20000
C  -2.82700 28.35100 28.53400
O  -2.00900 29.13000 29.00300
C  -3.62300 27.38500 29.37800
C  -2.66400 26.54400 30.13500
O  -2.14600 25.56400 29.69600
O  -2.45800 27.06800 31.42100
C  -1.49800 26.28900 32.25200
H  -8.46100 22.70600 28.33000
H  -8.12900 23.92300 21.89200
H  -4.19100 28.75200 23.10800
H  -5.11900 24.99600 30.86100
H  -7.49200 23.76400 30.50300
H  -5.54100 22.00600 29.16400
H  -6.40500 21.77200 30.57200
H  -4.85900 22.59700 30.58200
H  -7.87400 26.24000 30.46400
H  -6.59400 27.31000 30.31100
H  -7.91200 26.43900 32.59700
H  -6.68900 27.56900 32.50000
H  -9.89900 20.36000 26.43600
H  -11.02900 21.66500 26.21000
H  -10.11300 21.67900 27.56700
H  -10.31100 19.49000 22.69800
H  -11.09700 20.46600 24.01900
H  -9.59700 19.64600 24.22700
H  -7.36200 25.92200 20.70600
H  -4.67500 26.93700 21.07000
H  -4.84400 24.17200 20.96100
H  -4.89000 25.29000 19.61100
H  -6.21400 24.09800 19.79200
H  -6.42900 29.04400 21.91800
H  -7.33100 28.19800 20.53100
H  -6.11600 30.34400 19.84300
H  -5.63600 28.79700 19.01700
H  -4.65000 29.44900 20.40200
H  -1.75900 29.21600 24.30700
H  -1.34200 29.78900 25.87400
H  -2.53900 30.67400 24.96800
H  -4.26000 27.93800 30.06800
H  -2.09000 26.06200 33.13900
H  -0.64400 26.85700 32.62100
H  -1.03800 25.39300 31.83500

