158

Mg 25.05800 1.24200 30.13800
C  27.46900 1.14300 32.79200
C  22.63400 1.00000 32.49000
C  22.93600 1.15000 27.49500
C  27.78400 0.73100 27.91000
N  25.07100 1.10000 32.41300
C  26.19800 1.21300 33.29300
C  25.69000 1.40800 34.74700
C  24.12900 1.32900 34.66500
C  23.91500 1.09700 33.11100
C  23.40000 0.34100 35.59100
C  26.22000 2.64800 35.55700
C  26.39100 2.53200 37.11500
H  25.69000 3.62800 37.91300
N  23.13800 1.05500 30.03200
C  22.24500 1.01700 31.12300
C  20.85100 0.92600 30.61400
C  20.91300 0.98200 29.15800
C  22.37700 1.05500 28.82900
C  19.76100 0.80800 31.56500
C  19.78300 0.79900 28.26200
O  19.93600 0.68800 27.06900
C  18.35600 0.56000 28.77100
N  25.31200 0.75100 27.99300
C  24.27600 1.13100 27.11100
C  24.83600 1.36700 25.69900
C  26.34400 0.92800 25.85600
C  26.51300 0.84000 27.36800
C  24.12400 0.63000 24.57500
C  27.21400 2.06500 25.21400
C  27.38400 3.32900 26.06900
N  27.15700 1.08400 30.26600
C  28.10000 0.75300 29.29300
C  29.39200 0.50600 29.89200
C  29.20200 0.67400 31.26200
C  27.80500 0.94800 31.43200
C  30.63300 0.06900 29.19500
C  29.83900 0.56300 32.52700
O  30.90800 0.11200 32.84400
C  28.76900 0.95200 33.57600
C  28.77700 -0.00200 34.66100
O  28.55300 -1.18900 34.56400
O  29.06200 0.62100 35.86400
C  29.08700 -0.24300 37.03400
H  21.92000 1.05400 33.31400
H  22.29700 1.40500 26.64700
H  28.66100 0.74600 27.25900
H  26.06800 0.55800 35.31500
H  23.76500 2.34400 34.82900
H  23.01600 -0.57700 35.14600
H  22.58700 0.81900 36.13700
H  24.18500 0.08500 36.30300
H  25.45000 3.39600 35.37000
H  27.20900 3.03200 35.30600
H  27.38800 2.54700 37.55500
H  25.83000 1.63200 37.36800
H  19.92400 -0.15400 32.05000
H  18.72500 0.89300 31.23600
H  19.91900 1.65100 32.23800
H  17.65300 0.50100 27.93900
H  17.91200 1.32900 29.40300
H  18.25800 -0.29600 29.43800
H  24.76000 2.42800 25.45800
H  26.58300 -0.09200 25.55500
H  23.58000 -0.20000 25.02600
H  24.81700 0.10400 23.91900
H  23.50200 1.22400 23.90500
H  26.83100 2.35300 24.23500
H  28.16100 1.57700 24.98400
H  28.46900 3.39100 26.15300
H  26.89400 3.41100 27.03900
H  26.99300 4.12900 25.44100
H  31.32300 0.90100 29.05500
H  30.33800 -0.40700 28.25900
H  31.04400 -0.73500 29.80500
H  29.08800 1.88600 34.04000
H  29.10900 -1.31900 36.86600
H  28.21700 -0.07300 37.66900
H  29.92000 0.06500 37.66600
Mg 7.54300 54.49800 41.36200
C  6.92700 51.10500 40.43800
C  10.78800 54.19200 40.35000
C  7.74700 57.83800 41.54300
C  4.00900 54.69700 41.98300
N  8.60500 52.87800 40.31400
C  8.21400 51.60700 40.10700
C  9.30400 50.89400 39.28000
C  10.63800 51.61300 39.68200
C  10.01200 52.98300 40.22800
C  11.50400 50.93300 40.74300
C  9.00500 51.06300 37.74500
C  9.29900 49.78600 36.86800
H  8.77400 49.76400 35.43200
N  9.12200 55.83200 41.18100
C  10.38700 55.53000 40.72100
C  11.16600 56.71300 40.76400
C  10.36000 57.78200 41.18600
C  9.00500 57.20300 41.38300
C  12.66100 56.67400 40.35300
C  10.79200 59.13000 41.41300
O  11.99200 59.36200 41.29400
C  10.00400 60.26900 41.94400
N  6.03200 56.00100 41.71700
C  6.45700 57.33100 41.68400
C  5.18500 58.21400 41.77300
C  4.00600 57.21900 41.85700
C  4.68700 55.95000 41.83500
C  5.28000 59.41700 42.79500
C  2.99500 57.29800 40.66400
C  1.48600 57.35400 40.97900
N  5.81200 53.15200 41.46000
C  4.53600 53.39900 41.74100
C  3.84300 52.18400 41.71200
C  4.72300 51.23800 41.31500
C  5.93900 51.90900 40.98900
C  2.48000 51.98000 42.29800
C  4.96200 49.82400 41.02900
O  4.28100 48.80200 41.18100
C  6.35800 49.72100 40.28600
C  6.24800 49.32800 38.92300
O  5.68200 49.98600 38.07300
O  6.72200 48.02700 38.81100
C  6.41300 47.46600 37.45300
H  11.86200 54.19600 40.15500
H  7.81800 58.92700 41.58700
H  2.93400 54.60400 42.15100
H  9.16600 49.89200 39.68700
H  11.26000 51.77600 38.80100
H  11.71500 51.63000 41.55300
H  12.41300 50.46200 40.36800
H  10.81800 50.20700 41.17900
H  9.52300 51.92900 37.33300
H  7.94700 51.22500 37.53600
H  8.88100 48.94400 37.42000
H  10.37800 49.64300 36.81200
H  12.99800 57.61400 39.91600
H  12.94100 55.88400 39.65500
H  13.22300 56.44800 41.25900
H  9.61600 59.96200 42.91600
H  9.14000 60.59700 41.36700
H  10.60500 61.16200 42.11800
H  5.03000 58.74400 40.83300
H  3.46100 57.26500 42.79900
H  4.96900 60.29100 42.22400
H  6.27900 59.40600 43.23200
H  4.48300 59.38800 43.53800
H  3.18600 56.37200 40.12200
H  3.26700 58.09100 39.96800
H  1.06900 56.40500 40.64300
H  0.90800 58.09000 40.42000
H  1.34200 57.61200 42.02800
H  2.27600 50.91100 42.34600
H  1.77000 52.49100 41.64600
H  2.32000 52.48700 43.25000
H  6.95200 48.95600 40.78500
H  6.26900 46.44200 37.79800
H  7.25600 47.60200 36.77500
H  5.50600 47.83600 36.97500

