158

Mg 23.95800 -4.52500 45.78200
C  26.14200 -2.13900 44.26800
C  21.64600 -3.61700 43.58400
C  22.32800 -7.40300 46.53300
C  26.78800 -5.73300 47.58600
N  23.90300 -2.98300 44.13000
C  24.87200 -2.15100 43.65000
C  24.41100 -1.38100 42.40400
C  22.84900 -1.67100 42.45100
C  22.74900 -2.76600 43.50700
C  22.04600 -0.38300 42.93900
C  25.08600 -1.95200 41.11400
C  25.69400 -0.94000 40.16700
H  25.20500 -0.96300 38.72100
N  22.20900 -5.41900 45.12900
C  21.39400 -4.89800 44.21500
C  20.30500 -5.78500 43.95900
C  20.42400 -6.85200 44.93600
C  21.64300 -6.57100 45.63600
C  19.20100 -5.44100 43.03000
C  19.41900 -7.95200 45.08400
O  18.50400 -8.04300 44.24200
C  19.43700 -8.90400 46.29200
N  24.55500 -6.38900 46.88400
C  23.63400 -7.35700 47.09800
C  24.26800 -8.49500 47.86000
C  25.65200 -7.91600 48.35500
C  25.68600 -6.63800 47.52300
C  23.44100 -9.01200 49.11200
C  26.91000 -8.83200 48.10200
C  27.90400 -8.98700 49.31700
N  26.01900 -4.00200 45.98900
C  26.99900 -4.56000 46.82600
C  28.22400 -3.83700 46.60100
C  27.92700 -2.82800 45.64500
C  26.61600 -3.01700 45.23200
C  29.51400 -4.21800 47.27300
C  28.44500 -1.65600 44.97300
O  29.58500 -1.16300 45.05400
C  27.33700 -1.23400 44.01000
C  27.14200 0.20500 44.16000
O  26.36800 0.72100 44.95300
O  27.85800 0.92400 43.30400
C  27.43300 2.37700 43.23300
H  20.86400 -3.24700 42.91700
H  21.81400 -8.30900 46.85800
H  27.60400 -6.11800 48.20100
H  24.53800 -0.33000 42.66200
H  22.39700 -1.95600 41.50100
H  22.63700 0.52700 43.03800
H  21.54300 -0.57000 43.88800
H  21.38600 -0.24700 42.08200
H  24.40000 -2.55100 40.51500
H  25.94700 -2.55500 41.40300
H  26.77700 -1.06000 40.13200
H  25.46400 0.05800 40.54100
H  18.26700 -5.65800 43.55000
H  19.38200 -5.99400 42.10900
H  19.12600 -4.37400 42.82300
H  19.73300 -8.38600 47.20400
H  20.02700 -9.79600 46.07700
H  18.38400 -9.18200 46.34000
H  24.47200 -9.27900 47.13100
H  25.62300 -7.64000 49.40900
H  22.89000 -9.92800 48.89900
H  22.75000 -8.24400 49.45900
H  24.09600 -9.19600 49.96400
H  27.50600 -8.50900 47.24800
H  26.54300 -9.80900 47.78800
H  28.78200 -8.44700 48.96300
H  28.15200 -10.03400 49.49600
H  27.51700 -8.51100 50.21900
H  29.23100 -4.49600 48.28800
H  30.30300 -3.47200 47.18400
H  29.73100 -5.11400 46.69200
H  27.59200 -1.37900 42.96000
H  28.32300 3.00500 43.26900
H  26.73500 2.80800 43.95000
H  27.14500 2.35500 42.18200
Mg -12.91700 16.26300 41.74800
C  -10.16400 14.29000 41.03100
C  -11.40000 18.92500 40.16100
C  -15.96600 17.86700 41.59500
C  -14.60000 13.39000 42.75000
N  -11.00500 16.54800 40.62500
C  -10.00800 15.60900 40.49500
C  -8.74800 16.24800 39.90700
C  -9.14300 17.73100 39.70000
C  -10.54200 17.78600 40.30400
C  -8.19500 18.72900 40.48000
C  -8.08100 15.56400 38.68100
C  -6.60100 15.18700 38.83300
H  -5.59300 15.82200 37.78900
N  -13.56500 18.18000 41.24600
C  -12.81500 19.08700 40.49900
C  -13.55900 20.26500 40.31300
C  -14.90200 20.01900 40.90200
C  -14.83300 18.64100 41.28900
C  -13.00300 21.53400 39.61800
C  -15.97400 20.93400 41.08300
O  -15.85600 22.04800 40.58700
C  -17.25400 20.67300 41.91100
N  -15.03000 15.70300 42.15300
C  -16.09000 16.46200 41.90400
C  -17.46100 15.81100 42.21300
C  -16.92400 14.37200 42.61400
C  -15.45200 14.47500 42.50700
C  -18.26400 16.59800 43.26200
C  -17.58700 13.22200 41.91200
C  -18.59900 12.39400 42.74500
N  -12.48700 14.20800 42.06800
C  -13.23900 13.15200 42.49700
C  -12.44900 11.94400 42.46400
C  -11.28200 12.37400 41.95000
C  -11.32300 13.73300 41.64700
C  -12.91000 10.59400 42.86700
C  -9.93000 11.87400 41.54000
O  -9.41900 10.75700 41.55000
C  -9.13600 13.11400 41.02900
C  -7.84200 13.50800 41.69800
O  -7.80100 14.20000 42.71200
O  -6.78500 12.87700 41.10100
C  -5.48000 13.30800 41.64200
H  -10.90800 19.75600 39.64900
H  -16.94800 18.32700 41.46600
H  -15.09600 12.42400 42.86900
H  -8.03800 16.11300 40.72300
H  -9.13500 17.99100 38.64100
H  -8.84600 19.53500 40.81900
H  -7.41500 19.17900 39.86600
H  -7.80400 18.32300 41.41300
H  -8.15500 16.05000 37.70900
H  -8.65000 14.65500 38.48700
H  -6.66900 14.13400 38.56000
H  -6.25600 15.44100 39.83600
H  -13.73500 22.22900 39.20600
H  -12.21800 21.27000 38.90900
H  -12.42700 22.18500 40.27600
H  -17.91600 20.00000 41.36500
H  -17.70400 21.64700 42.10300
H  -17.16900 20.14400 42.86100
H  -18.00300 15.69700 41.27400
H  -17.01400 14.08600 43.66200
H  -17.94600 17.57400 43.62900
H  -18.54500 15.99900 44.12800
H  -19.16700 16.85900 42.71000
H  -16.76300 12.59300 41.57400
H  -18.19400 13.66000 41.12000
H  -18.34100 11.44500 43.21400
H  -19.40100 12.01800 42.11000
H  -18.99700 13.00500 43.55600
H  -13.04000 9.95400 41.99400
H  -13.91100 10.62600 43.29800
H  -12.09200 10.23100 43.48900
H  -8.84500 13.06400 39.98000
H  -5.49800 14.37800 41.85200
H  -4.76600 13.04800 40.86100
H  -5.17500 12.73300 42.51600

