158

Mg 40.23500 9.84500 29.07600
C  42.23800 11.05100 31.78400
C  38.07800 8.58700 31.38200
C  38.45100 8.75600 26.42200
C  42.84200 10.63700 26.88800
N  40.23000 9.74200 31.35600
C  41.06900 10.42600 32.24500
C  40.51800 10.28000 33.67100
C  39.17000 9.50900 33.52700
C  39.18600 9.25100 32.03100
C  39.00600 8.17800 34.34900
C  40.45000 11.67100 34.42300
C  39.49400 11.85100 35.66400
H  40.30600 12.42800 36.94700
N  38.47500 8.89200 28.92900
C  37.76900 8.36300 29.99600
C  36.56400 7.66000 29.49800
C  36.50400 7.82900 28.06300
C  37.81900 8.54000 27.73700
C  35.56600 7.00600 30.35800
C  35.55700 7.27800 27.02100
O  35.67000 7.52800 25.82800
C  34.40100 6.45900 27.60100
N  40.65000 9.54400 26.95300
C  39.71400 9.21000 26.08300
C  40.19700 9.39000 24.58700
C  41.61000 9.99300 24.84000
C  41.70900 10.09800 26.32500
C  40.07300 8.15200 23.72400
C  42.00500 11.34700 24.06400
C  41.52800 12.66500 24.62900
N  42.14600 10.54600 29.24200
C  43.06500 10.93700 28.25300
C  44.09700 11.77000 28.84900
C  43.76800 11.81200 30.14100
C  42.61200 11.04900 30.38000
C  45.30800 12.32300 28.27100
C  44.30500 12.31200 31.42600
O  45.38900 12.75400 31.68900
C  43.25400 11.93200 32.52200
C  43.92900 11.19600 33.58100
O  44.40100 10.08500 33.51100
O  44.02800 12.01700 34.66700
C  44.55900 11.39500 35.86800
H  37.25600 8.30900 32.04400
H  37.73400 8.62700 25.60900
H  43.59000 10.82700 26.11500
H  41.23900 9.59800 34.12100
H  38.33100 10.17500 33.72900
H  38.23600 8.27100 35.11500
H  39.95600 8.00900 34.85700
H  38.98500 7.26600 33.75200
H  40.06900 12.45000 33.76300
H  41.47000 12.02600 34.57400
H  39.03100 10.89400 35.90100
H  38.64200 12.49400 35.44100
H  34.54500 7.38700 30.37400
H  35.78600 7.08400 31.42200
H  35.55500 5.94300 30.11600
H  33.70500 6.97600 28.26200
H  34.85200 5.61300 28.12100
H  33.76900 6.10100 26.78900
H  39.49900 10.13200 24.20000
H  42.37800 9.27100 24.56200
H  41.06400 7.89000 23.35200
H  39.50300 8.34600 22.81600
H  39.72100 7.33400 24.35200
H  41.58200 11.26100 23.06300
H  43.09500 11.32500 24.08600
H  40.95300 12.51700 25.54300
H  40.96400 13.24700 23.90000
H  42.43800 13.23900 24.80400
H  45.52700 13.28700 28.73000
H  45.35000 12.38100 27.18400
H  46.10800 11.67700 28.63100
H  42.90600 12.92800 32.79700
H  44.32800 10.33900 36.00500
H  44.29900 11.99700 36.73900
H  45.64300 11.48600 35.79600
Mg -12.03000 15.88000 42.70500
C  -8.84000 14.56000 41.76900
C  -11.08000 18.89300 41.49800
C  -15.35700 16.75800 42.75300
C  -12.97900 12.45200 43.53700
N  -10.19700 16.57900 41.78600
C  -8.94700 15.93600 41.72600
C  -7.77900 16.94200 41.39000
C  -8.55000 18.33700 41.62200
C  -10.03100 17.94500 41.49900
C  -8.26800 18.97800 43.01400
C  -7.16900 16.75300 39.98900
C  -5.65800 16.72800 39.71500
H  -5.33800 15.51800 38.76200
N  -13.07100 17.58900 42.23700
C  -12.44800 18.70900 41.68500
C  -13.41100 19.64300 41.36400
C  -14.73700 19.06800 41.69500
C  -14.43500 17.77300 42.25400
C  -13.15200 20.94900 40.72700
C  -16.13000 19.68500 41.53900
O  -16.20100 20.86200 41.13900
C  -17.36400 18.92800 41.84100
N  -13.83600 14.85500 43.35500
C  -15.10400 15.46800 43.23900
C  -16.17500 14.54200 43.67400
C  -15.43400 13.16000 43.91100
C  -13.96700 13.49300 43.62500
C  -17.19400 15.08000 44.77100
C  -16.04800 11.92500 43.20000
C  -15.65300 11.76500 41.74900
N  -11.13800 13.92000 42.74600
C  -11.69100 12.67200 43.06500
C  -10.69800 11.67900 42.94000
C  -9.54300 12.35000 42.46100
C  -9.89600 13.67900 42.27000
C  -10.92900 10.23900 43.33500
C  -8.14100 12.23400 42.10600
O  -7.40300 11.32300 42.12300
C  -7.65200 13.62400 41.65200
C  -6.56300 13.87000 42.56500
O  -6.66700 13.90500 43.79600
O  -5.33000 13.99800 41.92000
C  -4.16300 14.14900 42.85300
H  -10.85600 19.96100 41.45100
H  -16.37300 17.11200 42.94200
H  -13.29800 11.45600 43.85200
H  -7.05000 16.80700 42.18900
H  -8.22100 19.01100 40.83100
H  -7.29900 18.71100 43.43700
H  -9.02300 18.84700 43.78900
H  -8.21000 20.06100 42.91000
H  -7.58600 17.39600 39.21300
H  -7.48500 15.73600 39.75800
H  -5.08300 16.58600 40.63000
H  -5.33600 17.63400 39.20100
H  -13.93200 21.17800 40.00100
H  -12.29200 21.01800 40.06100
H  -13.17000 21.84800 41.34200
H  -17.32200 18.03800 41.21300
H  -18.07800 19.68900 41.52400
H  -17.41300 18.84700 42.92700
H  -16.73700 14.32500 42.76600
H  -15.40200 12.94400 44.97900
H  -18.16700 14.66500 44.50800
H  -17.35300 16.15300 44.87300
H  -16.98000 14.73100 45.78200
H  -17.11500 11.88800 43.42200
H  -15.59500 11.07400 43.70900
H  -15.22100 12.73300 41.49300
H  -16.46800 11.47400 41.08600
H  -14.83800 11.04900 41.65100
H  -10.06400 9.58100 43.25400
H  -11.77300 9.82900 42.78000
H  -11.28700 10.16000 44.36200
H  -7.28800 13.57500 40.62600
H  -4.36100 13.47100 43.68300
H  -4.13100 15.18200 43.19900
H  -3.25600 13.92900 42.28900

