158

Mg -0.11400 7.33600 27.61500
C  0.67900 9.85700 30.10500
C  0.04900 5.11500 30.17900
C  -0.84900 5.03900 25.44000
C  0.42100 9.67400 25.15300
N  0.29800 7.56900 29.90000
C  0.55900 8.62600 30.69700
C  0.87600 8.26300 32.11200
C  0.97400 6.72100 32.08300
C  0.46200 6.42900 30.56000
C  2.37800 6.14700 32.35700
C  -0.13100 8.84400 33.21500
C  0.44000 8.73500 34.65000
H  -0.34100 7.89900 35.58600
N  -0.42200 5.31300 27.82700
C  -0.39300 4.60100 28.97600
C  -0.77500 3.24800 28.71400
C  -0.79500 3.16500 27.32100
C  -0.76500 4.54000 26.80100
C  -0.96000 2.17100 29.81000
C  -1.00300 1.98200 26.43400
O  -0.98700 1.97000 25.22200
C  -1.40700 0.63600 27.10000
N  -0.07000 7.25700 25.55500
C  -0.44400 6.22200 24.84600
C  -0.63400 6.54800 23.30100
C  0.15800 7.88500 23.27200
C  0.16400 8.31100 24.73500
C  -0.07000 5.43800 22.36000
C  -0.46100 8.89700 22.20300
C  -1.79000 9.57400 22.39100
N  0.50700 9.34900 27.58300
C  0.61900 10.19400 26.45400
C  0.86000 11.50700 26.90900
C  0.92400 11.48300 28.31100
C  0.68300 10.16000 28.68800
C  1.09500 12.67800 26.03800
C  1.12200 12.29100 29.51600
O  1.28400 13.48200 29.72200
C  1.03200 11.28000 30.66500
C  2.33700 11.26300 31.42700
O  3.28000 10.54500 31.23200
O  2.24600 12.13800 32.42500
C  3.30600 12.06400 33.37700
H  0.17800 4.41900 31.01100
H  -1.22900 4.29000 24.74300
H  0.68000 10.42600 24.40500
H  1.77600 8.76700 32.46600
H  0.25400 6.20900 32.72100
H  3.20800 6.84800 32.26600
H  2.60800 5.37800 31.62000
H  2.48200 5.94900 33.42400
H  -1.08900 8.32900 33.14600
H  -0.29600 9.90200 33.01600
H  0.53900 9.74200 35.05700
H  1.43700 8.29700 34.64000
H  -0.09800 1.55300 30.06000
H  -1.81400 1.59900 29.44700
H  -1.28600 2.71000 30.69900
H  -0.73800 0.44700 27.93900
H  -1.39500 -0.13800 26.33300
H  -2.35600 0.81300 27.60700
H  -1.69700 6.70400 23.11500
H  1.21700 7.66400 23.14100
H  0.57500 5.91800 21.62300
H  -0.94100 4.96000 21.91100
H  0.44200 4.64400 22.90400
H  -0.43100 8.51100 21.18400
H  0.35500 9.61900 22.23900
H  -2.41600 9.45500 21.50700
H  -1.78400 10.63700 22.63000
H  -2.37300 8.97600 23.09200
H  1.20900 13.62100 26.57200
H  0.17400 12.67700 25.45400
H  1.98900 12.52100 25.43600
H  0.16400 11.71500 31.16100
H  3.51400 13.09400 33.66600
H  4.26300 11.59900 33.13900
H  2.93500 11.57600 34.27800
Mg 8.21400 3.33000 28.75300
C  9.94900 1.92900 31.63700
C  6.55400 5.23400 30.80100
C  6.55700 4.39100 26.07100
C  9.46400 0.52500 26.88800
N  8.13200 3.30900 31.00600
C  8.98300 2.84600 31.95800
C  8.69100 3.51600 33.30200
C  7.42300 4.36600 33.02900
C  7.36600 4.30400 31.47500
C  6.16700 3.90200 33.86800
C  9.98400 4.08600 33.94600
C  9.72800 4.96100 35.18400
H  10.59200 4.49800 36.40900
N  6.73400 4.64200 28.48000
C  6.21500 5.34200 29.49000
C  5.14700 6.15100 28.89200
C  5.09700 5.85900 27.46300
C  6.19600 4.93300 27.27500
C  4.21000 7.03300 29.69100
C  4.14200 6.30300 26.41700
O  4.22600 5.94400 25.27900
C  2.97900 7.14100 26.84600
N  8.01400 2.61400 26.79700
C  7.35100 3.28800 25.81900
C  7.55900 2.60600 24.43200
C  8.36900 1.34300 24.76200
C  8.56200 1.41900 26.28100
C  6.44600 2.26500 23.41600
C  9.72600 1.25000 24.03700
C  10.07600 -0.11200 23.39100
N  9.47000 1.64800 29.11900
C  9.96900 0.69100 28.21800
C  10.88700 -0.18400 28.88300
C  10.98100 0.39300 30.18400
C  10.05200 1.40000 30.32200
C  11.69500 -1.28700 28.33100
C  11.58800 0.15600 31.45300
O  12.42900 -0.69500 31.73400
C  11.00700 1.23900 32.52400
C  10.45600 0.37700 33.54200
O  9.74600 -0.62900 33.39800
O  10.92100 0.79300 34.73400
C  10.50500 -0.05600 35.82500
H  6.13100 5.95000 31.50800
H  6.01500 4.76200 25.19800
H  9.87000 -0.29600 26.29300
H  8.47100 2.64300 33.91800
H  7.79300 5.35300 33.30900
H  5.50400 3.47800 33.11300
H  5.73000 4.83900 34.21400
H  6.56000 3.23100 34.63200
H  10.63800 4.63000 33.26400
H  10.66100 3.30000 34.27900
H  8.70600 4.94000 35.56200
H  9.91000 5.98800 34.86600
H  3.20300 6.63600 29.56300
H  4.14100 8.02500 29.24500
H  4.44200 7.21400 30.74000
H  2.24100 6.53100 27.36700
H  2.58200 7.60300 25.94200
H  3.34900 8.01700 27.37900
H  8.20500 3.34500 23.95800
H  7.71400 0.49000 24.58500
H  5.56100 2.70000 23.88000
H  6.31700 1.24900 23.04100
H  6.61000 2.86300 22.52000
H  10.53600 1.55400 24.70000
H  9.89600 2.10400 23.38100
H  9.36700 -0.90100 23.64200
H  11.04700 -0.47000 23.73300
H  10.19200 0.06900 22.32200
H  12.70900 -1.27800 28.73300
H  11.55400 -1.41100 27.25700
H  11.32200 -2.21500 28.76300
H  11.84100 1.90400 32.74900
H  10.88700 -1.07500 35.75100
H  9.42100 -0.16300 35.85900
H  10.66900 0.41200 36.79600

