158

Mg 49.38100 34.59000 27.22000
C  47.42600 33.81600 29.98100
C  50.00900 37.56600 28.70100
C  51.16100 35.64300 24.37200
C  48.24100 31.95500 25.49400
N  48.82200 35.45300 29.27800
C  48.05600 35.00000 30.27600
C  47.82900 35.98400 31.39500
C  48.49000 37.26300 30.81300
C  49.13900 36.75400 29.50100
C  47.63000 38.56400 30.62900
C  48.48500 35.54300 32.75100
C  47.43500 35.38300 33.86000
H  47.30800 36.64000 34.77400
N  50.52200 36.29400 26.67900
C  50.69200 37.37900 27.46600
C  51.55600 38.28300 26.81200
C  51.95000 37.79100 25.55300
C  51.23100 36.49100 25.50900
C  51.88600 39.61800 27.39900
C  52.78900 38.47100 24.49200
O  53.03400 37.94700 23.42100
C  53.40100 39.76800 24.74300
N  49.57800 33.99900 25.21400
C  50.46800 34.49300 24.25900
C  50.40000 33.67700 22.95300
C  49.62800 32.41700 23.40200
C  49.09200 32.78800 24.76900
C  49.81700 34.55500 21.79400
C  50.40500 31.06400 23.37900
C  50.38900 30.29400 22.02600
N  48.15300 33.11800 27.61300
C  47.85300 32.03400 26.86900
C  47.04800 31.09900 27.61200
C  46.73100 31.87800 28.73300
C  47.52500 33.06300 28.77800
C  46.57500 29.75200 27.17800
C  45.88100 31.92700 29.92500
O  45.04700 31.11600 30.33900
C  46.19600 33.17800 30.72300
C  46.68200 32.65600 31.95000
O  47.83300 32.31100 32.16300
O  45.59800 32.43200 32.83000
C  45.86700 31.98000 34.20600
H  50.14500 38.58500 29.06700
H  51.81300 35.78300 23.50800
H  47.88200 31.04900 25.00300
H  46.74800 36.08600 31.49000
H  49.38100 37.46000 31.40900
H  48.30700 39.37500 30.89700
H  46.73500 38.52200 31.25000
H  47.19900 38.46700 29.63200
H  49.07200 36.33100 33.22400
H  49.11100 34.65900 32.63700
H  47.75700 34.62500 34.57400
H  46.46100 35.10000 33.46100
H  52.81800 39.65300 27.96400
H  51.08400 39.89800 28.08200
H  51.84000 40.46800 26.71800
H  54.17600 39.78400 25.50900
H  52.59900 40.50200 24.82500
H  53.89600 40.04000 23.81000
H  51.42300 33.42900 22.67200
H  48.73800 32.38200 22.77400
H  49.53200 35.54800 22.14200
H  48.89400 34.10900 21.42300
H  50.57500 34.59700 21.01200
H  50.04900 30.36300 24.13400
H  51.44600 31.27500 23.62300
H  49.89600 29.32400 22.08800
H  51.39400 30.25500 21.60600
H  49.84100 30.86500 21.27600
H  46.71000 29.11200 28.05000
H  47.33200 29.43900 26.45900
H  45.50500 29.70900 26.97400
H  45.33300 33.83300 30.84200
H  45.20000 31.12700 34.33200
H  45.56000 32.72900 34.93500
H  46.90800 31.68500 34.34500
Mg -2.11200 34.99500 27.38400
C  -3.79300 33.59100 30.07500
C  -1.00500 37.44100 29.56300
C  -0.58000 36.33200 24.74500
C  -3.64700 32.58200 25.18200
N  -2.47500 35.51700 29.63700
C  -3.02800 34.67400 30.54400
C  -2.72700 35.15500 31.91000
C  -2.17800 36.64000 31.69200
C  -1.82500 36.52000 30.20900
C  -3.24700 37.72400 32.02000
C  -1.85800 34.24200 32.83300
C  -1.84900 34.71000 34.30900
H  -2.62700 33.88200 35.27200
N  -0.97500 36.71700 27.16500
C  -0.54300 37.58900 28.21100
C  0.22100 38.65000 27.53700
C  0.47600 38.26900 26.20300
C  -0.38300 37.07400 25.95100
C  0.84400 39.75200 28.42200
C  1.28800 38.94200 25.10500
O  1.25200 38.60000 23.89900
C  2.00300 40.16500 25.45200
N  -2.15800 34.53700 25.25300
C  -1.35200 35.28200 24.41300
C  -1.42400 34.68700 22.98600
C  -2.29100 33.42400 23.16500
C  -2.80400 33.51900 24.62500
C  -1.91200 35.70800 21.92700
C  -1.54400 32.16400 22.83800
C  -2.16700 31.23500 21.79600
N  -3.54000 33.53200 27.47700
C  -4.10400 32.71100 26.53700
C  -5.05000 31.80500 27.12100
C  -5.00700 32.09400 28.53900
C  -4.07100 33.20800 28.68300
C  -5.75700 30.78000 26.35900
C  -5.29400 31.64600 29.88900
O  -5.90500 30.64000 30.27200
C  -4.72400 32.67100 30.92000
C  -5.78400 33.36800 31.69500
O  -6.23700 34.51100 31.68700
O  -6.07300 32.38600 32.61500
C  -7.00500 32.75700 33.65200
H  -0.53200 38.09800 30.29600
H  -0.05700 36.82800 23.92400
H  -4.12300 31.90500 24.47000
H  -3.74100 35.19900 32.30600
H  -1.23500 36.82500 32.20800
H  -4.09900 37.32700 32.57200
H  -3.57400 38.26800 31.13400
H  -2.72200 38.44500 32.64600
H  -0.82900 34.17200 32.48000
H  -2.20600 33.21000 32.77400
H  -2.27000 35.71500 34.31200
H  -0.83700 34.80500 34.70300
H  0.28400 40.67700 28.28300
H  1.88100 39.90600 28.12200
H  0.87200 39.38400 29.44700
H  1.20200 40.87500 25.65800
H  2.49200 40.49200 24.53400
H  2.71600 39.96600 26.25200
H  -0.38500 34.45100 22.75500
H  -3.06500 33.51500 22.40400
H  -2.93800 35.48700 21.63300
H  -1.26000 35.67800 21.05300
H  -1.84000 36.71100 22.34600
H  -1.28100 31.73300 23.80300
H  -0.56500 32.38400 22.41100
H  -1.47600 31.15600 20.95700
H  -3.16400 31.55600 21.49400
H  -2.30200 30.22700 22.18900
H  -6.33200 31.32000 25.60700
H  -6.40700 30.37700 27.13500
H  -5.06300 30.08200 25.89000
H  -4.06100 32.09100 31.56100
H  -6.71200 33.44800 34.44200
H  -7.41800 31.86300 34.12000
H  -7.89900 33.16300 33.17900

