158

Mg 26.45400 50.09700 26.44800
C  24.66200 51.56500 29.03300
C  28.90100 49.15000 28.62700
C  28.25000 49.12200 23.79400
C  24.28600 51.84900 24.25200
N  26.77900 50.33600 28.55200
C  25.80700 50.86400 29.44200
C  26.28100 50.58500 30.88100
C  27.71800 49.94100 30.71000
C  27.84500 49.79400 29.21300
C  28.93500 50.76900 31.21700
C  25.31800 49.62600 31.64400
C  25.10100 49.94500 33.08100
H  25.97300 50.82400 33.87500
N  28.27000 49.14200 26.23400
C  29.12500 48.83600 27.24900
C  30.26400 48.11700 26.73000
C  30.02900 47.94400 25.31800
C  28.85500 48.81500 25.04600
C  31.37500 47.58300 27.63300
C  30.77000 47.17600 24.29900
O  30.65000 47.36200 23.12500
C  31.67500 46.21800 24.81400
N  26.30600 50.57200 24.30600
C  27.06500 49.76700 23.49800
C  26.63800 49.86900 22.07500
C  25.41200 50.84200 22.14400
C  25.27200 51.16000 23.63600
C  27.74300 50.26700 21.01200
C  24.16500 50.05900 21.68800
C  23.09900 50.87500 20.80100
N  24.77200 51.26300 26.59200
C  24.03800 51.96800 25.64600
C  22.95900 52.74500 26.32100
C  23.12700 52.55200 27.63500
C  24.27300 51.78400 27.74900
C  21.86600 53.52300 25.61200
C  22.60800 52.82600 28.95500
O  21.66000 53.57700 29.23800
C  23.59900 52.11200 30.03400
C  23.99600 53.25900 30.94700
O  24.87400 54.06900 30.73800
O  23.21200 53.26100 32.11500
C  23.74200 54.22100 33.13300
H  29.61500 48.86900 29.40400
H  28.77600 48.75500 22.91000
H  23.60200 52.31700 23.54200
H  26.30300 51.56400 31.35900
H  27.80000 49.05300 31.33700
H  29.53100 51.12900 30.37800
H  29.46500 50.09500 31.88900
H  28.64400 51.68100 31.73900
H  25.64000 48.58500 31.66000
H  24.28300 49.58100 31.30800
H  24.81800 49.05400 33.64100
H  24.15100 50.47700 33.10600
H  31.41000 48.03200 28.62600
H  32.33000 48.04400 27.38100
H  31.31800 46.49500 27.67300
H  31.16800 45.52200 25.48300
H  32.56800 46.67200 25.24300
H  32.02700 45.58800 23.99800
H  26.34000 48.85900 21.79400
H  25.54700 51.75500 21.56400
H  28.47300 50.96700 21.41800
H  27.26100 50.65900 20.11600
H  28.38300 49.41400 20.79000
H  23.86000 49.49500 22.57000
H  24.42200 49.28100 20.96800
H  23.65600 51.72700 20.41100
H  22.22600 51.07900 21.42100
H  22.78300 50.33900 19.90600
H  21.85200 53.44500 24.52500
H  22.04400 54.57700 25.82700
H  20.91100 53.11400 25.94000
H  23.09100 51.26000 30.48700
H  24.70900 53.95000 33.55800
H  23.10200 54.24000 34.01500
H  23.80600 55.21500 32.69200
Mg -5.09600 25.64900 25.91700
C  -3.87200 26.93300 28.91200
C  -6.98100 23.63800 27.73500
C  -5.49000 23.81200 23.10800
C  -2.78300 27.66700 24.20800
N  -5.28100 25.20800 28.11500
C  -4.85400 25.99500 29.14400
C  -5.39800 25.50900 30.52500
C  -6.36800 24.33500 30.14000
C  -6.18000 24.37800 28.55900
C  -6.03500 22.93700 30.73500
C  -6.15500 26.58200 31.30100
C  -5.87400 26.76900 32.78400
H  -5.43800 25.61100 33.65100
N  -6.14800 23.94400 25.48500
C  -6.94400 23.40300 26.39000
C  -7.77900 22.41500 25.72100
C  -7.19300 22.22600 24.41900
C  -6.23300 23.34300 24.27500
C  -8.99100 21.76400 26.41600
C  -7.50900 21.19700 23.31100
O  -6.93600 21.20900 22.27600
C  -8.47200 20.11600 23.75500
N  -4.23100 25.69700 23.99400
C  -4.66800 24.88100 23.00800
C  -3.94000 25.23600 21.71100
C  -3.26800 26.59400 22.02700
C  -3.50600 26.72200 23.47800
C  -2.94000 24.04900 21.26200
C  -3.92600 27.81200 21.36200
C  -3.03800 28.90400 20.76000
N  -3.63700 27.07500 26.33000
C  -2.84700 27.86900 25.55900
C  -2.02600 28.73100 26.43200
C  -2.38000 28.38500 27.74300
C  -3.37300 27.43200 27.62000
C  -0.99300 29.74300 26.01900
C  -2.19000 28.68500 29.08200
O  -1.43800 29.48800 29.65900
C  -3.09000 27.74300 29.94700
C  -2.16000 26.95200 30.86700
O  -1.27100 26.18600 30.55900
O  -2.29800 27.45900 32.15300
C  -1.39200 26.93500 33.15800
H  -7.66600 23.03500 28.33400
H  -5.75200 23.27800 22.19200
H  -2.15200 28.38300 23.67700
H  -4.58000 25.27300 31.20500
H  -7.40900 24.51300 30.40700
H  -6.96200 22.37900 30.86400
H  -5.57200 23.03000 31.71800
H  -5.34600 22.33600 30.14200
H  -7.22900 26.39700 31.26400
H  -5.86900 27.53500 30.85500
H  -6.80500 27.08000 33.25900
H  -5.25100 27.65000 32.93700
H  -9.84700 22.10100 25.83200
H  -9.15500 22.16500 27.41700
H  -8.89200 20.67900 26.41200
H  -8.51800 19.40200 22.93300
H  -9.46500 20.54500 23.88600
H  -8.03000 19.59700 24.60500
H  -4.77000 25.36400 21.01600
H  -2.20300 26.56000 21.79600
H  -2.92000 23.39600 22.13400
H  -1.94800 24.37500 20.94800
H  -3.34100 23.55700 20.37600
H  -4.49400 28.29400 22.15700
H  -4.68100 27.46800 20.65500
H  -2.98000 28.89600 19.67200
H  -1.99600 28.71900 21.02200
H  -3.31000 29.92900 21.01200
H  -0.49600 29.35900 25.12800
H  -0.21200 29.86200 26.77000
H  -1.44700 30.68500 25.71000
H  -3.75700 28.42400 30.47600
H  -1.68000 25.94700 33.51700
H  -1.16700 27.51400 34.05300
H  -0.38100 26.95400 32.75000

