158

Mg 54.06200 24.59400 44.20300
C  51.64900 26.95500 43.41000
C  51.86000 22.17300 43.16200
C  56.66500 22.28700 44.10400
C  56.32400 27.16600 44.67000
N  52.08100 24.57700 43.28900
C  51.24400 25.61400 43.11400
C  49.91900 25.21900 42.48000
C  49.88600 23.75000 42.96200
C  51.40600 23.45800 43.16400
C  49.13600 23.48400 44.32400
C  49.90600 25.38700 40.93600
C  48.56100 25.64600 40.28300
H  48.36500 25.39900 38.83600
N  54.22900 22.47500 43.74500
C  53.18500 21.68000 43.29100
C  53.66500 20.35900 42.97200
C  55.08700 20.35300 43.12800
C  55.42600 21.70200 43.72900
C  52.77200 19.22000 42.41200
C  56.06100 19.23600 42.80800
O  55.67100 18.21800 42.23700
C  57.52400 19.34500 43.04500
N  56.19500 24.70100 44.49100
C  57.02700 23.61800 44.43800
C  58.47400 24.13700 44.75400
C  58.34600 25.68800 44.73400
C  56.85700 25.86800 44.67500
C  59.01000 23.46100 46.02700
C  59.17500 26.50600 43.71700
C  58.83500 26.49100 42.26400
N  54.07100 26.65400 44.15300
C  54.98300 27.56800 44.35300
C  54.41200 28.94100 44.34100
C  53.07100 28.70200 44.02800
C  52.91800 27.32700 43.82700
C  55.06100 30.24200 44.59600
C  51.80000 29.34900 43.76100
O  51.52700 30.52400 43.94600
C  50.83300 28.24100 43.22300
C  50.69300 28.64900 41.85000
O  51.54000 28.52900 40.99500
O  49.51100 29.23700 41.71100
C  49.10800 29.60700 40.31900
H  51.07300 21.46300 42.89900
H  57.48100 21.56800 44.20400
H  57.00200 27.98200 44.93000
H  49.03500 25.75800 42.82000
H  49.54600 23.05700 42.19200
H  48.23100 22.90400 44.14000
H  48.91100 24.44000 44.79600
H  49.77600 22.86500 44.95200
H  50.19100 24.43500 40.48900
H  50.58700 26.06900 40.42600
H  48.36300 26.70300 40.46000
H  47.79600 25.10200 40.83700
H  52.92500 19.01700 41.35200
H  51.73400 19.54900 42.45500
H  53.01600 18.25400 42.85400
H  57.99800 20.20600 42.57400
H  57.95400 18.43800 42.62200
H  57.71500 19.28700 44.11700
H  59.18900 23.87600 43.97400
H  58.78300 26.07300 45.65500
H  58.37400 22.59500 46.20900
H  58.94100 24.23300 46.79400
H  60.02200 23.06000 45.97100
H  60.13500 25.99600 43.79100
H  59.22200 27.50300 44.15400
H  58.53000 25.48900 41.96200
H  59.74200 26.88100 41.80100
H  58.01100 27.18800 42.11200
H  55.95500 30.29500 43.97600
H  55.39300 30.39600 45.62300
H  54.46600 31.10500 44.29600
H  49.86800 28.17200 43.72400
H  48.74500 30.63400 40.36700
H  48.31300 28.95100 39.96600
H  49.90000 29.47300 39.58200
Mg 48.49000 46.71700 43.20800
C  45.16000 47.73900 42.23600
C  48.14900 43.99400 41.19000
C  51.71400 46.36400 43.64900
C  48.73000 50.06300 44.50800
N  46.93100 46.13200 41.74900
C  45.61500 46.58200 41.62900
C  44.81100 45.79000 40.61600
C  45.84300 44.62500 40.20300
C  47.04900 44.89600 41.12100
C  45.39700 43.11300 40.15500
C  44.40200 46.80300 39.53300
C  42.91900 46.83200 39.12300
H  42.55200 46.30000 37.75400
N  49.76300 45.24200 42.67600
C  49.45800 44.20800 41.84700
C  50.61600 43.33700 41.82300
C  51.63300 43.98600 42.51200
C  51.10700 45.25800 43.03300
C  50.61500 41.98200 41.10000
C  53.02200 43.40500 42.68100
O  53.28900 42.29600 42.21200
C  54.14600 44.09400 43.51900
N  49.96700 48.01300 44.00300
C  51.26400 47.61800 44.04900
C  52.23300 48.70400 44.48600
C  51.30200 49.92600 44.67700
C  49.89400 49.35300 44.40100
C  53.13500 48.36700 45.73600
C  51.53900 51.08000 43.72200
C  51.14200 52.48600 44.20200
N  47.17300 48.45400 43.49100
C  47.44800 49.67100 44.05100
C  46.15900 50.44600 44.16900
C  45.28000 49.67000 43.49600
C  45.91700 48.49300 43.04700
C  46.03300 51.77000 44.81200
C  43.88900 49.59100 43.09100
O  42.98700 50.41600 43.25500
C  43.70600 48.25300 42.26700
C  42.69400 47.35600 42.97600
O  41.52200 47.22100 42.63200
O  43.31500 46.43400 43.83700
C  42.48900 45.27600 44.09800
H  48.07000 43.10800 40.55600
H  52.80500 46.32100 43.65400
H  48.72500 51.04800 44.97900
H  44.02500 45.28800 41.18000
H  46.25000 44.77000 39.20200
H  45.89500 42.52100 39.38600
H  44.33100 43.03000 39.94200
H  45.61800 42.61200 41.09700
H  44.91000 46.55400 38.60100
H  44.65700 47.84300 39.73700
H  42.73300 47.90400 39.19200
H  42.30000 46.22900 39.78700
H  51.43100 41.87400 40.38600
H  49.66400 41.86400 40.58000
H  50.74800 41.18100 41.82800
H  54.92500 43.34400 43.65600
H  53.61500 44.23900 44.46000
H  54.56800 44.99500 43.07300
H  52.92400 48.90200 43.66700
H  51.34400 50.28600 45.70500
H  53.15900 47.27700 45.73600
H  52.82400 48.66200 46.73800
H  54.13000 48.74900 45.50800
H  50.96200 50.99900 42.80100
H  52.59400 51.16700 43.46600
H  50.32900 52.76700 43.53300
H  52.02100 53.11400 44.05500
H  50.86700 52.58100 45.25200
H  46.19800 52.54600 44.06600
H  46.78300 51.74900 45.60300
H  45.03500 51.86700 45.24100
H  43.24300 48.68800 41.38100
H  42.52700 44.56100 43.27600
H  41.44200 45.51600 44.28500
H  42.91500 44.83500 44.99900

