158

Mg 24.83700 -5.17100 45.38000
C  26.63900 -2.58700 43.75400
C  22.17300 -4.46400 43.46700
C  23.73400 -8.17200 46.11300
C  27.99500 -5.95200 47.02700
N  24.50900 -3.75000 43.82800
C  25.33000 -2.76500 43.35200
C  24.75000 -2.08500 42.15000
C  23.32000 -2.44700 42.26900
C  23.26500 -3.61500 43.35800
C  22.17000 -1.35500 42.45600
C  25.34600 -2.38700 40.73000
C  25.55900 -1.13700 39.84200
H  24.78400 -1.10800 38.52600
N  23.20400 -6.20100 44.81800
C  22.12700 -5.71700 44.14800
C  20.97300 -6.61600 44.22800
C  21.40200 -7.81900 44.86400
C  22.87900 -7.43400 45.29400
C  19.64100 -6.44200 43.60700
C  20.62400 -9.15800 44.95900
O  19.49500 -9.26100 44.49000
C  21.16800 -10.40900 45.49300
N  25.85900 -6.91400 46.26900
C  25.09900 -7.99900 46.48600
C  25.78200 -8.98500 47.36700
C  27.04500 -8.23900 47.78600
C  26.99500 -6.92700 46.99500
C  24.97600 -9.66300 48.52000
C  28.26700 -9.15100 47.57400
C  29.49800 -9.10700 48.56900
N  26.82700 -4.40400 45.55900
C  27.96800 -4.78000 46.28700
C  29.08900 -3.88100 46.03200
C  28.66200 -3.07400 44.98400
C  27.27100 -3.38200 44.73700
C  30.43300 -3.95100 46.50000
C  29.11200 -2.15000 43.99000
O  30.19200 -1.66500 43.72100
C  27.73600 -1.71300 43.25800
C  27.59700 -0.32000 43.65600
O  27.01200 0.13900 44.62600
O  28.21400 0.42100 42.70100
C  28.21900 1.86400 42.80700
H  21.26900 -4.09300 42.97900
H  23.31200 -9.15300 46.34100
H  28.89400 -6.27200 47.55800
H  24.88500 -1.01800 42.32700
H  23.01400 -2.98500 41.37100
H  21.41000 -1.47900 41.68400
H  22.61500 -0.38600 42.23200
H  21.75100 -1.40900 43.46100
H  24.74300 -3.04500 40.10400
H  26.30800 -2.89300 40.80900
H  26.62200 -1.04300 39.62000
H  25.25700 -0.22600 40.35700
H  19.64100 -5.39000 43.32200
H  18.93300 -6.58700 44.42300
H  19.43600 -7.08200 42.74900
H  20.34000 -11.11400 45.56600
H  21.62000 -10.30000 46.47900
H  21.93600 -10.66400 44.76200
H  25.96700 -9.74900 46.61100
H  27.01500 -7.88900 48.81700
H  24.13300 -9.04000 48.81800
H  25.61100 -9.80700 49.39500
H  24.63900 -10.65400 48.21600
H  28.67600 -9.00300 46.57500
H  27.95400 -10.19200 47.49000
H  29.57300 -10.03600 49.13300
H  29.38800 -8.37000 49.36500
H  30.43500 -8.90500 48.04900
H  30.70900 -4.86600 45.97600
H  30.65900 -4.00300 47.56500
H  31.03900 -3.08300 46.23900
H  27.79900 -1.74200 42.17100
H  27.63600 2.10100 41.91700
H  29.24300 2.23600 42.82200
H  27.71800 2.20200 43.71500
Mg 16.10300 -1.43700 28.18000
C  15.30000 0.60400 30.92500
C  18.39600 -3.05400 30.08200
C  16.94600 -3.18400 25.39500
C  14.54900 0.86700 26.12000
N  16.81800 -1.12900 30.30400
C  16.22200 -0.38100 31.27600
C  16.92700 -0.64400 32.60300
C  18.04700 -1.66400 32.24800
C  17.73000 -2.03300 30.81100
C  19.57400 -1.27500 32.41800
C  15.99000 -1.11300 33.77300
C  16.53700 -1.62800 35.01500
H  17.72100 -0.87600 35.74700
N  17.37400 -2.95300 27.84800
C  18.24200 -3.48000 28.72900
C  18.96000 -4.54500 28.08600
C  18.44200 -4.72100 26.82900
C  17.55300 -3.58600 26.62300
C  19.94100 -5.34100 28.86000
C  18.77200 -5.75200 25.71400
O  18.31600 -5.73800 24.60800
C  19.71500 -6.81300 25.99900
N  15.95300 -1.10000 26.01800
C  16.37100 -1.96700 25.10000
C  15.93300 -1.65700 23.71600
C  14.97700 -0.45400 23.92400
C  15.14100 -0.23600 25.43900
C  17.15900 -1.34500 22.75600
C  13.48000 -0.71400 23.53400
C  12.88900 0.05200 22.38100
N  15.11300 0.38800 28.47300
C  14.46800 1.16300 27.49300
C  13.77100 2.20300 28.11700
C  14.11500 2.03300 29.48600
C  14.83200 0.91100 29.61900
C  13.22200 3.35400 27.46400
C  13.99900 2.64600 30.76500
O  13.49700 3.62900 31.23100
C  14.71300 1.65200 31.77800
C  15.71500 2.34300 32.50800
O  16.69300 2.89300 31.97100
O  15.45300 2.32600 33.81600
C  16.32000 3.12600 34.69300
H  19.20200 -3.54100 30.63400
H  17.25200 -3.64700 24.45400
H  14.08000 1.60100 25.46200
H  17.32200 0.25600 33.07400
H  17.81700 -2.61300 32.73200
H  20.10900 -2.03400 32.98900
H  19.44800 -0.26900 32.81800
H  20.03700 -1.22100 31.43200
H  15.47800 -1.93300 33.26800
H  15.19700 -0.40000 34.00100
H  16.78300 -2.68500 34.91000
H  15.69500 -1.57500 35.70600
H  19.59300 -6.26900 29.31500
H  20.38000 -4.76900 29.67700
H  20.76600 -5.51300 28.17000
H  20.75800 -6.54300 26.16800
H  19.75300 -7.67800 25.33800
H  19.26800 -7.20400 26.91300
H  15.32800 -2.49100 23.36100
H  15.25300 0.48800 23.45000
H  17.21400 -0.26600 22.61700
H  17.13200 -1.80200 21.76700
H  18.11800 -1.52900 23.24000
H  12.89700 -0.75400 24.45400
H  13.46200 -1.73200 23.14500
H  12.49900 1.01300 22.71500
H  12.06200 -0.44900 21.87800
H  13.66500 0.15300 21.62100
H  13.11500 4.15300 28.19800
H  12.21600 3.11600 27.11800
H  13.75600 3.65300 26.56200
H  14.01000 1.21600 32.48800
H  15.94200 3.19300 35.71300
H  16.43000 4.10200 34.21900
H  17.27200 2.59800 34.72700

