158

Mg 57.20500 23.67100 45.30200
C  55.34600 26.23000 43.69300
C  54.82800 21.44600 43.78600
C  59.26600 21.14600 46.05100
C  59.70400 25.97000 45.86500
N  55.38300 23.82200 43.83900
C  54.80200 25.00500 43.36200
C  53.52100 24.76300 42.57700
C  53.24800 23.27600 43.00400
C  54.61200 22.80400 43.52900
C  52.25100 23.12200 44.20300
C  53.74000 24.81000 41.04700
C  52.64200 25.34800 40.07300
H  52.08800 24.32300 38.99700
N  57.00800 21.54300 45.06800
C  55.96700 20.88200 44.45100
C  56.22300 19.44600 44.61000
C  57.51000 19.27200 45.20700
C  58.01800 20.66000 45.48900
C  55.31400 18.42600 43.91500
C  58.18400 17.93600 45.42800
O  57.71500 16.86900 44.99900
C  59.51600 17.94200 46.08100
N  59.11300 23.59200 46.07200
C  59.80100 22.42000 46.28900
C  61.28600 22.67600 46.74200
C  61.35500 24.22000 46.57900
C  60.00400 24.62400 46.08700
C  61.57200 22.07800 48.17500
C  62.50700 24.65800 45.61100
C  63.41900 25.75700 46.08900
N  57.42000 25.69000 45.14000
C  58.50700 26.52800 45.40800
C  58.12600 27.89600 45.12800
C  56.82300 27.82100 44.64600
C  56.54600 26.47900 44.47200
C  59.07800 29.11100 45.48700
C  55.67900 28.55700 44.21400
O  55.46500 29.74000 44.33600
C  54.74800 27.54900 43.40300
C  54.76000 27.93400 42.02000
O  55.69200 27.82400 41.25900
O  53.57000 28.52900 41.71600
C  53.35100 29.08900 40.39000
H  54.05000 20.77600 43.41300
H  60.03700 20.44000 46.36600
H  60.53000 26.65100 46.07900
H  52.75900 25.43300 42.97600
H  53.01600 22.60400 42.17700
H  52.64400 22.55500 45.04700
H  51.35600 22.64400 43.80500
H  51.94200 24.10600 44.55300
H  54.02100 23.79100 40.78200
H  54.61500 25.39600 40.76500
H  53.03400 26.19100 39.50500
H  51.82100 25.69400 40.70100
H  55.45400 18.49800 42.83600
H  54.25700 18.59200 44.12200
H  55.57800 17.39900 44.16600
H  59.92800 16.94600 46.23900
H  59.38000 18.60100 46.93900
H  60.10600 18.53500 45.38300
H  61.86400 22.10300 46.01700
H  61.46700 24.73200 47.53500
H  62.42700 21.42700 47.99900
H  60.83100 21.39300 48.58800
H  61.80000 22.75500 48.99800
H  61.95500 24.95800 44.72100
H  63.17800 23.90900 45.19100
H  64.41700 25.39500 45.84400
H  63.44300 25.93200 47.16400
H  63.36200 26.72100 45.58300
H  60.02700 28.73200 45.86700
H  58.65300 29.80200 46.21500
H  59.23000 29.63400 44.54300
H  53.73200 27.49400 43.79500
H  53.29800 30.17500 40.46600
H  52.36700 28.79300 40.02600
H  54.06400 28.79800 39.61700
Mg 50.42000 46.03800 41.47700
C  47.41500 47.44800 40.52200
C  49.43600 43.04400 40.27300
C  53.62300 44.81000 42.00400
C  51.65400 49.20800 42.08500
N  48.69900 45.38200 40.31900
C  47.47300 46.06500 40.23400
C  46.27000 45.08500 39.87500
C  46.98000 43.72900 39.99700
C  48.49100 44.05600 40.25300
C  46.42800 42.65000 41.01100
C  45.70200 45.44700 38.50800
C  44.18700 45.01700 38.30400
H  44.00500 43.98900 37.14300
N  51.36100 44.15200 41.15300
C  50.72800 43.05700 40.72100
C  51.70900 42.00200 40.79100
C  52.98700 42.55700 41.03000
C  52.67400 43.89900 41.43100
C  51.33900 40.57700 40.19400
C  54.32900 41.85200 40.89400
O  54.38900 40.66100 40.61900
C  55.64300 42.56800 41.11100
N  52.40000 46.92700 42.04200
C  53.46400 46.14300 42.25500
C  54.66000 47.02800 42.61900
C  53.97800 48.39700 42.79800
C  52.56700 48.19400 42.25200
C  55.60800 46.53100 43.75400
C  54.80500 49.58800 42.21800
C  55.58300 50.53800 43.20400
N  49.76000 47.88700 41.27900
C  50.31200 49.07300 41.63700
C  49.38800 50.18000 41.56200
C  48.16700 49.58400 41.13100
C  48.47900 48.20900 41.02700
C  49.57100 51.59300 42.11700
C  46.76100 49.78000 40.89900
O  46.02500 50.73500 41.09300
C  46.28700 48.40800 40.38300
C  45.03600 47.89800 41.18600
O  44.96700 47.55600 42.35000
O  43.95900 48.00600 40.36500
C  42.72300 47.36100 40.92700
H  49.01700 42.04800 40.11500
H  54.62600 44.44700 42.23600
H  51.90900 50.22400 42.39200
H  45.50800 45.20200 40.64600
H  47.13600 43.21800 39.04700
H  46.34600 41.63500 40.62100
H  45.49600 43.00100 41.45300
H  47.20300 42.46800 41.75600
H  46.30600 44.99000 37.72400
H  45.91100 46.50100 38.32300
H  43.64700 45.93500 38.07200
H  43.84200 44.53100 39.21600
H  51.36700 40.70500 39.11200
H  50.33600 40.30100 40.52200
H  51.99400 39.76200 40.50400
H  56.04100 42.37300 42.10700
H  55.75800 43.63600 40.92700
H  56.38500 42.01700 40.53300
H  55.28200 47.01400 41.72400
H  53.90100 48.53100 43.87700
H  55.64500 47.13100 44.66300
H  56.63300 46.65500 43.40500
H  55.42700 45.52500 44.13400
H  54.13000 50.24600 41.67200
H  55.57300 49.21800 41.53900
H  55.44900 51.58700 42.94000
H  56.61700 50.20800 43.29500
H  55.12100 50.33700 44.17100
H  49.63700 52.25300 41.25100
H  50.49900 51.74400 42.66700
H  48.73200 51.97000 42.70300
H  46.02600 48.44800 39.32500
H  43.06600 46.40100 41.31400
H  42.11100 47.16400 40.04800
H  42.15700 47.93200 41.66300

