158

Mg 48.09600 25.66100 27.70200
C  48.89600 27.73400 30.26900
C  47.20000 23.23900 29.88600
C  47.70200 23.53400 25.03900
C  49.63000 27.99000 25.48600
N  48.23000 25.46100 29.87600
C  48.26200 26.55900 30.70800
C  47.83700 26.16900 32.12800
C  47.48000 24.65600 32.02700
C  47.56900 24.45800 30.49100
C  48.28700 23.57900 32.81500
C  46.64800 27.14500 32.66100
C  45.96100 26.58100 33.85500
H  46.05500 27.50100 35.03300
N  47.48400 23.63200 27.47300
C  47.14500 22.80400 28.51400
C  46.70100 21.48600 27.95900
C  46.84700 21.57200 26.52500
C  47.38400 22.94500 26.29200
C  46.22300 20.48200 28.88300
C  46.64200 20.46600 25.53400
O  46.78400 20.76300 24.29900
C  46.21600 19.08000 25.92900
N  48.59100 25.77600 25.51100
C  48.19400 24.79300 24.61400
C  48.49800 25.17200 23.18200
C  49.24400 26.56500 23.33100
C  49.11600 26.83800 24.84800
C  49.37400 24.11000 22.38500
C  48.76400 27.73000 22.35300
C  49.84000 28.37800 21.39100
N  49.02500 27.47000 27.81400
C  49.57200 28.35000 26.88000
C  50.25000 29.49800 27.53200
C  49.94300 29.28600 28.84200
C  49.24000 28.06500 28.95600
C  50.84300 30.70700 26.81700
C  49.97200 29.89400 30.16000
O  50.45800 30.96200 30.54000
C  49.23400 28.94500 31.07000
C  50.11800 28.64100 32.22800
O  51.11300 27.99700 32.22600
O  49.61600 29.14400 33.43000
C  50.22200 28.79300 34.66600
H  46.89500 22.58200 30.70300
H  47.49700 22.90500 24.17000
H  50.17600 28.64400 24.80200
H  48.67900 26.15900 32.82000
H  46.43800 24.45100 32.27600
H  48.77800 22.89900 32.11800
H  47.52100 23.09300 33.41900
H  49.11600 23.91300 33.43800
H  45.99200 27.28800 31.80300
H  47.09800 28.09200 32.95900
H  46.37200 25.58400 34.01400
H  44.91300 26.49700 33.56800
H  46.93300 19.79200 29.34000
H  45.49100 19.85300 28.37600
H  45.63300 20.83600 29.72800
H  46.69100 18.86600 26.88600
H  46.59100 18.35400 25.20800
H  45.12800 19.14100 25.89700
H  47.55800 25.42400 22.69100
H  50.32300 26.55300 23.17300
H  48.61100 23.44000 21.98900
H  50.04700 23.43100 22.90800
H  49.95800 24.70800 21.68500
H  48.32400 28.53000 22.94700
H  47.95900 27.31200 21.74700
H  49.52600 28.38700 20.34700
H  50.64700 27.64600 21.36300
H  50.13500 29.33000 21.83200
H  50.20500 31.50900 27.18900
H  50.71900 30.60800 25.73800
H  51.84700 30.93600 27.17600
H  48.35900 29.47500 31.44700
H  51.29200 28.71500 34.47100
H  49.81900 27.84100 35.01100
H  49.99500 29.59600 35.36600
Mg 42.96600 41.77200 26.71800
C  42.09100 44.00400 29.18300
C  44.15600 39.62700 29.12100
C  44.17500 39.76100 24.27700
C  42.26600 44.34100 24.39400
N  43.17500 41.86600 28.95200
C  42.47100 42.76200 29.70700
C  42.38300 42.33600 31.21000
C  43.15900 40.95400 31.15500
C  43.60800 40.81000 29.67100
C  44.34000 40.74000 32.16100
C  40.92900 42.41700 31.82700
C  40.60300 41.59000 33.04400
H  40.10700 42.19200 34.38200
N  43.95800 39.91000 26.70000
C  44.37400 39.23300 27.80400
C  45.09800 38.00000 27.41900
C  44.81900 37.87800 26.00100
C  44.26400 39.22400 25.58300
C  45.83700 37.04300 28.40700
C  45.01700 36.81400 24.97400
O  44.68700 36.96600 23.82900
C  45.49800 35.41400 25.48100
N  43.26400 42.02900 24.70100
C  43.70600 41.00700 23.90100
C  43.66000 41.39900 22.48800
C  42.86300 42.72300 22.52000
C  42.73000 43.07900 23.96500
C  45.10200 41.43500 21.90900
C  41.45900 42.75100 21.77100
C  40.50000 41.66700 22.05100
N  42.47000 43.80400 26.73600
C  42.12100 44.70000 25.76900
C  41.57300 45.90700 26.22200
C  41.52900 45.66900 27.60800
C  42.12100 44.40500 27.85900
C  41.19800 47.15400 25.39700
C  41.18900 46.30200 28.86300
O  40.67500 47.37400 29.13000
C  41.60700 45.27800 29.93100
C  42.48000 45.95000 30.93700
O  43.56600 46.48000 30.68000
O  42.02800 45.91200 32.18400
C  42.86700 46.09000 33.38900
H  44.34400 38.86600 29.88100
H  44.51300 39.17400 23.42000
H  42.04800 45.08600 23.62600
H  42.95900 43.10200 31.72900
H  42.46900 40.16300 31.44600
H  45.38000 40.59600 31.86900
H  44.26100 39.91700 32.87100
H  44.40800 41.68500 32.69900
H  40.23300 42.18900 31.01900
H  40.84900 43.46200 32.12700
H  41.38300 40.90300 33.37200
H  39.78400 40.97800 32.66700
H  45.19500 36.17600 28.56600
H  46.12000 37.55000 29.32900
H  46.78600 36.74200 27.96500
H  45.33700 34.62200 24.75000
H  44.96300 35.30400 26.42500
H  46.57800 35.53200 25.57100
H  43.11300 40.67900 21.87900
H  43.43800 43.45300 21.95000
H  45.47800 42.43600 22.12000
H  44.95700 41.19400 20.85500
H  45.77100 40.72500 22.39400
H  41.79800 42.63300 20.74200
H  41.04800 43.75600 21.85800
H  40.93500 40.99800 22.79400
H  40.26800 41.10700 21.14600
H  39.53700 41.99500 22.44400
H  42.01300 47.81400 25.10300
H  40.53200 47.70300 26.06200
H  40.58300 46.87900 24.54000
H  40.75400 45.02700 30.56100
H  43.95600 46.10500 33.36100
H  42.59800 45.29200 34.08100
H  42.52700 47.05300 33.77100

