158

Mg 17.25100 -1.35700 28.48600
C  16.45200 0.22400 31.35100
C  19.34200 -3.48100 30.16800
C  18.72700 -2.21500 25.57300
C  15.71800 1.42100 26.64400
N  17.96400 -1.53600 30.51700
C  17.39900 -0.77900 31.55300
C  17.77300 -1.29300 32.92500
C  18.95800 -2.30700 32.58700
C  18.73700 -2.48600 31.00600
C  20.39300 -1.86800 33.01800
C  16.61100 -1.85900 33.70600
C  16.33700 -1.45900 35.20800
H  17.39800 -0.71300 36.06400
N  18.62400 -2.80400 27.90700
C  19.33200 -3.62100 28.77300
C  20.19000 -4.57800 28.01400
C  20.02500 -4.22800 26.67000
C  19.11000 -3.01700 26.67000
C  21.11200 -5.52300 28.64600
C  20.58100 -4.77700 25.35900
O  20.27700 -4.34000 24.22500
C  21.39400 -6.05800 25.38900
N  17.14800 -0.54300 26.35000
C  17.92200 -1.12800 25.42200
C  17.80700 -0.38400 24.03900
C  16.74300 0.74800 24.36400
C  16.58900 0.61900 25.90800
C  19.10800 0.19700 23.41500
C  15.32700 0.41700 23.67600
C  15.18200 0.35800 22.17800
N  16.23700 0.38500 28.82800
C  15.62200 1.37800 28.00100
C  14.89400 2.31000 28.84800
C  15.15600 1.90200 30.16400
C  16.03200 0.76700 30.12800
C  14.03100 3.46700 28.37900
C  14.87500 2.20000 31.53400
O  14.25900 3.17400 31.91900
C  15.65200 1.08500 32.42600
C  16.56000 1.91300 33.27900
O  17.66000 2.36000 32.86600
O  15.81300 2.30100 34.41800
C  16.50400 3.16800 35.34700
H  20.07000 -4.13300 30.65400
H  19.18300 -2.37600 24.59400
H  15.15600 2.17100 26.08400
H  18.11600 -0.37200 33.39700
H  18.74800 -3.23100 33.12500
H  20.36700 -0.83100 33.35400
H  20.89100 -1.91600 32.05000
H  20.90100 -2.51800 33.73000
H  16.71300 -2.94400 33.72800
H  15.69100 -1.70600 33.14200
H  16.00800 -2.40900 35.63100
H  15.43600 -0.85400 35.10300
H  22.05500 -5.07900 28.32700
H  20.97300 -6.57700 28.40700
H  21.07700 -5.48200 29.73500
H  22.07300 -6.08900 26.24000
H  22.05800 -6.16500 24.53100
H  20.78500 -6.93000 25.62400
H  17.35000 -1.00700 23.27000
H  16.88900 1.74400 23.94600
H  19.14900 -0.09300 22.36500
H  20.00800 -0.27000 23.81400
H  19.15000 1.28400 23.34300
H  14.84200 1.30200 24.08800
H  14.87900 -0.45900 24.14600
H  14.95700 -0.62900 21.77500
H  16.17200 0.60400 21.79500
H  14.44000 1.05900 21.79700
H  13.92800 4.21400 29.16600
H  13.05800 3.06100 28.10100
H  14.49600 3.96000 27.52400
H  15.03000 0.55200 33.14500
H  16.06700 4.16000 35.23700
H  17.56900 3.36700 35.23100
H  16.32200 2.71600 36.32200
Mg 50.49200 46.87600 42.02600
C  47.38900 47.59100 40.61800
C  50.10700 43.63100 40.75500
C  53.76700 46.53000 42.39200
C  50.79400 50.36800 42.83900
N  48.97300 45.83400 40.67900
C  47.76700 46.25800 40.42600
C  46.87600 45.16500 39.82100
C  47.57900 43.81500 40.13900
C  48.99200 44.46900 40.58300
C  46.98600 42.88900 41.26500
C  46.57400 45.44200 38.24900
C  45.10800 45.22000 37.81300
H  44.96200 44.14300 36.73600
N  51.74300 45.34500 41.48200
C  51.38200 44.10000 41.03400
C  52.56200 43.26600 41.05300
C  53.63900 44.11500 41.47700
C  53.03900 45.37800 41.82100
C  52.60100 41.74900 40.54800
C  55.09200 43.60000 41.67500
O  55.33000 42.40500 41.52000
C  56.22600 44.49500 41.93800
N  52.10200 48.36000 42.51700
C  53.36700 47.83700 42.74500
C  54.27400 48.85200 43.37300
C  53.31600 50.13100 43.43700
C  51.97500 49.61700 42.95500
C  54.93500 48.53100 44.71800
C  53.90100 51.42500 42.76500
C  54.23300 52.60900 43.69500
N  49.23600 48.57900 42.09500
C  49.52600 49.88700 42.36200
C  48.40200 50.70600 42.01600
C  47.55500 49.81800 41.36700
C  48.09600 48.56100 41.41200
C  48.26500 52.15900 42.23200
C  46.21900 49.73200 40.74100
O  45.41600 50.68800 40.44200
C  46.10200 48.31600 40.18300
C  44.83000 47.75900 40.73000
O  44.65700 47.43200 41.89800
O  43.87500 47.80500 39.67900
C  42.48300 47.50600 40.11000
H  49.97200 42.56700 40.55100
H  54.75100 46.32100 42.81600
H  50.80500 51.39500 43.21000
H  45.93400 45.20300 40.36800
H  47.87600 43.35600 39.19600
H  46.47300 43.50600 42.00300
H  47.74500 42.27100 41.74400
H  46.30700 42.19600 40.76700
H  47.17900 44.76500 37.64700
H  46.92000 46.40300 37.86800
H  44.79000 46.19600 37.44600
H  44.38400 45.01400 38.60100
H  53.21000 41.08100 41.15600
H  52.97500 41.71400 39.52400
H  51.63000 41.25800 40.60900
H  56.41600 44.67200 42.99600
H  56.12700 45.43600 41.39700
H  57.09900 43.99900 41.51300
H  55.06300 49.07300 42.65400
H  53.21500 50.32900 44.50400
H  54.45800 47.82500 45.39800
H  54.86000 49.42200 45.34000
H  55.98500 48.24700 44.64000
H  53.19200 51.76600 42.01100
H  54.81200 51.25900 42.19100
H  55.22000 53.03100 43.50600
H  53.96400 52.31500 44.71000
H  53.61800 53.46900 43.43100
H  48.42900 52.69200 41.29500
H  48.99700 52.41400 42.99900
H  47.27700 52.34200 42.65300
H  46.11300 48.38500 39.09500
H  42.14700 48.22100 40.86100
H  42.25600 46.53600 40.55300
H  41.76000 47.54100 39.29400

