158

Mg 0.53600 8.41200 26.90100
C  1.29100 10.61000 29.53300
C  0.70400 5.81200 29.13400
C  0.65500 6.30500 24.27800
C  0.79900 11.10600 24.66700
N  0.90300 8.22300 29.03500
C  1.08600 9.29200 29.93900
C  1.01600 8.84000 31.43400
C  1.01700 7.32100 31.25000
C  0.84600 7.08400 29.71300
C  2.29500 6.56900 31.88700
C  -0.26200 9.40100 32.17800
C  -0.31100 9.14800 33.72800
H  0.95500 8.74900 34.39800
N  0.42200 6.38300 26.73500
C  0.56900 5.48200 27.79700
C  0.55300 4.13900 27.22900
C  0.43400 4.22900 25.80300
C  0.46700 5.70900 25.52100
C  0.53700 2.93500 28.08500
C  0.38300 3.11500 24.65400
O  0.29900 3.32300 23.46000
C  0.66800 1.68800 25.14000
N  0.59600 8.69700 24.75900
C  0.55300 7.65800 23.89500
C  0.66100 8.13400 22.44200
C  0.45100 9.67400 22.61600
C  0.66400 9.84900 24.11900
C  2.07300 7.81600 21.81200
C  -0.91800 10.10900 22.02700
C  -0.98500 11.02200 20.79900
N  0.97700 10.50500 27.02900
C  0.97700 11.45900 26.01400
C  1.19700 12.70500 26.59000
C  1.43600 12.45600 27.95800
C  1.22500 11.07700 28.17100
C  1.34400 14.03000 25.92600
C  1.80300 13.02800 29.20100
O  2.07500 14.16500 29.52000
C  1.59700 11.90500 30.30200
C  2.76000 11.85900 31.16600
O  3.89300 11.53100 30.86900
O  2.32800 12.18700 32.42300
C  3.46900 12.55900 33.23300
H  0.89900 4.96100 29.79100
H  0.79700 5.52500 23.52700
H  0.61700 11.86800 23.90700
H  1.92500 9.16400 31.94100
H  0.10200 6.90300 31.66800
H  2.57700 5.77700 31.19300
H  1.90100 6.04400 32.75600
H  3.05300 7.27300 32.23100
H  -1.14800 8.90100 31.78600
H  -0.22700 10.46400 31.93700
H  -1.17300 8.55400 34.03100
H  -0.50500 10.17100 34.04900
H  1.57700 2.64000 28.22900
H  -0.01400 2.08400 27.68400
H  0.19700 3.01500 29.11800
H  1.38700 1.70800 25.95800
H  0.98100 0.98300 24.37000
H  -0.19300 1.23800 25.63500
H  -0.07200 7.64800 21.79800
H  1.18400 10.33900 22.16000
H  2.69800 8.70900 21.84600
H  1.86300 7.46300 20.80300
H  2.50900 7.03900 22.44000
H  -1.37400 10.69700 22.82500
H  -1.57000 9.23500 22.05700
H  -0.09500 10.98500 20.17200
H  -1.04000 12.06000 21.12700
H  -1.77700 10.67000 20.13900
H  0.70200 14.00700 25.04600
H  2.38000 14.17400 25.62000
H  1.07900 14.91500 26.50400
H  0.67700 12.17700 30.82100
H  4.22200 13.01200 32.58900
H  3.88400 11.69600 33.75500
H  3.13600 13.32900 33.92900
Mg -2.20100 35.33700 26.37500
C  -3.89800 33.99100 29.08400
C  -1.16200 37.91000 28.48100
C  -0.55400 36.63700 23.68800
C  -3.88100 33.06400 24.26000
N  -2.46700 35.83200 28.59800
C  -3.12600 35.06600 29.49400
C  -2.91900 35.45700 30.98100
C  -2.08100 36.79200 30.74600
C  -1.91300 36.92200 29.17800
C  -2.46700 38.14700 31.43300
C  -2.18900 34.33700 31.88400
C  -1.56100 34.79700 33.18700
H  -2.25200 34.26500 34.43600
N  -0.98900 36.95100 26.08100
C  -0.75800 37.94100 27.07900
C  0.17000 38.89900 26.54000
C  0.47900 38.53800 25.19600
C  -0.39200 37.35700 24.88200
C  0.91300 40.00500 27.36000
C  1.39200 39.22800 24.18100
O  1.53400 38.85600 23.00100
C  2.16900 40.40000 24.56300
N  -2.06300 34.73200 24.25500
C  -1.30600 35.42800 23.38900
C  -1.18000 34.60900 22.12700
C  -2.39300 33.54500 22.18800
C  -2.93100 33.84100 23.64200
C  -1.14200 35.61000 20.88500
C  -2.08000 31.97100 22.00700
C  -2.81800 31.23600 20.88300
N  -3.58600 33.87500 26.53900
C  -4.23200 33.05800 25.59200
C  -5.21300 32.20800 26.26400
C  -5.07100 32.60900 27.61500
C  -4.17200 33.63300 27.73200
C  -6.17200 31.34300 25.58600
C  -5.62300 32.18800 28.98200
O  -6.34000 31.22500 29.21900
C  -4.74000 32.97900 29.93700
C  -5.77800 33.51800 30.90500
O  -6.47400 34.42500 30.74200
O  -5.76800 32.73700 32.02800
C  -6.81200 33.11500 33.03400
H  -0.84300 38.76100 29.08700
H  -0.05100 37.07000 22.82100
H  -4.31200 32.42800 23.48400
H  -3.83100 35.72400 31.51500
H  -1.13200 36.65300 31.26400
H  -1.58600 38.65000 31.83000
H  -3.16900 38.01000 32.25500
H  -3.04200 38.65500 30.65900
H  -1.49100 33.78900 31.25100
H  -2.97400 33.65900 32.22000
H  -1.71300 35.87400 33.11000
H  -0.50000 34.59600 33.33600
H  1.97500 39.81900 27.19800
H  0.86200 39.80500 28.43100
H  0.70100 41.04600 27.11600
H  2.98400 39.94600 25.12800
H  1.67900 41.14400 25.19100
H  2.84700 40.79200 23.80500
H  -0.23600 34.09600 22.30600
H  -3.22200 33.82700 21.54000
H  -1.76900 36.49900 20.95200
H  -1.52800 35.02400 20.05100
H  -0.09900 35.87700 20.71100
H  -2.19500 31.46300 22.96500
H  -1.06000 31.81100 21.65900
H  -3.73900 30.67500 21.04900
H  -2.15000 30.50900 20.42100
H  -3.01800 31.99700 20.12900
H  -6.49700 31.93600 24.73100
H  -6.90700 31.31200 26.38900
H  -5.63300 30.43400 25.31600
H  -4.05900 32.35900 30.52100
H  -6.66900 34.12900 33.40900
H  -6.83000 32.41800 33.87100
H  -7.79700 32.98100 32.58600

