158

Mg -10.53400 17.15700 41.19100
C  -7.12000 16.80800 41.07100
C  -10.04800 20.54500 40.47900
C  -13.80200 17.36800 40.36100
C  -10.80500 13.63400 41.09100
N  -8.84700 18.50400 40.92700
C  -7.48500 18.10200 40.84600
C  -6.56200 19.25300 40.54600
C  -7.52700 20.50100 40.77000
C  -8.87000 19.81200 40.68800
C  -7.48000 21.24000 42.16500
C  -6.03100 19.31000 39.08700
C  -4.50100 19.19900 38.99700
H  -3.85900 18.23000 37.95600
N  -11.78500 18.77500 40.65300
C  -11.43700 20.05300 40.53100
C  -12.59500 20.88200 40.37400
C  -13.67600 20.01600 40.04800
C  -13.13700 18.62900 40.37300
C  -12.51100 22.44900 40.27000
C  -15.15300 20.37600 39.64600
O  -15.53300 21.50700 39.66300
C  -16.14800 19.25800 39.39700
N  -12.01600 15.69100 40.56300
C  -13.32700 16.06400 40.53900
C  -14.20900 14.87500 40.70500
C  -13.20000 13.70200 40.35600
C  -11.92800 14.36200 40.75300
C  -14.83200 14.72900 42.08800
C  -13.21200 13.33400 38.90700
C  -14.19700 12.19000 38.43700
N  -9.22100 15.55800 41.23300
C  -9.48400 14.14800 41.24600
C  -8.23500 13.43500 41.45200
C  -7.26300 14.43100 41.28500
C  -7.93600 15.68100 41.27100
C  -8.19700 12.01100 41.57300
C  -5.84700 14.66600 41.24800
O  -4.92600 13.84300 41.27400
C  -5.66400 16.28800 41.23300
C  -4.97400 16.72100 42.52000
O  -3.94900 17.30200 42.50400
O  -5.71800 16.46300 43.62900
C  -5.25200 17.02500 44.89600
H  -9.86400 21.61500 40.36200
H  -14.89000 17.29400 40.30200
H  -10.97200 12.55600 41.04600
H  -5.77100 19.39200 41.28200
H  -7.42600 21.29400 40.02800
H  -6.73400 20.73000 42.77500
H  -8.45100 21.39700 42.63400
H  -7.07900 22.24200 42.01600
H  -6.28100 20.25500 38.60500
H  -6.47400 18.49000 38.52100
H  -4.03500 18.90700 39.93800
H  -4.20900 20.22500 38.77200
H  -13.51100 22.88400 40.29100
H  -12.06500 22.58800 39.28500
H  -11.87100 22.77700 41.08900
H  -15.68200 18.48500 38.78500
H  -17.01800 19.68100 38.89600
H  -16.39700 18.77000 40.33900
H  -15.01700 14.92500 39.97400
H  -13.31600 12.73300 40.84300
H  -14.56700 13.78500 42.56500
H  -15.92100 14.69300 42.09900
H  -14.37300 15.50800 42.69800
H  -12.20500 12.99200 38.66600
H  -13.46500 14.22300 38.33000
H  -14.92700 12.53600 37.70600
H  -14.86900 11.81000 39.20600
H  -13.60300 11.36400 38.04400
H  -8.38900 11.69900 40.54600
H  -9.04600 11.55100 42.07800
H  -7.26500 11.59900 41.95900
H  -5.06500 16.52100 40.35300
H  -4.21000 16.73000 45.02000
H  -5.86600 16.67400 45.72600
H  -5.29000 18.11200 44.95800
Mg -4.63500 25.51100 25.75600
C  -3.59300 26.83000 28.83200
C  -6.65200 23.27600 27.62000
C  -5.35300 23.87800 22.91300
C  -2.24900 27.36600 24.14000
N  -5.01400 25.08700 27.98600
C  -4.57200 25.84500 29.06600
C  -5.16600 25.50500 30.42200
C  -6.04100 24.26500 29.94700
C  -5.91100 24.21600 28.40200
C  -5.52300 22.93000 30.61500
C  -6.06900 26.62400 30.99300
C  -6.25900 26.65700 32.50400
H  -5.73800 25.62700 33.42800
N  -6.05000 23.91300 25.26500
C  -6.78400 23.18400 26.20300
C  -7.60400 22.32600 25.53000
C  -7.24500 22.40600 24.10900
C  -6.19200 23.41700 24.00200
C  -8.65800 21.39300 26.14500
C  -7.68800 21.59100 22.90500
O  -7.14700 21.64800 21.76400
C  -8.77300 20.62300 22.95000
N  -3.85700 25.57200 23.82500
C  -4.32200 24.79400 22.81500
C  -3.50500 24.97500 21.54200
C  -2.49500 26.19900 21.95100
C  -2.80200 26.29900 23.44900
C  -2.99800 23.80200 20.78800
C  -2.58800 27.51700 21.10400
C  -3.72300 28.51800 21.49800
N  -3.26600 26.92700 26.31800
C  -2.41100 27.67600 25.52700
C  -1.71800 28.61100 26.35000
C  -2.10200 28.25700 27.68100
C  -3.02600 27.25500 27.61100
C  -0.73500 29.62800 25.93700
C  -1.84900 28.53600 29.08100
O  -1.09100 29.34700 29.56800
C  -2.86600 27.67300 29.88100
C  -2.05400 26.74300 30.81800
O  -1.21300 25.87500 30.48300
O  -2.32300 27.18500 32.11300
C  -1.50200 26.58700 33.11200
H  -7.27800 22.64800 28.25700
H  -5.70400 23.45800 21.96800
H  -1.43000 27.87800 23.63000
H  -4.35500 25.33100 31.12800
H  -7.09800 24.39700 30.17800
H  -4.80800 23.21100 31.38900
H  -4.95400 22.41900 29.83900
H  -6.37900 22.37900 31.00300
H  -7.05600 26.55700 30.53700
H  -5.59500 27.57600 30.75400
H  -7.32400 26.70100 32.72900
H  -5.87900 27.63400 32.80000
H  -9.68800 21.55000 25.82400
H  -8.66800 21.37500 27.23500
H  -8.51300 20.34200 25.89500
H  -9.05400 20.21500 21.97900
H  -9.68800 21.09600 23.30600
H  -8.48700 19.79500 23.59900
H  -4.29200 25.44200 20.95000
H  -1.46100 25.87600 21.83200
H  -3.05200 22.91200 21.41600
H  -2.00700 24.00000 20.38000
H  -3.64500 23.68600 19.91900
H  -2.74700 27.30200 20.04800
H  -1.70400 28.14900 21.19100
H  -3.15900 29.30800 21.99500
H  -4.52300 28.06300 22.08200
H  -4.21400 28.89100 20.59900
H  -1.20000 30.40400 25.33000
H  0.11500 29.14100 25.45800
H  -0.34600 30.15300 26.81000
H  -3.44700 28.31900 30.53900
H  -0.62100 27.22900 33.10400
H  -1.30600 25.54900 32.84000
H  -1.92800 26.69500 34.10900

