158

Mg 54.29500 24.59900 44.29200
C  51.57600 26.90700 43.73800
C  52.29000 22.23000 43.44400
C  57.01400 22.59400 44.10300
C  56.25000 27.45400 44.69900
N  52.16600 24.62600 43.57600
C  51.21100 25.54600 43.46200
C  49.87700 24.97500 42.93600
C  50.10200 23.48300 43.17100
C  51.61100 23.40300 43.44800
C  49.29800 22.73100 44.30500
C  49.69100 25.21200 41.42700
C  48.16500 25.14900 40.99000
H  47.95400 24.71100 39.55900
N  54.61200 22.65900 43.86000
C  53.64300 21.78500 43.55900
C  54.14800 20.47300 43.46500
C  55.55600 20.63000 43.58000
C  55.83000 22.03100 43.81400
C  53.26000 19.23500 43.24200
C  56.59800 19.49900 43.48300
O  56.21800 18.36500 43.26500
C  58.14400 19.63400 43.59700
N  56.42500 25.00600 44.30800
C  57.33700 23.96000 44.39100
C  58.76200 24.49400 44.54700
C  58.40300 26.06500 44.80100
C  56.92000 26.21500 44.60700
C  59.44200 23.84200 45.77900
C  59.16100 27.05100 43.85500
C  59.77600 28.30500 44.59400
N  54.04400 26.78200 44.30700
C  54.92700 27.73400 44.48900
C  54.33600 29.04400 44.42200
C  53.00700 28.74100 44.14300
C  52.90800 27.38700 44.06600
C  54.86700 30.36700 44.69700
C  51.67700 29.30500 43.95300
O  51.24600 30.43700 44.04500
C  50.69000 28.20000 43.79500
C  50.08400 28.54400 42.50700
O  50.69500 28.39600 41.44100
O  48.78000 28.88200 42.58400
C  48.21600 29.49700 41.38900
H  51.67900 21.32600 43.45900
H  57.84300 21.89300 44.21800
H  56.94400 28.27200 44.90500
H  49.00300 25.44600 43.38700
H  49.96600 22.94100 42.23500
H  49.88200 22.23500 45.08100
H  48.65700 22.03500 43.76300
H  48.69900 23.44500 44.87000
H  50.17800 24.43100 40.84400
H  50.13300 26.14700 41.08100
H  47.85600 26.18400 41.13400
H  47.61200 24.39600 41.55200
H  53.02500 19.09500 42.18600
H  52.34600 19.36800 43.82000
H  53.82200 18.39000 43.63800
H  58.45500 20.37900 42.86500
H  58.59500 18.66000 43.40600
H  58.39600 19.85800 44.63300
H  59.21700 24.42300 43.55900
H  58.66800 26.22100 45.84600
H  58.75500 23.08400 46.15300
H  59.54900 24.58300 46.57200
H  60.38300 23.34600 45.54000
H  58.49900 27.44300 43.08300
H  59.98100 26.47600 43.42400
H  59.45100 29.20200 44.06700
H  60.84900 28.18000 44.44700
H  59.60300 28.26500 45.67000
H  55.19300 30.59500 45.71200
H  54.06600 31.06900 44.46400
H  55.72000 30.58700 44.05500
H  50.00200 28.18800 44.64000
H  47.25500 29.94000 41.65000
H  48.04100 28.69800 40.66800
H  48.87000 30.25900 40.96600
Mg 5.57200 54.12200 40.98300
C  4.61800 50.71500 40.32100
C  8.60300 53.46600 39.60500
C  6.13400 57.48600 41.16300
C  2.31900 54.51100 42.35700
N  6.30900 52.41600 39.81100
C  5.83700 51.14600 39.75600
C  6.78200 50.30400 38.93200
C  8.17900 51.01000 39.21200
C  7.67200 52.37500 39.60600
C  9.12000 50.42800 40.27600
C  6.33700 50.28800 37.42800
C  7.24600 49.39100 36.47300
H  6.30900 48.56600 35.50500
N  7.17900 55.34900 40.36400
C  8.34800 54.84300 39.94400
C  9.29400 55.97400 39.85100
C  8.51800 57.16500 40.09800
C  7.19800 56.72400 40.52900
C  10.65300 55.77900 39.39600
C  9.04100 58.50800 40.06500
O  10.18900 58.74700 39.63100
C  8.25500 59.73700 40.42200
N  4.34000 55.70100 41.48200
C  4.88200 56.95800 41.60000
C  3.93800 57.97100 42.31300
C  2.75600 57.02000 42.79900
C  3.16100 55.63200 42.21100
C  4.61600 58.86000 43.47800
C  1.30100 57.53300 42.33200
C  0.54100 58.30800 43.34500
N  3.72500 52.83300 41.25900
C  2.57800 53.18100 41.98300
C  1.77700 51.94200 42.12200
C  2.60400 50.99700 41.53400
C  3.68600 51.54900 40.96700
C  0.42900 51.81000 42.79600
C  2.51300 49.63100 41.27700
O  1.71500 48.78800 41.64700
C  3.93000 49.37000 40.43500
C  3.50500 48.62200 39.15600
O  2.45300 48.59200 38.50400
O  4.63200 47.87600 38.83200
C  4.70600 46.64000 38.10200
H  9.62200 53.25600 39.27300
H  6.33900 58.54200 41.35200
H  1.40500 54.73000 42.91400
H  6.95700 49.31500 39.35600
H  8.63600 51.11000 38.22800
H  10.12800 50.24600 39.90300
H  8.75000 49.47900 40.66400
H  9.15900 51.10100 41.13300
H  6.44400 51.29200 37.01700
H  5.29400 50.02300 37.25800
H  7.95400 48.62700 36.79100
H  7.82000 50.10900 35.88800
H  11.33000 56.24000 40.11600
H  10.66000 55.98100 38.32500
H  10.87600 54.72700 39.57100
H  8.91200 60.54600 40.10200
H  8.05600 59.74900 41.49400
H  7.37200 59.75300 39.78400
H  3.50700 58.60800 41.54100
H  2.63500 56.83400 43.86600
H  4.19100 58.71000 44.47000
H  4.26100 59.88200 43.34500
H  5.69700 58.73200 43.52600
H  0.72600 56.67400 41.98600
H  1.45000 58.15500 41.45000
H  -0.15200 58.98600 42.84700
H  1.23700 58.88700 43.95200
H  -0.02200 57.56600 43.91100
H  0.01100 50.88200 42.40600
H  -0.19900 52.66200 42.53800
H  0.64000 51.73700 43.86300
H  4.39000 48.65000 41.11100
H  4.15400 45.86000 38.62500
H  5.73800 46.35200 37.90300
H  4.32000 46.90400 37.11700

