158

Mg 48.44300 34.98700 26.23300
C  46.76700 33.48700 28.82900
C  48.76600 37.92000 28.02400
C  49.84400 36.48500 23.59900
C  47.69600 32.13200 24.33100
N  47.89000 35.62600 28.14400
C  47.34900 34.82700 29.12400
C  47.24100 35.51600 30.47900
C  47.55100 36.96900 30.06400
C  48.12100 36.85300 28.63300
C  46.31200 37.96500 30.00800
C  48.25000 34.95100 31.54800
C  47.96800 35.20500 33.06500
H  47.25900 36.49600 33.40600
N  49.42900 36.85800 25.95100
C  49.38900 37.92100 26.80300
C  50.26400 38.98700 26.25800
C  50.56200 38.66500 24.97500
C  49.94400 37.25600 24.76700
C  50.62700 40.10800 27.12300
C  51.19900 39.54900 23.89400
O  51.41900 39.10200 22.76300
C  51.54500 40.99100 24.20700
N  48.61800 34.46900 24.24000
C  49.35900 35.24700 23.33300
C  49.54900 34.46500 22.04700
C  49.06900 33.05700 22.37200
C  48.41900 33.19100 23.75100
C  48.68100 35.07600 20.93500
C  50.22600 31.94900 22.21200
C  50.29600 31.09000 21.03000
N  47.30400 33.21600 26.41400
C  47.15200 32.09000 25.62600
C  46.28800 31.16200 26.33100
C  46.14500 31.64800 27.55800
C  46.77200 32.91400 27.60000
C  45.83000 29.82700 25.80100
C  45.50800 31.40300 28.84400
O  44.79800 30.47600 29.23300
C  45.68500 32.71000 29.65700
C  45.92100 32.34900 31.04100
O  46.85200 31.67400 31.43000
O  44.81500 32.73700 31.79000
C  44.73400 32.56500 33.22900
H  48.65200 38.90100 28.48900
H  50.43800 36.91300 22.78900
H  47.63500 31.32400 23.59900
H  46.29500 35.58200 31.01700
H  48.32600 37.38500 30.70800
H  45.43500 37.69900 30.59900
H  45.88300 38.22300 29.04000
H  46.81800 38.85500 30.38100
H  49.27000 35.23600 31.29000
H  48.14900 33.88300 31.35600
H  48.88100 35.13200 33.65500
H  47.35200 34.41200 33.48800
H  50.03200 40.98900 26.88300
H  51.69700 40.29600 27.03500
H  50.38100 40.02900 28.18100
H  50.79800 41.43900 24.86200
H  51.76400 41.63200 23.35300
H  52.36700 40.91900 24.91900
H  50.56800 34.49600 21.66000
H  48.20600 32.80900 21.75400
H  47.91600 35.80100 21.21400
H  48.25000 34.25200 20.36600
H  49.40300 35.53500 20.26000
H  50.15700 31.23800 23.03500
H  51.20100 32.40700 22.38100
H  49.62200 31.36600 20.21900
H  50.00700 30.11300 21.41500
H  51.30100 30.86400 20.67200
H  44.93400 30.12200 25.25600
H  45.59800 29.06600 26.54600
H  46.52100 29.48400 25.03100
H  44.76800 33.30000 29.63500
H  43.71900 32.95000 33.32800
H  45.53600 33.02200 33.80800
H  44.78700 31.51100 33.50400
Mg 30.23000 57.68600 39.06200
C  27.46400 55.65600 38.20500
C  32.28600 55.16300 38.11900
C  32.68900 59.77600 39.52700
C  27.91500 60.40100 39.43700
N  29.90100 55.57100 38.11500
C  28.67100 54.93300 37.97500
C  28.92900 53.43500 37.68300
C  30.48500 53.29600 37.73400
C  30.93100 54.70100 38.05200
C  31.00400 52.20800 38.74300
C  28.42500 53.00000 36.23700
C  29.04500 53.71500 34.96500
H  28.07900 54.45500 34.12200
N  32.23800 57.50500 38.80200
C  32.93100 56.41400 38.48500
C  34.23700 56.68500 38.51800
C  34.42100 57.98700 39.00800
C  33.04500 58.52100 39.08600
C  35.25000 55.63100 38.27300
C  35.73800 58.63800 39.48400
O  36.80700 58.06400 39.58000
C  35.79300 60.12400 39.84500
N  30.30100 59.81600 39.41900
C  31.47800 60.38800 39.74400
C  31.33000 61.86200 40.27300
C  29.82300 62.00600 40.11900
C  29.29400 60.71700 39.58000
C  32.00700 62.03800 41.67500
C  29.47000 63.26500 39.18400
C  28.32600 64.18700 39.76900
N  28.16900 58.04700 38.85600
C  27.38200 59.14100 39.12900
C  26.01300 58.74200 39.01800
C  26.04300 57.42400 38.62200
C  27.37800 57.02900 38.50100
C  24.87500 59.62400 39.33500
C  25.19300 56.21600 38.40500
O  24.01600 56.07900 38.49000
C  26.09500 55.06100 37.99600
C  25.83500 53.90400 38.76800
O  26.15000 53.65500 39.92400
O  24.93100 53.11700 38.04500
C  24.33900 51.92700 38.78200
H  32.90700 54.28000 37.95400
H  33.46000 60.50300 39.79200
H  27.23000 61.23200 39.62000
H  28.37300 52.90100 38.45300
H  30.86000 53.02200 36.74800
H  31.33500 52.69500 39.66100
H  31.85000 51.67300 38.31200
H  30.23300 51.45400 38.89800
H  27.34000 53.04900 36.15400
H  28.67200 51.94200 36.14000
H  29.46100 52.96100 34.29700
H  29.89700 54.36800 35.15600
H  35.40800 55.02200 39.16300
H  36.26600 55.91300 37.99600
H  34.97200 54.88900 37.52400
H  36.85000 60.30400 40.04100
H  35.39800 60.17700 40.85900
H  35.30300 60.79800 39.14200
H  31.86000 62.56300 39.62800
H  29.35500 62.13100 41.09600
H  31.29500 62.61900 42.26100
H  32.99200 62.50100 41.63100
H  32.03800 61.08200 42.19900
H  29.04500 62.94300 38.23400
H  30.39500 63.77800 38.91900
H  27.46300 63.98700 39.13400
H  28.67100 65.21300 39.63800
H  27.94900 63.92500 40.75700
H  24.50700 59.19900 40.26900
H  24.10700 59.51500 38.56900
H  25.13700 60.67400 39.46100
H  26.03900 54.80400 36.93800
H  24.70100 51.84400 39.80700
H  24.61300 51.00500 38.26900
H  23.25100 51.97300 38.82900

