158

Mg 17.52800 -2.28100 27.26500
C  16.68700 -0.40500 30.07400
C  19.47900 -4.23900 29.32800
C  18.93600 -3.79600 24.41800
C  16.02200 0.08700 25.22100
N  18.17100 -2.09800 29.43100
C  17.53000 -1.46200 30.44300
C  17.97900 -1.90200 31.86000
C  18.98900 -3.06800 31.54000
C  18.86300 -3.18300 29.99100
C  20.39500 -2.65200 31.97200
C  16.79700 -2.32100 32.74200
C  16.91100 -1.73900 34.15300
H  18.23100 -1.41800 34.76900
N  18.82500 -3.86600 26.89700
C  19.54000 -4.54100 27.89300
C  20.35900 -5.64500 27.26700
C  20.07700 -5.62200 25.86700
C  19.25300 -4.39000 25.65400
C  21.14700 -6.63200 28.05300
C  20.53700 -6.53500 24.73000
O  20.10200 -6.35900 23.57000
C  21.37500 -7.78700 24.99100
N  17.38700 -1.99700 25.07800
C  18.15300 -2.64500 24.15600
C  17.98000 -1.95200 22.76300
C  17.02200 -0.77900 23.05900
C  16.79600 -0.92600 24.54800
C  19.38200 -1.61200 22.13600
C  15.72200 -0.67000 22.15600
C  14.56100 -1.51500 22.71700
N  16.39300 -0.65000 27.51100
C  15.78200 0.20600 26.61900
C  15.00000 1.21200 27.33800
C  15.39500 0.98300 28.66300
C  16.27500 -0.10400 28.73800
C  14.02900 2.15200 26.67100
C  15.09500 1.47900 30.03200
O  14.25500 2.30500 30.40700
C  15.97600 0.59800 30.98600
C  16.85000 1.42800 31.85500
O  17.88900 1.94900 31.52100
O  16.42100 1.51900 33.14400
C  17.12500 2.61700 33.91500
H  20.08600 -4.92100 29.92600
H  19.43000 -4.22800 23.54600
H  15.68700 0.86300 24.52900
H  18.38900 -0.99800 32.31100
H  18.85700 -4.00100 32.08800
H  21.00700 -2.80900 31.08400
H  20.66900 -3.26600 32.83000
H  20.50300 -1.60400 32.24900
H  16.65200 -3.39700 32.83500
H  15.94200 -1.83100 32.27500
H  16.31600 -2.39800 34.78500
H  16.28100 -0.85500 34.05400
H  20.50400 -7.46100 28.34700
H  21.52400 -6.14600 28.95300
H  21.97300 -7.11500 27.53100
H  20.87400 -8.48200 25.66500
H  22.32500 -7.44100 25.39600
H  21.66600 -8.21300 24.03100
H  17.45600 -2.71800 22.19000
H  17.45600 0.19900 22.85500
H  19.55200 -2.34900 21.35100
H  20.09100 -1.65500 22.96300
H  19.42000 -0.60900 21.71200
H  15.97700 -0.98200 21.14300
H  15.33300 0.34600 22.10700
H  13.86700 -0.79800 23.15700
H  14.84800 -2.29400 23.42300
H  14.00900 -1.92700 21.87300
H  13.56100 1.61500 25.84600
H  14.57900 3.00400 26.27100
H  13.26200 2.41200 27.40100
H  15.27800 0.10900 31.66500
H  16.64400 2.84000 34.86700
H  17.09000 3.52800 33.31700
H  18.17100 2.31700 33.97300
Mg -10.08500 18.41100 41.89700
C  -6.78500 17.66500 41.80200
C  -9.39500 21.74400 41.35000
C  -13.37300 19.01300 41.35600
C  -10.78000 15.04900 42.17800
N  -8.29900 19.46200 41.36700
C  -6.99500 19.00000 41.55100
C  -5.97000 20.07900 41.46700
C  -6.81700 21.39500 41.45900
C  -8.29700 20.83100 41.42200
C  -6.52300 22.38400 42.58200
C  -5.02800 19.88200 40.27100
C  -5.63600 19.11300 39.06500
H  -4.83400 19.21200 37.75800
N  -11.22800 20.14800 41.31100
C  -10.76400 21.40500 41.18400
C  -11.88700 22.31600 40.92500
C  -13.08400 21.55300 40.93400
C  -12.61000 20.18500 41.16700
C  -11.75400 23.76500 40.68100
C  -14.44200 22.13300 40.67000
O  -14.56900 23.32900 40.53200
C  -15.61300 21.18800 40.53800
N  -11.76700 17.25800 41.86300
C  -12.95100 17.71200 41.71200
C  -14.11600 16.69400 41.90400
C  -13.32300 15.39300 41.77500
C  -11.85200 15.89300 41.84200
C  -14.90500 16.92100 43.24400
C  -13.66100 14.50700 40.48400
C  -15.14300 14.10400 40.22800
N  -8.99600 16.66400 42.07100
C  -9.38800 15.34300 42.21600
C  -8.25300 14.45000 42.28700
C  -7.20500 15.39100 42.23900
C  -7.69100 16.67500 41.99800
C  -8.16900 12.98300 42.44000
C  -5.79200 15.48500 42.36500
O  -4.92500 14.60000 42.64200
C  -5.46100 16.94600 42.06100
C  -4.63600 17.52300 43.14100
O  -3.61000 18.09700 43.05500
O  -5.21100 17.20100 44.39500
C  -4.42300 17.51600 45.61600
H  -9.22400 22.81700 41.24600
H  -14.43600 19.05600 41.10800
H  -11.07200 14.01300 41.99200
H  -5.33900 20.01500 42.35400
H  -6.74000 21.90800 40.50000
H  -5.59200 22.18700 43.11200
H  -7.29300 22.50700 43.34400
H  -6.38500 23.29500 41.99900
H  -4.19300 19.32300 40.69200
H  -4.70600 20.84800 39.88100
H  -6.63200 19.53300 38.92300
H  -5.80100 18.07000 39.33600
H  -12.41500 24.16300 39.91100
H  -10.77600 24.07800 40.31800
H  -11.95300 24.35200 41.57800
H  -15.72700 20.76200 41.53400
H  -15.25400 20.48400 39.78700
H  -16.50900 21.59700 40.07000
H  -14.83900 16.92200 41.12100
H  -13.54000 14.89100 42.71900
H  -15.74000 17.57300 42.99000
H  -14.21900 17.39000 43.94800
H  -15.21100 15.95600 43.64700
H  -13.09200 13.58400 40.58900
H  -13.16900 14.97700 39.63200
H  -15.56600 14.53700 39.32100
H  -15.69100 14.49500 41.08500
H  -15.05900 13.02700 40.08700
H  -7.38100 12.37700 41.99200
H  -9.12000 12.53700 42.14700
H  -8.04400 12.90700 43.52000
H  -4.84400 16.93500 41.16200
H  -5.03900 17.98300 46.38500
H  -3.62400 18.20700 45.34600
H  -3.77400 16.75200 46.04500

