158

Mg 41.59000 8.93100 29.66000
C  43.49100 10.09800 32.18200
C  39.46200 7.30500 31.94800
C  39.85700 7.82900 27.04800
C  44.11600 10.15500 27.36000
N  41.38800 8.75300 31.73900
C  42.32200 9.33900 32.58800
C  41.95000 9.12900 34.07900
C  40.82400 8.05800 33.99800
C  40.50900 8.04300 32.48300
C  41.32100 6.64500 34.37700
C  41.45800 10.51800 34.62400
C  40.82400 10.52100 36.12600
H  41.56000 11.31000 37.22900
N  39.90300 7.80200 29.54600
C  39.21600 7.15100 30.57300
C  38.03600 6.44100 30.01000
C  38.01700 6.78300 28.59300
C  39.34100 7.44400 28.33000
C  36.99200 5.66900 30.80500
C  37.04200 6.48700 27.60900
O  37.23100 6.76200 26.41200
C  35.70300 5.90200 27.90900
N  42.13100 8.75100 27.54700
C  41.11000 8.43700 26.73100
C  41.42300 8.62400 25.18200
C  42.81400 9.28000 25.29800
C  43.08400 9.41700 26.85300
C  41.42900 7.33000 24.33000
C  43.12500 10.53900 24.45900
C  42.66200 11.91900 24.84100
N  43.42100 9.96500 29.70500
C  44.27500 10.47100 28.74200
C  45.32400 11.26200 29.35700
C  45.02200 11.22900 30.73700
C  43.95200 10.33500 30.86900
C  46.45400 11.96600 28.62700
C  45.40700 11.69300 32.04600
O  46.26000 12.53100 32.30700
C  44.48100 10.97000 33.04200
C  45.14100 10.10100 34.07600
O  45.88000 9.15200 33.83900
O  44.83300 10.48100 35.39800
C  45.23100 9.58100 36.50000
H  38.84200 6.71200 32.62300
H  39.30300 7.67200 26.12000
H  44.89700 10.53200 26.69700
H  42.82500 8.74400 34.60200
H  39.99400 8.25700 34.67600
H  41.00600 5.89000 33.65700
H  40.71400 6.41600 35.25200
H  42.40000 6.56700 34.50800
H  40.75100 11.01500 33.95900
H  42.34400 11.14000 34.74600
H  40.82300 9.50700 36.52600
H  39.78600 10.85100 36.09100
H  37.18000 5.57400 31.87400
H  36.82900 4.65900 30.42900
H  35.99800 6.11600 30.82300
H  35.11300 6.60300 28.50000
H  35.73900 4.99700 28.51400
H  35.34100 5.65500 26.91100
H  40.75900 9.33900 24.69700
H  43.57800 8.53300 25.08000
H  40.64400 7.31600 23.57400
H  41.14400 6.52600 25.00800
H  42.42800 7.14900 23.93300
H  42.63300 10.36100 23.50200
H  44.21200 10.45500 24.45800
H  43.54000 12.56600 24.83900
H  42.21100 11.91600 25.83300
H  42.00800 12.50000 24.19000
H  47.33300 11.40400 28.31100
H  46.83900 12.78700 29.23200
H  46.17100 12.36800 27.65400
H  43.94000 11.76500 33.55400
H  46.31900 9.64600 36.52100
H  44.96600 8.54800 36.27600
H  44.70600 9.83100 37.42200
Mg -8.90100 17.25900 41.69500
C  -5.41600 17.02200 41.54000
C  -8.66100 20.51900 41.01700
C  -12.18100 17.21200 41.26300
C  -9.00200 13.79500 42.11700
N  -7.17200 18.54700 41.35800
C  -5.89200 18.24000 41.20400
C  -5.05700 19.42800 40.68500
C  -6.05300 20.58700 41.06600
C  -7.42500 19.85100 41.12000
C  -5.80600 21.45500 42.39900
C  -4.67000 19.22400 39.15900
C  -3.17500 19.04800 38.83000
H  -2.78000 17.71500 38.22200
N  -10.22900 18.68400 41.29900
C  -9.94200 20.01000 41.04500
C  -11.14600 20.70200 40.73000
C  -12.24800 19.76600 40.80000
C  -11.64400 18.46500 41.10700
C  -11.22200 22.10800 40.25300
C  -13.72800 19.99800 40.51800
O  -14.15100 21.12100 40.34200
C  -14.71800 18.90900 40.36300
N  -10.38800 15.64800 41.52000
C  -11.68100 15.94900 41.50400
C  -12.48400 14.69500 41.95700
C  -11.48600 13.58100 42.18700
C  -10.18900 14.41300 41.87900
C  -13.41600 14.94900 43.20000
C  -11.48800 12.36600 41.23500
C  -12.71700 11.46800 41.39100
N  -7.45100 15.68500 41.69200
C  -7.70300 14.37100 42.04700
C  -6.45600 13.71600 42.35400
C  -5.47600 14.69400 42.17500
C  -6.16900 15.88800 41.84600
C  -6.29000 12.34200 42.89300
C  -4.01900 15.06200 42.26800
O  -3.02900 14.40100 42.52000
C  -3.95800 16.61400 41.90600
C  -3.49000 17.49500 43.06600
O  -4.23100 18.23600 43.66300
O  -2.17100 17.48200 43.21100
C  -1.59100 18.54500 44.05200
H  -8.59000 21.58600 40.79500
H  -13.27100 17.19100 41.32100
H  -9.09600 12.75000 42.42000
H  -4.15100 19.47800 41.28900
H  -6.00500 21.31300 40.25400
H  -5.58900 22.49700 42.16600
H  -4.89900 21.15600 42.92600
H  -6.68100 21.39300 43.04500
H  -5.08400 20.02900 38.55300
H  -5.14900 18.38000 38.66300
H  -2.73600 19.11900 39.82500
H  -2.86300 19.85200 38.16300
H  -10.22700 22.53000 40.11400
H  -11.60100 22.77500 41.02800
H  -11.88600 22.21200 39.39600
H  -15.53500 19.27100 39.73800
H  -15.06800 18.42300 41.27300
H  -14.32200 18.11700 39.72800
H  -13.11300 14.30000 41.15900
H  -11.49500 13.16500 43.19400
H  -12.99000 14.53100 44.11200
H  -14.34000 14.46700 42.88000
H  -13.47300 16.01700 43.41000
H  -10.58300 11.75800 41.24000
H  -11.51900 12.86700 40.26800
H  -13.41600 11.63100 40.57100
H  -13.26100 11.74900 42.29200
H  -12.52400 10.39500 41.38300
H  -7.17300 12.05500 43.46300
H  -5.47000 12.22600 43.60200
H  -6.11800 11.65200 42.06700
H  -3.40100 16.70400 40.97300
H  -1.85500 19.50000 43.59900
H  -0.52300 18.33700 44.11800
H  -2.00900 18.50200 45.05800

