158

Mg -1.38000 16.93800 26.45300
C  -1.88100 14.67300 29.19600
C  -2.08500 19.47400 28.70000
C  -1.41000 19.06200 23.90600
C  -1.79800 14.19300 24.28000
N  -1.77600 17.04500 28.66700
C  -1.80100 16.05000 29.59100
C  -2.05800 16.57500 31.09400
C  -2.40000 18.08900 30.84300
C  -2.07400 18.18800 29.34700
C  -3.92300 18.34100 31.11000
C  -0.76800 16.34500 31.95000
C  -0.46200 17.38300 33.04200
H  0.10600 16.73800 34.27400
N  -1.54200 18.96500 26.32500
C  -1.78900 19.87200 27.37200
C  -1.69300 21.22000 26.88700
C  -1.25400 21.09900 25.50300
C  -1.30700 19.65700 25.18800
C  -1.98200 22.44500 27.79100
C  -0.96400 22.16300 24.47800
O  -0.42500 21.88200 23.40000
C  -1.20900 23.59600 24.95500
N  -1.46300 16.62000 24.39200
C  -1.45800 17.74600 23.56900
C  -1.67500 17.24800 22.09500
C  -1.43600 15.71900 22.28800
C  -1.56000 15.47100 23.71400
C  -3.15400 17.55300 21.61600
C  -0.02200 15.32500 21.69100
C  0.05300 13.89000 21.09900
N  -1.75600 14.87100 26.57100
C  -1.90500 13.88800 25.65900
C  -2.25200 12.61500 26.30100
C  -2.17800 12.89500 27.64300
C  -1.87500 14.26400 27.82100
C  -2.49900 11.33100 25.60000
C  -2.47300 12.34400 28.96200
O  -2.76600 11.19200 29.26800
C  -2.29500 13.52600 30.05600
C  -1.31000 13.21200 31.03800
O  -0.11300 13.10500 30.87200
O  -1.88700 12.93600 32.28100
C  -0.95200 12.36000 33.27700
H  -2.14400 20.23800 29.47800
H  -1.47300 19.72400 23.03900
H  -1.95400 13.38300 23.56600
H  -2.87000 16.06600 31.61300
H  -1.67200 18.71200 31.36300
H  -4.58500 18.08500 30.28300
H  -4.03000 19.42300 31.19200
H  -4.30800 17.78700 31.96600
H  0.07300 16.23200 31.26600
H  -1.02600 15.39600 32.42100
H  -1.42000 17.82300 33.31900
H  0.23900 18.14100 32.69400
H  -2.30900 22.12800 28.78100
H  -2.68300 23.13200 27.31800
H  -0.98800 22.87400 27.92300
H  -1.44000 24.22100 24.09300
H  -0.27800 23.92600 25.41700
H  -1.99900 23.80300 25.67700
H  -0.89600 17.71700 21.49300
H  -2.20600 15.20900 21.70900
H  -3.63700 16.75100 21.05900
H  -3.03800 18.46600 21.03200
H  -3.86100 17.74500 22.42300
H  0.69200 15.31400 22.51400
H  0.27600 16.03900 20.92200
H  0.28500 13.96000 20.03700
H  -0.79500 13.23000 21.27900
H  0.88300 13.41700 21.62400
H  -2.67000 11.40300 24.52600
H  -3.35400 10.96900 26.16900
H  -1.69800 10.61000 25.76200
H  -3.23300 13.81300 30.53000
H  -0.77800 13.15100 34.00700
H  0.02500 11.95900 33.00600
H  -1.57800 11.63800 33.80200
Mg 35.24400 1.90300 29.27800
C  33.04800 2.98500 31.88900
C  37.78000 1.85300 31.72700
C  37.40500 0.96800 26.89400
C  32.68500 2.31100 27.07200
N  35.39600 2.27400 31.49100
C  34.31100 2.68800 32.33800
C  34.80200 2.70600 33.80800
C  36.35200 2.69700 33.69500
C  36.55600 2.22200 32.25200
C  37.00600 4.17000 33.85700
C  34.20600 1.66000 34.81200
C  33.81800 2.15300 36.24600
H  34.60800 3.29400 36.83400
N  37.32200 1.45000 29.38200
C  38.17200 1.55400 30.41300
C  39.47900 1.06900 29.98900
C  39.36900 0.70400 28.59900
C  38.00800 1.08800 28.20700
C  40.67900 1.15100 30.83600
C  40.44800 0.26000 27.66800
O  40.18400 -0.03500 26.50000
C  41.88300 0.00600 28.11900
N  35.16400 1.80700 27.20700
C  36.18100 1.34700 26.44700
C  35.72200 1.24000 24.97700
C  34.14200 1.36800 25.08500
C  33.97800 1.90600 26.54300
C  36.41600 2.27700 24.01500
C  33.34900 0.10100 24.91100
C  32.02000 0.23400 24.26700
N  33.31400 2.57000 29.41600
C  32.40800 2.67600 28.41500
C  31.17400 3.12100 28.93000
C  31.31100 3.21500 30.30300
C  32.62100 2.84600 30.54300
C  29.84300 3.20800 28.18000
C  30.62900 3.55300 31.60000
O  29.48800 3.78700 31.93900
C  31.80800 3.41400 32.68000
C  31.92200 4.68200 33.39000
O  32.68600 5.65200 33.17300
O  31.05000 4.63000 34.48300
C  31.33400 5.55100 35.59300
H  38.55400 1.94800 32.49000
H  38.03400 0.58800 26.08600
H  31.90100 2.33600 26.31300
H  34.56300 3.72000 34.13000
H  36.77700 2.08200 34.48800
H  36.29100 4.77900 34.41100
H  37.21900 4.71300 32.93600
H  37.89800 4.09500 34.47900
H  34.96000 0.88200 34.92800
H  33.30100 1.12100 34.53100
H  34.12200 1.32300 36.88300
H  32.77300 2.33300 36.50000
H  41.21800 0.20800 30.74500
H  40.45100 1.48900 31.84700
H  41.36200 1.92400 30.48300
H  42.21000 0.81000 28.77900
H  42.52700 -0.06900 27.24200
H  41.84600 -0.88400 28.74700
H  36.02900 0.22300 24.73300
H  33.90700 2.11400 24.32600
H  36.88500 1.89400 23.10900
H  37.27700 2.60100 24.59900
H  35.75200 3.11800 23.81700
H  33.25500 -0.34000 25.90400
H  33.88900 -0.55400 24.22800
H  31.95100 -0.34700 23.34700
H  31.80900 1.29600 24.14200
H  31.18500 -0.18300 24.83000
H  29.40400 2.21400 28.09000
H  30.01600 3.52000 27.15000
H  29.14400 3.88300 28.67300
H  31.56900 2.51700 33.25100
H  30.92700 5.16300 36.52700
H  30.67400 6.41600 35.52500
H  32.28900 6.06400 35.70500

