158

Mg 40.75100 9.53600 29.11000
C  42.58500 10.72000 31.80600
C  38.59700 7.92300 31.11700
C  39.43500 8.18000 26.44400
C  43.56400 10.54000 27.04900
N  40.70900 9.29900 31.20200
C  41.48500 9.99800 32.18200
C  40.88100 9.78500 33.57000
C  39.66600 8.80300 33.28400
C  39.68800 8.59500 31.80800
C  39.59500 7.58600 34.29700
C  40.43200 11.14500 34.22900
C  39.50300 11.01400 35.41800
H  39.87600 11.59500 36.79700
N  39.17200 8.26800 28.83200
C  38.34000 7.74900 29.76500
C  37.27100 7.05100 29.12300
C  37.52300 7.02100 27.73000
C  38.72500 7.85800 27.62500
C  36.04700 6.47900 29.85300
C  36.73100 6.50100 26.62100
O  37.07200 6.81800 25.47700
C  35.58400 5.52300 26.80200
N  41.43000 9.40100 27.04900
C  40.58700 8.87700 26.13400
C  41.09900 8.93600 24.67500
C  42.49400 9.65900 24.89200
C  42.53600 9.90500 26.43300
C  41.16800 7.49900 24.02200
C  42.74200 10.85100 23.96600
C  42.15600 12.23100 24.37200
N  42.65900 10.54800 29.28900
C  43.63400 10.86400 28.42000
C  44.69600 11.60100 29.04900
C  44.30100 11.45800 30.37500
C  43.06600 10.81400 30.46500
C  45.88200 12.13200 28.42400
C  44.78600 11.72800 31.68900
O  45.85500 12.14500 32.09300
C  43.64100 11.35500 32.69800
C  44.08500 10.29400 33.72700
O  44.49600 9.17300 33.49400
O  44.02100 10.86000 34.97400
C  44.62200 10.13600 36.03700
H  37.83600 7.44700 31.73800
H  39.04700 7.80200 25.49600
H  44.41100 10.75200 26.39300
H  41.66300 9.19300 34.04500
H  38.68800 9.27800 33.35700
H  38.70900 7.55800 34.93200
H  40.43900 7.61100 34.98700
H  39.68400 6.66200 33.72500
H  40.05000 11.94900 33.60000
H  41.36000 11.59700 34.57800
H  39.23900 9.96100 35.51600
H  38.68200 11.67400 35.13700
H  35.10600 6.59800 29.31700
H  36.05300 6.97300 30.82500
H  36.17200 5.39600 29.86100
H  35.59900 4.80800 25.97900
H  34.59500 5.97900 26.83300
H  35.84500 4.91400 27.66700
H  40.42300 9.57500 24.10800
H  43.31000 8.94800 24.76100
H  40.39600 7.27300 23.28600
H  41.20600 6.67800 24.73800
H  42.14800 7.40200 23.55400
H  42.25200 10.54500 23.04200
H  43.81400 10.96800 23.80600
H  41.59000 12.62500 23.52800
H  43.03400 12.85100 24.55000
H  41.47500 12.20100 25.22300
H  45.69900 12.96700 27.74800
H  46.53000 11.39600 27.94800
H  46.44000 12.56400 29.25500
H  43.28600 12.22100 33.25800
H  43.84200 9.79000 36.71500
H  45.17500 10.91300 36.56500
H  45.26500 9.30400 35.75200
Mg 8.77600 48.75400 26.23900
C  6.48800 48.32500 28.74000
C  11.04600 50.12000 28.53900
C  10.78800 49.46500 23.64600
C  6.12800 48.14900 23.92200
N  8.72300 49.14400 28.36500
C  7.76200 48.72400 29.17700
C  8.22000 49.04400 30.66200
C  9.49100 49.90400 30.60000
C  9.74100 49.82700 29.07500
C  9.39900 51.38400 31.01900
C  8.40600 47.75300 31.49100
C  9.18800 47.78800 32.83600
H  8.66600 47.08300 34.03800
N  10.72000 49.36800 26.21500
C  11.47000 49.95400 27.21600
C  12.70600 50.24400 26.68000
C  12.77700 49.91200 25.25200
C  11.34600 49.56000 25.01300
C  13.82400 50.87200 27.48200
C  14.00800 49.93500 24.23200
O  13.81800 49.52400 23.10600
C  15.34000 50.40300 24.57000
N  8.45500 48.97100 24.07400
C  9.53400 49.10900 23.23100
C  9.12700 48.79700 21.76900
C  7.72600 48.12900 21.95600
C  7.37600 48.46300 23.42100
C  9.17900 49.99800 20.78200
C  7.87400 46.54900 21.95000
C  8.20400 45.99000 20.52500
N  6.72700 48.29900 26.27500
C  5.73700 48.23300 25.30300
C  4.44900 47.95700 25.89500
C  4.71700 47.95900 27.27000
C  6.06400 48.21900 27.42800
C  3.28300 47.65900 25.08900
C  4.13900 47.76900 28.58400
O  3.04900 47.42000 28.92800
C  5.37000 47.85100 29.63100
C  5.49000 46.46000 29.99200
O  6.10300 45.64700 29.36600
O  4.76700 46.17800 31.16500
C  4.91400 44.82500 31.80300
H  11.79100 50.42400 29.27700
H  11.56600 49.76200 22.93900
H  5.42000 47.88500 23.13400
H  7.55800 49.62600 31.30400
H  10.32400 49.43700 31.12700
H  9.50600 52.08100 30.18800
H  10.18500 51.69600 31.70800
H  8.44000 51.51100 31.52100
H  8.83100 47.03300 30.79100
H  7.43200 47.27700 31.60100
H  9.23100 48.82900 33.15800
H  10.19500 47.51100 32.52500
H  14.80100 50.70600 27.02800
H  13.89700 50.59400 28.53300
H  13.63800 51.94600 27.48800
H  15.94100 49.77800 25.23200
H  15.28500 51.41500 24.97100
H  15.90700 50.34900 23.64100
H  9.93300 48.19100 21.35500
H  7.12800 48.56700 21.15700
H  9.49800 50.94700 21.21200
H  8.20600 50.20600 20.33800
H  9.91300 49.82100 19.99600
H  6.85300 46.23600 22.17100
H  8.59000 46.26900 22.72200
H  7.99800 46.77100 19.79300
H  7.62700 45.15600 20.12500
H  9.25100 45.77200 20.31600
H  3.05200 46.76300 24.51300
H  3.28900 48.44700 24.33500
H  2.44000 47.88600 25.74000
H  5.11900 48.56400 30.41600
H  4.02500 44.20400 31.69000
H  5.06100 44.92000 32.87900
H  5.71900 44.23800 31.36100

