158

Mg 8.12400 2.48900 28.40100
C  9.55800 1.03900 31.25900
C  6.48100 4.72700 30.36500
C  6.16100 3.32100 25.77000
C  9.35200 -0.31100 26.46000
N  7.93000 2.73900 30.62100
C  8.68700 2.09900 31.59200
C  8.54500 2.79300 32.93600
C  7.35200 3.83500 32.58800
C  7.24800 3.82700 31.09700
C  6.00400 3.53100 33.27600
C  9.79300 3.44000 33.56700
C  10.39800 2.76300 34.82100
H  10.79100 3.72800 35.89800
N  6.76700 4.04900 27.99400
C  6.21600 4.90900 28.93800
C  5.27100 5.78800 28.24300
C  5.23800 5.42800 26.85600
C  6.11500 4.28500 26.83500
C  4.47200 6.97200 28.93300
C  4.44600 6.04700 25.63000
O  4.47900 5.68300 24.46900
C  3.51100 7.26400 25.84800
N  7.85200 1.61900 26.38800
C  6.92500 2.17400 25.58400
C  7.13000 1.59300 24.12100
C  8.00500 0.35500 24.37900
C  8.39400 0.55700 25.84800
C  5.87700 1.12400 23.37500
C  9.07700 0.08900 23.26200
C  9.02800 -1.18400 22.37800
N  9.23900 0.77100 28.73600
C  9.65700 -0.23600 27.83600
C  10.48600 -1.20800 28.60600
C  10.48800 -0.70300 29.89300
C  9.70900 0.45900 29.94900
C  11.29800 -2.33400 28.02500
C  10.93400 -0.95900 31.31200
O  11.74200 -1.75300 31.80100
C  10.32400 0.15200 32.17600
C  9.43800 -0.58800 33.16100
O  8.31600 -1.00100 32.97800
O  10.12300 -0.63600 34.34600
C  9.38500 -1.41400 35.41200
H  6.09400 5.54000 30.98200
H  5.60800 3.63200 24.88100
H  9.73600 -1.05700 25.76000
H  8.20800 2.16400 33.76000
H  7.63700 4.79500 33.01800
H  6.09000 2.47300 33.52200
H  5.21800 3.47200 32.52300
H  5.78500 4.36700 33.94000
H  9.71100 4.51600 33.71900
H  10.57700 3.36400 32.81300
H  11.29100 2.25500 34.45500
H  9.75500 1.96800 35.19700
H  4.81800 7.94200 28.57600
H  4.85400 7.05400 29.95000
H  3.43100 6.89300 28.62000
H  2.75100 7.06100 26.60300
H  2.93900 7.55800 24.96800
H  4.10300 8.08900 26.24500
H  7.68300 2.23900 23.43900
H  7.34300 -0.50700 24.45800
H  5.07800 1.33800 24.08600
H  5.77300 0.10700 22.99900
H  5.72100 1.93500 22.66300
H  10.09300 0.20600 23.63800
H  9.03000 0.83500 22.46800
H  8.95300 -0.98700 21.30800
H  8.15900 -1.80400 22.59800
H  9.92800 -1.78900 22.48400
H  12.02400 -2.03600 27.26900
H  10.75200 -3.17600 27.59800
H  11.80800 -2.67400 28.92600
H  11.23200 0.62200 32.55300
H  8.88500 -2.27300 34.96500
H  8.60300 -0.83400 35.90000
H  9.98200 -1.85600 36.21000
Mg 17.60100 51.46300 26.70400
C  19.62500 49.91800 29.20400
C  15.26100 52.29900 28.93000
C  15.89900 52.54500 24.04600
C  20.22300 50.25900 24.37900
N  17.40500 50.97700 28.83100
C  18.39400 50.50400 29.69500
C  18.02300 50.82400 31.21100
C  16.49800 51.34600 31.03400
C  16.34800 51.58700 29.45700
C  15.32000 50.38100 31.59400
C  18.96400 51.89600 31.80300
C  19.35500 51.71000 33.26600
H  18.55200 50.79300 34.22000
N  15.82200 52.18300 26.53700
C  14.96000 52.52500 27.58600
C  13.74500 53.02900 26.98900
C  13.91600 53.24300 25.57800
C  15.24500 52.67000 25.32600
C  12.45300 53.23400 27.80300
C  12.94700 53.86800 24.50800
O  13.30500 54.03300 23.32800
C  11.59200 54.25700 24.86400
N  17.99000 51.32500 24.51700
C  17.14800 51.96400 23.68600
C  17.58000 51.93700 22.24700
C  19.07100 51.37900 22.39400
C  19.09300 50.95500 23.85600
C  16.66400 51.06500 21.30600
C  20.14000 52.51800 22.16700
C  21.50500 52.06300 21.62200
N  19.51700 50.29700 26.69300
C  20.38800 49.89000 25.75200
C  21.48400 49.12100 26.29900
C  21.24000 49.13900 27.65600
C  20.04500 49.84600 27.86600
C  22.73100 48.69500 25.48500
C  21.69100 48.75200 28.99100
O  22.65100 48.02800 29.31200
C  20.70200 49.31700 30.01300
C  20.20200 48.25900 30.84700
O  19.68100 47.26700 30.37400
O  20.51900 48.45700 32.19500
C  20.33400 47.24600 33.11300
H  14.52800 52.63100 29.66900
H  15.29200 52.80800 23.17800
H  20.99900 49.92700 23.68600
H  17.97100 49.86300 31.72400
H  16.37200 52.31200 31.52200
H  14.63000 50.98300 32.18600
H  15.73200 49.57300 32.20000
H  14.81100 49.97500 30.72000
H  18.45500 52.85900 31.76500
H  19.90200 52.12800 31.29900
H  19.40000 52.64600 33.82200
H  20.37300 51.32300 33.24700
H  11.66600 52.68500 27.28600
H  12.26100 54.30200 27.90900
H  12.59500 52.78700 28.78700
H  11.14800 54.98600 24.18600
H  11.36800 54.76600 25.80100
H  10.93700 53.38800 24.92800
H  17.53800 52.94100 21.82300
H  19.27500 50.46300 21.83900
H  15.73700 50.86300 21.84200
H  17.16300 50.12900 21.05300
H  16.33700 51.53100 20.37700
H  20.48400 52.73200 23.17900
H  19.83400 53.42900 21.65200
H  21.67200 52.76100 20.80100
H  21.44900 50.99700 21.40400
H  22.33400 52.24200 22.30800
H  23.01400 49.46400 24.76600
H  22.56400 47.71800 25.03300
H  23.51400 48.67500 26.24300
H  21.21100 50.02900 30.66200
H  20.89700 47.33900 34.04200
H  20.48200 46.24800 32.69900
H  19.29100 47.35000 33.41300

