158

Mg 48.29500 15.94800 28.07800
C  46.11200 15.98900 30.94500
C  50.45700 17.85900 29.71700
C  49.87900 16.16100 25.16500
C  45.32400 14.68800 26.28600
N  48.18700 16.94700 30.06800
C  47.35800 16.65800 31.14600
C  47.98100 17.17700 32.42500
C  49.16500 18.05400 31.91400
C  49.30600 17.55500 30.52300
C  48.83300 19.54400 31.81600
C  48.36100 15.99600 33.34600
C  47.94600 16.15800 34.82700
H  47.28100 17.42500 35.41700
N  50.08500 16.71000 27.59700
C  50.80500 17.50000 28.38900
C  51.94200 18.01700 27.64000
C  51.82500 17.45800 26.33300
C  50.57600 16.65900 26.28500
C  52.95400 19.10600 28.16100
C  52.69000 17.64600 25.10000
O  52.46500 17.00200 24.07200
C  53.83200 18.49900 25.11200
N  47.64500 15.52500 26.03800
C  48.63800 15.56300 25.11300
C  48.07300 15.06600 23.79800
C  46.63300 14.61200 24.12300
C  46.48300 15.00400 25.52300
C  48.18900 16.17400 22.72700
C  46.45700 13.06500 23.92500
C  45.70600 12.65600 22.73400
N  46.14000 15.45200 28.44800
C  45.11700 14.93600 27.63100
C  44.02900 14.49900 28.45700
C  44.33900 14.84100 29.74800
C  45.63600 15.49800 29.70600
C  42.70200 13.91300 27.95100
C  43.94400 14.71600 31.12700
O  43.06100 14.09400 31.63900
C  45.07100 15.46700 31.94500
C  44.36600 16.50800 32.83300
O  44.51200 17.71900 32.85900
O  43.57500 15.83800 33.77900
C  43.07500 16.59200 34.98700
H  51.15300 18.53100 30.22400
H  50.38200 16.20200 24.19700
H  44.63300 14.06900 25.71100
H  47.26900 17.85300 32.90000
H  50.04000 17.86300 32.53500
H  48.00700 19.75300 31.13700
H  49.70400 20.12100 31.50500
H  48.60400 19.92600 32.81100
H  49.39900 15.67400 33.42200
H  47.94600 15.09500 32.89300
H  48.80400 16.00500 35.48200
H  47.39100 15.24900 35.05700
H  53.48100 19.64900 27.37700
H  53.79700 18.60900 28.64200
H  52.48600 19.77800 28.88000
H  53.60300 19.53000 25.38300
H  54.24100 18.42800 24.10400
H  54.52600 18.05300 25.82300
H  48.69800 14.23500 23.46800
H  45.86100 15.23500 23.66900
H  47.33400 16.08100 22.05800
H  48.91100 15.87000 21.96900
H  48.29600 17.18500 23.12000
H  46.10500 12.63700 24.86400
H  47.42500 12.58200 23.79100
H  45.31800 11.63800 22.77800
H  46.39900 12.80600 21.90600
H  44.89100 13.36000 22.56700
H  42.28900 14.68000 27.29600
H  42.05300 13.74600 28.81100
H  42.87600 13.03100 27.33400
H  45.55700 14.80700 32.66400
H  42.14000 16.07700 35.20500
H  42.73800 17.61200 34.80300
H  43.69300 16.46900 35.87700
Mg 49.51000 45.04400 42.04600
C  46.36600 46.00800 40.67100
C  48.96100 41.91200 40.49000
C  52.77000 44.50100 42.02300
C  49.94600 48.41200 42.82500
N  47.78700 44.08900 40.74000
C  46.68200 44.66800 40.32800
C  45.74800 43.76800 39.51200
C  46.49700 42.35800 39.71500
C  47.83500 42.76400 40.35900
C  45.60300 41.34200 40.54300
C  45.66500 44.32400 38.05000
C  44.29500 44.30900 37.38800
H  44.21000 44.00500 35.89800
N  50.60900 43.34200 41.43000
C  50.24100 42.24200 40.86600
C  51.35500 41.25700 41.08900
C  52.43600 41.95400 41.56200
C  51.98300 43.34400 41.60900
C  51.17500 39.76300 40.78400
C  53.74700 41.28900 41.84200
O  53.97700 40.08900 41.66800
C  54.94000 42.05700 42.29000
N  51.19300 46.35900 42.16200
C  52.44200 45.89000 42.19900
C  53.44700 46.95700 42.71900
C  52.47900 48.17200 43.05700
C  51.08900 47.59000 42.66400
C  54.32200 46.50800 43.88900
C  52.76400 49.58800 42.45400
C  53.11000 50.71300 43.46200
N  48.38300 46.83100 41.97600
C  48.68500 48.05600 42.45900
C  47.51200 48.92900 42.44200
C  46.51500 48.16700 41.70000
C  47.16500 46.92200 41.39600
C  47.39200 50.36900 42.86500
C  45.21300 48.22400 41.08400
O  44.43800 49.19700 41.03200
C  45.07300 46.81300 40.33900
C  43.80500 46.16500 40.81700
O  42.74100 45.94700 40.23100
O  43.96000 45.92000 42.17600
C  42.90600 45.35600 42.97900
H  48.86100 40.85800 40.22200
H  53.84800 44.43900 41.85600
H  50.02600 49.41400 43.25300
H  44.77700 43.74100 40.00500
H  46.65400 41.77100 38.81000
H  44.58400 41.72800 40.49700
H  46.00100 41.18500 41.54500
H  45.51900 40.33700 40.12800
H  46.29900 43.66500 37.45700
H  46.18900 45.27800 37.98500
H  43.85500 45.28100 37.60900
H  43.67200 43.61100 37.94800
H  52.03800 39.14400 41.03100
H  50.96500 39.73700 39.71500
H  50.27600 39.33900 41.23100
H  54.57300 42.76100 43.03800
H  55.18600 42.58300 41.36700
H  55.76100 41.45000 42.67000
H  54.02700 47.19300 41.82700
H  52.29100 48.12700 44.13000
H  53.93800 46.91300 44.82500
H  55.24900 47.06300 43.73800
H  54.33700 45.41900 43.92700
H  51.98400 50.05500 41.85200
H  53.58900 49.48300 41.74900
H  53.23700 50.32700 44.47400
H  52.29400 51.41800 43.62300
H  54.01400 51.19300 43.08800
H  48.13900 50.40200 43.65800
H  46.38300 50.61000 43.20000
H  47.60400 50.91600 41.94700
H  45.08800 47.01300 39.26700
H  42.73800 46.13100 43.72700
H  43.30000 44.48400 43.50100
H  41.98700 45.13700 42.43600

