158

Mg 47.29700 24.72800 28.42100
C  47.95400 27.09900 31.10200
C  46.35400 22.46800 30.96500
C  46.72000 22.45300 26.10300
C  48.52700 26.94900 26.20700
N  47.15400 24.84200 30.77800
C  47.40400 25.92400 31.60400
C  47.14800 25.55200 33.06200
C  46.87900 23.93100 33.00900
C  46.77000 23.68900 31.49000
C  48.02100 23.06600 33.54400
C  46.07800 26.34500 33.78200
C  45.72200 25.92400 35.23400
H  45.46500 26.90100 36.40700
N  46.56100 22.71900 28.53400
C  46.24500 22.02000 29.65300
C  45.84100 20.71200 29.24500
C  46.08700 20.61500 27.87600
C  46.44400 21.94800 27.44000
C  45.46600 19.58600 30.24400
C  45.86300 19.48000 26.92000
O  46.08900 19.67500 25.75200
C  45.31900 18.13300 27.37400
N  47.50600 24.74200 26.40300
C  47.17200 23.74800 25.63300
C  47.47600 24.07500 24.14100
C  47.85900 25.58400 24.26100
C  48.03200 25.79500 25.70800
C  48.59600 23.15500 23.47900
C  46.79000 26.44400 23.49500
C  47.29700 27.24300 22.22200
N  48.16600 26.55900 28.57200
C  48.63600 27.37000 27.52200
C  49.16300 28.61800 28.03900
C  48.91800 28.55200 29.46400
C  48.30900 27.29200 29.71700
C  49.79200 29.68600 27.17300
C  49.04400 29.25900 30.72500
O  49.52600 30.34500 31.05100
C  48.33500 28.39300 31.84800
C  49.24600 28.31000 32.95300
O  50.39400 27.94800 32.95400
O  48.66100 28.70300 34.03600
C  49.21000 28.21900 35.31900
H  46.09800 21.69300 31.69000
H  46.54300 21.69600 25.33600
H  48.78000 27.61600 25.38100
H  48.07000 25.85700 33.55500
H  45.91400 23.73800 33.47900
H  48.70500 23.66400 34.14500
H  48.60000 22.62700 32.73100
H  47.58500 22.25200 34.12300
H  45.16000 26.28600 33.19700
H  46.47600 27.36000 33.77500
H  46.51300 25.22200 35.49700
H  44.81300 25.34100 35.08800
H  46.30000 18.97600 30.58900
H  44.83000 18.84800 29.75600
H  44.82800 19.93100 31.05900
H  45.87200 17.78000 28.24500
H  45.51100 17.46600 26.53300
H  44.28900 18.28900 27.69300
H  46.54900 23.86500 23.60700
H  48.84500 25.72000 23.81800
H  49.57000 23.64500 23.47700
H  48.37000 23.06500 22.41600
H  48.60700 22.10500 23.77200
H  46.39900 27.16500 24.21300
H  46.02300 25.79300 23.07700
H  46.84700 26.63800 21.43600
H  48.38000 27.12700 22.22700
H  46.97700 28.27900 22.33800
H  50.60000 29.96000 27.85200
H  49.10900 30.50300 26.93800
H  50.24400 29.22900 26.29300
H  47.44500 28.95100 32.13700
H  49.43900 29.08100 35.94500
H  50.10600 27.60900 35.20300
H  48.40600 27.61300 35.73600
Mg 0.54700 44.00100 24.97500
C  2.51800 43.62600 27.94200
C  -2.30300 43.29800 26.92200
C  -1.24100 43.55100 22.22800
C  3.53600 44.01500 23.04400
N  0.26100 43.43000 27.19500
C  1.13400 43.50700 28.21600
C  0.45200 43.43100 29.63200
C  -1.02400 43.12300 29.12200
C  -1.04500 43.22700 27.64500
C  -1.62900 41.84600 29.73300
C  0.55500 44.73100 30.49800
C  1.09200 44.55600 31.96600
H  0.89900 43.19500 32.73000
N  -1.49100 43.84600 24.66000
C  -2.47400 43.53500 25.53800
C  -3.70000 43.55800 24.89100
C  -3.46800 43.72100 23.49900
C  -1.99600 43.64100 23.41400
C  -4.98800 43.44800 25.60300
C  -4.46200 43.77800 22.31800
O  -4.13500 43.92600 21.13100
C  -5.86300 44.02800 22.69500
N  1.09700 43.83500 22.91300
C  0.16300 43.70500 21.93400
C  0.75700 43.36800 20.58300
C  2.20800 43.99600 20.79600
C  2.31300 43.94700 22.38400
C  0.86900 41.87700 20.16500
C  2.51600 45.39200 20.22300
C  3.30000 45.41100 18.88000
N  2.64900 43.83800 25.32600
C  3.73200 43.95600 24.44300
C  4.94700 43.99900 25.25400
C  4.51100 43.91000 26.57600
C  3.11900 43.77100 26.63800
C  6.32000 44.15600 24.63100
C  5.03300 43.78300 27.95200
O  6.17900 43.78500 28.41400
C  3.71300 43.73200 28.90600
C  3.83700 42.48100 29.67400
O  3.62300 41.38200 29.26400
O  4.24700 42.80400 30.97200
C  4.80900 41.66700 31.79800
H  -3.14300 43.42700 27.60800
H  -1.76900 43.28100 21.31200
H  4.48400 44.16700 22.52400
H  0.81600 42.63300 30.27900
H  -1.72300 43.87600 29.48700
H  -1.86900 41.28200 28.83300
H  -2.52600 42.11000 30.29300
H  -0.92100 41.28500 30.34300
H  -0.40300 45.25100 30.48400
H  1.28500 45.35000 29.97600
H  0.81700 45.42000 32.57200
H  2.16000 44.63700 31.76300
H  -4.96200 43.05500 26.62000
H  -5.76700 42.86900 25.10700
H  -5.29000 44.49500 25.58500
H  -6.45300 44.54900 21.94100
H  -5.91900 44.57600 23.63600
H  -6.25200 43.01500 22.79700
H  0.14800 43.87200 19.83200
H  2.97600 43.32300 20.41300
H  1.87400 41.56500 19.88100
H  0.21200 41.83400 19.29600
H  0.58200 41.20000 20.97000
H  3.05400 46.04900 20.90600
H  1.52200 45.76400 19.97300
H  4.00700 44.58200 18.91800
H  3.88900 46.32400 18.79700
H  2.61100 45.40200 18.03500
H  6.63900 45.19300 24.73500
H  6.35000 43.75700 23.61700
H  7.10000 43.66700 25.21400
H  3.63500 44.59800 29.56300
H  4.37000 40.71700 31.49500
H  4.44300 41.88300 32.80200
H  5.89100 41.53000 31.80000

