158

Mg 34.88300 3.36300 30.22700
C  32.49300 4.46300 32.56900
C  37.20500 3.71400 32.79400
C  37.18600 2.63200 28.00000
C  32.55100 3.72300 27.71700
N  34.76900 4.01200 32.42800
C  33.66400 4.34700 33.15700
C  33.95900 4.45000 34.66600
C  35.56300 4.64500 34.63700
C  35.91100 4.04800 33.25700
C  36.19700 6.06400 35.02600
C  33.45400 3.14800 35.38600
C  33.05300 3.38800 36.86300
H  33.70800 4.43500 37.61300
N  36.82100 3.10100 30.32100
C  37.59900 3.26900 31.46000
C  38.83400 2.44100 31.25400
C  38.94400 2.13900 29.86100
C  37.61600 2.65900 29.33200
C  39.65700 1.97400 32.44400
C  39.95300 1.32100 29.09200
O  39.94800 1.33900 27.85400
C  40.96700 0.53000 29.75800
N  34.87100 3.36000 28.09800
C  35.95000 3.11300 27.35900
C  35.71100 3.12700 25.83000
C  34.15000 3.38300 25.80200
C  33.82400 3.47900 27.28600
C  36.57400 4.11600 24.99900
C  33.17100 2.51900 25.00000
C  32.68900 1.17200 25.53900
N  32.86800 3.80100 30.12500
C  32.07400 3.93200 29.05200
C  30.70500 4.28100 29.48800
C  30.79500 4.38900 30.86900
C  32.15500 4.19800 31.23400
C  29.53700 4.42900 28.54400
C  30.06100 4.58900 32.10600
O  28.85600 4.77900 32.28700
C  31.16000 4.77200 33.25300
C  31.01000 6.14600 33.81800
O  31.18700 7.13900 33.07300
O  30.71800 6.10100 35.16600
C  30.87100 7.33900 35.90100
H  38.01000 3.73500 33.53100
H  37.97300 2.26100 27.34100
H  31.72000 3.97900 27.05600
H  33.64700 5.36400 35.17200
H  35.94300 3.96600 35.40000
H  37.08400 6.15400 34.39900
H  36.42400 6.04300 36.09200
H  35.45500 6.82600 34.78700
H  34.24800 2.40200 35.37800
H  32.55700 2.85900 34.83800
H  33.11300 2.35300 37.20200
H  31.99500 3.63600 36.77500
H  40.08500 2.80300 33.00700
H  40.46800 1.32300 32.11600
H  39.04700 1.30500 33.05100
H  41.78300 1.13700 30.15200
H  41.41800 -0.07200 28.96800
H  40.49100 -0.12700 30.48600
H  35.87400 2.15000 25.37500
H  34.04900 4.40300 25.43000
H  37.36400 4.62200 25.55400
H  35.90700 4.77500 24.44400
H  37.07600 3.56600 24.20300
H  33.62300 2.32800 24.02600
H  32.32300 3.17400 24.80400
H  32.74300 0.98900 26.61200
H  33.19200 0.41900 24.93200
H  31.60800 1.22000 25.40600
H  29.38500 3.49200 28.00700
H  29.76500 5.24600 27.85900
H  28.68400 4.68800 29.17000
H  30.84100 4.04600 34.00100
H  29.87300 7.47600 36.31700
H  31.27000 8.18800 35.34600
H  31.56800 7.20000 36.72700
Mg 47.57300 24.96100 27.94200
C  48.64500 27.50600 30.11100
C  46.42800 23.11800 30.60300
C  46.82400 22.44900 25.89900
C  49.50200 26.51700 25.47100
N  47.38100 25.37700 30.15000
C  47.98700 26.43200 30.82100
C  47.78000 26.25000 32.30100
C  47.08500 24.81100 32.46100
C  46.96900 24.37000 31.00900
C  47.86100 23.83000 33.29300
C  46.92400 27.35500 32.93900
C  47.32300 27.92800 34.32600
H  46.22100 27.85800 35.37600
N  46.67500 23.08900 28.18800
C  46.34400 22.46400 29.38600
C  45.81600 21.11000 29.10500
C  45.84200 20.94600 27.70100
C  46.44000 22.18700 27.19000
C  45.51500 20.13100 30.22100
C  45.40100 19.74500 26.94700
O  45.66100 19.69400 25.72900
C  44.65100 18.65200 27.62800
N  48.09500 24.51400 25.93900
C  47.49800 23.50900 25.24800
C  47.90800 23.44200 23.78400
C  48.64800 24.81400 23.63300
C  48.78300 25.33400 25.09200
C  48.72400 22.19900 23.47000
C  47.88900 25.96000 22.89700
C  48.90900 26.89500 22.16600
N  48.80900 26.71900 27.69600
C  49.45900 27.26700 26.65200
C  50.15300 28.49300 26.95300
C  49.77200 28.67400 28.33700
C  49.01900 27.56700 28.75800
C  50.98900 29.42000 26.20200
C  49.90100 29.52300 29.52700
O  50.48600 30.60800 29.62500
C  49.20400 28.75000 30.70900
C  50.22400 28.57000 31.77600
O  51.26400 27.93300 31.68900
O  49.72900 29.21200 32.84400
C  50.61400 29.09700 34.03500
H  46.03400 22.56100 31.45500
H  46.58600 21.71800 25.12300
H  50.00200 27.01500 24.63900
H  48.79600 26.23500 32.69500
H  46.12300 24.90300 32.96700
H  48.50600 24.36300 33.99200
H  48.45900 23.11700 32.72600
H  47.05800 23.33600 33.84000
H  45.86100 27.11600 32.94500
H  46.93000 28.26800 32.34500
H  47.60300 28.96700 34.14800
H  48.17200 27.38700 34.74400
H  44.53700 19.71400 29.98000
H  45.64000 20.48800 31.24400
H  46.22100 19.30400 30.28600
H  44.09700 18.06500 26.89600
H  43.85000 19.09700 28.21800
H  45.36100 18.11100 28.25400
H  47.10500 23.45400 23.04700
H  49.63800 24.78400 23.18000
H  49.70100 22.37000 23.01900
H  48.21700 21.48800 22.81800
H  49.02200 21.72100 24.40300
H  47.31900 26.57700 23.59200
H  47.32800 25.51600 22.07400
H  49.92400 26.67700 22.49800
H  48.69400 27.94300 22.37500
H  48.81600 26.77200 21.08700
H  51.88200 28.88100 25.88900
H  51.39600 30.27400 26.74300
H  50.40300 29.71900 25.33300
H  48.42600 29.44100 31.03200
H  50.36600 30.01700 34.56400
H  51.69700 29.18600 33.95700
H  50.46200 28.23100 34.68000

