158

Mg 41.51300 8.67900 30.19600
C  43.71900 10.27000 32.49800
C  39.68600 7.47000 32.90400
C  39.80300 6.61700 28.07200
C  43.89400 9.20700 27.78800
N  41.59400 9.05300 32.50200
C  42.49000 9.83500 33.16800
C  42.24700 9.72400 34.66200
C  41.07900 8.61700 34.78000
C  40.77200 8.31000 33.32600
C  41.59300 7.43800 35.67500
C  41.87100 11.12700 35.28400
C  42.47100 11.37100 36.67800
H  41.34800 11.31300 37.83700
N  39.90800 7.35700 30.40700
C  39.26000 7.02700 31.60100
C  38.14500 6.16800 31.34500
C  38.18400 5.94800 29.86900
C  39.33300 6.67800 29.39300
C  37.22700 5.68000 32.39900
C  37.30000 5.04400 28.99500
O  37.44900 4.89500 27.77400
C  36.22200 4.31800 29.70300
N  41.78900 7.93600 28.26100
C  40.94000 7.22200 27.50900
C  41.40800 7.12300 26.05900
C  42.78600 7.77700 26.04600
C  42.80200 8.45400 27.40400
C  41.39600 5.67600 25.55700
C  42.94400 8.81200 24.89500
C  42.43600 10.25400 25.14600
N  43.29100 9.80300 30.05500
C  44.17700 9.89200 28.99500
C  45.34700 10.58700 29.38700
C  45.25300 10.73000 30.80800
C  43.97100 10.20000 31.16500
C  46.49900 10.95800 28.51000
C  45.91700 11.20700 31.99700
O  47.04600 11.63600 32.06200
C  44.96100 10.90200 33.20000
C  45.54400 9.82600 33.97700
O  45.82500 8.71400 33.62700
O  45.67400 10.30000 35.30000
C  45.90100 9.18400 36.17000
H  38.98800 7.10200 33.65900
H  39.13600 6.16000 27.33800
H  44.68000 9.24000 27.03100
H  43.14800 9.24000 35.04000
H  40.16900 9.09700 35.13800
H  42.26500 7.88100 36.41000
H  42.08400 6.70200 35.03800
H  40.87300 7.02400 36.38000
H  40.79600 11.25000 35.41500
H  42.26700 11.94900 34.68800
H  42.93400 12.35600 36.60700
H  43.16500 10.56400 36.91100
H  36.19000 5.91900 32.16200
H  37.45100 6.08500 33.38600
H  37.40500 4.60900 32.48500
H  35.54100 5.03700 30.15800
H  36.82900 3.83500 30.47000
H  35.77100 3.57000 29.05100
H  40.72700 7.73000 25.46300
H  43.60700 7.06700 25.94400
H  41.04300 5.00800 26.34300
H  42.33000 5.35300 25.09700
H  40.74800 5.66800 24.68100
H  42.53800 8.50700 23.93000
H  44.01200 8.88300 24.68800
H  43.27900 10.91100 25.35800
H  41.75900 10.26300 26.00000
H  41.74600 10.57700 24.36800
H  47.10500 11.62300 29.12600
H  46.03000 11.42900 27.64600
H  47.01300 9.99900 28.45300
H  44.78400 11.84800 33.71000
H  46.86700 8.70100 36.01700
H  45.14200 8.42300 35.98900
H  45.72000 9.32200 37.23600
Mg 30.73900 57.64400 40.48400
C  27.61500 56.11500 39.68000
C  32.32400 54.92900 39.19200
C  33.40200 59.41200 40.53000
C  28.69100 60.62100 40.97900
N  30.06300 55.69500 39.79100
C  28.78700 55.36100 39.44300
C  28.70200 54.04200 38.69400
C  30.18200 53.42900 39.01500
C  30.91000 54.75400 39.36000
C  30.36700 52.57900 40.24000
C  28.53400 54.29300 37.15500
C  28.22600 53.07100 36.28400
H  27.54100 53.27700 34.90900
N  32.69300 57.18800 39.92500
C  33.20100 56.07400 39.37900
C  34.63900 56.27800 39.15900
C  34.98700 57.55300 39.66100
C  33.68100 58.10300 39.97800
C  35.47900 55.19000 38.59700
C  36.41600 58.06500 39.82400
O  37.35300 57.32400 39.64400
C  36.70400 59.50100 40.27700
N  31.03200 59.74500 40.76400
C  32.28000 60.15800 40.77600
C  32.33900 61.59600 41.14800
C  30.85600 62.04300 41.23700
C  30.12200 60.75800 40.99200
C  33.20000 61.93700 42.32800
C  30.58700 63.13100 40.19000
C  30.81900 64.64200 40.68900
N  28.51700 58.18600 40.58600
C  27.94000 59.44300 40.73200
C  26.47600 59.36800 40.42200
C  26.29100 58.04700 39.99400
C  27.57500 57.38800 40.11300
C  25.42100 60.46800 40.52100
C  25.34200 57.02700 39.44900
O  24.18000 57.10700 39.23000
C  26.17500 55.76300 39.38800
C  25.67200 54.71300 40.30600
O  25.73200 54.77500 41.48100
O  25.23400 53.58800 39.56300
C  24.60900 52.54100 40.40400
H  32.89800 54.05100 38.88800
H  34.33100 59.97500 40.64000
H  28.12800 61.53000 41.20500
H  27.84300 53.44900 39.00600
H  30.67700 52.88200 38.21300
H  31.17000 52.76900 40.95200
H  30.63400 51.57300 39.91800
H  29.44300 52.52900 40.81600
H  29.55600 54.48100 36.82500
H  27.86400 55.13400 36.97700
H  27.55600 52.39200 36.81200
H  29.10300 52.46500 36.05900
H  36.22800 55.50000 37.86900
H  34.85900 54.46400 38.07100
H  35.94900 54.70900 39.45500
H  36.10900 60.23500 39.73300
H  37.76900 59.64400 40.09100
H  36.47800 59.52400 41.34300
H  32.80300 62.04600 40.26900
H  30.71300 62.28700 42.29000
H  33.78900 61.11100 42.72700
H  32.55500 62.35700 43.10000
H  33.96500 62.68800 42.13200
H  29.51200 62.98900 40.07500
H  31.02400 62.91000 39.21600
H  31.33900 64.79000 41.63600
H  29.78600 64.98000 40.77400
H  31.35500 65.26500 39.97300
H  25.06800 60.73800 41.51600
H  24.59300 60.21500 39.85800
H  25.93300 61.35200 40.14200
H  26.11700 55.31100 38.39800
H  25.47500 52.05900 40.85800
H  24.12000 51.79000 39.78300
H  23.86100 52.85300 41.13200

