158

Mg 47.58200 14.93400 28.44700
C  45.60400 14.84700 31.13000
C  49.86800 16.88800 30.09300
C  49.51800 14.99300 25.61600
C  44.93000 13.66200 26.46300
N  47.69100 15.76800 30.34700
C  46.82300 15.45600 31.37400
C  47.22500 16.13100 32.67900
C  48.45700 16.99400 32.24600
C  48.73400 16.53500 30.84100
C  48.37000 18.53600 32.42400
C  47.45500 15.01300 33.77000
C  47.03900 15.51300 35.14200
H  47.19500 16.92800 35.62200
N  49.39300 15.69400 27.97400
C  50.22100 16.47500 28.84700
C  51.51100 16.69600 28.20900
C  51.48200 16.06200 26.99800
C  50.09100 15.54700 26.81100
C  52.69300 17.34200 28.86500
C  52.63000 15.83600 26.02700
O  52.48000 15.19900 25.02300
C  53.95100 16.50300 26.15200
N  47.25100 14.47000 26.36000
C  48.24700 14.43600 25.42100
C  47.75800 14.04800 24.03900
C  46.38200 13.45200 24.35900
C  46.14500 13.82400 25.85800
C  47.78100 15.22700 23.10700
C  46.40400 11.89700 24.04600
C  46.78800 10.98100 25.20800
N  45.58100 14.49800 28.65600
C  44.64800 13.91700 27.84400
C  43.47400 13.64600 28.50000
C  43.72400 13.96100 29.83400
C  45.05400 14.48800 29.89800
C  42.26500 12.88200 27.92800
C  43.20400 13.89400 31.15200
O  42.13100 13.56000 31.62300
C  44.40400 14.49400 32.03200
C  43.80100 15.66800 32.71500
O  43.63100 16.81200 32.33600
O  43.42800 15.19400 33.93800
C  42.63200 16.11900 34.75300
H  50.56800 17.56100 30.59200
H  50.09900 15.10300 24.69700
H  44.19100 13.19600 25.80600
H  46.36600 16.77700 32.85700
H  49.23500 16.70800 32.95300
H  49.32000 18.95000 32.76400
H  47.61000 18.98400 33.06400
H  48.22200 19.09300 31.49900
H  48.51800 14.77700 33.81000
H  46.80300 14.14700 33.65600
H  47.55600 14.88300 35.86600
H  45.96400 15.33700 35.12900
H  52.78700 18.29400 28.34200
H  53.55700 16.67800 28.85100
H  52.48400 17.62300 29.89700
H  53.95000 17.58800 26.26000
H  54.55200 16.20900 25.29200
H  54.48900 15.99100 26.95000
H  48.36500 13.25700 23.59800
H  45.58800 13.97500 23.82600
H  47.35800 16.12600 23.55400
H  47.20200 14.93500 22.23100
H  48.82500 15.43900 22.87700
H  47.13400 11.59400 23.29500
H  45.40000 11.57600 23.76800
H  46.71200 11.41500 26.20500
H  47.81100 10.62800 25.07800
H  46.11000 10.12700 25.21000
H  41.78200 13.47100 27.14900
H  41.62100 12.76400 28.80000
H  42.48900 11.89300 27.52700
H  44.62000 13.70700 32.75500
H  41.89500 16.61100 34.11800
H  43.30500 16.74800 35.33500
H  42.07600 15.50200 35.45900
Mg 6.86600 53.95500 41.12300
C  6.23200 50.32600 40.73500
C  10.09000 53.30200 40.47700
C  7.17000 57.23500 41.07500
C  3.37900 54.20400 41.41000
N  7.97400 51.96000 40.54000
C  7.56000 50.64800 40.46900
C  8.74800 49.70400 40.38700
C  9.97500 50.64300 40.62500
C  9.31400 52.08800 40.51500
C  10.84600 50.47400 41.89500
C  8.80300 48.81000 38.99200
C  8.86600 49.48100 37.68600
H  7.63500 49.54900 36.83700
N  8.44200 55.19700 40.81000
C  9.74400 54.74100 40.58100
C  10.59500 55.92700 40.44800
C  9.77400 57.12400 40.63100
C  8.44800 56.58700 40.92800
C  12.09200 55.94100 40.26900
C  10.23500 58.55100 40.46100
O  11.41800 58.72200 40.08100
C  9.25000 59.60800 40.75500
N  5.46000 55.48200 41.19800
C  5.89300 56.72500 41.33000
C  4.65600 57.73000 41.52100
C  3.46800 56.77500 41.28800
C  4.10400 55.40800 41.29600
C  4.56400 58.47300 42.90600
C  2.62200 57.12300 40.07300
C  1.35500 57.90400 40.32800
N  5.12100 52.59500 41.10200
C  3.83300 52.88100 41.35300
C  3.01100 51.76800 41.45100
C  3.92800 50.67800 41.28000
C  5.19900 51.25000 40.95600
C  1.50600 51.69200 41.68800
C  4.05300 49.23600 41.34400
O  3.14400 48.43700 41.58300
C  5.43900 48.92400 40.72900
C  5.21200 48.33900 39.28700
O  4.79800 48.99600 38.32400
O  5.59300 46.99700 39.23800
C  5.41800 46.33800 38.00800
H  11.15900 53.20000 40.28100
H  7.22500 58.31400 40.91800
H  2.32000 54.36500 41.62200
H  8.74200 49.01700 41.23400
H  10.66400 50.53700 39.78700
H  10.72000 49.40500 42.06500
H  10.45900 51.10100 42.69800
H  11.87400 50.59700 41.55400
H  7.90500 48.21100 39.14100
H  9.77100 48.32000 39.09100
H  9.57700 48.97800 37.03100
H  9.36900 50.44200 37.58300
H  12.32800 56.45900 39.33900
H  12.46000 54.92500 40.12900
H  12.65800 56.35000 41.10600
H  8.45000 59.60500 40.01400
H  9.76300 60.53800 40.51000
H  8.95000 59.58800 41.80200
H  4.85500 58.39800 40.68300
H  2.82700 56.69700 42.16700
H  3.77100 58.11500 43.56400
H  4.44200 59.54500 42.74600
H  5.55200 58.50500 43.36400
H  2.31700 56.14900 39.69000
H  3.23300 57.71100 39.38800
H  0.90100 57.72900 41.30300
H  0.62100 57.51200 39.62500
H  1.49800 58.96200 40.10800
H  0.98400 51.31400 40.80900
H  1.07600 52.66200 41.93400
H  1.14600 51.08900 42.52200
H  6.11800 48.27800 41.28500
H  5.58800 47.05900 37.20900
H  4.39500 46.00300 37.83900
H  6.12900 45.52400 37.86600

