158

Mg 49.98500 46.02400 43.35300
C  46.56200 46.34500 42.49300
C  49.75500 42.72700 42.11200
C  53.37900 45.70700 43.53700
C  50.21700 49.36300 44.19900
N  48.40300 44.72300 42.31400
C  47.06300 45.08000 42.13400
C  46.24800 43.95100 41.39400
C  47.20600 42.72700 41.59700
C  48.55100 43.35200 42.10200
C  46.74400 41.71900 42.68200
C  46.05300 44.40000 39.88700
C  44.92300 43.65700 39.10400
H  45.38500 43.07100 37.75900
N  51.39800 44.43300 42.82000
C  51.07200 43.14100 42.46900
C  52.27800 42.35900 42.35000
C  53.38100 43.17500 42.80500
C  52.76600 44.51100 43.00200
C  52.23800 40.89600 41.96300
C  54.88700 42.79800 42.85200
O  55.25200 41.67000 42.57400
C  55.97400 43.78000 43.27400
N  51.54800 47.34200 43.75500
C  52.86600 47.02800 43.81500
C  53.78100 48.12600 44.24700
C  52.74300 49.30000 44.56500
C  51.40700 48.62700 44.14100
C  54.92800 47.77000 45.33400
C  53.16000 50.57600 43.79000
C  52.73400 51.94500 44.38500
N  48.66300 47.52600 43.43200
C  48.88500 48.86800 43.80100
C  47.64600 49.59900 43.73800
C  46.71900 48.65700 43.18700
C  47.36900 47.40300 43.08200
C  47.47300 51.05800 44.10800
C  45.33600 48.49300 42.65900
O  44.40100 49.30400 42.36400
C  45.18100 46.96600 42.31100
C  44.13200 46.42000 43.23700
O  43.96600 46.72700 44.41100
O  43.53500 45.35700 42.58900
C  42.70600 44.42900 43.30600
H  49.63100 41.71100 41.73100
H  54.46100 45.64100 43.67100
H  50.31800 50.41700 44.46500
H  45.29100 43.85100 41.90600
H  47.34000 42.24700 40.62700
H  46.40800 40.79100 42.22100
H  45.98000 42.21300 43.28300
H  47.51800 41.54600 43.43000
H  47.00900 44.18300 39.41200
H  45.95600 45.48200 39.80000
H  44.09600 44.34600 38.93700
H  44.50000 42.94600 39.81400
H  52.59200 40.56800 40.98600
H  51.36200 40.25100 42.02900
H  52.92900 40.49300 42.70300
H  55.60400 43.98000 44.28000
H  55.95300 44.61600 42.57500
H  56.93600 43.27200 43.21100
H  54.38700 48.39500 43.38200
H  52.74600 49.56100 45.62300
H  55.92400 48.15000 45.10700
H  55.16400 46.70800 45.39000
H  54.67300 48.24000 46.28400
H  52.51100 50.50400 42.91800
H  54.18700 50.67100 43.43700
H  53.50800 52.69300 44.21200
H  52.57400 51.88400 45.46200
H  51.88800 52.34000 43.82300
H  47.48500 51.27000 45.17700
H  46.49200 51.37200 43.75200
H  48.29500 51.54200 43.57900
H  44.68300 46.92000 41.34200
H  42.00100 43.90700 42.66000
H  42.23600 44.82300 44.20700
H  43.37900 43.61100 43.56600
Mg 6.54600 53.77300 40.99500
C  5.62900 50.28100 40.76200
C  9.50800 52.92800 39.70900
C  7.03500 57.01700 40.87600
C  3.19800 54.33600 41.91000
N  7.33600 51.83200 40.06800
C  6.85300 50.53000 40.07400
C  7.92400 49.57300 39.56200
C  9.21800 50.40400 39.57800
C  8.68000 51.84500 39.86200
C  10.28000 50.00900 40.54600
C  7.60400 48.83300 38.22400
C  6.89600 49.49400 37.01900
H  7.81800 49.92400 35.96400
N  8.06700 54.92900 40.40200
C  9.23000 54.34500 39.88100
C  10.15800 55.35700 39.61900
C  9.54500 56.63200 40.00200
C  8.18400 56.27300 40.45500
C  11.49500 55.16600 39.03700
C  10.18400 57.92900 39.97500
O  11.32800 58.05400 39.65300
C  9.47400 59.22000 40.35700
N  5.22300 55.43900 41.17500
C  5.78000 56.68100 41.24400
C  4.67700 57.72800 41.55200
C  3.43200 56.86200 41.90800
C  3.93100 55.43300 41.65200
C  5.17800 58.69500 42.74800
C  2.01500 57.22600 41.36000
C  1.04500 57.70500 42.32900
N  4.78000 52.57600 41.32900
C  3.53900 52.95900 41.81600
C  2.70800 51.80000 42.07800
C  3.55800 50.74300 41.79600
C  4.74000 51.26000 41.22600
C  1.31300 51.73300 42.45300
C  3.69600 49.30300 41.73000
O  2.88300 48.46700 42.16500
C  5.08900 48.94600 41.13300
C  4.90100 47.98700 40.01500
O  4.47500 48.21600 38.87200
O  5.50100 46.82100 40.42400
C  5.51600 45.80900 39.35200
H  10.54400 52.62300 39.54800
H  7.22700 58.09100 40.93100
H  2.19700 54.54300 42.29700
H  7.95500 48.79900 40.32900
H  9.55900 50.29500 38.54800
H  10.00000 49.06500 41.01300
H  10.46900 50.73200 41.33900
H  11.28900 49.97200 40.13400
H  7.12800 47.88100 38.46000
H  8.57800 48.44900 37.92000
H  6.29300 50.35000 37.32300
H  6.14900 48.82600 36.59100
H  11.74300 54.10800 39.12300
H  12.32400 55.67300 39.53200
H  11.43200 55.44000 37.98400
H  10.12700 60.01800 40.00400
H  9.45800 59.24700 41.44700
H  8.54200 59.37000 39.81200
H  4.52800 58.36300 40.67900
H  3.28100 56.91400 42.98600
H  5.21300 59.71500 42.36400
H  6.17000 58.37900 43.07100
H  4.61200 58.76300 43.67800
H  1.55800 56.44700 40.74900
H  2.15000 58.15800 40.81100
H  1.54800 58.05000 43.23200
H  0.25100 57.02400 42.63600
H  0.50300 58.55100 41.90600
H  1.29000 51.74800 43.54300
H  0.76000 50.86500 42.09400
H  0.87300 52.66800 42.10600
H  5.51900 48.33700 41.92800
H  4.55400 45.76500 38.84100
H  5.60200 44.83500 39.83400
H  6.39400 46.03800 38.74800

