158

Mg 49.63300 34.98700 28.03100
C  47.44700 33.80000 30.34800
C  49.83800 37.89500 29.98700
C  51.65200 36.37200 25.66100
C  48.68800 32.67400 25.68500
N  48.91400 35.67500 30.01100
C  48.13800 34.89900 30.84100
C  47.99800 35.55300 32.22900
C  48.36000 37.07700 31.87600
C  49.15000 36.91700 30.54300
C  47.23000 38.14800 31.72100
C  49.07700 34.92400 33.19900
C  48.64500 34.62900 34.65700
H  49.17500 35.57900 35.72800
N  50.83000 36.80000 27.93000
C  50.72800 37.82400 28.80100
C  51.62700 38.91400 28.33900
C  52.23300 38.44100 27.12100
C  51.60500 37.10800 26.85400
C  51.70300 40.23400 29.03400
C  53.22800 39.14000 26.18400
O  53.75100 38.51900 25.26800
C  53.67600 40.57800 26.46200
N  50.05800 34.59000 25.89500
C  50.99900 35.26000 25.20100
C  51.08700 34.70600 23.69400
C  50.32700 33.35600 23.83100
C  49.68900 33.49600 25.25800
C  50.48900 35.71900 22.69400
C  51.27000 32.22800 23.72100
C  51.84800 32.01900 22.29400
N  48.36200 33.46400 28.02000
C  48.06200 32.55200 26.99600
C  47.02700 31.68900 27.45100
C  46.68000 32.20100 28.71000
C  47.62200 33.20700 29.07900
C  46.27400 30.62600 26.67600
C  45.80100 31.96400 29.85200
O  44.86700 31.15900 30.06700
C  46.30200 32.92500 31.00300
C  46.82400 31.98800 32.06100
O  47.94800 31.62000 32.28000
O  45.85800 31.66000 32.86600
C  46.12300 30.80500 34.00200
H  50.03700 38.86500 30.44800
H  52.29500 36.73800 24.85800
H  48.46300 31.85000 25.00400
H  46.99900 35.48800 32.65900
H  49.09900 37.25500 32.65700
H  46.23100 37.71100 31.75000
H  47.18900 38.57500 30.71900
H  47.23500 38.96600 32.44100
H  50.04100 35.43400 33.19200
H  49.27100 33.94200 32.76900
H  48.72800 33.65000 35.12900
H  47.55800 34.69500 34.61400
H  52.33800 40.98900 28.57100
H  52.04400 39.99800 30.04200
H  50.68800 40.62100 29.11800
H  52.84400 41.27800 26.53400
H  54.29200 40.86000 25.60800
H  54.35100 40.56300 27.31800
H  52.14100 34.54500 23.46600
H  49.47900 33.31400 23.14700
H  50.39400 36.73200 23.08700
H  49.51900 35.30700 22.41500
H  51.21100 35.77100 21.87900
H  50.79700 31.30900 24.06600
H  52.09500 32.39700 24.41400
H  51.35400 32.70200 21.60400
H  51.59800 31.01500 21.95100
H  52.91400 32.24600 22.32200
H  45.33100 30.38000 27.16400
H  46.81700 29.68500 26.58200
H  45.93200 30.82900 25.66100
H  45.48000 33.49800 31.43200
H  47.10900 30.95500 34.44300
H  46.03800 29.75600 33.71600
H  45.40000 30.92300 34.80900
Mg 27.67100 49.95400 26.08600
C  25.51300 51.06300 28.76200
C  29.90500 48.89800 28.43100
C  29.49800 49.16600 23.54000
C  25.42700 51.58900 23.99000
N  27.74200 50.07000 28.34800
C  26.75600 50.49800 29.21000
C  27.11500 50.16700 30.70900
C  28.53800 49.58100 30.52700
C  28.69800 49.41200 28.96200
C  29.76300 50.46600 31.04200
C  25.99900 49.23400 31.43100
C  25.34100 49.92400 32.61900
H  26.35300 50.34000 33.76200
N  29.47400 49.09400 25.99800
C  30.29200 48.70700 27.02900
C  31.49700 48.08300 26.51800
C  31.39100 48.25700 25.12800
C  30.08300 48.81500 24.79300
C  32.55300 47.39000 27.40200
C  32.50700 47.87300 24.14300
O  32.34700 47.98800 22.97400
C  33.90100 47.38500 24.56800
N  27.52400 50.37300 24.05300
C  28.37400 49.85700 23.20100
C  28.08100 50.25800 21.75100
C  26.60500 50.73900 21.81900
C  26.40600 50.79400 23.42100
C  29.19800 51.13000 21.08200
C  25.56100 49.85500 21.11800
C  24.34000 50.67400 20.62600
N  25.95600 51.22200 26.29600
C  25.14800 51.78800 25.33200
C  23.96700 52.28700 25.95200
C  24.04500 52.08000 27.28900
C  25.25900 51.40100 27.44800
C  22.71300 52.84300 25.21800
C  23.37900 52.28500 28.57100
O  22.30400 52.78100 28.89800
C  24.42000 51.78300 29.60000
C  24.76300 52.93800 30.48500
O  25.67200 53.73100 30.32400
O  23.95200 52.87600 31.53000
C  24.29200 53.83300 32.64300
H  30.59200 48.63600 29.23800
H  30.12000 48.86200 22.69500
H  24.66800 51.98600 23.31300
H  27.15800 51.09800 31.27300
H  28.61900 48.60700 31.00900
H  30.44800 50.85700 30.28900
H  30.31200 49.82500 31.73100
H  29.39500 51.35300 31.55800
H  26.51000 48.32600 31.75300
H  25.25300 48.95300 30.68800
H  24.56100 49.21300 32.89400
H  24.74000 50.78800 32.33300
H  32.19400 47.37300 28.43100
H  33.57300 47.77500 27.38100
H  32.55400 46.37800 26.99800
H  34.37700 48.17900 25.14300
H  34.43900 47.04900 23.68200
H  33.75800 46.43500 25.08300
H  28.07700 49.36900 21.12100
H  26.68100 51.72800 21.36700
H  29.76900 50.58200 20.33200
H  29.85900 51.53200 21.85000
H  28.73200 51.98900 20.59900
H  25.07600 49.12700 21.77000
H  26.06700 49.33500 20.30500
H  23.45700 50.27700 21.12600
H  24.36400 50.56000 19.54200
H  24.35200 51.71300 20.95500
H  21.87100 53.02500 25.88600
H  22.41200 52.01200 24.58000
H  22.92700 53.62300 24.48800
H  23.87300 51.02700 30.16300
H  25.26900 53.47600 32.96800
H  23.55700 53.75400 33.44400
H  24.47200 54.84600 32.28300

