158

Mg -2.50200 18.36800 27.28900
C  -2.65400 15.95300 29.72600
C  -2.86400 20.82600 29.83100
C  -2.60300 20.70000 24.82200
C  -2.84000 15.83000 24.74900
N  -2.53900 18.30400 29.56800
C  -2.61000 17.15300 30.35600
C  -2.68200 17.56400 31.85200
C  -3.03400 19.12800 31.84100
C  -2.79900 19.46100 30.32400
C  -4.46300 19.43300 32.25100
C  -1.43900 17.10800 32.65800
C  -1.13200 17.87800 33.99100
H  -0.54600 16.96000 35.08700
N  -2.58200 20.41200 27.33300
C  -2.69600 21.24900 28.46500
C  -2.56000 22.64700 27.98600
C  -2.48600 22.64500 26.57900
C  -2.57000 21.20500 26.20700
C  -2.60900 23.78600 28.98500
C  -2.40300 23.79800 25.57600
O  -2.28100 23.67000 24.37000
C  -2.48600 25.19900 26.09500
N  -2.86600 18.22000 24.99700
C  -2.79600 19.37700 24.27100
C  -2.80100 19.03500 22.76000
C  -2.86600 17.47600 22.73900
C  -2.78800 17.17200 24.22500
C  -3.84900 19.67200 21.82500
C  -1.88500 16.66300 21.86700
C  -0.53500 16.51600 22.57500
N  -2.59200 16.31900 27.16600
C  -2.70400 15.44100 26.11900
C  -2.82600 14.07700 26.68000
C  -2.83000 14.23600 28.04400
C  -2.75200 15.64400 28.32600
C  -2.87300 12.82600 25.84900
C  -2.87700 13.48900 29.27100
O  -3.04900 12.28800 29.57600
C  -2.76500 14.60800 30.36700
C  -1.63100 14.18700 31.18900
O  -0.41200 14.27500 30.92900
O  -2.13600 13.52000 32.25300
C  -1.12600 12.82100 33.08800
H  -2.98600 21.62000 30.57000
H  -2.67100 21.50900 24.09100
H  -2.86000 15.11000 23.92800
H  -3.46400 16.96900 32.32300
H  -2.40600 19.72900 32.49800
H  -4.86700 20.03400 31.43600
H  -4.50600 20.11900 33.09800
H  -5.12500 18.57900 32.39300
H  -0.59900 17.26200 31.98200
H  -1.70000 16.07000 32.86400
H  -2.06900 18.29400 34.36000
H  -0.30800 18.57400 33.83400
H  -1.77100 24.37300 28.61100
H  -2.34600 23.41800 29.97600
H  -3.47100 24.44700 28.89200
H  -1.71200 25.49100 26.80400
H  -3.43000 25.15000 26.63800
H  -2.61200 25.94600 25.31100
H  -1.77600 19.27800 22.47900
H  -3.89000 17.23100 22.46000
H  -4.43800 20.30800 22.48600
H  -4.52000 18.98500 21.31000
H  -3.35400 20.24900 21.04300
H  -1.80700 17.16100 20.90000
H  -2.37500 15.73200 21.58400
H  -0.47200 15.64300 23.22500
H  -0.31500 17.33900 23.25500
H  0.25400 16.42000 21.83000
H  -3.28000 12.97500 24.84900
H  -3.46700 12.12600 26.43700
H  -1.86400 12.42400 25.75100
H  -3.68400 14.56100 30.95000
H  -0.30600 13.50600 33.30400
H  -0.82300 11.83000 32.74900
H  -1.57400 12.78200 34.08100
Mg 35.66100 48.22100 25.29500
C  36.22400 46.44900 28.33900
C  34.43500 50.86300 27.26100
C  35.08400 49.96400 22.48100
C  36.70900 45.36600 23.55800
N  35.22800 48.49200 27.47800
C  35.60600 47.69500 28.58000
C  35.26300 48.36900 29.89100
C  34.44300 49.63400 29.44600
C  34.71800 49.67600 27.95000
C  32.92500 49.61200 29.86700
C  36.55100 48.71400 30.72400
C  36.53500 48.24600 32.18000
H  35.15600 48.14700 32.92500
N  34.92700 50.10200 24.95100
C  34.59700 51.07700 25.87100
C  34.29700 52.29800 25.18800
C  34.45100 52.10000 23.77800
C  34.86500 50.64500 23.68600
C  34.03200 53.52000 25.98800
C  34.37000 53.06500 22.71600
O  34.70200 52.85300 21.56400
C  33.78700 54.51100 22.90000
N  35.89600 47.73100 23.38300
C  35.53100 48.62800 22.39000
C  35.44200 47.87100 21.01100
C  35.93200 46.42300 21.33000
C  36.21300 46.53600 22.79800
C  33.95000 47.93500 20.34400
C  37.12700 45.82600 20.47600
C  36.66600 44.96600 19.29200
N  36.46500 46.39400 25.80100
C  36.83000 45.34300 24.96000
C  37.22400 44.17400 25.80900
C  36.95500 44.61500 27.11400
C  36.56700 45.93400 27.05700
C  37.81500 42.88200 25.33200
C  36.84100 44.12600 28.47300
O  37.10500 43.05400 29.03500
C  36.42000 45.35500 29.27500
C  35.26200 44.96500 30.09500
O  34.08200 44.97800 29.77400
O  35.71300 44.43300 31.30400
C  34.76700 43.77500 32.22500
H  34.04900 51.61400 27.95400
H  34.67900 50.44600 21.58900
H  36.99000 44.46700 23.00500
H  34.59500 47.64200 30.35300
H  34.95200 50.49200 29.88400
H  32.24800 49.68000 29.01500
H  32.82300 50.38400 30.62900
H  32.68500 48.66700 30.35500
H  36.70600 49.79000 30.64800
H  37.44500 48.28600 30.27100
H  37.25100 48.92300 32.64600
H  37.02700 47.27400 32.21600
H  34.95500 53.95400 26.37300
H  33.41500 53.18500 26.82200
H  33.46300 54.27600 25.44600
H  33.66900 55.15400 22.02800
H  34.48500 54.99800 23.58200
H  32.90200 54.52100 23.53600
H  36.19400 48.27900 20.33500
H  35.10700 45.71700 21.24600
H  33.71500 46.87900 20.21000
H  33.95400 48.59600 19.47800
H  33.41400 48.41200 21.16500
H  37.72300 45.21600 21.15500
H  37.75800 46.57600 19.99800
H  35.58700 45.01500 19.14300
H  36.88500 43.90800 19.43600
H  37.05000 45.44000 18.38900
H  37.91700 42.99200 24.25300
H  37.13000 42.09300 25.64300
H  38.66500 42.70800 25.99100
H  37.29500 45.65800 29.85000
H  33.93700 44.42000 32.51300
H  35.28600 43.38600 33.10100
H  34.42900 42.88800 31.69000

