158

Mg 35.91200 0.72200 29.66700
C  33.59100 1.63200 32.04400
C  38.36800 0.71600 32.19600
C  38.26100 0.29800 27.34500
C  33.43900 1.48000 27.14200
N  36.01500 1.21000 31.81000
C  34.87800 1.44200 32.58300
C  35.18600 1.49000 34.08300
C  36.75200 1.41500 34.04800
C  37.03600 1.07100 32.56800
C  37.44900 2.80900 34.57500
C  34.55600 0.27700 34.76500
C  34.36900 0.42800 36.30100
H  34.90000 1.66400 37.21500
N  38.04400 0.47900 29.77100
C  38.81200 0.44200 30.86500
C  40.16100 0.08500 30.49700
C  40.15300 -0.12500 29.06000
C  38.77200 0.25700 28.65600
C  41.30000 -0.04400 31.41100
C  41.31900 -0.48200 28.15600
O  41.30800 -0.43100 26.90600
C  42.67500 -0.78400 28.62400
N  35.80400 0.96500 27.51200
C  36.95900 0.65100 26.80500
C  36.63300 0.71500 25.29300
C  35.05400 0.99700 25.24800
C  34.69700 1.10000 26.70900
C  37.57300 1.75200 24.54200
C  34.14300 0.03200 24.38100
C  33.70400 -1.21000 25.12700
N  33.94000 1.35400 29.55100
C  33.01400 1.61100 28.52900
C  31.76800 1.90700 29.14600
C  31.91800 1.96100 30.51400
C  33.27100 1.62800 30.72600
C  30.50300 2.23800 28.32000
C  31.23200 2.21400 31.67500
O  30.04400 2.52100 31.87600
C  32.27300 2.00800 32.88000
C  32.29900 3.37300 33.56800
O  32.99400 4.28200 33.15800
O  31.49300 3.39200 34.67200
C  31.46500 4.62000 35.44000
H  39.08600 0.62400 33.01400
H  39.04700 0.30100 26.58700
H  32.69100 1.63600 26.36100
H  34.82400 2.36200 34.62700
H  37.10800 0.54200 34.59500
H  38.20400 3.28300 33.94800
H  37.95900 2.85000 35.53800
H  36.71100 3.60300 34.68500
H  35.15700 -0.60700 34.55300
H  33.58200 0.00900 34.35600
H  34.74300 -0.44100 36.84200
H  33.30800 0.41900 36.54900
H  42.23400 0.40200 31.07100
H  41.37800 -1.08700 31.71700
H  41.05000 0.60000 32.25400
H  43.01100 0.15600 29.06000
H  43.24300 -1.16600 27.77500
H  42.63600 -1.59200 29.35500
H  36.78000 -0.26900 24.84600
H  34.96800 2.02500 24.89600
H  38.02600 1.21300 23.71100
H  38.34300 2.05200 25.25400
H  37.10800 2.70900 24.30500
H  34.82300 -0.39200 23.64300
H  33.34300 0.62100 23.93100
H  32.62300 -1.21600 24.98200
H  33.76800 -1.23400 26.21400
H  34.17600 -2.13500 24.79600
H  29.73200 1.55100 28.66900
H  30.64800 2.11200 27.24700
H  30.23400 3.28600 28.45600
H  31.89300 1.30000 33.61600
H  30.43500 4.94800 35.57600
H  32.04200 5.37700 34.90900
H  32.00600 4.49800 36.37900
Mg -5.23300 24.32000 26.52200
C  -2.99300 25.99700 28.79700
C  -6.14500 22.26200 29.14600
C  -6.92000 22.54900 24.31500
C  -3.85200 26.30200 23.89000
N  -4.70900 24.21400 28.72600
C  -3.78800 25.00600 29.42600
C  -3.97000 24.71600 30.95000
C  -4.63100 23.31200 30.98300
C  -5.20200 23.24300 29.53500
C  -3.79700 22.13400 31.30000
C  -4.63800 25.97800 31.59800
C  -5.95000 25.72600 32.32700
H  -5.91600 25.09900 33.74100
N  -6.44700 22.72900 26.70800
C  -6.73400 21.98800 27.86000
C  -7.64400 20.91500 27.46600
C  -7.88500 20.97700 26.05900
C  -7.09500 22.14900 25.65500
C  -8.16100 19.91800 28.48500
C  -8.84800 20.13200 25.26000
O  -9.06400 20.34300 24.06500
C  -9.58400 18.93100 25.82500
N  -5.23500 24.39200 24.42400
C  -6.16500 23.58000 23.78200
C  -6.26800 24.00000 22.31300
C  -5.29000 25.13300 22.10600
C  -4.75700 25.32900 23.53600
C  -6.27200 22.87500 21.12800
C  -5.84000 26.39400 21.43800
C  -5.74100 26.55800 19.94100
N  -3.80000 25.85700 26.33000
C  -3.40600 26.57400 25.21200
C  -2.42100 27.63000 25.59600
C  -2.22200 27.43000 27.00100
C  -3.07000 26.31000 27.37300
C  -1.73900 28.60800 24.67000
C  -1.46200 27.80500 28.14000
O  -0.57300 28.66800 28.28600
C  -1.97300 26.99700 29.34100
C  -0.85700 26.31700 30.07900
O  0.03200 25.65700 29.55400
O  -0.88000 26.63300 31.40600
C  0.21600 26.19600 32.24600
H  -6.41000 21.58800 29.96400
H  -7.34900 21.86700 23.57800
H  -3.43600 26.84600 23.04000
H  -2.96400 24.71700 31.37100
H  -5.43600 23.35400 31.71700
H  -4.31900 21.53800 32.04900
H  -2.80800 22.39600 31.67900
H  -3.68000 21.46200 30.45000
H  -4.82200 26.83700 30.95300
H  -3.93500 26.47400 32.26800
H  -6.58000 25.21700 31.59700
H  -6.39000 26.71400 32.46200
H  -9.19600 20.12600 28.75500
H  -7.51400 19.98000 29.36100
H  -8.02500 18.90500 28.10400
H  -8.84700 18.13200 25.91300
H  -10.27000 18.62200 25.03600
H  -10.11900 19.09000 26.76100
H  -7.27600 24.41500 22.34400
H  -4.47700 24.73300 21.50000
H  -7.26000 22.71800 20.69400
H  -6.05600 21.90700 21.57900
H  -5.61300 23.11500 20.29400
H  -5.19200 27.17500 21.83600
H  -6.89000 26.50300 21.71000
H  -4.83900 27.11200 19.68100
H  -6.70500 26.89700 19.56200
H  -5.61400 25.58100 19.47500
H  -1.68700 28.26200 23.63800
H  -0.69200 28.66100 24.97000
H  -2.16600 29.59200 24.86300
H  -2.45400 27.64600 30.07300
H  1.11900 25.82800 31.75800
H  -0.22200 25.42400 32.87900
H  0.51400 27.01400 32.90200

