158

Mg 36.53700 49.31900 24.96000
C  37.08200 47.60500 27.99100
C  35.42400 52.10900 26.75800
C  36.36500 50.93700 22.04900
C  37.84400 46.49100 23.31200
N  36.25900 49.73000 27.11800
C  36.52400 48.88800 28.19800
C  36.11700 49.60300 29.50200
C  35.49300 50.91400 29.00200
C  35.74400 50.94800 27.51500
C  33.97900 51.04200 29.33000
C  37.35700 49.87400 30.46200
C  37.17900 49.92600 31.94900
H  35.85200 49.76600 32.54800
N  35.97300 51.18800 24.52200
C  35.51400 52.18700 25.36700
C  35.15400 53.38000 24.54200
C  35.42500 53.07900 23.20400
C  35.97100 51.67600 23.19400
C  34.84500 54.78300 25.14800
C  35.20300 53.85900 21.91900
O  35.33900 53.40600 20.81900
C  34.76400 55.30000 21.98300
N  37.03300 48.73600 22.93800
C  36.86300 49.63400 21.93300
C  37.40900 49.02600 20.51400
C  38.00900 47.59800 21.01500
C  37.63600 47.58400 22.48800
C  36.37000 48.81900 19.42600
C  39.52900 47.47000 20.77200
C  40.41900 48.63500 21.41800
N  37.37700 47.36700 25.50400
C  37.81800 46.38000 24.69400
C  38.19500 45.23600 25.52400
C  37.96300 45.72700 26.81600
C  37.42000 47.01900 26.75600
C  38.80300 43.87200 25.07800
C  38.02200 45.30300 28.18000
O  38.34000 44.32200 28.77900
C  37.50400 46.52000 29.07000
C  36.33500 46.15000 29.86000
O  35.28000 45.83700 29.41700
O  36.68600 46.14800 31.18400
C  35.82600 45.41300 32.14500
H  35.20100 52.96300 27.40100
H  36.50700 51.31700 21.03500
H  38.28600 45.65600 22.76500
H  35.48000 48.91100 30.05300
H  35.98600 51.75300 29.49200
H  33.75800 50.13100 29.88600
H  33.35000 51.06300 28.44100
H  33.80900 52.01500 29.79100
H  38.02100 50.64800 30.07700
H  37.84400 48.90000 30.40100
H  37.70000 50.81300 32.31000
H  37.65900 49.06300 32.41000
H  34.95200 55.60900 24.44500
H  35.62300 55.01400 25.87600
H  33.84500 54.69700 25.57300
H  33.82600 55.38300 22.53100
H  34.61200 55.64500 20.96000
H  35.42900 55.98700 22.50600
H  38.20000 49.62300 20.06100
H  37.46500 46.73300 20.63400
H  35.51500 49.27400 19.92500
H  36.19800 47.80000 19.07900
H  36.77100 49.46800 18.64800
H  39.85800 47.32400 19.74300
H  39.75500 46.49400 21.20200
H  41.31300 48.73900 20.80400
H  40.70700 48.29700 22.41400
H  39.88400 49.58400 21.37800
H  39.56100 43.64000 25.82600
H  39.29900 44.00300 24.11600
H  37.95600 43.18800 25.12000
H  38.34100 46.79900 29.71000
H  35.14700 44.71200 31.65900
H  35.17000 46.02000 32.77000
H  36.46000 44.79300 32.77800
Mg 26.88200 50.14500 26.72700
C  24.77000 51.57800 29.15800
C  29.00500 49.33400 29.46000
C  29.24600 49.35100 24.60400
C  24.96200 51.54600 24.29200
N  26.91300 50.52900 29.02400
C  25.92900 50.96300 29.71800
C  26.17900 50.85200 31.23500
C  27.67000 50.35200 31.25400
C  27.87000 50.01100 29.85300
C  28.89100 51.33100 31.70600
C  25.25100 49.71200 31.86000
C  24.82000 49.89200 33.41500
H  25.81300 50.55600 34.38200
N  28.78000 49.38100 26.98900
C  29.42900 49.03000 28.11800
C  30.69900 48.44300 27.78300
C  30.85000 48.49900 26.36800
C  29.61900 49.14100 25.92700
C  31.54800 47.87300 28.89600
C  31.96900 48.05600 25.52500
O  31.95700 48.17700 24.33800
C  33.19100 47.42800 26.11900
N  27.02200 50.23100 24.73000
C  28.07300 49.85100 24.00800
C  27.78600 49.83400 22.52300
C  26.32500 50.39400 22.46300
C  26.03200 50.72400 23.91700
C  28.81700 50.67100 21.63200
C  25.24000 49.43600 21.97300
C  24.78200 49.79300 20.61000
N  25.20600 51.32800 26.63500
C  24.53500 51.76100 25.57800
C  23.32000 52.49200 26.06600
C  23.40100 52.41200 27.41800
C  24.54600 51.70700 27.77000
C  22.38200 53.30600 25.27900
C  22.75000 52.78900 28.70800
O  21.82000 53.52200 28.86100
C  23.53300 52.17300 29.83800
C  23.95100 53.24900 30.79200
O  24.90300 53.99400 30.69300
O  23.08800 53.31100 31.78400
C  23.17200 54.36700 32.90600
H  29.53100 49.04900 30.37400
H  30.04400 49.00900 23.94200
H  24.34100 51.80600 23.43200
H  26.05500 51.82400 31.71200
H  27.84100 49.40500 31.76500
H  28.51800 52.24700 32.16300
H  29.58500 51.54900 30.89400
H  29.34000 50.79500 32.54200
H  25.60100 48.71600 31.58800
H  24.35700 49.69300 31.23700
H  24.46200 48.91100 33.72800
H  23.95300 50.55100 33.45700
H  31.55500 46.78400 28.93400
H  31.27600 48.17900 29.90600
H  32.58300 48.21300 28.87900
H  34.00900 47.46300 25.40000
H  32.90400 46.43300 26.45900
H  33.59200 48.13100 26.85000
H  27.72700 48.80000 22.18100
H  26.17600 51.31000 21.89200
H  29.66100 51.10700 22.16600
H  28.35700 51.48100 21.06600
H  29.26300 49.93200 20.96600
H  24.43100 49.17800 22.65600
H  25.65900 48.43100 21.93700
H  23.79100 50.24300 20.66400
H  24.62400 48.82600 20.13200
H  25.37300 50.32100 19.86100
H  22.46500 54.39000 25.35800
H  21.35600 53.07000 25.56100
H  22.46300 53.07700 24.21600
H  22.96100 51.44700 30.41600
H  23.52100 55.31500 32.49500
H  23.85400 53.99300 33.67000
H  22.20100 54.56300 33.35900

