158

Mg -1.67000 17.04900 26.33300
C  -2.03500 14.90600 29.05500
C  -2.11000 19.64200 28.42800
C  -1.92000 19.08100 23.53700
C  -1.68800 14.34300 24.12400
N  -2.35100 17.23800 28.52900
C  -2.22000 16.24000 29.48400
C  -2.35900 16.67300 30.87600
C  -2.47300 18.23700 30.63800
C  -2.32100 18.42400 29.11000
C  -3.72000 18.90900 31.25300
C  -1.09600 16.38700 31.79900
C  -0.80500 17.15500 33.07300
H  -0.93100 16.40700 34.29500
N  -1.79200 19.02700 26.03300
C  -1.99300 19.96400 27.04500
C  -2.02800 21.24900 26.46300
C  -1.82700 21.11900 25.10000
C  -1.94900 19.69600 24.82700
C  -2.27500 22.59400 27.24100
C  -1.54700 22.21200 24.06000
O  -1.70000 22.07400 22.81400
C  -0.98500 23.53100 24.45700
N  -1.75300 16.72800 24.04400
C  -1.78700 17.71300 23.18600
C  -1.85800 17.14600 21.79100
C  -1.38700 15.67300 21.91900
C  -1.49900 15.51000 23.47000
C  -3.27700 17.32300 21.18200
C  -0.07200 15.31300 21.16600
C  1.14600 15.60600 21.91500
N  -1.92000 15.07500 26.50800
C  -1.79800 14.06300 25.56200
C  -1.75500 12.75800 26.22300
C  -1.83000 13.08600 27.60300
C  -1.92900 14.49700 27.71100
C  -1.71900 11.41800 25.53300
C  -1.93100 12.53200 28.94800
O  -1.85600 11.36800 29.27300
C  -1.96900 13.66700 29.94500
C  -0.67100 13.55200 30.70200
O  0.36900 13.93000 30.28900
O  -0.84700 12.99000 31.98700
C  0.31100 12.97500 32.83200
H  -2.07200 20.49200 29.11400
H  -1.98700 19.74100 22.67000
H  -1.56800 13.52200 23.41400
H  -3.32800 16.30900 31.21800
H  -1.65700 18.69900 31.19400
H  -4.08000 19.56200 30.45800
H  -3.48700 19.40800 32.19400
H  -4.61000 18.30600 31.43400
H  -0.14000 16.34600 31.27700
H  -1.29100 15.36100 32.11100
H  -1.41900 18.05200 33.15600
H  0.24000 17.46200 33.02100
H  -2.83000 22.28200 28.12500
H  -2.87200 23.20900 26.56900
H  -1.36300 23.08400 27.58200
H  -0.25600 23.49900 25.26700
H  -1.82600 24.17500 24.71300
H  -0.47100 24.05000 23.64800
H  -1.14800 17.60100 21.10000
H  -2.15800 14.98600 21.57300
H  -3.25000 17.63900 20.13900
H  -3.82300 18.11600 21.69200
H  -3.71500 16.32500 21.18800
H  0.00700 15.86300 20.22900
H  -0.12400 14.25600 20.90600
H  0.89600 16.31600 22.70400
H  1.92000 16.18000 21.40400
H  1.51600 14.68000 22.35500
H  -1.31400 11.42400 24.52100
H  -2.71000 10.97200 25.44600
H  -1.13100 10.76200 26.17400
H  -2.78800 13.51000 30.64600
H  0.92000 12.14800 32.46700
H  -0.09000 12.79100 33.82800
H  0.80200 13.94700 32.80500
Mg 43.35900 3.76300 47.91700
C  40.89900 6.12800 47.19700
C  40.99500 1.23000 47.53300
C  45.80500 1.26500 48.02600
C  45.76900 6.23400 47.95100
N  41.23800 3.74300 47.26500
C  40.35400 4.84500 47.24100
C  38.85100 4.39300 47.15400
C  39.00100 2.85500 47.50300
C  40.47500 2.57200 47.38900
C  38.24700 2.31900 48.71300
C  38.31100 4.77300 45.73100
C  36.96400 5.53900 45.62700
H  36.82900 6.51600 44.53600
N  43.39000 1.62400 47.82300
C  42.29900 0.80900 47.62800
C  42.64800 -0.54700 47.56000
C  44.04800 -0.58800 47.66600
C  44.51800 0.78900 47.86000
C  41.68100 -1.69000 47.24900
C  44.88200 -1.81200 47.58000
O  44.40100 -2.86500 47.24200
C  46.41900 -1.88200 47.84700
N  45.52000 3.73300 47.73900
C  46.25700 2.60300 47.98400
C  47.77800 2.92000 48.04800
C  47.69200 4.45600 48.33000
C  46.25300 4.85200 47.94900
C  48.68000 2.12900 49.14000
C  48.74300 5.37600 47.51300
C  49.97000 5.91200 48.28300
N  43.39100 5.73900 47.65700
C  44.46200 6.64900 47.71000
C  43.94500 7.96300 47.61100
C  42.60100 7.77800 47.32600
C  42.26300 6.39100 47.34400
C  44.61000 9.26500 47.58800
C  41.27900 8.52800 47.16500
O  41.00400 9.65500 47.32600
C  40.19600 7.45600 46.90300
C  39.04100 7.76900 47.89100
O  39.19700 7.61800 49.10500
O  37.97500 8.43000 47.22400
C  36.80700 8.61600 48.08600
H  40.14600 0.54500 47.48500
H  46.55200 0.46900 47.98400
H  46.55200 6.89800 48.32300
H  38.32800 4.97900 47.91000
H  38.48300 2.33800 46.69500
H  37.86800 3.14700 49.31200
H  38.84400 1.65500 49.33700
H  37.47500 1.59100 48.46300
H  38.38500 3.84400 45.16600
H  39.08000 5.38100 45.25400
H  36.77600 5.99300 46.60100
H  36.21800 4.75100 45.52900
H  40.62700 -1.43800 47.36400
H  41.93800 -2.50100 47.93100
H  41.81800 -2.15400 46.27300
H  46.90700 -1.37700 47.01200
H  46.69900 -2.93500 47.83000
H  46.58300 -1.55500 48.87400
H  48.14600 2.76800 47.03400
H  47.72600 4.63600 49.40500
H  48.18000 1.38700 49.76200
H  49.20500 2.76100 49.85600
H  49.39500 1.58100 48.52500
H  48.26100 6.28000 47.14000
H  49.11200 4.87500 46.61800
H  50.93900 5.41600 48.22000
H  49.78200 5.82600 49.35300
H  50.06900 6.92100 47.88300
H  45.05600 9.35300 48.57800
H  43.99600 10.13000 47.33800
H  45.39600 9.16000 46.83900
H  39.82400 7.55600 45.88300
H  35.97900 8.17900 47.52900
H  36.74200 9.68800 48.27100
H  36.87100 8.18000 49.08300

