158

Mg 16.49300 -2.12500 28.30200
C  15.59300 0.22300 30.87800
C  18.19500 -3.83500 30.61500
C  17.63900 -3.96500 25.75600
C  14.43900 -0.19500 26.08500
N  16.96000 -1.64800 30.49000
C  16.37700 -0.78500 31.35100
C  16.76400 -1.03800 32.80100
C  17.76700 -2.31400 32.66700
C  17.63000 -2.65900 31.15900
C  19.20900 -2.08100 33.16900
C  15.56800 -1.52000 33.68800
C  15.51000 -0.83400 35.07800
H  16.70800 -0.10100 35.70100
N  17.74800 -3.73500 28.23900
C  18.36500 -4.33400 29.29300
C  19.14000 -5.44100 28.85700
C  18.97200 -5.52400 27.43800
C  18.11400 -4.36700 27.07200
C  19.87400 -6.29900 29.87600
C  19.53500 -6.53600 26.40700
O  19.38900 -6.40400 25.22200
C  20.29400 -7.78200 26.94600
N  15.99900 -2.09200 26.23000
C  16.70800 -2.94400 25.39500
C  16.52300 -2.52500 23.87100
C  15.25900 -1.56000 24.02100
C  15.15500 -1.25000 25.51400
C  17.71000 -1.78100 23.32800
C  13.89300 -2.12700 23.46400
C  13.07700 -1.22300 22.56300
N  15.33300 -0.27100 28.39400
C  14.59400 0.33900 27.40800
C  13.84300 1.47600 27.99400
C  14.22000 1.44000 29.37300
C  15.09800 0.35400 29.55900
C  12.78900 2.29700 27.33800
C  13.94500 2.05500 30.67400
O  13.18400 3.01400 30.92900
C  14.74300 1.23300 31.74600
C  15.62800 2.16300 32.43200
O  16.74300 2.61900 32.18900
O  15.05900 2.42300 33.66600
C  15.59700 3.62300 34.36100
H  18.70900 -4.47400 31.33600
H  18.05800 -4.41300 24.85300
H  13.78900 0.33300 25.38400
H  17.20200 -0.17200 33.29800
H  17.45200 -3.25200 33.12400
H  19.33200 -2.64800 34.09200
H  19.26000 -0.99900 33.29700
H  19.92800 -2.43200 32.42900
H  15.72900 -2.57900 33.89000
H  14.67500 -1.48700 33.06300
H  15.22500 -1.66900 35.71800
H  14.66200 -0.15300 35.00900
H  19.14100 -6.93700 30.37000
H  20.30400 -5.62100 30.61300
H  20.69200 -6.92100 29.51200
H  21.17500 -7.47400 27.51000
H  20.59400 -8.43200 26.12400
H  19.60600 -8.35400 27.56900
H  16.35100 -3.44000 23.30500
H  15.43700 -0.66100 23.43000
H  18.44100 -1.71800 24.13500
H  17.43900 -0.83300 22.86400
H  18.19900 -2.31300 22.51200
H  13.34600 -2.47900 24.33900
H  14.15400 -3.07100 22.98700
H  12.87500 -1.72600 21.61700
H  13.70200 -0.42500 22.16100
H  12.25500 -0.69800 23.05000
H  11.95100 2.41000 28.02500
H  12.39300 1.93900 26.38700
H  13.14000 3.30000 27.09500
H  14.03100 0.68500 32.36400
H  15.59800 4.47900 33.68700
H  16.60900 3.48000 34.74100
H  15.03900 3.79600 35.28100
Mg 52.85500 24.92100 45.53800
C  50.16100 27.04400 44.48300
C  51.00000 22.29800 44.41700
C  55.70100 23.16700 45.24900
C  54.64300 27.78200 46.19700
N  50.90000 24.74600 44.49600
C  49.90500 25.69400 44.23000
C  48.74700 24.99900 43.48700
C  48.77700 23.59000 44.17700
C  50.33900 23.53400 44.30600
C  47.95300 23.53800 45.47400
C  48.83800 25.15600 41.92700
C  47.61300 25.09600 41.05800
H  47.71300 24.32500 39.77300
N  53.24400 22.90000 45.15700
C  52.36000 22.02200 44.78200
C  52.99200 20.75800 44.86100
C  54.37100 20.90800 45.09300
C  54.48400 22.36200 45.18400
C  52.11200 19.48000 44.61300
C  55.37400 19.76900 45.19000
O  55.14400 18.60700 44.81000
C  56.68200 19.93800 45.89400
N  54.85200 25.39500 45.59800
C  55.85300 24.48600 45.48800
C  57.28100 25.08700 45.70100
C  56.93100 26.53800 46.10500
C  55.37800 26.60100 45.98100
C  58.07500 24.32800 46.72200
C  57.68700 27.63500 45.36500
C  58.31000 28.61200 46.35700
N  52.43800 26.94600 45.63800
C  53.20900 27.98600 45.87900
C  52.57600 29.21100 45.84400
C  51.39000 28.87000 45.21500
C  51.31400 27.48600 45.07400
C  52.96300 30.63000 46.28100
C  50.11100 29.45300 44.75100
O  49.77000 30.63000 44.84600
C  49.28000 28.25100 44.10800
C  49.21800 28.45900 42.61900
O  50.12200 28.69900 41.85300
O  47.84400 28.57900 42.30400
C  47.56500 29.12300 40.97900
H  50.33900 21.45400 44.20900
H  56.64200 22.61300 45.25700
H  55.26700 28.57900 46.60700
H  47.81500 25.42200 43.86200
H  48.46800 22.74700 43.55900
H  48.71200 23.62000 46.25200
H  47.35600 22.62600 45.45900
H  47.33100 24.42500 45.59700
H  49.54500 24.46300 41.46900
H  49.36800 26.10500 41.85200
H  47.39500 26.12000 40.75200
H  46.77500 24.73900 41.65600
H  51.10100 19.69000 44.26200
H  52.12100 18.93600 45.55700
H  52.64700 18.87400 43.88200
H  57.20000 18.98200 45.83600
H  56.59200 20.44100 46.85700
H  57.30000 20.66900 45.37300
H  57.67900 24.99100 44.69100
H  57.14800 26.56300 47.17200
H  59.11100 24.52800 46.44600
H  58.04700 23.24200 46.80600
H  57.74500 24.75800 47.66800
H  57.00500 28.10600 44.65600
H  58.46900 27.24000 44.71700
H  59.40000 28.57900 46.32800
H  58.01800 28.41500 47.38800
H  57.91900 29.60900 46.15200
H  53.84900 30.44400 46.88700
H  52.17700 31.05900 46.90300
H  53.21400 31.21400 45.39600
H  48.24100 28.21400 44.43400
H  46.48000 29.19500 40.90700
H  47.84000 28.50500 40.12500
H  47.74200 30.19700 40.91700

