158

Mg 35.86600 1.56300 30.44600
C  33.45300 2.25300 32.80500
C  38.24000 1.87000 32.92900
C  38.25800 1.15300 28.06400
C  33.45600 1.97300 27.85800
N  35.79300 2.06800 32.59300
C  34.70300 2.15500 33.38300
C  35.03500 2.24700 34.82400
C  36.58400 2.59600 34.83500
C  36.88300 2.10100 33.37000
C  36.82300 4.09900 35.15400
C  34.63900 1.00400 35.56500
C  33.95200 1.09500 36.91000
H  34.53700 2.24200 37.77700
N  37.93700 1.31800 30.54800
C  38.79400 1.41800 31.62700
C  40.19500 1.06200 31.21200
C  40.18400 0.92000 29.82400
C  38.73700 1.18500 29.39100
C  41.31100 1.09600 32.25500
C  41.35000 0.58600 28.88500
O  41.20600 0.42700 27.70600
C  42.77100 0.12100 29.49000
N  35.87400 1.81100 28.22400
C  36.95800 1.33600 27.56800
C  36.63000 1.22800 26.07900
C  35.10400 1.46400 25.98200
C  34.74900 1.70800 27.40200
C  37.57500 2.07100 25.10000
C  34.34200 0.34900 25.09700
C  33.70000 -0.76500 25.96400
N  33.87300 2.13100 30.28000
C  33.01500 2.13400 29.18200
C  31.67800 2.35100 29.67600
C  31.78900 2.39400 31.07000
C  33.12400 2.31700 31.38900
C  30.46500 2.59000 28.73100
C  31.05400 2.53500 32.26700
O  29.84500 2.71600 32.51500
C  32.15300 2.52600 33.48000
C  32.05900 3.87300 34.05700
O  32.69700 4.85400 33.73500
O  31.25400 3.80300 35.19600
C  31.27500 5.01200 36.15600
H  38.95300 2.07000 33.73200
H  39.01900 0.87900 27.32900
H  32.68200 1.77700 27.11200
H  34.44700 3.08100 35.20600
H  37.13800 1.95300 35.51800
H  37.09900 4.15000 36.20800
H  35.88900 4.64900 35.03900
H  37.62400 4.45800 34.50900
H  35.50900 0.40700 35.83900
H  34.23300 0.33200 34.80900
H  34.03700 0.12700 37.40500
H  32.92800 1.24900 36.57000
H  41.76800 0.11700 32.39900
H  40.84300 1.37500 33.19900
H  42.08500 1.81400 31.98300
H  43.28100 1.02000 29.83700
H  43.41600 -0.30500 28.72200
H  42.65200 -0.68200 30.21700
H  36.79100 0.16900 25.87300
H  34.93600 2.41900 25.48300
H  38.50500 2.38800 25.57100
H  37.04400 2.98300 24.82800
H  37.82700 1.53100 24.18700
H  34.97200 -0.04900 24.30200
H  33.43200 0.76900 24.66800
H  32.63800 -0.84100 25.73000
H  33.83500 -0.64500 27.03900
H  34.15500 -1.74000 25.79300
H  30.06700 1.64600 28.35700
H  30.73300 3.15900 27.84100
H  29.64300 3.10500 29.22700
H  31.94600 1.77800 34.24600
H  30.25500 5.34500 36.35200
H  31.82700 5.85700 35.74400
H  31.78200 4.73000 37.07900
Mg 29.04500 59.29700 41.31500
C  26.28100 57.72300 40.17900
C  30.95100 56.73200 39.74300
C  31.98100 61.26100 41.29100
C  27.12400 62.13000 41.83700
N  28.64700 57.52400 40.10700
C  27.42700 57.11100 39.75800
C  27.46600 55.96500 38.71100
C  28.91500 55.36900 38.98700
C  29.55200 56.59700 39.64100
C  28.96900 54.16200 39.86200
C  27.29200 56.58100 37.24300
C  26.68800 55.54500 36.24200
H  26.39400 56.11400 34.85200
N  31.20500 58.97800 40.75200
C  31.72000 57.80900 40.24500
C  33.16800 57.94900 40.23300
C  33.50000 59.23800 40.76000
C  32.18100 59.91900 41.00300
C  34.02500 56.80100 39.80800
C  34.85300 59.80400 41.03200
O  35.81100 59.17500 40.62800
C  35.11600 61.11400 41.82100
N  29.52900 61.44400 41.66700
C  30.74800 61.96900 41.60400
C  30.68200 63.47300 41.73500
C  29.12500 63.78000 41.86200
C  28.53100 62.36600 41.83200
C  31.56500 64.03100 42.89900
C  28.43100 64.65400 40.70600
C  27.78900 66.00000 41.21400
N  27.06400 59.73900 41.42700
C  26.39200 60.92500 41.63900
C  24.94800 60.69500 41.53300
C  24.83800 59.44200 40.94100
C  26.14800 58.90300 40.85300
C  23.83400 61.58000 41.88700
C  23.94700 58.44300 40.36200
O  22.74200 58.38600 40.29300
C  24.84300 57.30000 39.86400
C  24.53000 56.07000 40.64700
O  24.70300 55.89100 41.84500
O  23.88700 55.16100 39.87000
C  23.52300 53.90000 40.42600
H  31.48500 55.86200 39.35500
H  32.81300 61.96500 41.34000
H  26.40400 62.94900 41.88700
H  26.55100 55.38000 38.80600
H  29.47100 55.21500 38.06200
H  27.98000 53.95000 40.26900
H  29.66400 54.21500 40.69900
H  29.26500 53.34600 39.20300
H  28.23200 56.96700 36.84700
H  26.70800 57.49900 37.30400
H  25.74400 55.17300 36.63900
H  27.38100 54.70700 36.16200
H  34.38500 56.78800 38.78000
H  33.58400 55.81500 39.95000
H  34.88700 56.84600 40.47400
H  34.94800 61.93400 41.12200
H  36.20000 61.08900 41.93600
H  34.48400 61.20500 42.70400
H  31.02000 63.80900 40.75500
H  28.87900 64.26500 42.80700
H  31.12800 64.08500 43.89600
H  32.07500 64.92900 42.54900
H  32.36100 63.31200 43.09100
H  27.54600 64.09600 40.40100
H  29.04100 64.71500 39.80500
H  26.70100 65.95000 41.18800
H  28.18000 66.69000 40.46600
H  28.21100 66.26400 42.18300
H  22.89600 61.18000 41.50300
H  24.06700 62.55600 41.46100
H  23.83400 61.79200 42.95600
H  24.68500 57.19000 38.79100
H  22.67900 54.00600 41.10800
H  24.40500 53.38700 40.81000
H  23.18800 53.24900 39.61800

