158

Mg 30.29000 59.79300 40.27300
C  27.51400 57.65900 39.30100
C  32.41000 57.32000 39.01900
C  32.74100 61.92800 40.78400
C  27.91100 62.22600 40.77200
N  30.00900 57.64800 39.55900
C  28.79000 57.05700 39.13000
C  29.01100 55.76600 38.33600
C  30.57100 55.51500 38.58600
C  31.06100 56.91600 39.06200
C  30.94300 54.41700 39.49500
C  28.61500 55.94600 36.88300
C  27.81700 54.90300 36.19900
H  27.01900 55.35200 34.98800
N  32.28500 59.65100 39.98100
C  32.97100 58.56600 39.43700
C  34.37000 58.89700 39.33700
C  34.53100 60.18500 39.86900
C  33.21600 60.66100 40.29800
C  35.42100 57.97400 38.78700
C  35.83400 60.89800 40.04800
O  36.86200 60.30400 39.70000
C  35.99100 62.19900 40.82000
N  30.30500 61.90400 40.49700
C  31.48000 62.53000 40.82900
C  31.12900 63.95200 41.32800
C  29.60700 64.04800 41.07300
C  29.26800 62.59000 40.88300
C  31.54500 64.19700 42.78100
C  29.17400 64.97200 39.85600
C  28.41100 66.32900 40.20100
N  28.12600 59.97900 40.11500
C  27.32900 61.09500 40.27100
C  25.99400 60.81800 39.98600
C  26.00500 59.38400 39.62600
C  27.34300 58.96300 39.68200
C  24.79500 61.71400 40.11000
C  25.17800 58.26000 39.18400
O  23.97200 58.23200 39.08300
C  26.19500 57.13800 38.95700
C  25.69700 55.90800 39.68800
O  25.65700 55.73400 40.89500
O  25.51400 54.92500 38.81400
C  25.24700 53.60600 39.28400
H  32.98300 56.46100 38.66500
H  33.47700 62.73400 40.74900
H  27.15800 63.00200 40.92600
H  28.46600 54.90900 38.73300
H  30.93500 55.28400 37.58500
H  31.66800 54.88800 40.15900
H  31.27200 53.54200 38.93400
H  30.10700 54.20000 40.16100
H  29.48800 56.12100 36.25400
H  28.21500 56.94400 36.70600
H  27.11500 54.42100 36.87900
H  28.57000 54.23900 35.77500
H  36.35000 58.03700 39.35300
H  35.68100 58.20300 37.75400
H  35.06100 56.95000 38.68000
H  35.35300 61.94400 41.66700
H  35.63600 63.11800 40.35400
H  37.05100 62.29500 41.05400
H  31.65900 64.69300 40.73000
H  29.09100 64.38100 41.97300
H  32.22200 65.04100 42.91600
H  32.00400 63.29900 43.19500
H  30.70400 64.39800 43.44400
H  28.49900 64.41300 39.20700
H  30.04600 65.33100 39.30900
H  28.22000 66.47900 41.26300
H  27.45100 66.37800 39.68600
H  29.08800 67.14000 39.93300
H  25.04400 62.44200 39.33800
H  24.81300 62.21800 41.07600
H  23.84300 61.20500 39.95700
H  26.14400 56.83300 37.91200
H  24.17100 53.43700 39.34300
H  25.65800 53.36200 40.26400
H  25.71600 53.04700 38.47500
Mg 16.99800 52.59100 25.94600
C  18.94300 51.15500 28.57900
C  14.85100 53.63100 28.42600
C  15.28800 53.91300 23.49600
C  19.29000 51.20400 23.58300
N  17.00600 52.46300 28.29100
C  17.90700 51.86700 29.14800
C  17.48100 51.98000 30.55700
C  15.97500 52.61100 30.51600
C  15.84700 52.82500 28.96600
C  14.88600 51.81400 31.31400
C  18.44700 52.85700 31.45400
C  18.54300 52.50300 32.94200
H  17.74000 53.53000 33.86600
N  15.29600 53.58300 25.95800
C  14.49000 53.86000 27.09500
C  13.30300 54.50000 26.59200
C  13.46400 54.71900 25.14100
C  14.76300 54.09400 24.82100
C  12.19500 54.94500 27.52700
C  12.49400 55.40700 24.07700
O  12.80000 55.64800 22.94000
C  11.20000 55.96300 24.49600
N  17.29900 52.63200 23.82700
C  16.34900 53.18700 23.06000
C  16.50900 52.80900 21.62800
C  17.96700 52.19200 21.55600
C  18.21400 51.97800 23.08500
C  15.32800 51.95000 21.04700
C  19.04700 53.06300 20.94400
C  20.17400 52.28100 20.33400
N  18.67000 51.40800 26.03200
C  19.49500 50.93700 24.93500
C  20.51300 50.09500 25.51700
C  20.39700 50.26300 26.89100
C  19.23500 51.04200 27.19900
C  21.58900 49.27900 24.83400
C  20.91200 49.74200 28.18900
O  21.80500 48.91500 28.45000
C  20.01500 50.40900 29.35100
C  19.38700 49.26100 30.06600
O  18.31900 48.63500 29.82600
O  20.10800 48.98300 31.13200
C  19.46800 48.24100 32.18200
H  14.13200 53.92600 29.19400
H  14.61400 54.24200 22.70200
H  19.97400 50.72500 22.88000
H  17.38400 50.94000 30.87200
H  16.04600 53.61000 30.94500
H  14.25600 52.40800 31.97600
H  15.32400 51.01800 31.91500
H  14.35700 51.22100 30.56800
H  18.33100 53.92700 31.28100
H  19.47900 52.70400 31.13700
H  19.59400 52.61700 33.20800
H  18.25500 51.49300 33.23200
H  11.73500 55.81600 27.05900
H  12.63300 55.41900 28.40500
H  11.39100 54.23200 27.70800
H  10.76100 55.36900 25.29700
H  10.47400 55.79300 23.70100
H  11.08500 56.94200 24.96100
H  16.63500 53.78000 21.15000
H  17.95900 51.21100 21.08300
H  14.61700 51.69800 21.83400
H  15.72700 51.02000 20.64200
H  14.83800 52.55300 20.28300
H  19.41700 53.66300 21.77500
H  18.55400 53.63500 20.15900
H  19.99400 51.22500 20.13400
H  20.99500 52.20400 21.04700
H  20.55600 52.79300 19.45200
H  21.29400 48.83800 23.88200
H  22.02600 48.50200 25.46200
H  22.43300 49.87100 24.47900
H  20.51900 51.06600 30.06000
H  19.78900 48.67500 33.12900
H  19.80800 47.20600 32.20300
H  18.40400 48.38000 32.36800

