158

Mg 47.58200 14.93400 28.44700
C  45.60400 14.84700 31.13000
C  49.86800 16.88800 30.09300
C  49.51800 14.99300 25.61600
C  44.93000 13.66200 26.46300
N  47.69100 15.76800 30.34700
C  46.82300 15.45600 31.37400
C  47.22500 16.13100 32.67900
C  48.45700 16.99400 32.24600
C  48.73400 16.53500 30.84100
C  48.37000 18.53600 32.42400
C  47.45500 15.01300 33.77000
C  47.03900 15.51300 35.14200
H  47.19500 16.92800 35.62200
N  49.39300 15.69400 27.97400
C  50.22100 16.47500 28.84700
C  51.51100 16.69600 28.20900
C  51.48200 16.06200 26.99800
C  50.09100 15.54700 26.81100
C  52.69300 17.34200 28.86500
C  52.63000 15.83600 26.02700
O  52.48000 15.19900 25.02300
C  53.95100 16.50300 26.15200
N  47.25100 14.47000 26.36000
C  48.24700 14.43600 25.42100
C  47.75800 14.04800 24.03900
C  46.38200 13.45200 24.35900
C  46.14500 13.82400 25.85800
C  47.78100 15.22700 23.10700
C  46.40400 11.89700 24.04600
C  46.78800 10.98100 25.20800
N  45.58100 14.49800 28.65600
C  44.64800 13.91700 27.84400
C  43.47400 13.64600 28.50000
C  43.72400 13.96100 29.83400
C  45.05400 14.48800 29.89800
C  42.26500 12.88200 27.92800
C  43.20400 13.89400 31.15200
O  42.13100 13.56000 31.62300
C  44.40400 14.49400 32.03200
C  43.80100 15.66800 32.71500
O  43.63100 16.81200 32.33600
O  43.42800 15.19400 33.93800
C  42.63200 16.11900 34.75300
H  50.56800 17.56100 30.59200
H  50.09900 15.10300 24.69700
H  44.19100 13.19600 25.80600
H  46.36600 16.77700 32.85700
H  49.23500 16.70800 32.95300
H  49.32000 18.95000 32.76400
H  47.61000 18.98400 33.06400
H  48.22200 19.09300 31.49900
H  48.51800 14.77700 33.81000
H  46.80300 14.14700 33.65600
H  47.55600 14.88300 35.86600
H  45.96400 15.33700 35.12900
H  52.78700 18.29400 28.34200
H  53.55700 16.67800 28.85100
H  52.48400 17.62300 29.89700
H  53.95000 17.58800 26.26000
H  54.55200 16.20900 25.29200
H  54.48900 15.99100 26.95000
H  48.36500 13.25700 23.59800
H  45.58800 13.97500 23.82600
H  47.35800 16.12600 23.55400
H  47.20200 14.93500 22.23100
H  48.82500 15.43900 22.87700
H  47.13400 11.59400 23.29500
H  45.40000 11.57600 23.76800
H  46.71200 11.41500 26.20500
H  47.81100 10.62800 25.07800
H  46.11000 10.12700 25.21000
H  41.78200 13.47100 27.14900
H  41.62100 12.76400 28.80000
H  42.48900 11.89300 27.52700
H  44.62000 13.70700 32.75500
H  41.89500 16.61100 34.11800
H  43.30500 16.74800 35.33500
H  42.07600 15.50200 35.45900
Mg 42.29700 41.70400 26.20300
C  41.83700 43.96000 28.75200
C  43.28300 39.41400 28.54900
C  43.19600 39.77200 23.68600
C  41.53100 44.22200 23.88700
N  42.49600 41.67500 28.46000
C  42.04300 42.70100 29.28200
C  41.97100 42.22900 30.72700
C  42.72800 40.86700 30.70100
C  42.80900 40.59200 29.16900
C  44.11000 40.85800 31.38600
C  40.46400 42.17100 31.24000
C  40.13600 43.19200 32.34200
H  39.71600 42.61400 33.72400
N  43.05600 39.81400 26.12700
C  43.38000 39.01300 27.16100
C  44.02500 37.75400 26.71700
C  44.01100 37.86500 25.25000
C  43.48900 39.18700 24.92700
C  44.57200 36.63500 27.61100
C  44.51100 36.78200 24.25600
O  44.73900 37.01200 23.07900
C  44.79600 35.46200 24.82500
N  42.17200 41.93800 24.08100
C  42.60100 40.95900 23.24900
C  42.29300 41.30300 21.75300
C  41.51100 42.60000 21.94400
C  41.80100 42.98900 23.38400
C  43.51400 41.50800 20.80800
C  39.96400 42.48100 21.71100
C  39.25400 41.34500 22.54600
N  41.80000 43.65100 26.25500
C  41.45300 44.53300 25.23800
C  41.02100 45.82200 25.78700
C  41.13500 45.57700 27.18700
C  41.62600 44.28100 27.42500
C  40.47300 47.01900 25.15500
C  40.92800 46.18000 28.44900
O  40.52600 47.31900 28.71300
C  41.28800 45.16200 29.50200
C  42.25500 45.67300 30.56500
O  43.48900 45.71700 30.45400
O  41.47800 46.22000 31.54700
C  42.09600 46.85300 32.73300
H  43.74400 38.68800 29.22100
H  43.46600 39.13200 22.84400
H  41.14300 44.94800 23.16900
H  42.51700 42.90800 31.38200
H  42.13500 40.03300 31.07600
H  44.87900 40.22300 30.94700
H  43.98200 40.65500 32.44900
H  44.44700 41.89300 31.32800
H  40.15200 41.20300 31.63100
H  39.83400 42.45600 30.39700
H  39.26900 43.77800 32.03900
H  41.01500 43.81100 32.52100
H  44.02000 35.70400 27.47900
H  44.56700 36.84800 28.68000
H  45.61000 36.42900 27.35200
H  43.94000 35.03600 25.34800
H  45.64800 35.48100 25.50400
H  45.17100 34.79100 24.05200
H  41.60200 40.58800 21.30600
H  41.76700 43.42000 21.27200
H  44.34200 41.10500 21.39100
H  43.75400 42.54800 20.58800
H  43.40800 40.91600 19.89900
H  39.87100 42.17000 20.67100
H  39.43600 43.43500 21.73500
H  39.93800 40.81300 23.20700
H  38.69100 40.66200 21.91000
H  38.53200 41.72200 23.27100
H  39.66000 47.44100 25.74600
H  40.33900 46.69900 24.12200
H  41.27400 47.75700 25.13600
H  40.38700 44.79800 29.99600
H  42.03300 46.00600 33.41600
H  41.55200 47.70900 33.13300
H  43.15100 47.10000 32.61600

