158

Mg 44.03700 3.31300 47.56600
C  42.15800 6.28900 47.43400
C  41.03600 1.55300 47.62900
C  45.85300 0.56800 47.32800
C  46.92500 5.30300 47.00000
N  41.89100 3.90400 47.35700
C  41.34200 5.16000 47.49100
C  39.78100 5.11300 47.46900
C  39.53200 3.55000 47.63600
C  40.92600 2.96400 47.70600
C  38.63300 3.08100 48.77000
C  39.05900 5.69300 46.31200
C  39.62100 5.14200 44.98400
H  40.05000 6.32200 43.99800
N  43.49400 1.27500 47.45800
C  42.19200 0.75600 47.63100
C  42.31000 -0.67300 47.49300
C  43.65900 -1.02500 47.25500
C  44.42500 0.25100 47.33300
C  41.13000 -1.55300 47.67200
C  44.17700 -2.42000 46.98600
O  43.39300 -3.40600 47.01700
C  45.62200 -2.60600 46.65900
N  46.03800 3.02200 47.33900
C  46.56900 1.76000 47.27300
C  48.13700 1.70300 47.07300
C  48.41400 3.21100 46.90700
C  47.01600 3.91400 47.11600
C  48.83700 0.96300 48.23100
C  49.12600 3.49300 45.48100
C  50.63300 3.77000 45.51000
N  44.51000 5.33600 47.37400
C  45.70100 5.98300 47.11500
C  45.47700 7.38600 47.17100
C  44.12300 7.54200 47.28400
C  43.53800 6.28500 47.37200
C  46.53800 8.41900 46.96100
C  43.04000 8.54800 47.31000
O  43.06400 9.77900 47.34300
C  41.72100 7.74200 47.52800
C  41.11700 8.15300 48.87700
O  41.62900 8.00600 49.99800
O  39.79500 8.54200 48.66000
C  39.01100 8.69000 49.85600
H  40.10500 0.98800 47.71400
H  46.49600 -0.31200 47.28200
H  47.87200 5.80700 46.79800
H  39.36000 5.54600 48.37700
H  39.03300 3.14500 46.75600
H  39.36700 2.93800 49.56300
H  38.10200 2.13300 48.69300
H  37.98700 3.89900 49.08700
H  39.20000 6.77300 46.35600
H  38.00300 5.49000 46.49400
H  38.95500 4.42000 44.51200
H  40.48600 4.48200 45.06400
H  40.97600 -2.14500 46.77000
H  40.16700 -1.05400 47.77900
H  41.26100 -2.28100 48.47300
H  46.21400 -2.44200 47.55900
H  45.77700 -1.82300 45.91700
H  45.74000 -3.58600 46.19800
H  48.34000 1.21400 46.12100
H  49.14700 3.60100 47.61400
H  49.70700 1.54200 48.54100
H  49.15200 -0.04400 47.95700
H  48.14900 0.82100 49.06500
H  48.65000 4.39700 45.10100
H  48.96500 2.67900 44.77400
H  51.05300 3.30300 46.40100
H  50.85500 4.83700 45.46800
H  51.02100 3.22600 44.64900
H  47.38800 8.25800 47.62400
H  45.99500 9.29400 47.31800
H  46.91100 8.48200 45.93900
H  41.05700 7.99000 46.70100
H  37.98000 8.96400 49.63200
H  39.33500 9.40700 50.61000
H  38.99200 7.72500 50.36100
Mg 34.04900 48.50100 25.33200
C  34.42300 47.17300 28.64600
C  32.71500 51.42500 26.81600
C  33.53200 49.74100 22.21600
C  35.24300 45.61300 24.03800
N  33.61000 49.20300 27.43400
C  33.89900 48.50800 28.55600
C  33.70800 49.34300 29.84700
C  33.07400 50.70000 29.27800
C  33.15400 50.47900 27.75900
C  31.66100 50.97800 29.76500
C  35.07200 49.57400 30.62400
C  35.00900 49.43900 32.16000
H  33.59300 49.42300 32.84000
N  33.16200 50.32700 24.64600
C  32.67700 51.33200 25.43900
C  32.24300 52.39000 24.54000
C  32.46500 51.98700 23.18700
C  33.08500 50.59100 23.25600
C  31.78300 53.73400 25.16000
C  32.15800 52.69900 21.94600
O  32.25600 52.25400 20.81800
C  31.71500 54.08900 22.00200
N  34.21300 47.71000 23.38500
C  34.13700 48.48800 22.28400
C  34.60700 47.75800 21.02100
C  35.15300 46.42200 21.56700
C  34.89200 46.60600 23.13100
C  33.56500 47.43600 19.95600
C  36.61500 46.14200 21.21500
C  37.66600 46.91600 22.06500
N  34.67200 46.72200 26.09300
C  35.11000 45.61000 25.44600
C  35.49300 44.61600 26.39500
C  35.16600 45.15200 27.62300
C  34.73600 46.47900 27.42000
C  36.05700 43.21700 26.04000
C  35.17800 44.81300 29.05800
O  35.41200 43.72700 29.56500
C  34.70800 46.14000 29.74900
C  33.54000 45.67100 30.56400
O  32.39900 45.61000 30.16700
O  33.88300 45.22400 31.79600
C  32.83500 45.11800 32.86000
H  32.33600 52.29000 27.36500
H  33.46600 50.27100 21.26400
H  35.69800 44.64500 23.82000
H  32.89300 48.80800 30.33400
H  33.65500 51.60300 29.46300
H  31.59500 52.06000 29.87600
H  31.39100 50.53500 30.72300
H  30.92500 50.86400 28.96900
H  35.47900 50.58100 30.53200
H  35.74500 48.85700 30.15500
H  35.56600 50.26300 32.60500
H  35.46700 48.47100 32.36200
H  32.47300 54.49800 24.80100
H  31.80000 53.74800 26.25000
H  30.83000 54.16000 24.84600
H  30.67000 54.23000 22.27800
H  31.66200 54.61700 21.05000
H  32.36600 54.72800 22.59900
H  35.35100 48.35300 20.49100
H  34.56700 45.54200 21.30200
H  33.29800 48.39900 19.52200
H  32.68000 46.87500 20.25600
H  34.06300 46.83000 19.20000
H  36.66300 46.46700 20.17500
H  36.73400 45.06000 21.27600
H  37.20700 47.52700 22.84200
H  38.04700 47.61700 21.32200
H  38.47900 46.33100 22.49500
H  36.81500 43.00500 26.79400
H  36.60900 43.10500 25.10700
H  35.34800 42.38900 26.00800
H  35.49800 46.42000 30.44500
H  32.04600 45.82600 32.60700
H  33.20500 45.37600 33.85300
H  32.36900 44.13400 32.81500

