158

Mg 41.52500 8.72900 29.92100
C  43.25700 10.07400 32.71500
C  39.04200 7.60600 32.11200
C  40.20200 6.94100 27.42700
C  44.40400 9.15600 28.04900
N  41.26000 8.70000 32.21500
C  42.04600 9.48700 33.11700
C  41.35700 9.48200 34.49100
C  40.14100 8.46600 34.32200
C  40.13900 8.20700 32.77100
C  40.27500 7.17900 35.06800
C  41.07800 10.94900 34.94900
C  40.71300 11.06100 36.46100
H  41.58900 11.93000 37.36500
N  39.80000 7.59400 29.76800
C  38.88100 7.33400 30.76600
C  37.68300 6.77100 30.06900
C  37.98200 6.71900 28.67700
C  39.38300 7.03800 28.57300
C  36.44700 6.23800 30.82000
C  37.02400 6.39300 27.50900
O  37.51700 6.17700 26.41800
C  35.47600 6.32100 27.66600
N  42.21400 8.04200 27.97900
C  41.49400 7.30200 27.10800
C  42.20500 6.94400 25.79100
C  43.49900 7.81300 26.03100
C  43.36900 8.42000 27.46100
C  42.53500 5.42500 25.71000
C  43.81100 8.86600 24.98800
C  42.69500 9.97400 24.75900
N  43.40100 9.59200 30.19000
C  44.49300 9.64800 29.35900
C  45.55900 10.39500 29.94600
C  45.14700 10.63400 31.28800
C  43.83900 10.04300 31.38500
C  46.82200 10.83800 29.17800
C  45.46400 11.19400 32.60000
O  46.50200 11.73300 32.99000
C  44.29800 10.84900 33.52200
C  44.80000 10.04500 34.71400
O  45.41700 8.98100 34.67500
O  44.59100 10.81800 35.85900
C  44.90600 10.13900 37.16300
H  38.14300 7.38400 32.69100
H  39.76700 6.51100 26.52300
H  45.27500 9.28900 27.40400
H  42.06600 8.96800 35.14000
H  39.31700 9.13100 34.58000
H  39.59400 7.24200 35.91700
H  41.25700 7.21000 35.54100
H  40.13800 6.31900 34.41300
H  40.13300 11.34100 34.57200
H  41.97400 11.56600 34.88800
H  40.69900 10.06800 36.91000
H  39.73000 11.52800 36.52800
H  36.65300 6.30000 31.88800
H  36.19800 5.25200 30.42900
H  35.56400 6.80700 30.52800
H  35.13600 7.33200 27.89000
H  35.22900 5.61000 28.45400
H  35.04500 5.92700 26.74600
H  41.69600 7.28600 24.89000
H  44.39800 7.19800 26.07800
H  41.75400 5.02800 26.35800
H  43.53800 5.23800 26.09400
H  42.20900 5.07600 24.73000
H  43.95200 8.29900 24.06800
H  44.66800 9.41700 25.37600
H  42.37300 9.75400 23.74100
H  43.20200 10.93600 24.83700
H  41.81100 9.86400 25.38700
H  46.52700 11.72300 28.61300
H  47.25900 10.06900 28.54100
H  47.74300 11.07500 29.71000
H  43.78000 11.75600 33.83400
H  44.49300 9.13000 37.19500
H  44.47800 10.51900 38.09100
H  45.98100 10.05400 37.32100
Mg 4.96700 54.84500 40.38900
C  4.47700 51.47200 41.05100
C  7.69200 54.21000 38.55500
C  4.76100 57.99600 39.24100
C  1.67600 55.34800 41.75200
N  5.85400 53.00800 39.70700
C  5.60800 51.73900 40.25100
C  6.58600 50.73100 39.70500
C  7.84100 51.69700 39.36600
C  7.09600 53.03700 39.19000
C  8.93100 51.70000 40.46900
C  6.13700 49.86400 38.49000
C  4.83000 50.20300 37.74100
H  4.94500 49.76500 36.25800
N  6.11700 56.04400 39.08000
C  7.21200 55.56100 38.45600
C  7.82100 56.68800 37.81300
C  7.03700 57.78000 38.00100
C  5.92100 57.34200 38.80100
C  9.16800 56.52700 37.07700
C  7.35400 59.15200 37.40700
O  8.21000 59.35500 36.50000
C  6.69700 60.35900 37.94800
N  3.32500 56.35100 40.36500
C  3.61300 57.56100 39.87500
C  2.49100 58.57500 40.21100
C  1.37600 57.73600 40.74800
C  2.14700 56.40700 40.94600
C  2.90400 59.75600 41.09900
C  0.12600 57.62200 39.74900
C  -1.27600 58.04300 40.40600
N  3.46600 53.73900 41.44400
C  2.26900 54.06500 41.99300
C  1.78000 52.95900 42.81000
C  2.73600 51.94600 42.52100
C  3.64100 52.42700 41.64200
C  0.47000 52.93900 43.74600
C  3.02100 50.52900 42.81900
O  2.59100 49.75400 43.56600
C  4.14900 50.19500 41.76800
C  3.58100 49.13100 40.89200
O  2.62100 49.34100 40.13200
O  4.32200 47.95400 41.03700
C  3.87400 46.72700 40.34400
H  8.70900 54.01800 38.20600
H  4.61000 59.01600 38.88300
H  0.71100 55.51700 42.23300
H  6.72900 50.10200 40.58400
H  8.25600 51.26400 38.45500
H  8.76700 50.86500 41.15000
H  8.93400 52.64800 41.00500
H  9.90300 51.64100 39.97900
H  5.92000 48.91400 38.97800
H  6.94000 49.63600 37.79000
H  4.68000 51.28000 37.80600
H  3.99900 49.61200 38.12800
H  9.80300 57.38700 36.86300
H  9.17300 55.94700 36.15500
H  9.74100 55.94100 37.79600
H  7.29700 61.24100 37.72100
H  6.46100 60.27500 39.00900
H  5.80600 60.40100 37.32200
H  2.20200 59.04200 39.27000
H  0.99500 58.13000 41.69000
H  2.30500 59.92300 41.99400
H  2.61000 60.69100 40.62100
H  3.98000 59.67200 41.25400
H  0.03700 56.61400 39.34200
H  0.20800 58.31100 38.90900
H  -1.15500 58.66700 41.29200
H  -1.74700 57.16500 40.84800
H  -1.90600 58.57500 39.69400
H  0.68800 52.69400 44.78500
H  -0.32100 52.30400 43.34800
H  -0.01800 53.91400 43.75900
H  5.00600 49.69600 42.22200
H  3.87500 45.86800 41.01500
H  4.55500 46.41200 39.55300
H  2.89500 46.77100 39.86600

