158

Mg 1.46900 -1.06900 44.18800
C  4.80300 -0.15700 43.46000
C  0.59900 1.50700 42.19000
C  -1.70200 -2.23000 44.22300
C  2.59900 -4.06900 45.54600
N  2.55300 0.57900 43.08100
C  3.91500 0.72700 42.86900
C  4.28800 1.95000 41.93000
C  2.88700 2.63000 41.84500
C  1.92500 1.47200 42.37000
C  2.74300 3.86800 42.74000
C  4.87200 1.41500 40.57700
C  6.25100 1.81300 40.20800
H  6.40100 2.87000 39.09800
N  -0.29900 -0.47100 43.35300
C  -0.50500 0.69200 42.61100
C  -1.87600 1.00100 42.47500
C  -2.61100 -0.14000 43.00300
C  -1.53200 -0.99700 43.60100
C  -2.39000 2.17800 41.74500
C  -4.10200 -0.31100 42.96700
O  -4.80800 0.62300 42.52000
C  -4.78300 -1.50600 43.42000
N  0.58600 -3.12000 44.48200
C  -0.76300 -3.18700 44.66900
C  -1.11800 -4.50400 45.29600
C  0.27000 -5.13700 45.84700
C  1.23200 -3.99900 45.34700
C  -2.18600 -4.37900 46.40300
C  0.67700 -6.49800 45.16500
C  0.70800 -7.74900 46.05000
N  3.32200 -1.92200 44.57500
C  3.62300 -3.12200 45.16100
C  5.07900 -3.23600 45.39200
C  5.56100 -2.11000 44.73000
C  4.48200 -1.31600 44.22200
C  5.78000 -4.42600 46.03200
C  6.77500 -1.56000 44.24800
O  7.95500 -1.86200 44.37900
C  6.36400 -0.20300 43.46500
C  7.04800 0.98600 44.19900
O  8.22900 1.20900 44.22600
O  6.14500 1.76400 44.97800
C  6.77700 3.01300 45.36600
H  0.30500 2.39600 41.62800
H  -2.71400 -2.51300 44.51800
H  3.00400 -4.89800 46.13000
H  5.04700 2.60400 42.35900
H  2.62200 2.76700 40.79600
H  2.26800 4.64500 42.14100
H  3.72300 4.20200 43.08100
H  2.09400 3.71400 43.60300
H  4.23600 1.78700 39.77300
H  4.85300 0.32800 40.49000
H  6.91500 1.00300 39.90700
H  6.80400 2.26600 41.03100
H  -3.22400 2.57000 42.32900
H  -2.78000 1.99200 40.74400
H  -1.71400 3.03300 41.75600
H  -5.85000 -1.52600 43.19800
H  -4.72500 -1.38500 44.50200
H  -4.30500 -2.42800 43.08800
H  -1.53500 -5.15800 44.52900
H  0.25500 -5.11900 46.93700
H  -2.27500 -3.35100 46.75400
H  -1.89800 -4.92100 47.30300
H  -3.23200 -4.58000 46.17300
H  1.60400 -6.44900 44.59300
H  -0.15100 -6.71800 44.49100
H  0.03700 -7.52800 46.88000
H  1.68500 -8.21700 46.17300
H  0.11300 -8.53600 45.58700
H  6.30000 -5.08300 45.33600
H  5.06000 -4.98900 46.62700
H  6.59200 -4.13600 46.69900
H  6.83700 -0.24200 42.48300
H  6.12700 3.70900 45.89600
H  7.08500 3.56300 44.47700
H  7.59300 2.86500 46.07500
Mg 26.32100 1.60800 29.25100
C  28.24400 1.06400 32.19700
C  23.57300 2.13500 31.35500
C  24.37300 1.65600 26.52400
C  29.05000 0.42100 27.44600
N  25.96700 1.54900 31.49500
C  26.92200 1.37800 32.47800
C  26.35500 1.58500 33.92800
C  24.78700 1.72300 33.59500
C  24.74600 1.80800 32.01800
C  23.86900 0.51200 34.14100
C  26.97300 2.82900 34.74600
C  26.38500 3.21200 36.11400
H  27.34900 3.62200 37.20700
N  24.24400 1.97300 28.94300
C  23.31900 2.15200 29.92700
C  22.07800 2.49700 29.25800
C  22.22900 2.17200 27.92200
C  23.67800 1.96200 27.72800
C  20.75900 2.74800 30.00700
C  21.23600 2.07100 26.78800
O  21.56100 1.68900 25.71800
C  19.79400 2.38300 27.05600
N  26.63500 1.14900 27.31200
C  25.72000 1.31800 26.32800
C  26.38800 1.00900 24.95400
C  27.85900 0.82500 25.27800
C  27.83100 0.71100 26.80500
C  25.70100 -0.17400 24.17900
C  28.83500 1.91700 24.75800
C  30.30700 1.57200 24.59300
N  28.24600 0.92800 29.68300
C  29.20900 0.41000 28.84400
C  30.33500 -0.04600 29.57800
C  30.06000 0.21400 30.90600
C  28.76900 0.83700 30.93900
C  31.43600 -0.74600 28.97400
C  30.55700 0.03900 32.24700
O  31.57200 -0.41600 32.62200
C  29.40500 0.63200 33.15000
C  28.97400 -0.49100 34.06700
O  28.29900 -1.47000 33.77800
O  29.53000 -0.25000 35.30100
C  29.30800 -1.27000 36.34900
H  22.61000 2.29200 31.84400
H  23.84000 1.70100 25.57200
H  29.93300 0.08600 26.89700
H  26.65000 0.63700 34.37800
H  24.56500 2.72200 33.97100
H  24.57800 -0.25100 34.46200
H  23.28100 0.20900 33.27500
H  23.15100 0.81500 34.90300
H  26.80800 3.58400 33.97800
H  28.03800 2.68500 34.92900
H  25.90700 2.35600 36.59000
H  25.60800 3.96100 35.96100
H  20.43500 3.72100 29.63700
H  20.88600 2.83000 31.08600
H  19.93300 2.04700 29.89400
H  19.25100 1.62900 27.62500
H  19.30600 2.36500 26.08200
H  19.61500 3.39500 27.41900
H  26.32600 1.93700 24.38700
H  28.18800 -0.09300 24.79000
H  24.82500 -0.61700 24.65200
H  26.47500 -0.91300 23.97400
H  25.23000 0.20300 23.27100
H  28.64200 2.79500 25.37500
H  28.34300 2.19600 23.82700
H  30.64800 1.96900 23.63700
H  30.54900 0.51100 24.64900
H  30.82300 2.04600 25.42800
H  32.14200 0.02900 28.67300
H  31.22100 -1.45700 28.17600
H  31.78500 -1.31500 29.83500
H  29.59200 1.54200 33.72000
H  29.00900 -2.26700 36.02500
H  28.44100 -0.96900 36.93600
H  30.12600 -1.23200 37.06800

