158

Mg 17.50800 -1.33300 28.70400
C  16.51600 0.62500 31.38400
C  19.21300 -3.23800 30.92200
C  19.41000 -2.63400 26.10900
C  16.26200 0.96200 26.48900
N  17.80700 -1.25700 30.84200
C  17.32200 -0.35800 31.77000
C  17.61200 -0.79200 33.24900
C  18.77400 -1.79400 32.95900
C  18.60500 -2.07800 31.51000
C  20.22900 -1.28900 33.21700
C  16.32100 -1.39200 33.92200
C  15.94200 -0.75900 35.22500
H  16.89400 -0.16900 36.22000
N  18.78700 -3.00000 28.54300
C  19.43200 -3.62100 29.59400
C  20.21700 -4.78600 29.04000
C  20.22200 -4.64700 27.61600
C  19.46400 -3.39500 27.34800
C  20.83700 -5.87000 29.94100
C  20.91800 -5.48600 26.55400
O  20.82300 -5.23900 25.36500
C  21.70600 -6.62200 26.99700
N  17.80400 -0.85900 26.62700
C  18.63300 -1.51000 25.82100
C  18.68700 -0.96100 24.39100
C  17.57400 0.16600 24.46900
C  17.23400 0.10800 25.98000
C  20.10700 -0.56000 23.79200
C  16.35500 -0.13600 23.54500
C  16.07900 1.02400 22.53100
N  16.44600 0.38300 28.89000
C  15.94200 1.17900 27.86500
C  14.98200 2.08900 28.40500
C  15.17700 1.94900 29.85000
C  16.14900 0.89500 30.02300
C  14.12500 3.20000 27.66700
C  14.81900 2.43500 31.23400
O  14.14500 3.33500 31.54000
C  15.72200 1.58100 32.18400
C  16.50500 2.50400 33.02900
O  17.59300 2.97600 32.80100
O  15.83200 2.87500 34.17000
C  16.35100 3.79700 35.18100
H  19.74900 -3.79600 31.69200
H  20.20000 -2.86400 25.39100
H  15.87100 1.78200 25.88500
H  17.93400 0.04500 33.86900
H  18.61100 -2.73600 33.48200
H  20.69500 -1.00600 32.27300
H  20.85600 -2.05600 33.67000
H  20.26000 -0.44200 33.90200
H  16.64100 -2.36700 34.28900
H  15.39700 -1.47800 33.35100
H  15.47000 -1.51200 35.85800
H  15.05800 -0.13400 35.10100
H  20.54500 -6.87500 29.63700
H  20.53300 -5.84900 30.98800
H  21.92200 -5.82900 29.84600
H  21.13900 -7.29400 27.64000
H  22.50700 -6.14900 27.56500
H  22.24700 -7.22000 26.26300
H  18.48800 -1.79500 23.71800
H  18.00700 1.15100 24.29800
H  20.33600 -1.04300 22.84200
H  20.78100 -0.79700 24.61500
H  19.99900 0.51200 23.62800
H  15.45600 -0.43200 24.08500
H  16.64400 -0.97500 22.91200
H  15.23900 0.88300 21.85100
H  16.89900 1.06600 21.81500
H  15.93700 1.95600 23.07900
H  14.40600 3.47800 26.65200
H  14.33500 4.07800 28.27900
H  13.07000 2.99600 27.85200
H  15.13600 1.03200 32.92100
H  16.13300 4.82800 34.90200
H  17.44000 3.84200 35.18500
H  15.96400 3.58400 36.17700
Mg 25.84000 0.79800 29.63400
C  27.92300 0.52400 32.56400
C  23.11100 0.83000 31.66000
C  24.00000 1.08500 26.85200
C  28.61600 -0.08000 27.76500
N  25.63000 0.70700 31.84200
C  26.56800 0.75500 32.84400
C  25.90200 0.89800 34.20300
C  24.37700 0.81500 33.94200
C  24.38500 0.69700 32.39700
C  23.63400 -0.37200 34.68300
C  26.37400 2.12000 35.06500
C  26.62200 1.87500 36.53000
H  26.27200 2.97300 37.52900
N  23.83200 1.01200 29.30400
C  22.87500 1.02500 30.27500
C  21.58100 1.27100 29.63000
C  21.81100 1.41400 28.23100
C  23.22200 1.14400 28.05400
C  20.25200 1.48400 30.39700
C  20.87900 1.83200 27.10700
O  21.22600 2.04200 25.91800
C  19.49900 2.35300 27.41300
N  26.29600 0.58200 27.63000
C  25.31400 0.73000 26.66100
C  25.98300 0.75900 25.30800
C  27.44500 0.42900 25.60400
C  27.50500 0.30500 27.07600
C  25.26500 -0.04300 24.18800
C  28.39700 1.48700 25.07300
C  28.28800 2.86800 25.83000
N  27.83300 0.26800 30.01800
C  28.83000 -0.03500 29.16600
C  30.03100 -0.35600 29.92600
C  29.71400 -0.03200 31.22800
C  28.40600 0.31800 31.25400
C  31.40100 -0.76000 29.30200
C  30.34300 0.01900 32.53900
O  31.49000 -0.13600 32.91500
C  29.16100 0.41200 33.47400
C  29.14000 -0.56800 34.64600
O  28.61100 -1.70500 34.70100
O  29.80000 0.02700 35.68500
C  29.97000 -0.66100 36.94000
H  22.27800 0.94000 32.35700
H  23.43400 1.19800 25.92500
H  29.43400 -0.48900 27.16900
H  26.13900 -0.04800 34.69000
H  23.93700 1.75100 34.28400
H  23.63500 -1.33400 34.17000
H  22.58000 -0.10800 34.76300
H  24.11100 -0.53900 35.64900
H  25.60900 2.89600 35.05400
H  27.30200 2.48800 34.62500
H  27.67400 1.72200 36.76800
H  26.03400 1.01700 36.85700
H  20.47500 1.35600 31.45600
H  19.59600 0.68500 30.05100
H  19.67700 2.39800 30.24300
H  19.72700 3.26000 27.97300
H  18.95000 1.65400 28.04400
H  18.93800 2.68800 26.54100
H  25.87300 1.81200 25.04800
H  27.74900 -0.56300 25.27000
H  24.29800 -0.38400 24.56100
H  25.90600 -0.84400 23.82000
H  25.02600 0.65900 23.39000
H  28.18900 1.61900 24.01100
H  29.36600 0.98900 25.10400
H  29.28800 3.26300 26.01000
H  27.70700 2.78300 26.74900
H  27.77300 3.55200 25.15600
H  31.33500 -1.82000 29.05800
H  32.21000 -0.54000 29.99900
H  31.50900 -0.20000 28.37300
H  29.45200 1.34600 33.95600
H  30.04000 -1.71600 36.67500
H  29.23900 -0.40000 37.70600
H  30.90900 -0.33000 37.38500

