158

Mg 24.15300 -4.54000 45.59100
C  26.32000 -2.34600 44.03600
C  21.52700 -3.29500 43.73100
C  22.49200 -7.45500 45.96600
C  27.03700 -6.15800 47.16400
N  23.97800 -2.95000 44.09300
C  24.97500 -2.19000 43.51700
C  24.44500 -1.29200 42.39100
C  22.89400 -1.49600 42.50500
C  22.77100 -2.70100 43.53400
C  22.02800 -0.24800 42.88100
C  25.16900 -1.64200 41.05900
C  25.56500 -0.48000 40.20900
H  25.03900 -0.55000 38.84600
N  22.19300 -5.30200 45.03100
C  21.27000 -4.52700 44.34200
C  20.02500 -5.25000 44.32300
C  20.26700 -6.52100 44.97200
C  21.67000 -6.45200 45.36300
C  18.74500 -4.64700 43.65800
C  19.23800 -7.61200 45.16600
O  18.15100 -7.50200 44.63800
C  19.42300 -8.79600 46.02900
N  24.73400 -6.55200 46.27000
C  23.81500 -7.49700 46.44200
C  24.46100 -8.88800 46.87600
C  25.89100 -8.42900 47.30200
C  25.93700 -6.99400 46.89200
C  23.76100 -9.63800 48.06600
C  27.04000 -9.29200 46.73600
C  28.12800 -10.00900 47.55200
N  26.14700 -4.23800 45.87300
C  27.10600 -4.90100 46.57000
C  28.38400 -4.18900 46.35700
C  28.09300 -3.18400 45.43700
C  26.70000 -3.30600 45.09600
C  29.71500 -4.68000 46.81200
C  28.67000 -2.15900 44.63200
O  29.87800 -1.84500 44.44300
C  27.53100 -1.56300 43.73500
C  27.32500 -0.12400 43.92400
O  26.63000 0.39500 44.83300
O  28.00500 0.53000 42.94500
C  28.11900 1.95800 42.97200
H  20.76300 -2.79300 43.13300
H  22.10100 -8.43700 46.23700
H  27.88400 -6.49200 47.76700
H  24.77200 -0.31800 42.75700
H  22.58500 -1.77100 41.49700
H  22.32300 0.69300 42.41700
H  21.98000 -0.12600 43.96300
H  21.00000 -0.33100 42.52900
H  24.43300 -2.19400 40.47400
H  25.80700 -2.48000 41.34100
H  26.64900 -0.36900 40.19100
H  25.14600 0.45000 40.59300
H  18.28300 -5.36300 42.97900
H  18.96100 -3.70800 43.14800
H  18.01300 -4.55500 44.46000
H  19.68500 -8.38400 47.00300
H  20.25600 -9.26700 45.50800
H  18.51400 -9.39500 46.08800
H  24.62100 -9.54700 46.02300
H  25.87400 -8.30000 48.38400
H  24.45500 -9.58000 48.90500
H  23.46800 -10.68200 47.94600
H  22.83200 -9.10600 48.26800
H  27.56700 -8.71500 45.97600
H  26.62400 -10.02500 46.04500
H  29.02100 -9.40300 47.70700
H  28.34000 -11.01900 47.20100
H  27.75200 -9.98900 48.57500
H  29.90600 -5.60100 46.26100
H  29.63000 -4.75600 47.89600
H  30.47600 -3.95100 46.53400
H  27.83100 -1.74800 42.70400
H  28.64200 2.21200 43.89400
H  27.10300 2.35200 42.94800
H  28.55200 2.30300 42.03300
Mg 49.68300 35.38700 26.68100
C  47.61000 34.16400 29.28400
C  50.06400 38.24600 28.60700
C  51.21700 36.85600 24.06900
C  48.92900 32.56900 24.80100
N  48.92200 36.11000 28.68300
C  48.22000 35.37400 29.57700
C  48.26200 35.99000 30.88200
C  48.67800 37.44600 30.60000
C  49.24000 37.32800 29.15300
C  47.50100 38.49500 30.77900
C  49.28400 35.30500 31.79600
C  49.14600 35.42100 33.29600
H  47.95500 36.19500 33.89800
N  50.53900 37.30300 26.38400
C  50.65400 38.28200 27.30200
C  51.38700 39.37200 26.75100
C  51.88600 38.90100 25.45800
C  51.19800 37.59400 25.25400
C  51.77700 40.48200 27.56500
C  52.76700 39.54600 24.42700
O  53.15100 38.94600 23.41500
C  53.30900 40.98600 24.62700
N  49.85700 34.85900 24.63300
C  50.72600 35.58900 23.78900
C  51.00700 34.73800 22.51400
C  50.42500 33.31300 22.92700
C  49.65200 33.62400 24.17800
C  50.31500 35.39500 21.21400
C  51.45100 32.07700 22.92400
C  50.96700 30.76500 22.19700
N  48.58400 33.70000 27.00300
C  48.32000 32.60000 26.12900
C  47.55500 31.59200 26.73700
C  47.21800 32.14000 27.95900
C  47.84600 33.40900 28.05400
C  47.08900 30.27400 26.17800
C  46.44700 31.86400 29.19200
O  45.80200 30.86200 29.56800
C  46.57800 33.24800 30.01900
C  47.06100 32.82800 31.38200
O  48.08300 32.26300 31.57500
O  46.09300 32.86000 32.36100
C  46.41600 32.23400 33.66600
H  50.22800 39.04700 29.33100
H  51.61000 37.35200 23.17900
H  48.80900 31.67100 24.19200
H  47.24600 35.89400 31.26700
H  49.54400 37.68300 31.21800
H  47.23000 38.86200 29.78900
H  47.74000 39.37400 31.37700
H  46.66500 37.99600 31.26900
H  50.27400 35.69500 31.55900
H  49.33300 34.25100 31.52500
H  50.05600 35.93300 33.60900
H  49.08600 34.43100 33.74600
H  51.62900 40.38400 28.64000
H  51.24100 41.36000 27.20500
H  52.85100 40.56600 27.39400
H  52.59400 41.61500 25.15700
H  53.49700 41.26300 23.58900
H  54.27100 40.99000 25.14000
H  52.07000 34.61500 22.30600
H  49.74900 33.06600 22.10800
H  49.72000 36.24400 21.54900
H  49.68200 34.67300 20.69800
H  51.04600 35.88600 20.57200
H  51.59500 31.81200 23.97100
H  52.36200 32.49000 22.49200
H  49.93100 30.85700 21.87100
H  51.04600 29.92200 22.88300
H  51.55800 30.52400 21.31300
H  47.69600 29.38300 26.33400
H  46.78100 30.46400 25.15000
H  46.18400 30.00300 26.72300
H  45.65100 33.80600 30.15000
H  45.82600 32.57400 34.51700
H  47.46600 32.26800 33.95500
H  46.28600 31.17000 33.46900

