158

Mg 35.92700 3.13900 30.17400
C  33.53100 4.06600 32.58600
C  38.37200 3.59600 32.66200
C  38.23500 2.98300 27.79900
C  33.39400 3.21400 27.78500
N  35.93200 3.87100 32.34700
C  34.83200 4.00500 33.14900
C  35.17100 3.97600 34.60600
C  36.69800 4.17300 34.60500
C  37.04600 3.93200 33.11000
C  37.17200 5.49500 35.14000
C  34.67100 2.66100 35.28600
C  33.93500 2.79300 36.64000
H  34.22900 3.97300 37.55500
N  38.02600 3.23300 30.25700
C  38.80800 3.24100 31.35600
C  40.15000 2.93300 31.05200
C  40.16400 2.92600 29.59200
C  38.75400 3.03800 29.13900
C  41.13100 2.48100 32.09800
C  41.35900 2.68600 28.71800
O  41.29000 2.59400 27.49200
C  42.73700 2.61200 29.31400
N  35.86600 3.30400 28.07700
C  36.92300 3.05300 27.32700
C  36.49900 3.04500 25.79000
C  34.96400 3.04300 25.80000
C  34.70500 3.15200 27.30200
C  37.17800 4.24700 24.98700
C  34.30900 1.77300 25.16800
C  33.74000 2.07600 23.81600
N  33.88500 3.44300 30.16900
C  33.00200 3.46500 29.13400
C  31.71000 3.89900 29.63000
C  31.81800 4.02400 31.01300
C  33.18000 3.79300 31.28000
C  30.47000 4.13400 28.70200
C  31.13600 4.25500 32.24100
O  29.91400 4.44000 32.39800
C  32.20400 4.14100 33.36000
C  32.14900 5.38800 34.18800
O  32.60500 6.51300 33.91600
O  31.20600 5.19900 35.14900
C  30.96100 6.36100 35.91300
H  39.09800 3.67800 33.47400
H  39.03200 2.94600 27.05300
H  32.63200 3.38100 27.02100
H  34.63700 4.82600 35.03100
H  37.24200 3.42700 35.18300
H  37.71100 5.36500 36.07900
H  36.35100 6.18900 35.31700
H  37.65700 6.14300 34.41000
H  35.63300 2.15700 35.38500
H  34.09100 1.98000 34.66400
H  34.16900 1.88900 37.20200
H  32.88500 2.65200 36.38500
H  41.74100 3.32100 32.43200
H  41.82300 1.72800 31.72200
H  40.65300 1.94500 32.91800
H  42.92400 1.64600 29.78500
H  42.95800 3.34700 30.08800
H  43.52200 2.79500 28.58000
H  36.73000 2.17600 25.17400
H  34.65800 4.02600 25.44100
H  37.81400 4.71500 25.73800
H  36.47400 4.93700 24.52300
H  37.93700 3.80400 24.34200
H  33.53100 1.41600 25.84200
H  35.07600 1.01000 25.04000
H  32.67700 2.11000 24.05600
H  34.16500 1.36900 23.10400
H  34.05900 3.01900 23.37100
H  29.77700 3.29300 28.68500
H  30.85100 4.42600 27.72400
H  29.96900 5.01600 29.10200
H  31.93400 3.20400 33.84800
H  30.50500 7.17300 35.34600
H  31.83800 6.77400 36.41100
H  30.26800 6.33200 36.75400
Mg 9.25100 48.59300 25.64100
C  7.11800 49.28500 28.24500
C  11.82500 49.67000 27.54900
C  11.25700 47.73500 23.16900
C  6.48700 48.21200 23.53000
N  9.47600 49.34800 27.66500
C  8.46100 49.56000 28.58500
C  9.06100 49.94300 29.94900
C  10.38500 50.62300 29.49900
C  10.64000 49.78500 28.19100
C  10.33400 52.12100 29.07700
C  9.34800 48.79200 30.95000
C  8.84500 48.99600 32.38200
H  8.80200 47.82400 33.37200
N  11.29200 48.72900 25.38600
C  12.20300 49.11300 26.28500
C  13.51800 48.97500 25.73200
C  13.35000 48.36300 24.48900
C  11.94400 48.18900 24.31900
C  14.79500 49.30100 26.51400
C  14.33000 47.97300 23.37300
O  13.95900 47.46800 22.33600
C  15.85500 48.08100 23.53400
N  8.87300 48.25100 23.58400
C  9.88900 47.76300 22.76600
C  9.31000 46.93300 21.50300
C  7.85400 47.51900 21.45500
C  7.71400 47.98000 22.99000
C  10.12900 47.26400 20.23600
C  6.88300 46.46700 20.91800
C  7.14000 46.08100 19.41800
N  7.20600 48.68500 25.80500
C  6.19000 48.48700 24.86300
C  4.88100 48.54400 25.54500
C  5.21300 48.83500 26.90700
C  6.65300 48.92000 26.99100
C  3.53800 48.42300 24.97900
C  4.70300 49.02700 28.22200
O  3.54900 49.13800 28.58200
C  5.85800 49.38000 29.08000
C  5.84800 48.43500 30.28800
O  6.56100 47.47100 30.47900
O  5.01900 48.97700 31.29500
C  5.00800 48.17800 32.55100
H  12.62800 50.07400 28.16700
H  11.75600 47.17900 22.37300
H  5.67500 47.99400 22.83300
H  8.43100 50.69100 30.43300
H  11.18400 50.57600 30.24000
H  9.34800 52.54200 29.27400
H  10.67700 52.41000 28.08300
H  10.97500 52.59600 29.82000
H  10.39600 48.49700 30.98300
H  8.89100 47.92700 30.46900
H  7.90500 49.52900 32.24000
H  9.59400 49.68300 32.77500
H  15.08300 50.33900 26.34600
H  15.62800 48.77200 26.05200
H  14.61300 49.10100 27.57000
H  16.10600 47.35900 24.31000
H  16.22700 49.06300 23.82600
H  16.46700 47.66600 22.73300
H  9.47600 45.89700 21.79800
H  7.71200 48.41300 20.84800
H  10.96300 47.93000 20.45500
H  9.49500 47.87100 19.58900
H  10.56700 46.51800 19.57300
H  5.87500 46.87800 20.87700
H  6.97500 45.57200 21.53400
H  7.87200 45.28100 19.30500
H  7.62400 46.86300 18.83200
H  6.19400 45.77200 18.97300
H  3.50600 48.56900 23.89900
H  2.87300 49.09900 25.51700
H  3.12300 47.45900 25.27300
H  5.68100 50.38500 29.46200
H  5.73300 48.57500 33.26200
H  5.27000 47.15000 32.30200
H  3.99800 48.31500 32.93700

