158

Mg 43.11000 41.95900 25.74100
C  41.98200 44.17200 27.96400
C  44.03600 39.71400 28.27900
C  43.83600 39.44600 23.44800
C  42.16500 44.07700 23.16300
N  43.04700 41.98500 27.84300
C  42.45800 42.99800 28.57400
C  42.46500 42.64000 30.03000
C  43.40800 41.32600 30.09300
C  43.60500 40.97900 28.62300
C  44.77900 41.40400 30.74900
C  40.96800 42.49400 30.53400
C  40.56000 43.02600 31.97300
H  41.53300 42.80500 33.22700
N  43.95700 39.88400 25.85100
C  44.14400 39.18800 26.94100
C  44.61300 37.86800 26.60300
C  44.60600 37.78700 25.20300
C  44.17400 39.08100 24.74300
C  44.95500 36.90000 27.67300
C  44.88900 36.59900 24.32500
O  44.86300 36.66400 23.12100
C  45.44000 35.27700 24.83900
N  42.96400 41.78800 23.58300
C  43.39600 40.68300 22.86200
C  43.32600 40.94100 21.36900
C  42.64900 42.42300 21.28600
C  42.60200 42.79000 22.77400
C  44.73000 40.75400 20.72100
C  41.21300 42.45000 20.62600
C  40.04000 41.78000 21.42500
N  42.38500 43.86300 25.48900
C  41.99200 44.62900 24.43000
C  41.55200 45.91800 24.85400
C  41.42000 45.82400 26.31200
C  41.96900 44.53100 26.59200
C  41.19000 47.05500 23.95700
C  40.93400 46.32700 27.51900
O  40.32300 47.41200 27.63400
C  41.31000 45.35300 28.60900
C  42.09700 46.10300 29.66800
O  43.30600 46.02800 29.75900
O  41.25500 46.65400 30.62400
C  41.89800 47.07300 31.88700
H  44.08400 39.04900 29.14400
H  44.02300 38.71400 22.66000
H  41.74600 44.78100 22.44100
H  42.93200 43.35600 30.70700
H  42.75700 40.55500 30.50400
H  44.72400 40.70700 31.58600
H  44.97300 42.40200 31.14100
H  45.57300 41.26600 30.01500
H  40.81900 41.42100 30.65800
H  40.26300 42.87800 29.79600
H  39.56900 42.65100 32.23100
H  40.42800 44.10200 31.86000
H  45.45700 37.49200 28.43900
H  45.54400 35.99700 27.51500
H  43.92500 36.69200 27.96100
H  45.10100 34.93000 25.81500
H  46.49900 35.53700 24.84100
H  45.23700 34.44300 24.16700
H  42.67100 40.30700 20.77200
H  43.28100 43.14600 20.77100
H  45.45800 40.37500 21.43800
H  45.07700 41.72400 20.36500
H  44.59800 40.05900 19.89200
H  41.09200 41.88400 19.70200
H  40.95400 43.46200 20.31700
H  39.38300 41.16700 20.80800
H  39.51100 42.59400 21.92200
H  40.49900 41.06000 22.10200
H  40.23900 46.96900 23.43100
H  41.94800 47.14800 23.17900
H  41.27100 48.03200 24.43400
H  40.33600 45.08400 29.01900
H  42.07800 46.24000 32.56600
H  41.43200 47.90100 32.42100
H  42.84800 47.51500 31.58800
Mg 30.37100 58.20700 38.95700
C  27.82000 56.05400 38.22000
C  32.63600 55.59400 38.02800
C  32.99800 60.47700 38.83200
C  28.10400 60.81100 39.14900
N  30.25700 56.09900 38.12300
C  29.05300 55.40800 38.01100
C  29.30400 53.92200 37.60200
C  30.88800 53.79400 37.99500
C  31.33200 55.26500 38.03000
C  31.12700 53.00000 39.29300
C  29.08000 53.61300 36.11900
C  29.34900 54.69400 35.03800
H  28.14700 55.13900 34.09300
N  32.49000 58.05400 38.54300
C  33.19200 56.86500 38.23900
C  34.59400 57.23400 38.24200
C  34.73500 58.63200 38.50400
C  33.36600 59.10900 38.62600
C  35.63500 56.20200 38.11500
C  36.09100 59.35200 38.66400
O  37.22000 58.80800 38.63800
C  36.17900 60.92000 38.88700
N  30.58100 60.38000 38.85500
C  31.76600 61.03000 39.00900
C  31.53800 62.50800 39.14400
C  29.97600 62.61900 39.06500
C  29.46200 61.18100 39.05000
C  32.21100 63.30200 40.27300
C  29.40600 63.40300 37.86300
C  29.30900 64.92500 38.12500
N  28.38400 58.36600 38.91600
C  27.60600 59.47500 38.99700
C  26.19900 59.03500 38.99000
C  26.19800 57.69600 38.70900
C  27.56200 57.36100 38.61400
C  25.04900 59.90700 39.14600
C  25.40300 56.53500 38.42200
O  24.19900 56.37000 38.26000
C  26.51800 55.35000 38.19500
C  26.33100 54.44100 39.33700
O  26.86500 54.51200 40.41300
O  25.47900 53.42800 38.95100
C  24.98800 52.56100 40.01400
H  33.36400 54.79600 37.86100
H  33.78600 61.22400 38.94200
H  27.41700 61.64500 39.30600
H  28.74000 53.18500 38.17300
H  31.41300 53.20500 37.24300
H  30.26700 52.74600 39.91100
H  31.88400 53.36200 39.98900
H  31.66900 52.09900 39.00600
H  28.02800 53.33500 36.05100
H  29.69900 52.75900 35.84500
H  30.14200 54.21200 34.46600
H  29.84800 55.60400 35.37200
H  35.38600 55.55000 37.27800
H  35.54000 55.65400 39.05200
H  36.66500 56.54200 38.00500
H  35.65200 61.10900 39.82200
H  35.76600 61.49600 38.05900
H  37.18700 61.33100 38.94800
H  31.84700 62.96000 38.20200
H  29.66100 63.01500 40.03000
H  32.91600 64.05400 39.91800
H  32.86000 62.69100 40.90000
H  31.46800 63.76400 40.92300
H  28.41100 63.02300 37.63100
H  30.01100 63.18300 36.98300
H  29.86800 65.09200 39.04600
H  28.24500 65.16300 38.14000
H  29.82800 65.48300 37.34600
H  24.17900 59.37600 38.76000
H  25.19700 60.82700 38.58100
H  24.98100 60.13000 40.21100
H  26.37400 54.80000 37.26400
H  25.82400 52.34500 40.67900
H  24.75400 51.54700 39.68900
H  24.10000 52.86000 40.57200

