158

Mg 47.62200 16.47000 28.73600
C  45.88300 15.74800 31.73000
C  49.91900 18.21600 30.57900
C  49.31700 16.98700 25.96500
C  44.98400 14.79200 27.00500
N  47.80700 16.92500 30.86600
C  47.04100 16.50600 31.89500
C  47.67800 16.83400 33.23300
C  48.63800 18.09700 32.81400
C  48.80500 17.71500 31.29300
C  47.86400 19.48200 33.01800
C  48.36000 15.64500 33.96400
C  48.28000 15.74200 35.51900
H  47.90300 17.16700 36.20900
N  49.43500 17.25800 28.36200
C  50.28900 17.96800 29.20900
C  51.52000 18.32600 28.47400
C  51.23100 18.10800 27.15900
C  49.93500 17.46000 27.12600
C  52.81800 18.97700 29.18500
C  52.12600 18.53700 25.95900
O  51.89600 18.31100 24.79100
C  53.39700 19.37200 26.14800
N  47.08100 16.13900 26.74600
C  48.01200 16.40400 25.77200
C  47.54600 15.82800 24.46800
C  46.34200 14.96000 24.76900
C  46.10900 15.26700 26.26800
C  47.28000 16.96800 23.38500
C  46.55700 13.55700 24.35400
C  45.32500 12.69400 24.19800
N  45.71300 15.52300 29.24600
C  44.81300 14.85900 28.47000
C  43.77100 14.25700 29.26600
C  44.19600 14.54900 30.58200
C  45.31100 15.32400 30.50200
C  42.53100 13.69200 28.82900
C  43.90500 14.34600 31.97400
O  43.14100 13.63100 32.54100
C  44.94300 15.19100 32.75500
C  44.22300 16.33500 33.47600
O  44.13300 17.48900 33.14300
O  43.80600 15.85900 34.67400
C  43.29400 16.81400 35.66400
H  50.66500 18.70700 31.20700
H  49.70100 17.17600 24.96000
H  44.35400 14.17200 26.36300
H  46.84400 17.07000 33.89300
H  49.60600 18.18000 33.30800
H  47.91900 19.95600 33.99800
H  46.81800 19.25400 32.81300
H  48.14900 20.22900 32.27700
H  49.41800 15.64500 33.70300
H  47.81800 14.75200 33.65400
H  49.27400 15.48800 35.88600
H  47.69800 14.90000 35.89400
H  53.68500 18.31900 29.12200
H  52.57200 18.88800 30.24300
H  52.93800 20.03400 28.94500
H  53.24900 20.27300 26.74400
H  53.77300 19.74300 25.19500
H  54.17900 18.79900 26.64600
H  48.31800 15.23100 23.98200
H  45.52000 15.32900 24.15400
H  47.55800 17.99400 23.62600
H  46.22800 16.99900 23.10100
H  47.84400 16.76400 22.47500
H  47.16800 13.05800 25.10600
H  47.18400 13.42900 23.47200
H  45.46800 11.82000 24.83300
H  45.23700 12.48800 23.13100
H  44.40100 13.15600 24.54500
H  42.71200 12.64200 28.60100
H  42.15400 14.24000 27.96500
H  41.78900 13.88200 29.60400
H  45.42300 14.48500 33.43300
H  42.25600 16.61200 35.93000
H  43.42200 17.87600 35.45400
H  43.82500 16.68600 36.60700
Mg 34.56300 48.70200 26.39000
C  35.01900 46.51700 29.11100
C  33.16000 50.97800 28.51100
C  33.75700 50.52800 23.74900
C  35.62200 45.99800 24.25200
N  34.04100 48.67000 28.57900
C  34.45100 47.73100 29.48800
C  34.00200 48.17700 30.88800
C  33.33400 49.58200 30.64600
C  33.49000 49.76300 29.14500
C  31.87500 49.72100 31.25500
C  35.22900 48.29300 31.85000
C  35.20800 47.66500 33.27600
H  35.29000 48.58100 34.44500
N  33.87500 50.59500 26.20100
C  33.31100 51.39300 27.16200
C  32.90300 52.65600 26.65100
C  33.15400 52.53300 25.21800
C  33.52600 51.20400 25.03100
C  32.24400 53.83000 27.49900
C  33.06800 53.54400 24.20100
O  33.21800 53.39100 22.97900
C  32.85400 54.91100 24.52200
N  34.54800 48.24800 24.23600
C  34.17000 49.25500 23.38000
C  34.52600 48.82900 21.89000
C  35.34300 47.47600 22.08900
C  35.13400 47.17800 23.61000
C  33.18300 48.74800 20.99300
C  36.86900 47.52200 21.62600
C  37.55800 46.29900 20.94900
N  35.15900 46.65700 26.60000
C  35.55500 45.69000 25.67500
C  35.86600 44.39700 26.30100
C  35.65700 44.69300 27.67800
C  35.28900 46.09300 27.81300
C  36.38600 43.16300 25.68800
C  35.74200 44.17800 29.05100
O  36.08600 43.07400 29.44900
C  35.20900 45.36600 29.99200
C  34.02900 44.81600 30.69700
O  33.07000 44.33800 30.13500
O  34.23700 44.96100 31.99500
C  33.15500 44.55700 32.90900
H  32.78800 51.63400 29.30200
H  33.46800 51.12800 22.88400
H  36.01600 45.20100 23.61700
H  33.33600 47.39300 31.24900
H  33.90200 50.39600 31.09600
H  31.13100 49.93700 30.48800
H  31.82600 50.52500 31.98900
H  31.71600 48.85800 31.90100
H  35.65400 49.29100 31.96400
H  36.03800 47.77200 31.33800
H  35.82800 46.76900 33.24500
H  34.23800 47.16700 33.28100
H  31.84100 53.44300 28.43500
H  31.45400 54.32900 26.93700
H  33.02400 54.55000 27.74300
H  33.66700 55.19200 25.19100
H  31.90900 55.09700 25.03200
H  32.80200 55.62200 23.69700
H  35.14600 49.61300 21.45500
H  34.87500 46.62100 21.60000
H  33.10600 47.82100 20.42500
H  33.35600 49.58800 20.32000
H  32.30900 49.05500 21.56800
H  37.39900 47.68000 22.56500
H  37.05000 48.50600 21.19300
H  36.84000 45.49600 20.78300
H  38.30800 45.78800 21.55300
H  37.99400 46.68400 20.02800
H  36.84300 43.36500 24.72000
H  35.60800 42.43000 25.47400
H  37.08400 42.63800 26.34000
H  35.98900 45.60600 30.71400
H  33.15700 43.46700 32.90800
H  32.26000 44.99800 32.47100
H  33.24700 44.93700 33.92600

