158

Mg 26.98300 50.27100 26.89200
C  24.62400 51.13000 29.45100
C  29.12000 49.34900 29.53300
C  29.19200 49.95400 24.55500
C  24.71300 51.65400 24.57500
N  26.87300 50.28100 29.26600
C  25.80200 50.59300 30.03900
C  26.09500 50.47600 31.55500
C  27.55700 49.90900 31.54600
C  27.88400 49.83100 30.02000
C  28.66800 50.73100 32.27300
C  25.01900 49.45500 32.22700
C  24.62800 49.80000 33.70500
H  24.97500 48.83000 34.85600
N  28.84200 49.67400 27.00300
C  29.56800 49.30900 28.15900
C  30.91000 48.88300 27.76600
C  31.04100 49.22700 26.35200
C  29.64100 49.60100 25.88300
C  31.97900 48.28100 28.67000
C  32.18000 49.33100 25.42200
O  32.12400 49.88600 24.35000
C  33.55400 48.86400 25.89800
N  27.02600 51.02700 24.93800
C  27.96900 50.44100 24.12000
C  27.56000 50.42000 22.61800
C  26.13600 50.79000 22.62700
C  25.90400 51.18600 24.15200
C  28.46200 51.28100 21.78100
C  25.15700 49.74200 22.15600
C  24.19300 50.22900 21.07200
N  25.13900 51.29600 26.97400
C  24.33800 51.75600 25.91400
C  23.12600 52.23800 26.39100
C  23.22700 52.01600 27.79600
C  24.45900 51.36600 28.07400
C  21.98600 52.66600 25.49600
C  22.32700 52.09400 28.97300
O  21.15800 52.40000 29.12800
C  23.28000 51.61600 30.11800
C  23.58400 52.79500 30.96900
O  24.56000 53.50100 30.86100
O  22.61500 52.85700 31.87100
C  22.79100 53.74100 33.03100
H  29.78600 49.02900 30.33700
H  29.89100 49.68900 23.75900
H  24.00100 51.96900 23.81000
H  25.92200 51.43800 32.03600
H  27.45200 48.86900 31.85400
H  28.44200 51.54200 32.96500
H  29.25900 51.18100 31.47500
H  29.12300 49.92000 32.84200
H  25.42600 48.44400 32.20500
H  24.11000 49.37700 31.63100
H  23.53800 49.76200 33.72200
H  24.95800 50.79800 33.99300
H  31.61200 48.06100 29.67200
H  32.83800 48.94400 28.76800
H  32.32500 47.34500 28.22900
H  33.50000 47.97400 26.52500
H  33.87900 49.74000 26.45900
H  34.31600 48.73600 25.12900
H  27.67000 49.40700 22.23100
H  26.05900 51.67500 21.99600
H  28.93500 50.63700 21.04000
H  29.12200 51.78000 22.49000
H  27.95000 52.16100 21.39100
H  24.51800 49.55400 23.01900
H  25.71700 48.82500 21.97000
H  24.57300 51.15100 20.63300
H  23.20000 50.39400 21.49100
H  24.11500 49.42300 20.34200
H  22.04200 53.73300 25.27700
H  21.05900 52.30800 25.94400
H  22.04700 52.08700 24.57500
H  22.81700 50.84800 30.73700
H  23.66700 54.38600 32.95900
H  23.08100 53.13300 33.88800
H  21.85100 54.16800 33.37900
Mg -11.44700 16.48200 41.16800
C  -8.37700 14.62600 40.84300
C  -9.91900 19.11200 39.62200
C  -14.49500 17.64900 40.37100
C  -12.91100 13.48800 42.41000
N  -9.39300 16.76400 40.38300
C  -8.34100 15.89400 40.19300
C  -7.14600 16.57900 39.51800
C  -7.61600 18.09300 39.44400
C  -9.05800 18.03100 39.84700
C  -6.90700 19.20700 40.26700
C  -6.73200 15.80400 38.22000
C  -5.21700 15.71900 38.05200
H  -4.79700 16.30500 36.66700
N  -12.15700 18.25800 40.30100
C  -11.33200 19.21100 39.77000
C  -12.18600 20.31400 39.21000
C  -13.50100 19.90300 39.47700
C  -13.45800 18.56500 40.00600
C  -11.51300 21.58500 38.57100
C  -14.70800 20.68100 39.03400
O  -14.61200 21.75500 38.43700
C  -16.09400 20.26600 39.39900
N  -13.39200 15.58500 41.18000
C  -14.52500 16.37900 40.95800
C  -15.85000 15.62000 41.20100
C  -15.38800 14.41400 42.02600
C  -13.77200 14.58200 41.99300
C  -17.05200 16.37200 41.76100
C  -15.88500 13.05500 41.47800
C  -16.47700 12.18300 42.56000
N  -10.76700 14.48900 41.76300
C  -11.50200 13.38300 42.19200
C  -10.56600 12.26500 42.29100
C  -9.34400 12.72100 41.82100
C  -9.54900 14.04700 41.42200
C  -10.93300 10.88400 42.75900
C  -7.99500 12.34800 41.65600
O  -7.47600 11.23800 41.86200
C  -7.28200 13.51500 40.89700
C  -6.11300 13.88000 41.61700
O  -6.07100 14.33900 42.74200
O  -4.98600 13.63600 40.81200
C  -3.67400 14.23800 41.34100
H  -9.44000 19.97500 39.15500
H  -15.48200 18.00600 40.07000
H  -13.41700 12.57800 42.74000
H  -6.34600 16.54100 40.25800
H  -7.53300 18.36200 38.39100
H  -7.56400 19.62700 41.02800
H  -6.59400 20.05000 39.65100
H  -6.09500 18.65900 40.74400
H  -7.10200 16.24500 37.29400
H  -7.13900 14.79500 38.16800
H  -4.87600 14.70700 38.27000
H  -4.74000 16.37200 38.78300
H  -10.56400 21.38500 38.07300
H  -11.29100 22.28600 39.37700
H  -12.16800 21.95700 37.78300
H  -16.68700 21.17500 39.29800
H  -16.15200 19.88000 40.41700
H  -16.45100 19.53100 38.67600
H  -16.08200 15.27300 40.19400
H  -15.76800 14.43900 43.04700
H  -17.92400 16.14900 41.14600
H  -16.85800 17.44300 41.81700
H  -17.13300 15.99100 42.77900
H  -15.07500 12.56400 40.93800
H  -16.75700 13.04300 40.82400
H  -17.55200 12.02900 42.47000
H  -16.31600 12.44800 43.60500
H  -15.99500 11.22700 42.35500
H  -11.78700 10.47000 42.22300
H  -11.09300 10.82400 43.83600
H  -10.10300 10.21400 42.53700
H  -7.07000 13.11800 39.90400
H  -2.79700 13.82300 40.84400
H  -3.53200 13.95700 42.38500
H  -3.75200 15.32300 41.26700

