158

Mg 47.38600 34.19000 26.48500
C  45.90200 32.69600 29.32800
C  47.99600 36.98900 28.33400
C  48.37500 35.73300 23.63100
C  46.61200 31.24100 24.72400
N  46.84800 34.79200 28.56700
C  46.40000 33.97100 29.51700
C  46.47600 34.67600 30.89800
C  46.72900 36.13200 30.48400
C  47.23900 36.01300 29.06200
C  45.50800 37.15900 30.54800
C  47.68700 34.16500 31.73000
C  47.48300 34.20300 33.29400
H  46.75400 35.40000 33.91600
N  48.30600 35.99900 26.07000
C  48.42700 37.01700 26.97200
C  49.28300 38.06600 26.37800
C  49.34900 37.75400 24.95000
C  48.55600 36.53400 24.82400
C  49.76500 39.28300 27.14900
C  50.04900 38.60900 23.89900
O  50.17200 38.07000 22.81500
C  50.79200 39.92600 24.14500
N  47.26900 33.63300 24.40000
C  47.89500 34.40700 23.46600
C  48.10900 33.56800 22.20900
C  47.86900 32.14500 22.67400
C  47.19900 32.30900 24.01000
C  47.41300 34.21100 20.99900
C  49.04000 31.18500 22.54200
C  49.95100 30.94000 23.72400
N  46.41700 32.32900 26.87100
C  46.23300 31.25900 26.08700
C  45.62500 30.24000 26.83100
C  45.40900 30.78200 28.08300
C  45.95800 32.07900 28.12400
C  45.25500 28.92500 26.28800
C  44.79900 30.44600 29.37100
O  44.38300 29.34600 29.78400
C  45.08100 31.67300 30.22100
C  45.47100 31.32200 31.60200
O  46.58700 31.12700 32.06000
O  44.30600 31.25800 32.42400
C  44.36300 30.83900 33.84800
H  48.27400 37.80300 29.00600
H  48.82500 36.18700 22.74600
H  46.61000 30.31400 24.14700
H  45.51700 34.50200 31.38500
H  47.45600 36.62600 31.12800
H  44.61400 36.59600 30.81600
H  45.26700 37.58000 29.57200
H  45.58700 38.05900 31.15700
H  48.60500 34.73300 31.57600
H  48.00500 33.16200 31.44700
H  48.46000 34.12400 33.77100
H  46.97300 33.32000 33.67800
H  50.80400 39.51900 26.91400
H  49.98000 39.15400 28.21000
H  49.05000 40.07000 26.90900
H  50.19800 40.71500 24.60600
H  51.17500 40.31900 23.20300
H  51.70700 39.70300 24.69300
H  49.17600 33.78300 22.16600
H  47.06000 31.73400 22.07000
H  46.74200 35.02900 21.26000
H  46.88400 33.42300 20.46200
H  48.15200 34.56500 20.28100
H  49.67800 31.67200 21.80400
H  48.66900 30.24900 22.12400
H  49.72100 31.34600 24.70900
H  50.99000 31.17600 23.49300
H  49.91900 29.85300 23.80500
H  44.67500 28.29900 26.96600
H  46.12300 28.30500 26.06200
H  44.68600 29.03900 25.36500
H  44.09300 32.11600 30.34200
H  44.57700 31.53900 34.65600
H  44.98300 29.94800 33.95100
H  43.37900 30.48300 34.15100
Mg 30.56300 58.41400 38.88600
C  27.39100 56.83800 37.97000
C  32.02900 55.52700 37.70600
C  33.37500 59.99500 39.10800
C  28.66300 61.27000 39.61000
N  29.72100 56.50300 37.67300
C  28.44800 56.08300 37.53600
C  28.44300 54.83900 36.71100
C  29.83200 54.20100 37.11400
C  30.59800 55.49200 37.49100
C  29.64400 53.09400 38.24400
C  28.26700 55.01000 35.19600
C  27.00400 54.41900 34.56700
H  26.34000 55.34500 33.57200
N  32.51800 57.86500 38.41500
C  32.93000 56.61800 38.09000
C  34.35800 56.57700 38.15900
C  34.80200 57.84800 38.58900
C  33.59600 58.62400 38.82100
C  35.12600 55.29600 37.83500
C  36.27700 58.29500 38.53100
O  37.07700 57.54800 38.05200
C  36.70400 59.62100 38.93900
N  30.99700 60.42600 39.27800
C  32.26400 60.87100 39.19500
C  32.30000 62.46400 39.25500
C  30.76500 62.75100 39.60600
C  30.08000 61.44400 39.51600
C  33.29500 63.20900 40.17100
C  30.12500 63.96600 38.86000
C  29.33200 64.96600 39.67400
N  28.48600 58.93100 38.93000
C  27.88900 60.10200 39.36700
C  26.45500 59.99000 39.35600
C  26.26400 58.66700 38.90400
C  27.49800 58.11100 38.60600
C  25.51000 61.02900 39.61900
C  25.19500 57.81600 38.62500
O  23.97200 57.88600 38.70900
C  25.92200 56.54000 38.04100
C  25.64100 55.38100 38.91400
O  26.08900 55.13500 40.01900
O  24.59000 54.62100 38.28300
C  24.03600 53.50600 39.03500
H  32.51500 54.57500 37.48000
H  34.30400 60.56300 39.19200
H  28.06700 62.18400 39.58500
H  27.66600 54.22900 37.17100
H  30.32700 53.78200 36.23800
H  30.44000 53.24600 38.97300
H  29.75700 52.07600 37.87100
H  28.67800 53.16300 38.74400
H  29.12500 54.58300 34.67700
H  28.36400 56.08400 35.03700
H  26.30900 54.22400 35.38300
H  27.35100 53.50500 34.08500
H  35.46600 54.74800 38.71300
H  36.01300 55.42600 37.21500
H  34.51700 54.68800 37.16600
H  37.77300 59.61200 39.15300
H  36.26100 59.94900 39.88000
H  36.56100 60.41300 38.20500
H  32.47700 62.74900 38.21800
H  30.67900 62.92300 40.67900
H  33.81200 63.94100 39.55000
H  33.94600 62.42600 40.55900
H  32.94000 63.83400 40.99100
H  29.43100 63.56400 38.12200
H  30.93400 64.54600 38.41600
H  28.44100 65.10800 39.06300
H  29.83900 65.92900 39.63200
H  29.03400 64.68900 40.68600
H  24.56400 60.57800 39.91500
H  25.49600 61.62500 38.70600
H  25.85000 61.66800 40.43400
H  25.56700 56.28900 37.04200
H  23.40800 52.84600 38.43600
H  23.64000 53.77600 40.01300
H  24.88500 52.83900 39.18500

