158

Mg 16.43300 -1.36000 28.53800
C  15.76400 0.93600 31.08300
C  18.39800 -3.12600 30.51900
C  17.50400 -3.02900 25.79300
C  14.94600 1.10600 26.25700
N  16.86800 -1.16200 30.55100
C  16.57000 -0.10000 31.46200
C  17.04600 -0.43600 32.86600
C  18.18000 -1.49900 32.55500
C  17.78200 -1.99700 31.12500
C  19.71500 -1.04800 32.63800
C  15.94400 -0.99900 33.81200
C  15.68800 -0.34200 35.14300
H  16.92700 0.35600 35.82800
N  17.61900 -2.99900 28.26200
C  18.28800 -3.67300 29.22400
C  18.89200 -4.90100 28.68000
C  18.72100 -4.79000 27.27800
C  17.87700 -3.56300 27.00800
C  19.80600 -5.77300 29.52500
C  19.37500 -5.64800 26.18200
O  19.26900 -5.47500 24.98600
C  20.20700 -6.81100 26.56700
N  16.15000 -1.11600 26.42000
C  16.81400 -1.84000 25.50900
C  16.54400 -1.35300 24.06900
C  15.46400 -0.26200 24.22500
C  15.48300 -0.05200 25.73700
C  17.82700 -0.84800 23.38000
C  14.13400 -0.65900 23.55200
C  13.50600 0.55900 22.79600
N  15.27900 0.53700 28.58200
C  14.80700 1.43300 27.68900
C  14.08700 2.42200 28.32900
C  14.44400 2.29300 29.66400
C  15.23900 1.11500 29.79000
C  13.18300 3.44500 27.58700
C  14.17000 2.82200 30.96000
O  13.46900 3.74800 31.31700
C  15.14200 2.05700 31.90300
C  16.14100 3.10300 32.37000
O  17.31100 3.16100 32.03200
O  15.52000 3.96500 33.32800
C  16.34100 5.04200 33.86400
H  19.00900 -3.67700 31.23700
H  17.83900 -3.59300 24.92000
H  14.53000 1.80900 25.53200
H  17.43800 0.53400 33.17100
H  18.01000 -2.30000 33.27400
H  19.97700 -0.90200 31.59000
H  20.24300 -1.82000 33.19800
H  19.79500 -0.01700 32.98300
H  16.01500 -2.07000 34.00300
H  15.09100 -0.81600 33.15900
H  15.09300 -0.96900 35.80700
H  15.02300 0.47600 34.86700
H  19.67300 -5.57800 30.59000
H  20.83000 -5.55800 29.22000
H  19.63400 -6.79600 29.19300
H  20.75000 -7.10300 25.66800
H  19.56200 -7.60400 26.94400
H  20.99400 -6.44700 27.22800
H  16.20900 -2.18600 23.45200
H  15.74100 0.68900 23.77100
H  17.84600 0.22100 23.16700
H  18.01100 -1.39300 22.45400
H  18.66400 -1.10700 24.02900
H  13.49800 -0.80500 24.42500
H  14.23700 -1.52600 22.89900
H  14.15700 1.31700 22.36000
H  12.84500 1.01600 23.53200
H  12.90600 0.21000 21.95600
H  13.36000 4.47800 27.88500
H  12.20100 3.26200 28.02400
H  13.23400 3.27100 26.51300
H  14.58200 1.72300 32.77600
H  16.46500 5.81500 33.10600
H  17.32400 4.62400 34.08400
H  16.05900 5.36200 34.86700
Mg 49.43700 47.06500 43.39200
C  45.96100 47.36800 42.49900
C  49.48300 44.15100 41.61300
C  52.74500 47.25600 43.50700
C  49.26800 50.48100 44.49100
N  47.92500 45.91600 42.15800
C  46.59000 46.22000 42.00700
C  45.88700 45.25500 41.07700
C  46.91900 44.08800 40.97300
C  48.16000 44.77700 41.58400
C  46.59600 42.69400 41.73400
C  45.54700 45.76900 39.65600
C  44.37900 45.05200 38.98100
H  44.55500 44.20100 37.77000
N  50.91400 45.83300 42.64200
C  50.73000 44.59800 42.06600
C  52.01900 43.90600 41.96300
C  53.03100 44.78500 42.39700
C  52.24600 46.04500 42.90500
C  52.15300 42.59900 41.35400
C  54.49300 44.60700 42.26800
O  55.00000 43.62100 41.65500
C  55.45500 45.64600 42.78400
N  50.81400 48.71900 43.70700
C  52.14100 48.46700 43.83200
C  52.90200 49.69700 44.39700
C  51.77200 50.70200 44.53100
C  50.52400 49.91700 44.25600
C  53.66900 49.43200 45.75600
C  51.84200 51.91400 43.56700
C  51.58100 53.24200 44.28600
N  47.93200 48.65500 43.54000
C  48.03700 49.94700 44.03400
C  46.71600 50.46900 44.16600
C  45.84700 49.50000 43.68600
C  46.67900 48.40600 43.22600
C  46.44000 51.84400 44.75200
C  44.45300 49.09800 43.48500
O  43.42700 49.66700 43.80100
C  44.44800 47.83800 42.49300
C  43.59400 46.82000 43.08900
O  43.61900 46.33700 44.23900
O  42.62800 46.62600 42.09800
C  41.86100 45.38900 42.34000
H  49.53700 43.13000 41.23100
H  53.82100 47.26500 43.69100
H  49.19300 51.52500 44.80400
H  44.98400 44.87900 41.55700
H  47.13000 43.80900 39.94100
H  45.67600 42.77800 42.31300
H  47.29000 42.33900 42.49600
H  46.60000 41.91600 40.97100
H  46.42800 45.77300 39.01400
H  45.35100 46.84000 39.71000
H  43.60400 45.75700 38.68100
H  43.93300 44.38000 39.71500
H  52.41200 42.62000 40.29500
H  51.31400 41.97500 41.66100
H  52.96900 42.08600 41.86500
H  55.28500 46.67600 42.47200
H  56.47400 45.43900 42.45700
H  55.55500 45.58100 43.86700
H  53.61600 49.98400 43.62500
H  51.69800 50.95500 45.58900
H  54.22400 48.49800 45.67600
H  52.94000 49.40900 46.56600
H  54.25900 50.31200 46.01200
H  51.20600 51.87000 42.68300
H  52.88900 51.96800 43.26900
H  50.90400 53.75400 43.60300
H  52.54400 53.73400 44.42400
H  51.10000 53.05900 45.24700
H  46.90100 52.54000 44.05100
H  46.86100 52.10600 45.72300
H  45.35200 51.91200 44.75100
H  44.09600 48.29500 41.56800
H  42.60600 44.61800 42.53500
H  41.39200 45.14800 41.38600
H  41.10800 45.73900 43.04700

