158

Mg 17.31300 -2.88600 28.45700
C  16.12300 -0.77500 31.06000
C  19.38200 -4.53600 30.83100
C  18.73200 -4.36900 25.95000
C  15.41400 -0.80700 26.25100
N  17.81700 -2.58300 30.71500
C  16.99300 -1.84500 31.55800
C  17.33300 -2.17100 33.03500
C  18.49600 -3.19600 32.98700
C  18.63300 -3.46600 31.43300
C  19.79200 -2.69600 33.74200
C  16.17200 -2.73300 33.89200
C  16.03700 -2.21500 35.32600
H  17.26500 -1.86900 36.12700
N  18.80600 -4.30100 28.35900
C  19.50700 -4.87700 29.42000
C  20.27900 -5.94700 28.83600
C  20.18200 -5.86200 27.39700
C  19.20700 -4.78800 27.16300
C  21.07500 -6.95400 29.60400
C  20.91100 -6.69600 26.25600
O  20.66200 -6.60600 25.02000
C  21.81200 -7.71500 26.58800
N  17.00900 -2.67900 26.40900
C  17.72500 -3.42900 25.55300
C  17.50100 -2.99400 24.06500
C  16.26700 -2.04100 24.17000
C  16.20200 -1.89200 25.75900
C  18.77800 -2.50000 23.40000
C  14.97300 -2.46900 23.41400
C  14.11600 -1.32700 22.78000
N  16.03900 -1.13700 28.56100
C  15.42500 -0.43000 27.59200
C  14.62500 0.54500 28.18600
C  14.92400 0.49100 29.53000
C  15.78100 -0.54500 29.74400
C  13.72700 1.42100 27.46100
C  14.63700 1.07400 30.79900
O  13.86300 1.98000 31.13900
C  15.47800 0.29800 31.89000
C  16.47400 1.20600 32.54600
O  17.14300 2.06100 32.06800
O  16.35200 1.09400 33.93700
C  16.78900 2.16600 34.78200
H  20.06900 -5.12700 31.44000
H  19.23300 -4.98400 25.19900
H  14.67300 -0.33100 25.60500
H  17.70500 -1.25800 33.50100
H  18.16900 -4.18900 33.29600
H  19.90500 -1.62100 33.87700
H  20.66600 -3.04800 33.19400
H  19.98100 -3.20600 34.68700
H  16.21000 -3.82200 33.90500
H  15.20800 -2.48100 33.44800
H  15.57000 -3.09900 35.76000
H  15.29800 -1.44100 35.11700
H  20.66100 -7.89800 29.24800
H  20.93400 -6.85900 30.68100
H  22.11800 -6.85200 29.30600
H  22.15000 -8.26600 25.71000
H  21.32500 -8.40200 27.27900
H  22.77600 -7.41100 26.99700
H  17.20400 -3.88400 23.50900
H  16.66600 -1.07200 23.86800
H  18.52900 -1.67400 22.73400
H  19.25500 -3.35600 22.92100
H  19.37100 -2.11200 24.22800
H  14.46700 -3.06600 24.17300
H  15.21700 -3.23800 22.68100
H  13.18900 -1.11200 23.31300
H  13.99600 -1.46300 21.70500
H  14.69100 -0.40800 22.88700
H  13.50800 2.31300 28.04900
H  12.76600 0.91800 27.35900
H  14.12100 1.70200 26.48500
H  14.73700 -0.09700 32.58500
H  17.02100 1.75900 35.76600
H  15.87300 2.72400 34.97800
H  17.51000 2.83300 34.31000
Mg 41.68000 41.21400 26.68000
C  41.33900 43.79700 29.01200
C  42.25400 39.14900 29.27300
C  42.16200 38.76600 24.41700
C  41.07700 43.40500 24.12200
N  41.85200 41.42300 28.96600
C  41.60100 42.56500 29.69300
C  41.55700 42.29100 31.22500
C  42.10900 40.81500 31.26300
C  42.23700 40.45600 29.75000
C  43.37600 40.65400 32.12800
C  40.16200 42.53300 31.91300
C  40.36600 43.13700 33.29400
H  39.71800 42.61300 34.54900
N  42.16100 39.23400 26.85100
C  42.22200 38.50400 27.98200
C  42.62800 37.10600 27.59300
C  42.71200 37.02100 26.17400
C  42.31300 38.37300 25.74900
C  42.84600 36.04500 28.64000
C  43.26900 35.90100 25.25400
O  43.51100 36.07100 24.05900
C  43.58800 34.52100 25.81300
N  41.58000 41.14700 24.54800
C  41.89400 40.03300 23.85600
C  41.74600 40.19800 22.37300
C  41.33100 41.66700 22.18700
C  41.25500 42.12500 23.72900
C  43.02000 39.83600 21.58200
C  40.07600 41.78400 21.34600
C  38.70600 41.24300 22.00000
N  41.44200 43.22900 26.52000
C  41.19200 44.03300 25.39000
C  40.94300 45.36800 25.90500
C  40.98900 45.30500 27.24700
C  41.32600 44.02300 27.61100
C  40.73200 46.54300 25.00500
C  40.75300 46.09100 28.43100
O  40.36800 47.26600 28.51000
C  41.06500 45.21900 29.65800
C  42.33800 45.71700 30.36500
O  43.47400 45.85500 29.91700
O  42.03100 46.00300 31.70200
C  43.14200 46.45000 32.57800
H  42.28500 38.41500 30.08100
H  42.33800 37.99000 23.67000
H  40.88100 44.05100 23.26400
H  42.28300 42.95400 31.69600
H  41.37800 40.08200 31.60500
H  44.24500 40.35000 31.54500
H  43.13100 39.83500 32.80500
H  43.58500 41.57400 32.67400
H  39.71500 41.55800 32.10800
H  39.49800 43.19600 31.36000
H  39.89800 44.10000 33.08700
H  41.36500 43.49400 33.54300
H  42.69400 36.41600 29.65400
H  43.90600 35.80100 28.56100
H  42.26400 35.13500 28.49300
H  42.70600 33.88900 25.70900
H  43.73200 34.56700 26.89300
H  44.53500 34.13800 25.43600
H  40.90100 39.58500 22.05800
H  42.08200 42.27800 21.68600
H  43.73500 39.30300 22.20800
H  43.52400 40.71100 21.17300
H  42.79100 39.22900 20.70700
H  40.22000 41.25200 20.40600
H  40.04600 42.81500 20.99300
H  38.32400 40.43400 21.37700
H  38.02000 42.08800 21.96300
H  38.76800 40.93700 23.04500
H  40.07100 47.32200 25.38500
H  40.29500 46.10900 24.10600
H  41.71200 46.87200 24.66000
H  40.32200 45.21900 30.45600
H  42.85200 47.35700 33.10800
H  44.10900 46.60000 32.09900
H  43.34300 45.73100 33.37300

