158

Mg 46.61500 24.95500 28.32000
C  47.04200 27.26700 30.92400
C  45.84000 22.60100 30.63200
C  46.58300 22.85600 25.86400
C  48.04300 27.44800 26.14800
N  46.53600 24.93500 30.54900
C  46.54100 26.03600 31.32900
C  46.22500 25.69300 32.73600
C  46.03600 24.12200 32.70600
C  46.19800 23.77700 31.26600
C  46.88900 23.25800 33.63000
C  44.99700 26.44500 33.48000
C  45.29900 27.03600 34.89100
H  44.26800 26.89600 35.96800
N  46.07000 23.07800 28.26600
C  45.82700 22.20400 29.30500
C  45.45200 20.91500 28.77300
C  45.69500 20.94200 27.40900
C  46.12800 22.32900 27.12000
C  45.06500 19.68700 29.60900
C  45.45100 19.86500 26.25600
O  45.57900 20.14900 25.05700
C  44.89300 18.49700 26.58300
N  47.17200 25.11900 26.26800
C  46.98600 24.12000 25.37800
C  47.31700 24.48600 23.92800
C  47.86400 25.95100 24.06800
C  47.77200 26.17600 25.56300
C  48.29900 23.57800 23.16000
C  46.98200 26.94500 23.23700
C  47.63900 28.22500 22.85200
N  47.33500 26.95500 28.43600
C  47.85000 27.78700 27.49300
C  48.14600 29.07800 28.02100
C  47.77200 28.88500 29.40000
C  47.32400 27.56100 29.60900
C  48.76100 30.24000 27.31100
C  47.69300 29.61000 30.59900
O  48.04300 30.78800 30.90100
C  47.26000 28.55500 31.72900
C  48.36700 28.44000 32.75300
O  49.21200 27.54300 32.78100
O  48.34600 29.44900 33.66500
C  49.24000 29.22600 34.87000
H  45.33100 21.99500 31.38300
H  46.60800 22.10400 25.07300
H  48.52600 28.27900 25.63000
H  47.05500 25.91800 33.40600
H  44.97200 24.02100 32.92200
H  47.73400 22.90800 33.03700
H  46.28800 22.38300 33.87400
H  47.21800 23.77200 34.53300
H  44.10600 25.84300 33.65700
H  44.68600 27.28600 32.85900
H  45.32800 28.12000 34.77500
H  46.22500 26.60800 35.27300
H  44.01700 19.49800 29.37500
H  45.27200 19.78100 30.67500
H  45.50600 18.75000 29.26900
H  43.99400 18.64200 27.18100
H  45.66100 17.86400 27.02900
H  44.69900 17.90000 25.69200
H  46.31900 24.54200 23.49300
H  48.91700 26.15700 23.87900
H  49.11300 24.17800 22.75200
H  47.69900 23.09100 22.39200
H  48.78100 22.84500 23.80600
H  46.15800 27.11600 23.93000
H  46.84000 26.41700 22.29400
H  47.65000 28.24400 21.76200
H  48.67300 28.30500 23.18900
H  46.93900 28.95800 23.25200
H  48.12600 30.38000 26.43700
H  49.75300 29.98000 26.94100
H  48.79500 31.04800 28.04100
H  46.27000 28.77600 32.12800
H  49.06500 30.08300 35.52000
H  50.30400 29.30200 34.64500
H  48.93500 28.27600 35.31000
Mg -1.38200 34.68100 26.40500
C  -2.69500 33.06100 29.22000
C  0.25400 36.84600 28.47900
C  -0.34500 36.17900 23.68800
C  -3.33000 32.38900 24.39300
N  -1.03000 34.77300 28.66700
C  -1.70700 34.01200 29.61800
C  -1.21300 34.36100 31.00600
C  -0.21900 35.61000 30.73500
C  -0.30000 35.75100 29.20400
C  -0.52000 36.89400 31.47400
C  -0.52900 33.23100 31.80300
C  -1.16300 32.87700 33.14900
H  -0.31100 32.27800 34.37400
N  -0.21800 36.37800 26.10000
C  0.38900 37.00300 27.04300
C  1.16200 38.10800 26.41100
C  1.05100 37.95800 25.01400
C  0.08300 36.83800 24.85000
C  2.10700 38.94700 27.20800
C  1.84100 38.75700 23.90600
O  1.80200 38.49600 22.73000
C  2.76500 39.72300 24.33200
N  -1.91000 34.42700 24.36900
C  -1.20000 35.13800 23.46500
C  -1.60500 34.80100 22.02900
C  -2.32000 33.41800 22.20300
C  -2.51400 33.34500 23.76600
C  -2.27500 35.85600 21.30000
C  -1.41900 32.26200 21.59300
C  0.03500 32.08200 22.17800
N  -2.77300 33.15600 26.70500
C  -3.40700 32.31100 25.83100
C  -4.14500 31.34700 26.51200
C  -3.95700 31.66600 27.90600
C  -3.10100 32.76000 27.96000
C  -4.94500 30.30700 25.93200
C  -4.38600 31.27900 29.26700
O  -5.22800 30.52800 29.70000
C  -3.48000 32.19600 30.20500
C  -4.47400 32.94700 31.00000
O  -5.35200 33.63500 30.56000
O  -4.38300 32.55500 32.34900
C  -5.43100 33.01200 33.20900
H  0.75400 37.51000 29.18800
H  0.15900 36.68100 22.86000
H  -3.77200 31.68000 23.69100
H  -2.07700 34.73600 31.55500
H  0.82500 35.42500 30.98700
H  0.36200 37.43000 31.82700
H  -1.10500 36.76400 32.38500
H  -1.21800 37.52200 30.92000
H  0.48900 33.48900 32.09300
H  -0.45000 32.31100 31.22300
H  -1.88900 32.11300 32.87000
H  -1.65000 33.80100 33.46200
H  3.11100 38.62200 26.93400
H  1.97500 38.82700 28.28300
H  1.95800 40.00000 26.97000
H  3.14700 40.15000 23.40500
H  3.57100 39.27800 24.91500
H  2.21100 40.52400 24.82100
H  -0.66400 34.63000 21.50700
H  -3.30700 33.41400 21.74000
H  -2.32400 36.76500 21.89900
H  -3.26800 35.52500 20.99500
H  -1.77000 36.06500 20.35600
H  -1.29600 32.48600 20.53400
H  -2.00000 31.36800 21.81800
H  0.16000 31.01300 22.35000
H  0.12700 32.57200 23.14700
H  0.76000 32.62300 21.56900
H  -5.85200 30.83200 25.63000
H  -5.20100 29.62600 26.74300
H  -4.50800 29.76300 25.09400
H  -2.78100 31.55100 30.73800
H  -5.06200 33.21100 34.21600
H  -6.31800 32.38000 33.24300
H  -5.88600 33.91600 32.80500

