158

Mg 41.42100 8.65200 29.73900
C  43.06700 9.49400 32.73500
C  39.22100 6.70100 31.70400
C  39.88200 7.57200 26.89700
C  43.96000 9.93700 27.89300
N  41.30600 8.09400 31.93300
C  41.92400 8.70800 32.97700
C  41.36600 8.35800 34.35600
C  40.26400 7.20000 34.00000
C  40.25700 7.31300 32.42200
C  40.65100 5.74900 34.45800
C  40.90800 9.63100 35.10300
C  41.22100 9.77300 36.58100
H  41.48500 11.10800 37.20400
N  39.73900 7.40000 29.35500
C  38.96600 6.73400 30.32500
C  37.80500 6.15900 29.68800
C  37.91200 6.46300 28.28000
C  39.22800 7.13600 28.09800
C  36.70200 5.32500 30.38000
C  37.01100 6.17600 27.19000
O  37.30700 6.38500 26.06100
C  35.62800 5.61300 27.50900
N  41.83300 8.77700 27.77400
C  41.05800 8.33200 26.80000
C  41.68600 8.59900 25.49300
C  42.86500 9.51000 25.74800
C  42.85900 9.45400 27.25200
C  42.08700 7.26300 24.79800
C  42.60500 10.94800 25.31900
C  41.32400 11.67600 25.65600
N  43.15300 9.53800 30.15100
C  44.17400 9.96400 29.29000
C  45.23200 10.50700 30.01400
C  44.80900 10.45200 31.34500
C  43.63600 9.76800 31.38700
C  46.54700 11.01700 29.52000
C  45.07800 10.88400 32.75600
O  46.06400 11.45200 33.23300
C  43.87200 10.29900 33.60200
C  44.52300 9.61300 34.78000
O  45.01900 8.51700 34.73300
O  44.58500 10.41500 35.94900
C  45.50000 10.02800 37.04500
H  38.48000 6.12000 32.25700
H  39.42100 7.28000 25.95100
H  44.67500 10.53000 27.31900
H  42.19400 7.93600 34.92500
H  39.25300 7.37100 34.36800
H  41.64100 5.63900 34.90000
H  40.73300 4.94700 33.72400
H  39.89900 5.26500 35.08200
H  39.81900 9.60700 35.06700
H  41.17800 10.55900 34.59900
H  42.13000 9.20800 36.78600
H  40.30000 9.41700 37.04200
H  36.68900 5.23900 31.46600
H  36.54100 4.30100 30.04400
H  35.71500 5.76100 30.22500
H  35.14500 6.23600 28.26100
H  35.77200 4.60400 27.89500
H  35.07100 5.60100 26.57200
H  41.01600 9.15700 24.84000
H  43.80800 9.25000 25.26800
H  41.89200 6.38800 25.41800
H  43.14700 7.31700 24.55000
H  41.48500 7.18200 23.89300
H  42.62900 11.02400 24.23200
H  43.36100 11.63800 25.69300
H  40.72600 11.19800 26.43200
H  40.70500 11.81500 24.76900
H  41.73500 12.62900 25.98900
H  46.82000 11.97400 29.96500
H  46.58300 11.14300 28.43800
H  47.30900 10.26300 29.71800
H  43.29500 11.15700 33.94800
H  45.99300 9.07800 36.83900
H  44.92300 9.89600 37.96000
H  46.31100 10.74500 37.17000
Mg 16.84300 52.24800 26.44100
C  18.53800 50.72400 29.20600
C  14.35300 53.15600 28.51200
C  15.07100 53.20500 23.73200
C  19.32900 50.74900 24.32700
N  16.60900 52.09000 28.56500
C  17.44500 51.49200 29.51300
C  17.00100 51.94100 30.91900
C  15.53600 52.43600 30.72000
C  15.49900 52.61600 29.18600
C  14.37900 51.58600 31.23700
C  18.01500 52.86000 31.58000
C  18.27500 52.55000 33.08600
H  17.29000 51.50700 33.79100
N  15.08500 53.18800 26.18900
C  14.18000 53.49300 27.15000
C  13.07800 54.25600 26.59200
C  13.24300 54.28900 25.16100
C  14.53800 53.56800 24.97700
C  11.81900 54.65700 27.32000
C  12.45400 54.86500 24.05500
O  12.80700 54.81800 22.85900
C  11.03700 55.46600 24.30000
N  17.19600 52.02900 24.39300
C  16.29200 52.55000 23.45400
C  16.77900 52.35400 22.04200
C  18.17700 51.60600 22.21200
C  18.26100 51.47500 23.76000
C  15.78200 51.53500 21.21700
C  19.41900 52.18200 21.54300
C  20.05800 53.49300 22.19100
N  18.53600 50.94900 26.57300
C  19.44800 50.42300 25.65500
C  20.40100 49.55900 26.27200
C  20.00500 49.59200 27.65100
C  19.00300 50.53800 27.83400
C  21.52900 48.77500 25.70200
C  20.43600 49.14200 28.98600
O  21.23600 48.33400 29.40200
C  19.56600 49.94800 30.03200
C  18.89200 49.05500 31.05300
O  17.82900 48.50300 30.89100
O  19.78900 48.80100 32.05100
C  19.43400 47.82600 33.07800
H  13.58100 53.36600 29.25600
H  14.52200 53.53500 22.84700
H  19.84600 50.27700 23.48900
H  17.02500 50.96900 31.41200
H  15.50300 53.38600 31.25400
H  14.74600 50.65500 31.66900
H  13.61200 51.37900 30.49100
H  13.83000 52.19000 31.96000
H  17.69900 53.87300 31.33400
H  18.94900 52.66000 31.05400
H  18.30000 53.54100 33.53900
H  19.29200 52.17300 33.19600
H  11.06800 53.89700 27.10400
H  11.42400 55.57400 26.88400
H  12.03400 54.81700 28.37700
H  11.11600 56.40600 24.84500
H  10.57500 54.70300 24.92600
H  10.37700 55.59400 23.44200
H  17.07200 53.27400 21.53600
H  18.05300 50.58000 21.86700
H  14.90100 52.05400 20.83800
H  15.39200 50.73200 21.84300
H  16.19900 51.25100 20.25100
H  19.10300 52.41900 20.52700
H  20.11900 51.35500 21.42700
H  19.40700 54.15400 22.76400
H  20.51600 54.05500 21.37700
H  20.88600 53.26900 22.86300
H  21.43300 48.86400 24.62000
H  21.48200 47.71400 25.94900
H  22.38200 49.25900 26.17700
H  20.24200 50.60500 30.58000
H  18.37000 47.92900 33.29000
H  20.10600 48.02200 33.91400
H  19.67500 46.82600 32.71600

