158

Mg -0.90000 17.81500 27.49300
C  -1.65300 15.23400 30.02200
C  -1.55200 20.05300 30.05100
C  -0.94400 20.08400 25.17200
C  -0.84000 15.20300 25.21200
N  -1.47800 17.61300 29.79200
C  -1.67600 16.54700 30.52600
C  -1.76500 16.92200 32.06800
C  -1.93400 18.50900 32.03900
C  -1.46900 18.77300 30.57600
C  -3.39300 19.02500 32.41900
C  -0.59400 16.34200 32.86900
C  -0.01300 17.07200 34.13600
H  0.63300 16.27900 35.26300
N  -1.22600 19.73500 27.57400
C  -1.56800 20.47700 28.66800
C  -1.73100 21.87600 28.29100
C  -1.57000 21.96400 26.90200
C  -1.15200 20.57100 26.51300
C  -2.04800 22.94800 29.24000
C  -1.72700 23.15300 25.93000
O  -1.55100 23.12800 24.71100
C  -1.96500 24.46300 26.48100
N  -0.86000 17.60500 25.51400
C  -0.78500 18.78800 24.74800
C  -0.66500 18.36600 23.23300
C  -0.39600 16.78300 23.30400
C  -0.67100 16.49500 24.77300
C  -1.89200 18.80100 22.37300
C  0.98700 16.20100 22.88200
C  2.11700 16.40300 23.96600
N  -1.11000 15.61800 27.60400
C  -1.14100 14.74000 26.49500
C  -1.31100 13.35800 27.00300
C  -1.57200 13.51500 28.39200
C  -1.41400 14.91700 28.65100
C  -1.32500 12.11400 26.25800
C  -1.94700 12.84500 29.59600
O  -2.16600 11.62800 29.78400
C  -1.97300 13.92100 30.73900
C  -0.85800 13.48000 31.60000
O  0.35800 13.72200 31.42500
O  -1.35500 12.83900 32.68400
C  -0.32500 12.28500 33.65100
H  -1.78500 20.81200 30.80100
H  -0.84800 20.88200 24.43300
H  -0.68700 14.49500 24.39500
H  -2.74000 16.55700 32.38900
H  -1.17100 18.97300 32.66500
H  -3.92700 18.40800 33.14200
H  -3.98700 19.18800 31.51900
H  -3.36100 19.99000 32.92500
H  0.30600 16.23300 32.26400
H  -0.89000 15.41100 33.35200
H  -0.85900 17.61300 34.56000
H  0.77800 17.76600 33.85400
H  -3.12300 22.93100 29.41900
H  -1.84600 23.96500 28.90700
H  -1.67600 22.82500 30.25700
H  -2.87000 24.31300 27.07000
H  -2.14500 25.06000 25.58700
H  -1.06800 24.78700 27.00800
H  0.11000 18.97600 22.76900
H  -1.19300 16.32500 22.71900
H  -2.47600 17.98700 21.94500
H  -1.60600 19.40700 21.51300
H  -2.59100 19.33300 23.01900
H  1.25600 16.62600 21.91500
H  0.96600 15.11400 22.80300
H  2.19600 15.49500 24.56400
H  2.09300 17.23400 24.67000
H  3.07200 16.56400 23.46600
H  -0.64300 12.13900 25.40800
H  -2.32600 11.96500 25.85300
H  -1.05400 11.24300 26.85500
H  -2.92800 13.85900 31.26100
H  0.68400 12.25300 33.23900
H  -0.64100 11.29700 33.98700
H  -0.38900 12.92500 34.53100
Mg 0.77100 44.39900 25.09400
C  2.97100 43.89800 27.66300
C  -1.81700 43.86300 27.24300
C  -1.28100 44.18300 22.35300
C  3.44900 44.95800 22.86100
N  0.61800 43.86900 27.21000
C  1.65500 43.72400 28.10500
C  1.07600 43.74600 29.56000
C  -0.39100 43.49900 29.32900
C  -0.56600 43.86400 27.83700
C  -0.83500 42.03900 29.72100
C  1.27700 45.08100 30.39300
C  1.03000 45.03900 31.89300
H  1.11300 43.66000 32.55200
N  -1.26100 44.09400 24.83400
C  -2.20400 43.99200 25.81300
C  -3.55700 43.93200 25.27700
C  -3.28700 43.89100 23.85200
C  -1.86600 44.09000 23.63600
C  -4.77900 43.69900 26.16600
C  -4.30200 43.52400 22.70300
O  -4.00900 43.40600 21.50400
C  -5.73600 43.19300 23.06900
N  1.10500 44.29800 22.87700
C  0.05200 44.27600 22.00700
C  0.50200 44.55000 20.61500
C  2.12200 44.81300 20.75400
C  2.26100 44.67000 22.26600
C  0.16500 43.57000 19.44600
C  2.64700 46.13700 20.18600
C  2.51300 47.42800 20.89700
N  2.83500 44.32500 25.13800
C  3.79400 44.71200 24.18700
C  5.08900 44.76700 24.87700
C  4.80100 44.43300 26.18700
C  3.45100 44.15800 26.30200
C  6.38400 45.13800 24.26600
C  5.41100 44.23600 27.45900
O  6.59900 44.21500 27.82500
C  4.26200 43.96600 28.49900
C  4.45200 42.60200 28.99400
O  4.47100 41.58200 28.31900
O  4.75400 42.62100 30.32700
C  4.69000 41.31000 30.93900
H  -2.58500 43.54800 27.95300
H  -1.99600 44.37300 21.55000
H  4.27600 45.27600 22.22300
H  1.54700 42.95700 30.14700
H  -1.04500 44.12900 29.93200
H  -1.13900 41.51600 28.81400
H  -1.56800 42.05400 30.52700
H  -0.09200 41.42000 30.22500
H  0.53000 45.83300 30.13600
H  2.23200 45.39300 29.97200
H  0.04800 45.47900 32.07100
H  1.80800 45.66400 32.33100
H  -4.76000 42.61700 26.29800
H  -5.68800 43.98100 25.63400
H  -4.75800 44.10300 27.17800
H  -6.27500 43.09700 22.12700
H  -6.15400 44.02100 23.64300
H  -5.55800 42.26800 23.61800
H  -0.10600 45.45400 20.57800
H  2.68300 43.96600 20.36000
H  -0.76100 43.02800 19.63500
H  1.04000 42.92400 19.36700
H  0.08300 44.06800 18.48000
H  2.22500 46.25400 19.18800
H  3.68400 46.00600 19.87700
H  1.84900 47.40200 21.76100
H  2.13500 48.12200 20.14700
H  3.49500 47.78600 21.20800
H  6.54300 46.21500 24.20100
H  6.30100 44.76800 23.24400
H  7.17800 44.53000 24.70100
H  4.34100 44.54600 29.41900
H  5.48100 41.14100 31.67000
H  4.60600 40.44000 30.28700
H  3.74700 41.24700 31.48300

