158

Mg 43.14300 4.27000 46.98300
C  41.23700 7.25300 46.65500
C  40.26900 2.50300 46.77100
C  45.01600 1.67800 46.27800
C  46.03200 6.30300 46.70400
N  40.99100 4.77800 46.62500
C  40.43200 6.07200 46.66600
C  38.88000 5.95800 46.78800
C  38.62000 4.43300 47.01100
C  40.05800 3.82400 46.91100
C  37.92000 3.98200 48.37200
C  38.02100 6.56500 45.69200
C  38.45800 6.20200 44.25600
H  39.43400 7.16700 43.58900
N  42.67200 2.34900 46.65700
C  41.47000 1.75100 46.59800
C  41.58500 0.33100 46.34300
C  43.03100 0.07800 46.14900
C  43.64000 1.39000 46.40500
C  40.36900 -0.56700 46.17100
C  43.51400 -1.26900 45.82200
O  42.72400 -2.14500 45.63300
C  44.86700 -1.49700 45.61700
N  45.20500 4.03300 46.47200
C  45.73300 2.83400 46.39900
C  47.25200 2.83700 46.30600
C  47.54400 4.35800 46.25900
C  46.19500 4.95300 46.48700
C  48.01100 2.00500 47.38700
C  48.37000 4.83000 45.00000
C  49.91100 4.95300 45.02000
N  43.58500 6.30700 46.83200
C  44.78500 6.96200 46.81500
C  44.54400 8.33600 46.87500
C  43.14800 8.51400 46.77200
C  42.60100 7.22400 46.75300
C  45.53600 9.34700 46.90500
C  42.07400 9.54700 46.86500
O  42.12400 10.76500 46.99700
C  40.69700 8.69200 46.60000
C  39.83400 9.00200 47.73500
O  40.05700 8.70500 48.88900
O  38.64800 9.58800 47.29800
C  37.55100 9.79300 48.22700
H  39.36000 1.90700 46.87100
H  45.59600 0.75300 46.26100
H  46.96800 6.84200 46.53900
H  38.57300 6.53800 47.65800
H  38.06400 3.91300 46.23100
H  37.36500 3.04400 48.35700
H  37.28800 4.77300 48.77600
H  38.74300 3.75400 49.05000
H  38.07200 7.65000 45.78600
H  36.94000 6.46600 45.78700
H  37.51500 6.04300 43.73300
H  38.94000 5.23600 44.10800
H  40.39300 -1.52600 46.68900
H  40.18500 -0.75200 45.11200
H  39.38800 -0.13100 46.36100
H  45.33100 -1.22300 46.56500
H  45.13100 -0.77500 44.84400
H  45.20700 -2.50100 45.36400
H  47.55200 2.45900 45.32900
H  48.26100 4.48100 47.07000
H  48.91900 2.48500 47.75200
H  48.30600 1.06100 46.92800
H  47.32300 1.79400 48.20500
H  47.91900 5.81300 44.86500
H  48.02600 4.19600 44.18300
H  50.38300 4.25200 44.33200
H  50.23900 4.69300 46.02600
H  50.09300 5.99000 44.73800
H  46.09400 9.47300 47.83300
H  45.21700 10.33200 46.56700
H  46.30200 9.05400 46.18600
H  40.32100 8.95200 45.61000
H  37.87400 9.29200 49.13900
H  36.59200 9.41000 47.87900
H  37.42400 10.84700 48.47500
Mg 9.94000 47.42300 26.76800
C  7.90100 47.47900 29.62100
C  12.33100 49.08900 28.41500
C  11.66300 47.17400 23.97000
C  6.96800 46.61900 24.86400
N  9.99500 48.27400 28.75200
C  9.21300 48.04700 29.82600
C  9.84600 48.44000 31.20400
C  11.05300 49.30100 30.61800
C  11.18900 48.81200 29.18500
C  10.84800 50.83400 30.80300
C  10.30900 47.17200 31.94800
C  9.86300 47.09100 33.38800
H  9.87300 45.81900 34.15300
N  11.77700 47.96900 26.31600
C  12.70300 48.67600 27.12100
C  13.95900 48.68800 26.45200
C  13.81600 47.94000 25.25000
C  12.34300 47.72600 25.13200
C  15.26700 49.12100 27.09100
C  14.81800 47.51900 24.17300
O  14.54600 47.02900 23.08700
C  16.24100 47.78200 24.45600
N  9.32700 47.17100 24.68700
C  10.29200 46.94100 23.77500
C  9.73100 46.44100 22.48900
C  8.17500 46.34200 22.64900
C  8.09600 46.72900 24.20100
C  10.07300 47.28600 21.20200
C  7.63000 44.98200 22.35200
C  6.11400 44.88800 21.90800
N  7.80900 47.14800 27.08300
C  6.76800 46.76500 26.27200
C  5.55900 46.60300 27.03700
C  6.00900 46.71100 28.42400
C  7.34800 47.17800 28.37500
C  4.21900 46.22200 26.47300
C  5.55100 46.64500 29.77800
O  4.42800 46.39600 30.23100
C  6.83200 47.04000 30.64100
C  7.14100 45.81600 31.48200
O  7.99700 44.99700 31.17100
O  6.36100 45.76000 32.62900
C  6.47800 44.64800 33.49900
H  13.03100 49.72200 28.96400
H  12.23700 47.09100 23.04400
H  6.06600 46.45200 24.27300
H  9.18700 49.02400 31.84600
H  12.00700 49.09500 31.10400
H  10.13700 51.20600 31.54100
H  10.66300 51.29700 29.83300
H  11.81300 51.18000 31.17200
H  11.39900 47.20800 31.92300
H  10.04900 46.27600 31.38500
H  8.80600 47.28500 33.20400
H  10.23200 47.97000 33.91600
H  15.69000 48.18000 27.44200
H  14.95500 49.77700 27.90400
H  16.03500 49.68400 26.56100
H  16.78900 47.66000 23.52200
H  16.56900 47.14900 25.28000
H  16.40300 48.81700 24.75700
H  10.16700 45.44600 22.40500
H  7.70400 47.14200 22.07700
H  10.81000 48.02300 21.52100
H  9.23400 47.82000 20.75400
H  10.59700 46.69700 20.44900
H  7.78800 44.43800 23.28300
H  8.31100 44.51200 21.64300
H  5.59500 44.47800 22.77500
H  5.98800 44.18800 21.08300
H  5.59000 45.80800 21.64700
H  3.63300 47.09400 26.18300
H  3.66500 45.77700 27.30000
H  4.36100 45.59900 25.59000
H  6.60800 47.76900 31.42000
H  7.43700 44.13300 33.43800
H  5.72100 43.87400 33.37500
H  6.45000 45.15400 34.46300

