158

Mg 0.94900 -1.93300 44.32100
C  4.29100 -0.96700 43.91400
C  0.01800 0.89400 42.52400
C  -2.23300 -3.16200 44.15100
C  2.11600 -5.08400 45.42900
N  2.02200 -0.18800 43.31900
C  3.43500 -0.00800 43.37100
C  3.89500 1.25500 42.54500
C  2.45700 1.95600 42.39600
C  1.42000 0.82600 42.66800
C  2.19200 3.25700 43.23300
C  4.66000 0.82300 41.28300
C  6.09700 1.44700 41.02100
H  6.77600 1.45000 39.55500
N  -0.94900 -1.17900 43.52200
C  -1.04800 0.03100 42.92500
C  -2.43100 0.26800 42.72800
C  -3.14900 -0.94400 43.12100
C  -2.11900 -1.87500 43.54600
C  -3.05000 1.51900 42.11700
C  -4.62700 -1.06500 42.97700
O  -5.30100 -0.10900 42.66600
C  -5.30900 -2.31500 43.39400
N  0.19200 -3.92200 44.55700
C  -1.20400 -4.07900 44.61600
C  -1.57000 -5.37100 45.36200
C  -0.21900 -5.92900 45.71600
C  0.74600 -4.91600 45.17600
C  -2.46600 -5.19900 46.58700
C  -0.07800 -7.43100 45.23900
C  -0.88600 -8.59200 45.86400
N  2.83000 -2.85600 44.71700
C  3.12800 -4.12400 45.15100
C  4.52100 -4.31500 45.17000
C  5.08500 -2.99900 44.88000
C  3.97600 -2.21300 44.50400
C  5.17800 -5.61900 45.33000
C  6.28300 -2.28300 44.66100
O  7.46000 -2.52200 44.79300
C  5.81100 -0.86300 44.01700
C  6.17200 0.29200 44.86500
O  5.76000 0.56700 45.95000
O  7.07100 1.06700 44.12300
C  7.31700 2.43900 44.73300
H  -0.24500 1.79900 41.97300
H  -3.23200 -3.57800 44.29600
H  2.41000 -6.11200 45.65000
H  4.47300 1.83200 43.26700
H  2.40900 2.37800 41.39200
H  1.27400 3.03000 43.77600
H  2.14000 4.10500 42.55000
H  3.05900 3.46500 43.86000
H  4.07300 1.29400 40.49500
H  4.73000 -0.25700 41.15300
H  6.71200 0.81400 41.66000
H  6.08900 2.47400 41.38600
H  -3.64900 1.42500 41.21100
H  -2.31400 2.20300 41.69400
H  -3.59800 2.10700 42.85400
H  -5.02400 -3.17100 42.78200
H  -6.39000 -2.17900 43.36900
H  -5.06000 -2.54900 44.42900
H  -1.98500 -6.02000 44.59100
H  -0.13700 -6.00400 46.80000
H  -3.43900 -5.59500 46.29700
H  -2.38300 -4.16100 46.90800
H  -2.22200 -5.87700 47.40500
H  0.95200 -7.78600 45.27300
H  -0.39800 -7.53300 44.20100
H  -0.19500 -9.17900 46.46900
H  -1.36500 -9.26100 45.14900
H  -1.65500 -8.20400 46.53100
H  4.54200 -6.42600 44.96700
H  5.50400 -5.89200 46.33400
H  6.14800 -5.47900 44.85400
H  6.28300 -0.80800 43.03600
H  7.76900 2.48300 45.72400
H  6.38900 3.00700 44.66400
H  7.97900 3.00300 44.07600
Mg 47.87200 24.84700 29.60700
C  49.05700 27.13000 31.89000
C  46.56800 22.99600 32.02200
C  47.08300 22.39200 27.25500
C  49.57700 26.62600 27.06600
N  47.92200 25.05400 31.76600
C  48.36600 26.08200 32.48700
C  47.94500 26.00000 34.02400
C  47.46600 24.42800 34.00900
C  47.28100 24.11200 32.51200
C  48.47500 23.49800 34.73600
C  46.79000 26.91200 34.48500
C  47.02900 27.97600 35.56400
H  45.94800 28.04200 36.69600
N  46.91000 22.96400 29.66900
C  46.43000 22.35700 30.79200
C  45.79400 21.16500 30.54200
C  45.97400 20.94300 29.15800
C  46.72100 22.13600 28.59500
C  45.09300 20.24600 31.58400
C  45.61500 19.78500 28.29900
O  45.77900 19.80500 27.06400
C  44.77000 18.70900 28.81200
N  48.34400 24.53600 27.46100
C  47.89300 23.41800 26.77100
C  48.47200 23.51000 25.27000
C  49.04300 24.95600 25.20700
C  49.01600 25.40400 26.72700
C  49.36300 22.37700 24.61600
C  48.27000 25.88700 24.21900
C  48.72000 26.06100 22.71200
N  48.96000 26.56700 29.42100
C  49.56100 27.18600 28.35500
C  50.09700 28.37600 28.74700
C  49.95600 28.44200 30.08800
C  49.25200 27.27600 30.45500
C  50.70100 29.46700 27.99000
C  50.14900 29.22800 31.30000
O  50.59600 30.34600 31.53300
C  49.63500 28.42000 32.53800
C  50.79000 28.08200 33.42000
O  51.53600 27.17700 33.25200
O  50.86700 29.01400 34.49300
C  51.85800 28.84900 35.59600
H  46.10400 22.55500 32.90700
H  46.91200 21.66800 26.45500
H  50.01800 27.18600 26.23900
H  48.83000 26.19200 34.63000
H  46.48600 24.27300 34.46100
H  48.30700 22.42900 34.60100
H  48.36800 23.78900 35.78100
H  49.46200 23.71800 34.32900
H  46.10300 26.14500 34.84200
H  46.26500 27.36500 33.64400
H  47.04100 28.91700 35.01400
H  48.07000 27.92400 35.88300
H  45.72900 19.37300 31.72400
H  44.12800 19.83800 31.28200
H  44.96500 20.63300 32.59500
H  44.60300 17.88900 28.11300
H  43.89500 19.24500 29.17800
H  45.26500 18.32000 29.70200
H  47.58600 23.49700 24.63500
H  50.07500 24.79900 24.89300
H  50.30600 22.74800 24.21300
H  48.76000 22.02800 23.77700
H  49.48200 21.55500 25.32200
H  48.28300 26.90900 24.59600
H  47.21400 25.61600 24.19800
H  49.59100 25.44000 22.50200
H  49.05200 27.08700 22.54900
H  47.93500 25.80300 22.00200
H  51.08300 29.05800 27.05400
H  51.47700 29.93100 28.59800
H  49.89200 30.12800 27.67700
H  48.88900 28.95300 33.12700
H  51.60200 29.62800 36.31400
H  52.88700 29.03500 35.28900
H  51.83800 27.88500 36.10400

