158

Mg 45.77700 3.92800 47.50200
C  43.96600 6.85100 47.17800
C  42.94200 2.13900 46.77900
C  47.73400 1.19600 47.31400
C  48.77700 6.01100 47.38700
N  43.67200 4.45100 47.15800
C  43.16300 5.69800 47.05000
C  41.80800 5.65800 46.41600
C  41.37900 4.18500 46.65800
C  42.74600 3.51100 46.87600
C  40.45000 4.07200 47.97500
C  41.82600 6.08900 44.91500
C  40.63200 6.90700 44.43400
H  40.34100 6.70500 42.98100
N  45.36900 1.92500 47.10900
C  44.11000 1.37600 46.92000
C  44.24000 -0.07500 46.80900
C  45.59700 -0.38100 47.08500
C  46.33400 0.91000 47.14300
C  43.10500 -1.09400 46.51900
C  46.18300 -1.75800 47.26800
O  45.42900 -2.75500 47.32100
C  47.66900 -2.03200 47.24900
N  47.92500 3.64700 47.39800
C  48.47200 2.41900 47.47600
C  50.03500 2.44800 47.62200
C  50.33000 3.91200 47.24800
C  48.95300 4.64000 47.36400
C  50.43800 1.87400 49.04800
C  51.17500 4.00200 45.97000
C  52.34000 5.04200 45.85400
N  46.34300 6.05100 47.41700
C  47.50000 6.74800 47.36000
C  47.24400 8.16600 47.44100
C  45.86700 8.25100 47.25200
C  45.37700 6.94400 47.24800
C  48.27500 9.25800 47.50600
C  44.74600 9.14600 47.14400
O  44.82300 10.36100 47.08700
C  43.48000 8.25600 47.06300
C  42.48300 8.71400 48.13600
O  42.33900 8.15200 49.25500
O  41.67000 9.79000 47.69400
C  40.52900 10.25400 48.40600
H  42.02100 1.56200 46.67100
H  48.39100 0.32500 47.34900
H  49.63500 6.68500 47.41100
H  41.19800 6.36500 46.97800
H  40.81200 3.77700 45.82100
H  40.02700 4.98800 48.38900
H  40.98000 3.52900 48.75700
H  39.60600 3.45800 47.66200
H  41.84100 5.11800 44.41900
H  42.71600 6.62600 44.58800
H  40.94600 7.93600 44.61000
H  39.74100 6.79300 45.05200
H  42.12500 -0.61600 46.51100
H  43.22200 -1.90000 47.24300
H  43.37000 -1.55000 45.56500
H  48.00700 -1.55000 48.16600
H  48.03100 -1.59000 46.32100
H  47.87400 -3.09300 47.10700
H  50.50300 1.73800 46.94000
H  50.91000 4.41900 48.01900
H  49.57100 1.67900 49.68000
H  50.91800 2.69600 49.58100
H  51.10400 1.01200 49.01700
H  50.50600 4.21400 45.13600
H  51.53400 3.02400 45.64800
H  51.96200 5.90200 45.30100
H  53.13900 4.62900 45.23800
H  52.69800 5.37900 46.82700
H  47.80600 10.14200 47.07500
H  49.12100 8.95100 46.89300
H  48.57100 9.50700 48.52500
H  42.99300 8.44800 46.10600
H  39.68000 9.64900 48.08700
H  40.25400 11.26600 48.10900
H  40.55300 10.20600 49.49400
Mg 41.20700 8.45800 29.82300
C  43.20600 9.57900 32.49900
C  39.17500 6.84500 32.27200
C  39.30200 7.32700 27.34300
C  43.63800 9.54800 27.60100
N  41.14500 8.33400 32.09600
C  42.00400 8.97300 32.95200
C  41.68000 8.60900 34.38000
C  40.66900 7.51400 34.23700
C  40.32400 7.57100 32.76500
C  41.01500 6.05600 34.70100
C  41.20000 9.87600 35.16000
C  41.83900 10.05100 36.56100
H  41.87700 11.48800 37.11700
N  39.41500 7.35200 29.76900
C  38.71000 6.86100 30.90400
C  37.48800 6.30400 30.36800
C  37.43300 6.51800 28.92000
C  38.72400 7.13800 28.59200
C  36.44500 5.65500 31.21600
C  36.44700 6.25000 27.89300
O  36.49500 6.58500 26.71800
C  35.17400 5.50400 28.30500
N  41.63400 8.13800 27.76900
C  40.59900 7.85100 26.96800
C  40.90300 8.11100 25.54900
C  42.40200 8.55200 25.56200
C  42.55700 8.89700 27.03700
C  40.56100 6.98700 24.49200
C  42.62700 9.76600 24.57700
C  41.96400 11.11000 24.89900
N  43.00500 9.46400 29.95300
C  43.90700 9.83600 28.98900
C  45.17000 10.33200 29.57800
C  44.86800 10.32900 30.95800
C  43.52000 9.77600 31.12900
C  46.41500 10.71100 28.82600
C  45.38800 10.72500 32.29200
O  46.43800 11.28700 32.52400
C  44.33300 10.30000 33.32400
C  45.02400 9.26700 34.13600
O  45.56000 8.24600 33.72800
O  45.14300 9.73000 35.45800
C  46.23000 9.18700 36.27700
H  38.42900 6.58200 33.02500
H  38.77600 6.90600 26.48400
H  44.50800 9.89400 27.04100
H  42.58300 8.26400 34.88300
H  39.78400 7.79500 34.80800
H  40.41000 5.93000 35.59900
H  42.02000 6.08500 35.12400
H  40.80700 5.23600 34.01400
H  40.14200 9.92400 35.41700
H  41.47000 10.78500 34.62300
H  42.84000 9.62300 36.51700
H  41.24500 9.42700 37.22800
H  36.79800 5.56400 32.24400
H  36.04000 4.71400 30.84500
H  35.53900 6.26200 31.23000
H  35.28200 4.43200 28.47200
H  34.61700 5.41600 27.37200
H  34.66400 6.00600 29.12700
H  40.16200 8.85300 25.25100
H  42.99300 7.64700 25.41800
H  39.52900 7.03300 24.14200
H  40.74500 6.05000 25.01800
H  41.31200 7.02200 23.70300
H  42.22100 9.39000 23.63800
H  43.71400 9.81600 24.50200
H  42.74800 11.86700 24.86100
H  41.49800 11.15800 25.88300
H  41.16800 11.23400 24.16500
H  46.71600 9.95300 28.10200
H  47.31800 10.97500 29.37700
H  46.22500 11.58700 28.20600
H  43.89800 11.04300 33.99200
H  46.90000 10.00100 36.55500
H  46.82100 8.44300 35.74400
H  46.00800 8.71700 37.23500

