158

Mg 25.29900 1.60600 29.89700
C  27.34600 1.54800 32.81200
C  22.64200 1.77600 32.02500
C  23.36900 1.55000 27.17100
C  28.16100 1.37300 28.00700
N  25.02300 1.77800 32.19700
C  26.00800 1.80700 33.14900
C  25.45300 2.08800 34.54300
C  23.89700 2.20500 34.26500
C  23.84700 1.94700 32.74000
C  22.99000 1.22700 35.02200
C  26.06700 3.35900 35.31300
C  25.46600 3.86300 36.69100
H  26.22300 3.70300 37.95900
N  23.27100 1.60300 29.66600
C  22.30800 1.56600 30.65600
C  20.99800 1.38800 30.06000
C  21.14000 1.46500 28.63200
C  22.64000 1.47400 28.44100
C  19.73400 1.37800 30.82600
C  20.14000 1.60000 27.47100
O  20.45000 1.68900 26.29400
C  18.62000 1.37300 27.81000
N  25.70800 1.22200 27.84500
C  24.78200 1.50700 26.92000
C  25.37800 1.88000 25.58500
C  26.86700 1.79800 25.90600
C  26.91600 1.48000 27.38700
C  24.81200 0.99900 24.39200
C  27.82400 2.86900 25.32200
C  27.62600 4.36500 25.71000
N  27.29200 1.20400 30.26600
C  28.35400 1.15000 29.37100
C  29.57000 1.07400 30.13700
C  29.17800 1.19000 31.49000
C  27.82500 1.29700 31.54700
C  30.91100 0.87600 29.55200
C  29.75100 1.25800 32.74900
O  30.91000 1.14100 33.13000
C  28.53600 1.55500 33.69800
C  28.42400 0.47500 34.74900
O  28.31500 -0.80100 34.59400
O  28.73600 1.07700 35.94600
C  28.88500 0.18100 37.12900
H  21.79700 1.89300 32.70700
H  22.80700 1.72900 26.25200
H  29.08700 1.50500 27.44300
H  25.81800 1.21600 35.08500
H  23.61700 3.24900 34.41100
H  22.58300 0.43300 34.39600
H  22.17700 1.84700 35.40100
H  23.59000 0.80100 35.82600
H  26.14900 4.20600 34.63300
H  27.10800 3.07400 35.46700
H  24.54700 3.34000 36.95700
H  25.30000 4.94000 36.65600
H  19.93900 1.33200 31.89500
H  19.28800 0.43800 30.50200
H  19.08000 2.18600 30.49700
H  18.36700 0.63200 28.56900
H  17.99900 1.16200 26.94000
H  18.23200 2.34500 28.11600
H  24.94500 2.87300 25.46900
H  27.13700 0.82700 25.49100
H  25.64200 0.60900 23.80400
H  24.05900 1.61400 23.89900
H  24.27000 0.14500 24.79900
H  27.77800 2.76500 24.23800
H  28.84700 2.65700 25.63400
H  28.52600 4.95300 25.88700
H  26.91400 4.50700 26.52400
H  27.10200 4.70900 24.81800
H  31.00200 1.56300 28.71100
H  31.15000 -0.17300 29.37800
H  31.60300 1.24600 30.30800
H  28.74700 2.51900 34.16300
H  29.96200 0.09000 37.26400
H  28.45700 -0.81700 37.02500
H  28.52500 0.69700 38.01900
Mg 48.07800 16.65000 28.49800
C  45.96600 16.32800 31.40500
C  50.09200 18.68300 30.21800
C  49.46000 17.23700 25.57700
C  45.18100 15.19000 26.67200
N  47.99400 17.39400 30.54300
C  47.16800 17.11300 31.59400
C  47.62500 17.75300 32.90100
C  48.73400 18.71100 32.42200
C  48.93900 18.27600 30.98600
C  48.47400 20.26200 32.62400
C  47.96300 16.66900 33.98700
C  47.36200 16.96400 35.37900
H  47.10800 18.39200 35.81300
N  49.67300 17.73800 27.97900
C  50.48800 18.52000 28.84600
C  51.65000 18.92600 28.11300
C  51.41800 18.57200 26.77200
C  50.16900 17.75400 26.67500
C  52.79200 19.76400 28.66300
C  52.45300 18.69700 25.58200
O  52.13200 18.20700 24.46300
C  53.75300 19.35300 25.77400
N  47.32400 16.41600 26.36900
C  48.25500 16.64200 25.40100
C  47.70000 16.14800 24.02800
C  46.29600 15.54900 24.38000
C  46.17600 15.75500 25.92100
C  47.53900 17.34100 22.89200
C  46.09300 14.09300 23.80300
C  44.89600 13.97300 22.78900
N  46.02200 15.86300 28.85700
C  44.96700 15.36300 28.07200
C  43.89000 14.78800 28.88000
C  44.20000 15.20500 30.19900
C  45.47700 15.89200 30.09900
C  42.69800 14.02200 28.41700
C  43.72800 15.21700 31.53900
O  42.68400 14.89900 32.00800
C  44.87200 16.03100 32.48800
C  44.12000 17.20400 33.03700
O  44.16100 18.32200 32.56900
O  43.30400 16.87500 34.14700
C  42.79900 17.95100 34.92700
H  50.91900 19.25600 30.64200
H  50.02600 17.28900 24.64400
H  44.46200 14.57300 26.13000
H  46.79900 18.38300 33.23300
H  49.73500 18.54200 32.81800
H  47.41600 20.46000 32.79600
H  48.73600 20.69900 31.66100
H  49.06600 20.74900 33.39900
H  49.02700 16.60400 34.21500
H  47.72700 15.68700 33.57700
H  47.84900 16.51700 36.24600
H  46.43800 16.38900 35.44900
H  52.55300 20.11600 29.66700
H  53.12500 20.64700 28.11700
H  53.59000 19.05300 28.87700
H  53.65400 20.40900 26.02300
H  54.33600 19.35300 24.85300
H  54.21400 18.66000 26.47800
H  48.38500 15.39200 23.64400
H  45.47300 16.13300 23.96700
H  46.46000 17.48000 22.82300
H  47.98600 17.17200 21.91300
H  47.95500 18.22000 23.38400
H  46.00600 13.36700 24.61100
H  47.03400 13.94500 23.27300
H  44.88800 12.92200 22.50000
H  45.12000 14.57400 21.90700
H  44.01100 14.32600 23.31700
H  43.07800 13.18700 27.82800
H  41.98400 14.62400 27.85500
H  42.22600 13.71700 29.35100
H  45.16800 15.40900 33.33200
H  42.13300 18.50700 34.26900
H  43.51500 18.69400 35.27900
H  42.29900 17.62200 35.83800

