158

Mg 44.32900 3.78600 47.92000
C  41.73700 6.15100 47.23300
C  41.90800 1.36800 47.95800
C  46.74400 1.48500 47.96500
C  46.61000 6.25400 47.21400
N  42.02100 3.80600 47.64000
C  41.18800 4.88400 47.43200
C  39.73200 4.44500 47.29600
C  39.83000 2.92900 47.86300
C  41.36400 2.62400 47.83300
C  39.37100 2.85100 49.30100
C  39.22400 4.45000 45.84100
C  38.06500 5.37500 45.58000
H  38.01700 6.17100 44.21000
N  44.33900 1.63700 47.87800
C  43.23700 0.88400 47.97700
C  43.65700 -0.55200 47.97200
C  45.07900 -0.58700 47.95000
C  45.46000 0.84600 48.00500
C  42.71800 -1.67400 48.20700
C  45.95500 -1.87900 48.01500
O  45.50700 -3.01300 47.93200
C  47.47300 -1.74300 48.20700
N  46.33900 3.86400 47.56200
C  47.14900 2.83200 47.84100
C  48.60300 3.22800 48.02200
C  48.56500 4.67200 47.38800
C  47.07600 4.96800 47.45100
C  49.23900 2.94500 49.34200
C  49.15900 4.75900 45.92000
C  50.66700 5.02000 45.85600
N  44.26300 5.84800 47.46600
C  45.29400 6.66000 47.17000
C  44.75000 7.95300 46.91500
C  43.34700 7.86700 46.95800
C  43.11100 6.46000 47.25400
C  45.37400 9.22300 46.39600
C  42.12200 8.49700 46.75700
O  41.88600 9.63100 46.40300
C  41.01400 7.48100 47.20100
C  40.56200 7.80500 48.61000
O  41.29100 8.25200 49.49500
O  39.21400 7.41300 48.74500
C  38.66300 7.85300 50.05200
H  41.11200 0.63000 47.84400
H  47.49000 0.75200 48.28000
H  47.35300 7.04400 47.09000
H  39.05000 4.90900 48.00900
H  39.30600 2.12800 47.34000
H  40.19800 2.70600 49.99600
H  38.72700 1.97100 49.30000
H  38.82000 3.71300 49.67700
H  38.86900 3.49700 45.45100
H  40.04700 4.72900 45.18300
H  38.12000 6.00700 46.46600
H  37.16600 4.75900 45.54200
H  41.74300 -1.24300 48.43200
H  43.00600 -2.37500 48.99000
H  42.70500 -2.12800 47.21600
H  47.68600 -1.24100 49.15100
H  48.00900 -1.22100 47.41500
H  47.90100 -2.74400 48.24700
H  49.29900 2.76400 47.32300
H  49.09400 5.35800 48.04900
H  48.48200 2.69900 50.08600
H  49.63300 3.86800 49.76900
H  50.06300 2.24400 49.20700
H  48.68000 5.51100 45.29200
H  48.87500 3.84400 45.40000
H  50.84500 5.99800 46.30400
H  51.24700 4.97600 44.93400
H  51.19400 4.40500 46.58500
H  44.92000 9.46100 45.43400
H  46.45500 9.15000 46.28000
H  45.21400 10.01400 47.12900
H  40.13300 7.37900 46.56600
H  38.57100 8.93500 50.15200
H  39.32700 7.49900 50.84000
H  37.67400 7.40500 50.14300
Mg 46.98300 45.71100 43.83200
C  43.60300 44.74700 43.48000
C  47.82700 42.45300 42.57100
C  50.07600 46.62000 43.25800
C  45.86200 48.99600 44.07000
N  45.87500 43.91700 43.10000
C  44.49700 43.73900 43.20200
C  44.07500 42.26800 42.95500
C  45.46400 41.57800 42.75500
C  46.46300 42.73500 42.75500
C  45.69800 40.43200 43.81400
C  42.98600 41.92200 41.78700
C  43.20700 42.54700 40.39600
H  43.02600 41.64400 39.17100
N  48.76200 44.61300 43.20000
C  48.88900 43.34600 42.81400
C  50.26800 43.01300 42.57800
C  51.00200 44.22200 42.70000
C  49.95800 45.20500 43.06600
C  50.78900 41.63500 42.25400
C  52.49500 44.41900 42.44500
O  53.19400 43.45000 42.14900
C  53.10300 45.81300 42.62100
N  47.78500 47.50300 43.57100
C  49.12300 47.62600 43.45100
C  49.53600 49.11200 43.50100
C  48.08700 49.81200 43.46500
C  47.18800 48.73400 43.78600
C  50.28800 49.48800 44.79800
C  47.72600 50.41700 42.04000
C  48.01500 51.97500 41.90500
N  45.12200 46.74300 43.95600
C  44.81600 48.07600 44.06400
C  43.35300 48.22600 44.14700
C  42.86300 46.92900 44.00600
C  43.92200 46.10100 43.78600
C  42.48700 49.48300 44.14700
C  41.62100 46.17000 43.92000
O  40.44000 46.57200 43.85700
C  42.02600 44.70900 43.48200
C  41.49100 43.74200 44.51800
O  40.75300 42.74400 44.38400
O  41.88600 44.15400 45.72600
C  41.29800 43.47700 46.87200
H  48.00500 41.42400 42.25200
H  51.11300 46.93500 43.38900
H  45.49300 50.02300 44.10500
H  43.72400 41.83800 43.89300
H  45.41400 41.17600 41.74300
H  46.74400 40.36200 44.11000
H  45.54500 39.49100 43.28600
H  45.17500 40.46400 44.77000
H  41.98500 42.07200 42.19000
H  43.03400 40.83400 41.74600
H  44.23100 42.91800 40.43200
H  42.54200 43.40900 40.34700
H  51.45700 41.69400 41.39500
H  49.93200 40.98500 42.07700
H  51.31600 41.19800 43.10100
H  53.16600 46.08700 43.67400
H  52.57500 46.54400 42.01000
H  54.15200 45.71200 42.34000
H  50.12000 49.49700 42.66500
H  48.08900 50.61900 44.19700
H  50.71600 48.59900 45.26000
H  49.75000 50.09300 45.52700
H  51.12000 50.11200 44.47300
H  46.63700 50.36900 42.02700
H  48.21300 49.95600 41.18100
H  47.16200 52.64800 41.82000
H  48.66300 52.01800 41.03000
H  48.74300 52.25000 42.66900
H  42.18300 49.73100 43.13000
H  43.07400 50.29800 44.57100
H  41.65600 49.33200 44.83600
H  41.57500 44.56600 42.50000
H  41.57400 42.44200 46.66900
H  40.21000 43.41900 46.86100
H  41.58000 43.89800 47.83700

