158

Mg 16.40900 51.73100 26.76900
C  18.29500 50.86200 29.54600
C  13.75500 52.50600 29.04100
C  14.46400 52.73600 24.19500
C  18.79700 50.58400 24.60400
N  16.10100 51.76000 28.99500
C  17.09400 51.42400 29.88900
C  16.50400 51.63400 31.38500
C  15.07800 52.16800 31.19700
C  14.95400 52.18400 29.66300
C  14.01300 51.20100 31.77700
C  17.43900 52.65400 32.21500
C  17.77500 52.37400 33.67000
H  16.93900 53.01700 34.80100
N  14.39300 52.53200 26.64800
C  13.55400 52.84400 27.71000
C  12.38300 53.54700 27.15100
C  12.51300 53.56400 25.71800
C  13.80100 52.91200 25.39700
C  11.41800 54.23100 28.11800
C  11.57100 54.16100 24.63000
O  11.79500 54.15500 23.45700
C  10.17800 54.64700 25.09300
N  16.63300 51.69300 24.68500
C  15.73100 52.19100 23.86900
C  16.26600 52.08400 22.35100
C  17.67500 51.61900 22.55800
C  17.73600 51.25900 24.07800
C  15.39500 51.19900 21.42600
C  18.75900 52.60500 22.14400
C  19.29700 53.61100 23.16500
N  18.20800 50.79400 26.96800
C  19.04800 50.34800 25.98300
C  20.25900 49.81300 26.63600
C  19.94900 49.93000 28.05100
C  18.64900 50.51800 28.19900
C  21.40700 49.27700 25.93500
C  20.39000 49.64300 29.45800
O  21.33200 48.92800 29.77700
C  19.37300 50.27300 30.44900
C  18.84300 49.23800 31.38500
O  18.20000 48.28400 31.03800
O  19.25700 49.54300 32.64900
C  19.10000 48.53500 33.75100
H  13.02200 52.84200 29.77800
H  13.88400 52.99500 23.30700
H  19.63900 50.36500 23.94300
H  16.41800 50.62700 31.79300
H  14.98100 53.17600 31.60000
H  13.15200 51.81300 32.04500
H  14.34500 50.69100 32.68100
H  13.70200 50.41600 31.08700
H  17.02400 53.66000 32.27500
H  18.40100 52.84300 31.74000
H  18.80600 52.72600 33.70900
H  17.82200 51.29900 33.84100
H  11.67800 55.28500 28.02800
H  11.52500 54.03900 29.18500
H  10.38600 53.95900 27.89400
H  9.65100 55.00200 24.20700
H  10.37000 55.45300 25.80200
H  9.68600 53.80200 25.57400
H  16.24200 53.06900 21.88500
H  17.88500 50.74300 21.94300
H  15.85900 50.43700 20.80000
H  14.82400 51.96000 20.89300
H  14.60000 50.71500 21.99300
H  18.47200 53.18700 21.26800
H  19.56800 51.93000 21.86500
H  20.38000 53.55400 23.26500
H  18.89500 53.58600 24.17800
H  18.95100 54.59100 22.83600
H  21.65100 49.97400 25.13300
H  21.19200 48.24500 25.65800
H  22.22500 49.27300 26.65500
H  19.77000 51.10200 31.03500
H  18.48900 48.97000 34.54100
H  20.05000 48.48600 34.28200
H  18.73700 47.56500 33.41000
Mg -10.17600 17.20400 40.66300
C  -6.60100 16.93900 40.48400
C  -9.93800 20.55200 39.91400
C  -13.45200 17.20700 40.25300
C  -10.22000 13.54000 40.30700
N  -8.47100 18.55100 40.09500
C  -7.07100 18.23100 40.23500
C  -6.35700 19.57800 39.91500
C  -7.39600 20.64300 40.24700
C  -8.73000 19.89800 40.13100
C  -7.21200 21.28400 41.67200
C  -5.93200 19.57000 38.42200
C  -4.43700 19.41200 38.26700
H  -3.89200 18.33200 37.26700
N  -11.59300 18.68300 40.08600
C  -11.26100 19.97900 39.81200
C  -12.53500 20.68400 39.38300
C  -13.63000 19.79800 39.57200
C  -12.97700 18.50600 40.01800
C  -12.56600 22.07800 38.94500
C  -15.16300 20.01800 39.36900
O  -15.57000 21.18300 39.12500
C  -16.18300 18.97300 39.58400
N  -11.58600 15.66400 40.46400
C  -12.86000 15.93200 40.41400
C  -13.72100 14.68600 40.45800
C  -12.71200 13.51800 40.16400
C  -11.40900 14.27800 40.26900
C  -14.49400 14.58300 41.77400
C  -12.94900 12.94400 38.69000
C  -12.82900 11.37300 38.58400
N  -8.69800 15.55000 40.62100
C  -8.92100 14.18600 40.42400
C  -7.64700 13.54400 40.43000
C  -6.64800 14.58300 40.48800
C  -7.38400 15.77100 40.58200
C  -7.46000 12.04600 40.15100
C  -5.24900 14.95000 40.55000
O  -4.21000 14.29700 40.72400
C  -5.19700 16.50500 40.68600
C  -4.52900 16.80000 41.96100
O  -4.78000 16.34400 43.05900
O  -3.75800 17.87600 41.72400
C  -3.45600 18.66700 42.87000
H  -9.74300 21.62600 39.88300
H  -14.53800 17.32000 40.22400
H  -10.37200 12.50300 39.99900
H  -5.51000 19.77000 40.57300
H  -7.29600 21.43100 39.50100
H  -7.47400 22.33300 41.53000
H  -6.31800 20.97100 42.21100
H  -8.03300 20.93300 42.29700
H  -6.25900 20.56000 38.10600
H  -6.52800 18.83600 37.88000
H  -4.04700 18.99200 39.19500
H  -3.90700 20.29600 37.91300
H  -11.64900 22.46300 38.49800
H  -12.81800 22.75300 39.76300
H  -13.20400 21.95300 38.07000
H  -17.14100 19.27200 39.15800
H  -16.32200 19.00800 40.66500
H  -15.90700 18.07100 39.03800
H  -14.47000 14.85800 39.68500
H  -12.77500 12.67900 40.85600
H  -14.77000 13.54900 41.98200
H  -15.45900 15.07600 41.89700
H  -13.77500 14.82000 42.55800
H  -12.32400 13.50400 37.99400
H  -13.95600 13.19700 38.35800
H  -13.75600 10.81800 38.44100
H  -12.35500 10.98000 39.48300
H  -12.07500 11.22000 37.81200
H  -6.47600 11.71000 40.47800
H  -7.53000 12.03100 39.06300
H  -8.30000 11.52200 40.60700
H  -4.49500 16.75500 39.89100
H  -2.81200 19.48100 42.53700
H  -2.91400 18.02400 43.56300
H  -4.40700 18.96100 43.31500

