158

Mg 47.37600 25.42700 28.02600
C  48.56600 27.38300 30.76600
C  45.87500 23.32000 30.28600
C  46.69100 23.38400 25.57800
C  49.29200 27.58800 25.96400
N  47.34700 25.33400 30.20500
C  47.91300 26.24200 31.14900
C  47.35700 25.82700 32.58500
C  46.73200 24.42800 32.35100
C  46.62200 24.37000 30.85500
C  47.46200 23.24900 32.83300
C  46.42200 26.94100 33.19000
C  46.91100 27.51500 34.52000
H  45.89700 27.76700 35.67700
N  46.36200 23.57400 27.93900
C  45.79000 22.88100 29.04300
C  45.20800 21.67400 28.51900
C  45.50200 21.62900 27.13300
C  46.18000 22.85400 26.81800
C  44.55500 20.59300 29.31400
C  45.06500 20.63600 26.04800
O  45.37600 20.69000 24.89400
C  44.27900 19.46300 26.52400
N  48.01700 25.41800 26.07000
C  47.41500 24.52600 25.17200
C  47.76600 24.93100 23.70300
C  48.61900 26.23400 23.94800
C  48.64300 26.45900 25.44900
C  48.46700 23.87200 22.90000
C  48.02500 27.45600 23.22100
C  48.91300 28.20700 22.35200
N  48.71000 27.20200 28.24500
C  49.45800 27.92100 27.32100
C  50.14400 29.00100 27.96100
C  49.74800 28.87200 29.32300
C  48.93400 27.74300 29.41000
C  50.99500 30.11300 27.34400
C  49.87600 29.41300 30.63400
O  50.46600 30.39700 31.11400
C  49.07700 28.45000 31.57700
C  50.17700 28.10300 32.58400
O  51.14600 27.40300 32.33300
O  49.95200 28.72300 33.81800
C  51.01400 28.55800 34.90700
H  45.43900 22.59500 30.97600
H  46.43300 22.90500 24.63100
H  49.75500 28.26200 25.24100
H  48.09800 25.60500 33.35200
H  45.73100 24.36400 32.77500
H  48.33800 23.39000 33.46600
H  48.02200 22.74900 32.04300
H  46.66200 22.66800 33.29200
H  45.43100 26.51600 33.34900
H  46.24900 27.81100 32.55600
H  47.36100 28.48900 34.32500
H  47.76400 26.99800 34.95900
H  43.64300 20.19200 28.87200
H  44.28600 20.82400 30.34500
H  45.36100 19.88100 29.49200
H  44.88000 18.81900 27.16500
H  44.33100 18.76700 25.68700
H  43.21700 19.64800 26.69100
H  46.81400 25.08400 23.19400
H  49.63600 26.03900 23.60700
H  48.03100 23.77900 21.90500
H  48.71400 22.97600 23.46900
H  49.44900 24.20300 22.56200
H  47.60700 28.19500 23.90500
H  47.12900 27.14000 22.68600
H  49.32800 29.00100 22.97400
H  48.24200 28.66100 21.62300
H  49.69200 27.56700 21.93700
H  50.52300 31.09400 27.40000
H  51.32800 29.86700 26.33600
H  51.83200 30.32500 28.00900
H  48.25100 28.97000 32.06200
H  50.63600 27.83200 35.62700
H  51.26000 29.48300 35.42900
H  51.89900 28.01700 34.57300
Mg 9.91900 48.10300 25.64500
C  7.92400 48.21800 28.56200
C  12.49300 49.47500 27.32100
C  11.73400 47.86100 22.85200
C  7.02700 47.35200 23.82800
N  10.15500 48.68000 27.70700
C  9.23800 48.65100 28.75300
C  9.92400 49.09000 29.99200
C  11.09700 49.93700 29.56400
C  11.24700 49.37300 28.04600
C  10.89500 51.47000 29.53000
C  10.31400 47.83000 30.82900
C  10.31000 47.99500 32.43700
H  10.14900 46.72100 33.25100
N  11.91600 48.51800 25.18700
C  12.84600 49.08900 26.03700
C  14.16400 49.00200 25.39700
C  13.91000 48.56600 24.01500
C  12.47600 48.27300 23.97200
C  15.41300 49.29300 26.11700
C  14.80400 48.32400 22.79900
O  14.40500 47.84300 21.77000
C  16.21400 48.65900 22.95900
N  9.42300 47.72600 23.62500
C  10.36000 47.67100 22.68200
C  9.74000 47.33600 21.31300
C  8.25400 46.90800 21.70600
C  8.24200 47.34700 23.09600
C  9.75400 48.61600 20.38700
C  7.84400 45.38000 21.56400
C  8.70600 44.37000 22.30900
N  7.86300 47.88300 26.02800
C  6.78600 47.64800 25.19000
C  5.58500 47.61800 25.96800
C  6.01600 47.73200 27.31900
C  7.37500 47.98500 27.30100
C  4.24600 47.29400 25.42600
C  5.53600 47.75200 28.65000
O  4.43000 47.54500 29.10000
C  6.79200 48.05700 29.55800
C  7.02700 46.90600 30.55400
O  7.52800 45.82200 30.31500
O  6.41600 47.25200 31.77900
C  6.39400 46.08700 32.67400
H  13.30600 50.00900 27.81600
H  12.15900 47.74800 21.85300
H  6.18700 47.11700 23.17200
H  9.22600 49.70000 30.56600
H  11.92200 49.68300 30.23100
H  9.94700 51.70700 30.01400
H  10.75400 51.83600 28.51300
H  11.72100 51.93900 30.06500
H  11.35000 47.64600 30.54600
H  9.74900 46.98200 30.44200
H  9.54900 48.67800 32.81400
H  11.29000 48.46100 32.53900
H  15.36500 48.99200 27.16300
H  15.64700 50.35600 26.05200
H  16.21000 48.69900 25.66900
H  16.73600 48.54900 22.00800
H  16.58000 47.98000 23.72900
H  16.21200 49.70300 23.27100
H  10.11600 46.47400 20.76000
H  7.53600 47.53300 21.17500
H  10.56400 48.64200 19.65800
H  9.69400 49.52700 20.98300
H  8.80500 48.52200 19.85900
H  7.79500 45.02900 20.53300
H  6.83300 45.33200 21.96700
H  9.42500 44.89000 22.94200
H  9.38800 43.80700 21.67200
H  8.17000 43.63100 22.90600
H  3.82500 46.47500 26.00800
H  4.27200 46.99200 24.37900
H  3.53200 48.08900 25.64200
H  6.64400 48.97600 30.12500
H  5.51600 45.48900 32.43200
H  6.17300 46.33900 33.71100
H  7.25900 45.42600 32.60600

