158

Mg 48.15000 15.95100 28.49100
C  46.06300 15.72800 31.32100
C  50.40800 17.61700 30.38300
C  49.71800 16.65100 25.67800
C  45.30500 15.02500 26.58400
N  48.19500 16.70600 30.55100
C  47.29200 16.39900 31.58700
C  47.85700 16.93500 32.91700
C  49.05400 17.84500 32.49300
C  49.23100 17.44600 31.06400
C  48.94100 19.37300 32.84300
C  48.25000 15.79600 33.80300
C  47.83100 15.96400 35.31600
H  47.46300 17.41200 35.80300
N  49.93400 16.87600 28.06200
C  50.79600 17.43700 29.02600
C  52.00500 17.88700 28.28100
C  51.87300 17.44900 26.92100
C  50.44900 16.97700 26.86200
C  53.13000 18.72200 28.92100
C  52.76900 17.39600 25.76200
O  52.48100 16.95100 24.69500
C  54.26200 17.68600 26.01400
N  47.61500 15.70300 26.44700
C  48.48300 16.01600 25.49100
C  47.91000 15.80000 24.08700
C  46.57200 15.10000 24.34500
C  46.48400 15.32200 25.87000
C  47.77300 17.01700 23.03700
C  46.57900 13.56700 24.00600
C  47.43400 12.61000 24.89200
N  46.12300 15.30100 28.81100
C  45.12700 14.98100 28.01100
C  43.98100 14.42900 28.76400
C  44.31700 14.68800 30.07000
C  45.59400 15.29300 30.02300
C  42.86700 13.64700 28.19500
C  43.88700 14.60800 31.43400
O  42.86600 14.11300 31.93100
C  44.94200 15.40900 32.25400
C  44.21300 16.53400 32.94700
O  43.80100 17.55400 32.45700
O  44.08000 16.26400 34.30100
C  43.18700 17.16900 35.01200
H  51.14700 18.10300 31.02400
H  50.09800 16.91300 24.68800
H  44.54800 14.68200 25.87500
H  47.00500 17.49400 33.30400
H  49.99900 17.69900 33.01600
H  49.10700 20.00600 31.97100
H  49.57200 19.59400 33.70400
H  47.90900 19.53600 33.15300
H  49.33900 15.78300 33.77600
H  47.98000 14.86600 33.30300
H  48.69600 15.61800 35.88200
H  47.04700 15.23200 35.51200
H  53.33900 19.53200 28.22200
H  53.95400 18.07000 29.21200
H  52.65000 19.04500 29.84500
H  54.68800 17.44600 26.98800
H  54.33500 18.76200 25.85400
H  54.90900 17.30500 25.22400
H  48.57300 15.10600 23.57000
H  45.74200 15.54300 23.79500
H  48.20100 17.95900 23.38100
H  46.73600 17.19600 22.75200
H  48.26700 16.66400 22.13200
H  47.01500 13.57000 23.00700
H  45.55800 13.20300 23.89100
H  47.86400 11.97700 24.11600
H  46.89200 11.92100 25.54000
H  48.32400 12.94800 25.42300
H  43.35500 12.69700 27.97800
H  42.63600 14.07300 27.21800
H  41.97900 13.44000 28.79300
H  45.48600 14.83500 33.00400
H  42.43700 17.52600 34.30700
H  43.86500 17.90400 35.44600
H  42.66500 16.64200 35.81100
Mg 0.23400 44.10600 26.62400
C  2.51400 43.96500 29.27200
C  -2.22100 43.39400 29.03100
C  -1.88500 43.47000 24.03900
C  2.78200 44.64600 24.33900
N  0.17600 43.90200 28.99000
C  1.22300 43.84700 29.84200
C  0.83600 43.78000 31.28500
C  -0.62500 43.37000 31.13700
C  -0.93800 43.63300 29.60200
C  -0.84400 41.85100 31.50500
C  1.09400 45.08900 32.09700
C  1.39300 44.82500 33.60500
H  0.98300 43.58500 34.35600
N  -1.73600 43.46200 26.55600
C  -2.56000 43.20800 27.62300
C  -3.85900 42.77300 27.17900
C  -3.80000 42.85800 25.68000
C  -2.45800 43.36800 25.35200
C  -5.06500 42.49200 28.12500
C  -4.95000 42.55000 24.67000
O  -4.74800 42.44600 23.47600
C  -6.33700 42.21100 25.15200
N  0.40100 43.93400 24.50400
C  -0.58700 43.65900 23.64700
C  -0.14300 43.80900 22.16200
C  1.32400 44.28100 22.30700
C  1.52400 44.31400 23.82600
C  -0.24500 42.44600 21.44200
C  1.74600 45.47500 21.41800
C  0.73500 46.60500 21.43600
N  2.22600 44.26100 26.75500
C  3.15300 44.48700 25.73200
C  4.47800 44.37600 26.28300
C  4.25700 44.13500 27.68300
C  2.91700 44.05600 27.91900
C  5.81500 44.44000 25.54500
C  4.89200 43.78400 28.85800
O  6.07900 43.58400 29.10500
C  3.83600 43.85100 29.99700
C  4.04200 42.70500 30.95400
O  3.69400 41.55800 30.79600
O  4.81900 43.15100 32.00700
C  4.86900 42.16800 33.10600
H  -2.98700 43.12400 29.76000
H  -2.43300 43.37100 23.09900
H  3.57200 44.72100 23.58900
H  1.36700 42.94900 31.75000
H  -1.37200 44.01600 31.59700
H  0.01000 41.18900 31.65300
H  -1.41300 41.33700 30.73000
H  -1.54800 41.74100 32.33000
H  0.20000 45.70100 31.97800
H  1.95200 45.55700 31.61500
H  1.10600 45.75500 34.09500
H  2.48100 44.79200 33.66300
H  -5.27100 43.50200 28.48000
H  -4.62000 42.08400 29.03200
H  -5.89100 41.89000 27.74600
H  -6.37300 41.29400 25.74000
H  -7.01100 42.18200 24.29600
H  -6.71900 43.03300 25.75800
H  -0.85300 44.53000 21.75800
H  1.88900 43.44600 21.89200
H  -0.36900 41.63800 22.16300
H  0.61000 42.16100 20.82800
H  -1.13600 42.53600 20.82100
H  1.89500 45.03200 20.43300
H  2.76600 45.78000 21.65300
H  0.01200 46.48400 22.24300
H  0.15300 46.60900 20.51400
H  1.27900 47.51300 21.69600
H  6.02200 43.41700 25.22900
H  6.59000 44.69100 26.26900
H  5.79200 45.03400 24.63100
H  3.96900 44.79100 30.53200
H  4.99900 41.13300 32.79000
H  3.98500 42.16600 33.74200
H  5.73800 42.52600 33.65800

