158

Mg 23.96300 -6.77000 46.29900
C  26.39700 -4.60700 45.16400
C  21.63800 -5.19400 44.36500
C  21.92000 -9.55300 46.55900
C  26.55000 -8.65600 47.90100
N  24.11600 -5.22400 44.85800
C  25.15100 -4.42700 44.58000
C  24.76800 -3.32200 43.53600
C  23.19800 -3.39600 43.59400
C  22.96500 -4.66300 44.29700
C  22.43100 -2.24500 44.27000
C  25.46500 -3.67500 42.13500
C  26.01400 -2.43300 41.34100
H  25.85400 -2.38800 39.84800
N  21.97400 -7.20200 45.72000
C  21.20600 -6.40700 44.95600
C  19.96800 -7.13400 44.69300
C  20.06600 -8.39600 45.33300
C  21.35500 -8.37600 45.96600
C  19.00000 -6.61800 43.60200
C  18.85600 -9.40200 45.37200
O  17.86300 -9.26200 44.64000
C  18.85300 -10.59900 46.24000
N  24.18100 -8.73100 47.20700
C  23.17300 -9.71100 47.15500
C  23.57200 -10.95000 47.99900
C  25.04700 -10.57500 48.53500
C  25.28500 -9.26900 47.86800
C  22.53600 -11.52700 48.99100
C  26.11500 -11.66800 48.26500
C  26.68200 -12.31800 49.50500
N  26.01200 -6.60600 46.61000
C  26.90200 -7.39900 47.30400
C  28.24500 -6.75200 47.42900
C  28.12900 -5.68000 46.49800
C  26.75800 -5.66200 46.05500
C  29.42200 -7.32700 48.17200
C  28.72200 -4.52700 45.85400
O  29.85000 -4.14300 45.81600
C  27.63500 -3.81500 44.99600
C  27.48000 -2.51700 45.67200
O  26.70800 -2.27300 46.61800
O  28.32900 -1.63200 45.14500
C  28.33600 -0.33800 45.92800
H  20.84700 -4.61800 43.88000
H  21.20700 -10.35900 46.74100
H  27.35400 -9.06900 48.51500
H  25.14600 -2.36300 43.89100
H  22.73500 -3.56000 42.62100
H  23.01500 -1.32500 44.24700
H  22.09500 -2.51500 45.27100
H  21.48200 -2.10100 43.75300
H  24.86200 -4.12600 41.34700
H  26.37400 -4.17600 42.46800
H  26.98800 -2.08500 41.68400
H  25.36400 -1.65400 41.73900
H  18.40900 -7.46700 43.25900
H  19.59200 -6.31200 42.73900
H  18.41200 -5.74300 43.88100
H  19.12700 -10.33000 47.26000
H  19.53500 -11.36200 45.86400
H  17.83800 -10.99500 46.26600
H  23.74100 -11.68600 47.21300
H  24.96400 -10.38300 49.60400
H  22.98500 -11.63700 49.97800
H  22.35000 -12.53000 48.60800
H  21.68900 -10.84000 49.00800
H  26.92800 -11.33400 47.62000
H  25.60800 -12.51300 47.79800
H  26.14700 -13.25100 49.68400
H  26.66300 -11.67800 50.38700
H  27.71900 -12.54100 49.25700
H  29.80000 -8.25500 47.74300
H  29.23100 -7.53200 49.22600
H  30.20500 -6.57700 48.06700
H  27.85900 -3.61100 43.94900
H  28.48200 -0.60800 46.97400
H  27.48100 0.28000 45.65700
H  29.20100 0.06300 45.40100
Mg 29.42600 58.22500 40.46800
C  26.42000 56.58400 39.84100
C  31.08400 55.38400 39.98500
C  32.19900 60.02100 40.68300
C  27.50900 61.17100 41.09400
N  28.79000 56.30200 39.84900
C  27.54500 55.82800 39.54300
C  27.68900 54.45900 38.92400
C  29.06100 53.99300 39.44600
C  29.73000 55.29600 39.84900
C  29.10600 52.95000 40.62500
C  27.41600 54.45200 37.38400
C  26.14800 53.74600 36.85900
H  25.62100 54.11200 35.45200
N  31.44200 57.70900 40.29300
C  31.91100 56.47600 40.10800
C  33.41700 56.53800 40.02900
C  33.73600 57.88400 40.23100
C  32.44500 58.64200 40.40000
C  34.31200 55.35500 39.57600
C  35.19000 58.40000 40.14700
O  36.11700 57.56000 40.01200
C  35.41100 59.80600 40.23500
N  29.83300 60.34300 40.72900
C  31.08100 60.79100 40.84600
C  31.09200 62.33300 41.01600
C  29.58900 62.64600 41.18800
C  28.88300 61.32100 40.97600
C  32.01600 62.83700 42.27200
C  28.92400 63.85800 40.50500
C  28.17900 64.86300 41.33900
N  27.36000 58.79400 40.70600
C  26.75000 60.00100 40.97400
C  25.26700 59.83900 41.05500
C  25.12900 58.52300 40.59800
C  26.37100 57.95500 40.35800
C  24.25600 60.85000 41.44900
C  24.14600 57.52400 40.25300
O  22.93500 57.51200 40.32600
C  24.92700 56.26300 39.72900
C  24.41000 55.14500 40.49500
O  24.56500 54.99300 41.69200
O  23.78400 54.25200 39.69600
C  23.81700 52.84700 40.06900
H  31.57700 54.44800 39.71500
H  33.00400 60.75100 40.79300
H  26.90700 62.06900 41.24700
H  27.03400 53.71800 39.38200
H  29.68600 53.70700 38.60100
H  28.37400 52.14500 40.57400
H  29.13700 53.57600 41.51700
H  30.06600 52.43500 40.57800
H  28.23700 53.87400 36.96200
H  27.38800 55.43500 36.91200
H  25.37400 53.86000 37.61700
H  26.38000 52.68100 36.84100
H  35.09300 55.67000 38.88400
H  33.67000 54.56400 39.18800
H  34.75700 54.85100 40.43400
H  34.75800 60.31300 39.52500
H  36.44800 59.92900 39.92200
H  35.33100 60.06500 41.29100
H  31.48400 62.68000 40.05900
H  29.50200 62.77300 42.26700
H  32.70400 62.00500 42.42800
H  31.44800 63.15500 43.14600
H  32.65300 63.64700 41.91800
H  28.31200 63.35800 39.75400
H  29.66700 64.40900 39.92900
H  28.34400 64.77200 42.41200
H  27.14300 64.57200 41.16300
H  28.40700 65.87600 41.00900
H  24.57300 61.47200 42.28600
H  23.22100 60.51100 41.49700
H  24.36900 61.65100 40.71900
H  24.58200 56.06600 38.71400
H  24.46500 52.70600 40.93400
H  24.15500 52.17400 39.28100
H  22.82100 52.63400 40.45600

