158

Mg 47.63400 25.16000 28.08000
C  48.17200 27.43500 30.69600
C  46.53900 22.86600 30.46900
C  47.46400 22.93800 25.60700
C  48.88700 27.47700 25.86700
N  47.39100 25.16300 30.27600
C  47.64400 26.26400 31.17400
C  47.32700 25.93500 32.65600
C  46.93900 24.41900 32.49000
C  46.90200 24.12800 30.98900
C  47.92000 23.44100 33.20900
C  46.24100 26.88900 33.18200
C  46.35900 27.32600 34.63100
H  45.11300 27.27700 35.59000
N  47.03800 23.12100 28.00500
C  46.64000 22.37500 29.10500
C  46.07200 21.16100 28.55100
C  46.45800 21.13000 27.13200
C  46.98100 22.41000 26.80800
C  45.38700 20.01400 29.33200
C  46.25000 19.98700 26.16400
O  46.75100 20.01300 25.07200
C  45.37700 18.84200 26.40000
N  48.19000 25.19400 26.08400
C  47.98500 24.15400 25.21000
C  48.32100 24.48700 23.77800
C  48.52100 25.96700 23.85700
C  48.48400 26.21500 25.35200
C  49.39200 23.65300 23.15300
C  47.48900 26.81500 23.10800
C  46.44400 27.64300 23.87400
N  48.25500 27.16100 28.22000
C  48.80700 27.96100 27.20100
C  49.23900 29.23900 27.76900
C  49.01300 29.08000 29.18500
C  48.50800 27.74600 29.38200
C  50.04100 30.32300 27.06600
C  49.14100 29.73400 30.42100
O  49.55700 30.87000 30.68100
C  48.46300 28.75500 31.46100
C  49.38500 28.69500 32.63000
O  50.39800 27.97800 32.79700
O  49.08000 29.70500 33.44300
C  49.84900 29.69600 34.72600
H  46.14900 22.16500 31.20900
H  47.42800 22.23700 24.77000
H  49.20600 28.20200 25.11500
H  48.21300 26.10700 33.26800
H  45.92900 24.26100 32.86600
H  48.31700 22.63100 32.59800
H  47.20900 23.04000 33.93100
H  48.63900 24.07800 33.72500
H  45.29400 26.40700 32.93600
H  46.15600 27.71300 32.47400
H  46.61600 28.38500 34.62800
H  47.09100 26.71400 35.15800
H  45.94500 19.07700 29.31500
H  44.39300 19.85000 28.91500
H  45.20700 20.33200 30.35800
H  45.96300 18.30300 27.14400
H  45.27700 18.22300 25.50900
H  44.42900 19.20900 26.79300
H  47.41500 24.18600 23.25100
H  49.42900 26.26600 23.33300
H  48.87500 23.16300 22.32800
H  49.65900 22.89500 23.89000
H  50.19700 24.23400 22.70400
H  46.96400 26.20200 22.37700
H  47.95000 27.48200 22.37900
H  46.49200 27.55700 24.96000
H  45.48200 27.34500 23.45800
H  46.60200 28.71200 23.73400
H  50.34000 29.89600 26.10800
H  50.80800 30.34800 27.84000
H  49.52900 31.28600 27.06700
H  47.55900 29.24300 31.82800
H  49.68900 30.51400 35.42800
H  50.92400 29.55900 34.61400
H  49.50500 28.76000 35.16600
Mg -12.75600 16.97500 41.58100
C  -9.92100 15.08900 40.86500
C  -11.44600 19.63600 39.71600
C  -15.86700 18.35200 41.47600
C  -14.34800 13.92500 42.77000
N  -10.88200 17.32800 40.39100
C  -9.90400 16.36400 40.24800
C  -8.68800 17.02000 39.54200
C  -9.05400 18.48200 39.41300
C  -10.52300 18.52800 39.89100
C  -8.12300 19.43600 40.13700
C  -8.38800 16.29000 38.25000
C  -6.90100 15.83600 38.16600
H  -6.18300 16.52600 37.07900
N  -13.45900 18.69200 40.84800
C  -12.72500 19.72400 40.16700
C  -13.70100 20.79600 39.85700
C  -14.90400 20.52400 40.50000
C  -14.76800 19.11800 40.93300
C  -13.30500 22.02100 39.11700
C  -16.06700 21.51000 40.66700
O  -16.12600 22.56300 40.01600
C  -17.14300 21.30900 41.66000
N  -14.84100 16.17900 41.93300
C  -15.90600 17.02600 41.98100
C  -17.20600 16.36900 42.45300
C  -16.67300 14.94200 42.95100
C  -15.22400 14.97600 42.55100
C  -18.04000 17.10300 43.53800
C  -17.36900 13.69200 42.43700
C  -18.23400 12.83400 43.38600
N  -12.25300 15.00400 41.98300
C  -12.98000 13.92700 42.42800
C  -12.04900 12.79400 42.47400
C  -10.84000 13.19500 41.81800
C  -11.03500 14.55200 41.51900
C  -12.35200 11.42900 43.13500
C  -9.54800 12.69000 41.47100
O  -8.95900 11.61600 41.57900
C  -8.92100 13.90600 40.80400
C  -7.65900 14.11500 41.57400
O  -7.52900 14.64100 42.65600
O  -6.65400 13.69000 40.81100
C  -5.34900 13.94700 41.50700
H  -10.96200 20.39600 39.09900
H  -16.86600 18.79000 41.52500
H  -14.82400 13.03200 43.18200
H  -7.96800 16.94700 40.35700
H  -9.11600 18.76900 38.36300
H  -7.07600 19.35600 39.84300
H  -8.30700 19.30100 41.20300
H  -8.41700 20.44200 39.83900
H  -8.56600 16.87800 37.35000
H  -9.09500 15.47100 38.12300
H  -6.93700 14.75900 38.00500
H  -6.37800 16.07900 39.09200
H  -14.10600 22.26000 38.41800
H  -12.50200 21.96500 38.38200
H  -13.10300 22.80200 39.85000
H  -17.62300 22.20100 42.06300
H  -16.81100 20.86200 42.59700
H  -17.87300 20.77200 41.05500
H  -17.82500 16.17200 41.57700
H  -16.75000 14.88800 44.03700
H  -17.96500 16.65700 44.53000
H  -19.12100 17.13000 43.40300
H  -17.56000 18.08100 43.58300
H  -16.68200 13.00500 41.94200
H  -18.01100 13.96300 41.59800
H  -19.27500 12.70200 43.09100
H  -18.29900 13.20800 44.40800
H  -17.71100 11.88400 43.48800
H  -11.37300 11.00200 43.35300
H  -12.96700 10.87200 42.42900
H  -12.90400 11.43600 44.07500
H  -8.61600 13.62200 39.79700
H  -5.12600 13.24000 42.30600
H  -5.36800 14.89400 42.04700
H  -4.55200 13.92300 40.76300

