158

Mg 46.43100 44.52900 43.32900
C  42.99100 43.66900 42.98200
C  47.26900 41.40900 42.23800
C  49.54100 45.55500 42.88400
C  45.38300 47.94500 43.87200
N  45.20600 42.76400 43.00600
C  43.88000 42.68100 42.80700
C  43.52600 41.27700 42.26600
C  44.87700 40.50400 42.36400
C  45.89200 41.56700 42.56400
C  44.95900 39.34800 43.34100
C  42.79700 41.28000 40.96300
C  43.38800 42.10800 39.77600
H  43.20500 41.39200 38.39000
N  48.13200 43.54900 42.72300
C  48.30600 42.28500 42.30000
C  49.67800 42.03000 42.06900
C  50.38700 43.24900 42.24600
C  49.38600 44.21900 42.63000
C  50.24800 40.65600 41.77500
C  51.95900 43.41800 42.05600
O  52.66800 42.51400 41.70100
C  52.59800 44.75900 42.24600
N  47.28000 46.51800 43.11200
C  48.68100 46.57700 43.12400
C  49.09400 47.98900 43.65700
C  47.72500 48.79300 43.84600
C  46.71300 47.71900 43.65200
C  50.06500 48.18100 44.79400
C  47.49300 49.87400 42.79400
C  47.47300 51.34800 43.34400
N  44.55100 45.58100 43.53200
C  44.34200 46.95200 43.69300
C  42.91100 47.17000 43.86400
C  42.28400 45.93600 43.54400
C  43.36100 44.99600 43.36600
C  42.20600 48.48100 43.98500
C  41.01400 45.29300 43.21900
O  39.89600 45.80500 43.18200
C  41.49800 43.81200 42.88500
C  40.83400 42.95600 43.98200
O  39.99300 42.10800 43.67900
O  41.53100 42.97100 45.21700
C  41.32100 41.91600 46.23400
H  47.52600 40.40900 41.88300
H  50.56900 45.85400 43.10000
H  45.15300 48.98300 44.12000
H  42.95900 40.71800 43.01100
H  45.06300 39.99000 41.42100
H  44.13200 39.38000 44.05100
H  45.85800 39.43000 43.95200
H  44.94900 38.35200 42.89800
H  41.77000 41.57900 41.17500
H  42.77400 40.20900 40.76100
H  44.47000 42.21300 39.85000
H  42.91800 43.09100 39.76500
H  49.44700 39.98200 42.08100
H  51.28600 40.53600 42.08500
H  50.13600 40.57000 40.69400
H  52.08300 45.51400 41.65200
H  53.64300 44.81200 41.94000
H  52.57400 45.05600 43.29500
H  49.60900 48.39300 42.78500
H  47.70800 49.22400 44.84700
H  50.49000 47.22900 45.11200
H  49.58100 48.59900 45.67700
H  50.87700 48.87800 44.58700
H  46.49300 49.71600 42.39000
H  48.31300 49.74800 42.08700
H  48.30200 51.68500 43.96700
H  46.44200 51.49800 43.66400
H  47.62500 51.96500 42.45900
H  41.65900 48.34300 44.91700
H  41.34300 48.50100 43.32000
H  42.86400 49.34800 43.92100
H  41.09700 43.64600 41.88500
H  40.37400 41.95400 46.77300
H  42.18500 41.96600 46.89700
H  41.37800 41.06100 45.56100
Mg -8.19600 39.52200 42.69900
C  -7.02600 36.38800 41.78400
C  -5.52100 41.00000 41.22100
C  -9.63300 42.40400 43.32500
C  -11.25900 37.98200 43.59700
N  -6.54400 38.81000 41.54000
C  -6.19500 37.48100 41.39300
C  -4.98800 37.37800 40.54600
C  -4.37500 38.84200 40.72800
C  -5.53700 39.64800 41.24700
C  -3.09600 38.96200 41.58900
C  -5.32300 37.01800 39.01300
C  -4.59000 35.72100 38.55800
H  -3.76100 35.75600 37.33000
N  -7.58600 41.52200 42.38900
C  -6.50400 41.92500 41.72800
C  -6.38400 43.35500 41.79200
C  -7.58500 43.82200 42.41000
C  -8.37800 42.64000 42.83300
C  -5.16000 44.12600 41.15800
C  -7.88400 45.28200 42.57500
O  -7.13500 46.12500 42.18600
C  -9.03300 45.72700 43.44700
N  -10.36900 40.17300 43.08500
C  -10.54000 41.41900 43.45800
C  -11.94900 41.66500 43.94100
C  -12.47100 40.18000 43.96200
C  -11.27200 39.33900 43.54900
C  -12.19000 42.42400 45.26500
C  -13.72300 39.97600 43.10500
C  -15.07500 40.43000 43.47400
N  -9.02500 37.54900 42.68000
C  -10.27100 37.11000 43.12800
C  -10.31400 35.64000 43.10100
C  -9.01900 35.33400 42.57000
C  -8.31800 36.54700 42.30900
C  -11.52500 34.78200 43.50100
C  -8.02900 34.27300 42.26000
O  -8.17300 33.10200 42.37300
C  -6.73800 34.90200 41.74700
C  -5.70800 34.57200 42.72300
O  -5.28100 35.33600 43.63000
O  -5.16300 33.29500 42.50100
C  -4.09600 32.84100 43.33900
H  -4.64000 41.45000 40.75800
H  -10.10800 43.37200 43.49700
H  -12.14700 37.54800 44.06300
H  -4.35100 36.61700 40.99600
H  -4.07400 39.27900 39.77600
H  -2.93500 38.00200 42.08100
H  -3.28600 39.69800 42.37000
H  -2.28000 39.28100 40.94100
H  -4.94300 37.82900 38.39100
H  -6.40600 37.08700 38.91000
H  -5.34900 34.98500 38.29400
H  -3.98000 35.32300 39.36900
H  -5.21100 45.21300 41.09900
H  -5.04200 43.79900 40.12500
H  -4.23400 43.88500 41.68000
H  -9.14400 46.81100 43.42900
H  -9.05600 45.35100 44.47000
H  -9.87200 45.36800 42.85100
H  -12.48800 42.26000 43.20400
H  -12.79400 39.88300 44.95900
H  -12.87200 43.26500 45.14600
H  -11.29100 42.80800 45.74800
H  -12.64100 41.69200 45.93400
H  -13.76900 38.89200 43.00400
H  -13.58000 40.38800 42.10600
H  -15.46800 41.06600 42.68200
H  -15.03500 41.03600 44.38000
H  -15.70100 39.54500 43.59000
H  -11.18500 33.75600 43.64400
H  -12.35300 34.90900 42.80300
H  -11.81100 35.21500 44.45900
H  -6.43600 34.50700 40.77700
H  -4.43100 32.99900 44.36500
H  -3.29000 33.56000 43.19300
H  -3.74500 31.83100 43.12900

