158

Mg 0.06800 8.14200 26.77400
C  0.97900 10.23300 29.41000
C  -0.52300 5.69400 29.00600
C  -0.38900 6.15500 24.21600
C  0.65500 10.87700 24.61400
N  0.37000 7.93400 28.98700
C  0.61600 8.96900 29.86100
C  0.30600 8.59800 31.38100
C  0.16000 6.99600 31.17300
C  -0.16800 6.90400 29.64200
C  1.41200 6.25200 31.61700
C  -0.96900 9.28200 32.06900
C  -0.98700 9.56100 33.54700
H  0.17300 9.06000 34.37500
N  -0.22500 6.17300 26.58400
C  -0.48400 5.33800 27.59800
C  -0.91900 3.98600 27.07600
C  -0.94400 4.12700 25.65700
C  -0.53200 5.51100 25.43800
C  -1.40300 2.83400 27.90100
C  -1.26000 3.06700 24.62100
O  -1.17400 3.37000 23.41400
C  -1.55700 1.59800 25.04200
N  0.25400 8.43400 24.69000
C  -0.00100 7.41500 23.81500
C  -0.05200 7.92300 22.34600
C  -0.08100 9.47000 22.59700
C  0.40800 9.59500 24.04700
C  1.10300 7.44100 21.41900
C  -1.45900 10.11700 22.34400
C  -1.44500 11.20700 21.27900
N  0.86000 10.13500 26.88900
C  0.98600 11.12100 25.94000
C  1.48500 12.35500 26.52200
C  1.53900 12.08100 27.86100
C  1.09000 10.71300 28.08400
C  1.65500 13.67700 25.87100
C  1.77500 12.61400 29.19400
O  2.03100 13.69600 29.63600
C  1.37200 11.44900 30.21400
C  2.49600 11.16500 31.15000
O  3.49000 10.46400 30.86400
O  2.45300 12.03500 32.19700
C  3.65200 12.08500 33.06500
H  -0.75500 4.90500 29.72400
H  -0.68600 5.56200 23.34800
H  0.54900 11.72800 23.93700
H  1.20600 8.94700 31.88800
H  -0.58200 6.55700 31.83900
H  2.04500 6.83600 32.28500
H  1.97200 6.02000 30.71100
H  1.15500 5.36600 32.19600
H  -1.83600 8.64700 31.88900
H  -1.19200 10.11400 31.40100
H  -1.92700 9.19800 33.96300
H  -0.88100 10.62500 33.75900
H  -0.80100 2.01700 27.50300
H  -2.45400 2.62700 27.70000
H  -1.16800 3.02500 28.94800
H  -1.92700 1.00000 24.20900
H  -2.32800 1.64600 25.81200
H  -0.71500 1.04000 25.45300
H  -1.04300 7.51500 22.14800
H  0.66400 9.95500 21.96600
H  0.67400 6.63900 20.81800
H  1.85100 7.12800 22.14800
H  1.45300 8.15900 20.67800
H  -1.85300 10.64100 23.21500
H  -2.14800 9.34900 21.99200
H  -1.98000 10.78100 20.43100
H  -0.42600 11.42000 20.95300
H  -1.93100 12.12400 21.61200
H  0.83100 14.33300 26.15000
H  1.80800 13.64300 24.79200
H  2.59000 14.02200 26.31200
H  0.59800 11.78700 30.90300
H  4.40500 12.32200 32.31300
H  3.94900 11.12000 33.47600
H  3.65000 12.79800 33.89000
Mg 1.59800 42.49600 25.78000
C  3.00500 42.64900 29.05700
C  -1.19800 41.19100 27.12600
C  0.54700 41.92200 22.65200
C  4.74600 43.43100 24.58800
N  1.02200 42.09200 27.82000
C  1.69700 42.34100 29.01000
C  0.79100 42.09700 30.18800
C  -0.52200 41.57500 29.51600
C  -0.22100 41.51100 28.02900
C  -1.01200 40.15100 30.02800
C  0.61100 43.43700 30.96400
C  0.93600 43.48400 32.45900
H  0.02200 42.74400 33.43300
N  -0.09900 41.58200 25.02100
C  -1.13200 41.15000 25.70500
C  -2.16800 40.75300 24.82700
C  -1.79000 40.99400 23.49300
C  -0.40100 41.48100 23.67100
C  -3.41800 40.15600 25.28700
C  -2.45000 40.79100 22.11900
O  -1.95200 40.95400 21.01600
C  -3.89300 40.24400 22.06100
N  2.51000 42.59000 23.87500
C  1.79300 42.46300 22.72600
C  2.58700 42.80100 21.47600
C  3.79600 43.54300 22.12600
C  3.71700 43.13600 23.61200
C  2.99500 41.55200 20.67700
C  3.84700 45.05300 21.79400
C  4.29500 45.42900 20.28100
N  3.53500 42.92700 26.60200
C  4.65800 43.32200 25.94200
C  5.68300 43.58000 26.95000
C  5.07200 43.39700 28.17400
C  3.78700 42.95700 27.92600
C  7.16100 44.02200 26.71400
C  5.24600 43.37100 29.56100
O  6.27900 43.52800 30.19400
C  3.90300 42.97900 30.23200
C  4.06400 41.76500 31.12400
O  4.18600 40.61400 30.69200
O  4.13300 42.09800 32.39300
C  4.29400 41.11300 33.40600
H  -2.13300 40.90800 27.61300
H  0.19800 41.76100 21.62900
H  5.61300 43.86200 24.08300
H  1.18500 41.24600 30.74500
H  -1.40100 42.21100 29.61200
H  -0.70500 39.92700 31.05000
H  -0.62100 39.36100 29.38700
H  -2.09600 40.15400 30.14100
H  -0.44800 43.67600 30.85800
H  1.00000 44.26600 30.37300
H  0.92200 44.53800 32.73900
H  1.96000 43.12200 32.54500
H  -3.40800 39.06900 25.20600
H  -4.24100 40.60900 24.73500
H  -3.58500 40.42500 26.33000
H  -4.45300 40.94700 22.67700
H  -3.87400 39.28800 22.58400
H  -4.25800 40.12300 21.04100
H  2.05700 43.49200 20.82100
H  4.67500 43.15600 21.61100
H  2.70500 40.65900 21.23200
H  4.08000 41.45400 20.65400
H  2.45700 41.54400 19.72900
H  4.60600 45.54600 22.40100
H  2.84100 45.38900 22.04600
H  3.52700 45.93600 19.69600
H  4.63900 44.51100 19.80500
H  5.10000 46.15300 20.40800
H  7.64500 43.92400 25.74300
H  7.80900 43.50800 27.42400
H  7.15900 45.06800 27.02400
H  3.51500 43.85100 30.75900
H  5.28000 41.24600 33.85000
H  4.11200 40.07800 33.11700
H  3.51400 41.30500 34.14300

