158

Mg 47.58800 25.23200 29.67600
C  48.18400 27.68800 32.07000
C  46.14900 23.22200 31.97300
C  46.95800 23.03900 27.20800
C  49.32100 27.24600 27.36000
N  47.24600 25.48200 31.80500
C  47.49900 26.55600 32.57300
C  47.01500 26.31700 34.03500
C  46.65800 24.79300 33.96600
C  46.67100 24.45900 32.49000
C  47.51700 23.87400 34.86200
C  45.80700 27.26700 34.34600
C  45.03700 27.05800 35.63100
H  45.74000 26.96900 37.02100
N  46.70100 23.44500 29.62600
C  46.23400 22.70500 30.64900
C  45.67800 21.43100 30.20500
C  45.91800 21.36800 28.78800
C  46.52400 22.66200 28.47100
C  45.08700 20.46800 31.10500
C  45.56800 20.26700 27.86500
O  45.85200 20.23100 26.67700
C  44.74800 19.16900 28.29100
N  48.13600 25.08000 27.54900
C  47.58900 24.16900 26.75100
C  47.99500 24.40000 25.28000
C  48.62300 25.85600 25.36600
C  48.66600 26.14900 26.86700
C  49.06300 23.35100 24.82000
C  47.77100 26.88500 24.49400
C  48.57400 27.71800 23.54000
N  48.45200 27.11600 29.62400
C  49.21400 27.76500 28.63300
C  49.66500 29.04200 29.10200
C  49.30600 29.04000 30.52000
C  48.61200 27.84500 30.72000
C  50.46900 30.08600 28.30100
C  49.29000 29.79600 31.75300
O  49.70500 30.94000 31.93800
C  48.54900 28.99400 32.83600
C  49.38400 28.71400 34.05200
O  50.46000 28.21000 34.02500
O  48.84000 29.43300 35.03500
C  49.67000 29.68000 36.26600
H  45.80900 22.66800 32.85100
H  46.72200 22.30500 26.43500
H  49.80600 27.90800 26.64000
H  47.86600 26.43800 34.70500
H  45.65200 24.66300 34.36400
H  47.91400 24.42200 35.71700
H  48.20500 23.29000 34.25100
H  46.84900 23.12200 35.28200
H  45.13900 27.11000 33.49900
H  46.07700 28.31400 34.21300
H  44.50800 26.12300 35.44600
H  44.21600 27.75700 35.79200
H  44.02400 20.25300 31.00400
H  45.20800 20.71000 32.16000
H  45.60500 19.51200 31.03000
H  45.27500 18.41000 28.87000
H  44.30500 18.66100 27.43400
H  43.95800 19.62300 28.88900
H  47.11200 24.51000 24.64900
H  49.66200 25.83600 25.03700
H  50.00700 23.65700 25.27200
H  49.17000 23.27900 23.73800
H  48.86200 22.32100 25.11400
H  47.28800 27.49000 25.26200
H  46.98100 26.31500 24.00600
H  48.06000 27.79600 22.58200
H  49.61200 27.39300 23.47500
H  48.71500 28.68600 24.02200
H  51.30100 29.67300 27.73100
H  50.80700 30.82100 29.03200
H  49.76300 30.50300 27.58300
H  47.71700 29.61000 33.17700
H  50.73600 29.46500 36.19800
H  49.26100 29.22500 37.16900
H  49.59500 30.76400 36.34900
Mg 17.61800 51.64100 25.90900
C  19.29100 50.49900 28.93200
C  15.15600 52.93800 27.90000
C  15.94500 52.70000 23.11500
C  19.80300 49.78300 24.12500
N  17.27800 51.60300 28.30600
C  18.09000 51.15500 29.28000
C  17.61500 51.60700 30.65100
C  16.12100 52.11600 30.26200
C  16.13300 52.24000 28.74100
C  14.84500 51.37800 30.75500
C  18.52500 52.67200 31.31500
C  18.80800 52.47000 32.86600
H  17.79700 51.69700 33.64800
N  15.79500 52.68800 25.58200
C  14.94000 53.14200 26.53300
C  13.87600 53.87700 25.95500
C  14.07800 53.85300 24.53500
C  15.31500 53.05300 24.34500
C  12.68200 54.45900 26.68300
C  13.20400 54.28100 23.37000
O  13.41900 53.88200 22.20200
C  11.90900 55.12900 23.56600
N  17.73400 51.12300 23.90900
C  17.02400 51.79300 22.95200
C  17.50500 51.41300 21.51800
C  18.83400 50.63100 21.87000
C  18.80500 50.46300 23.40400
C  16.37700 50.80000 20.67200
C  20.17800 51.36400 21.40200
C  20.26100 52.86600 21.77500
N  19.32900 50.51200 26.35300
C  20.09700 49.81200 25.49300
C  21.26600 49.26300 26.17500
C  20.96700 49.50600 27.55400
C  19.74200 50.19500 27.61200
C  22.47800 48.55800 25.55500
C  21.44300 49.28800 28.89700
O  22.45400 48.74200 29.31700
C  20.44900 49.95900 29.88800
C  20.11600 48.90800 30.91500
O  19.32100 47.98200 30.77300
O  20.87900 49.08200 32.06600
C  20.71300 48.03400 33.16200
H  14.41300 53.39800 28.55500
H  15.57100 53.04200 22.14800
H  20.60600 49.32000 23.54800
H  17.67200 50.70800 31.26600
H  16.04500 53.11700 30.68600
H  15.10500 50.43900 31.24300
H  14.24100 51.14300 29.87800
H  14.34500 52.08000 31.42300
H  18.10600 53.65700 31.10800
H  19.50500 52.63500 30.83900
H  18.90600 53.47000 33.28900
H  19.83100 52.14200 33.05300
H  12.62200 55.54200 26.57700
H  12.68100 54.17600 27.73600
H  11.83200 53.93900 26.24200
H  11.98200 55.79300 24.42600
H  10.98800 54.54600 23.53800
H  11.87000 55.88300 22.78000
H  17.74600 52.27600 20.89600
H  18.95200 49.63600 21.44000
H  15.54600 51.49300 20.53600
H  15.97400 49.87000 21.07200
H  16.72000 50.73400 19.63900
H  20.26300 51.24800 20.32200
H  21.06000 50.86400 21.80400
H  20.68700 53.23200 20.84100
H  20.97600 53.15900 22.54400
H  19.35700 53.44000 21.98300
H  22.74600 49.12900 24.66600
H  22.15200 47.54900 25.30300
H  23.30500 48.50800 26.26200
H  21.06400 50.79100 30.23100
H  20.30900 48.49200 34.06400
H  21.69600 47.64500 33.42700
H  20.03600 47.23700 32.85300

