158

Mg 25.75000 0.43700 29.15800
C  27.64000 -0.17200 32.04800
C  23.04400 1.11600 31.19500
C  24.03800 0.83200 26.39900
C  28.41500 -0.90100 27.25000
N  25.46600 0.74900 31.39300
C  26.39500 0.48600 32.36200
C  25.77200 0.54500 33.80100
C  24.25800 0.66600 33.45900
C  24.22100 0.98000 31.91000
C  23.38100 -0.51200 33.92500
C  26.32500 1.59500 34.79700
C  26.87100 1.00300 36.11100
H  26.74000 1.91400 37.30500
N  23.80700 0.91900 28.82100
C  22.81800 1.10000 29.81600
C  21.52500 1.23200 29.07700
C  21.81000 1.30000 27.65500
C  23.27800 1.06100 27.53900
C  20.21200 1.27300 29.75900
C  20.88900 1.41000 26.39700
O  21.24400 1.18800 25.21900
C  19.46300 1.79700 26.58400
N  26.22400 0.08900 27.12800
C  25.36400 0.38400 26.16000
C  26.01900 0.52300 24.78800
C  27.34800 -0.33600 24.93300
C  27.41700 -0.31200 26.55100
C  25.10500 0.03000 23.66500
C  28.54900 0.31500 24.27500
C  29.40300 1.47200 24.95200
N  27.64900 -0.19300 29.49500
C  28.61900 -0.78400 28.64900
C  29.69500 -1.29100 29.40100
C  29.33700 -1.01200 30.69700
C  28.09800 -0.43800 30.73700
C  30.95000 -1.99700 28.78500
C  29.86700 -1.12600 32.02700
O  30.97300 -1.63600 32.37000
C  28.75000 -0.62600 32.98700
C  28.43000 -1.65100 33.98600
O  27.54100 -2.41700 33.87700
O  29.26200 -1.61400 35.05100
C  29.01900 -2.45700 36.17500
H  22.12100 1.30300 31.74800
H  23.61500 0.99400 25.40500
H  29.27200 -1.22600 26.65600
H  25.95200 -0.44400 34.22300
H  23.81200 1.54800 33.91900
H  23.32600 -1.26200 33.13700
H  22.40700 -0.11500 34.21000
H  23.73400 -1.11900 34.75900
H  25.70900 2.45600 35.05500
H  27.18000 1.98400 34.24500
H  27.86700 0.62100 35.88600
H  26.37400 0.08200 36.41800
H  19.51200 0.48400 29.48500
H  19.75800 2.18700 29.37600
H  20.23400 1.17000 30.84400
H  18.86200 2.04500 25.70900
H  19.23800 2.63200 27.24700
H  18.95300 0.91300 26.96800
H  26.36700 1.54600 24.63800
H  27.17800 -1.37900 24.66700
H  24.33900 -0.61300 24.09800
H  25.66300 -0.39600 22.83100
H  24.40300 0.76400 23.27100
H  28.25400 0.62900 23.27300
H  29.23400 -0.52200 24.13200
H  28.94600 1.90700 25.84100
H  29.44500 2.27100 24.21200
H  30.43900 1.16000 25.09000
H  31.56700 -1.26400 28.26700
H  30.52000 -2.61200 27.99400
H  31.52000 -2.57400 29.51300
H  29.20600 0.19900 33.53400
H  28.88500 -3.44900 35.74500
H  28.09100 -2.15600 36.66200
H  29.85600 -2.51300 36.87100
Mg -10.09600 17.35300 42.49600
C  -6.71100 16.31100 42.18300
C  -9.08400 20.60900 41.85000
C  -13.33200 18.06600 42.21300
C  -10.92400 13.90500 42.60900
N  -8.07900 18.31700 42.03200
C  -6.83500 17.66700 41.97200
C  -5.67900 18.74100 41.73400
C  -6.54600 20.10900 41.90900
C  -7.96800 19.74200 41.95900
C  -6.17600 21.09000 43.09300
C  -4.86400 18.62200 40.39800
C  -5.60200 17.84900 39.26000
H  -5.05800 18.06500 37.82200
N  -11.08000 19.09400 42.11400
C  -10.47200 20.33600 41.83500
C  -11.42600 21.34600 41.64600
C  -12.69100 20.69000 41.91900
C  -12.44200 19.20000 42.11800
C  -11.10400 22.80500 41.27600
C  -14.05600 21.43700 41.97400
O  -14.08700 22.66300 41.81900
C  -15.34900 20.70700 42.21400
N  -11.87900 16.20200 42.35400
C  -13.10500 16.74600 42.28500
C  -14.23100 15.70500 42.30300
C  -13.47600 14.38300 42.58800
C  -12.02000 14.85200 42.41300
C  -15.37700 16.06500 43.35800
C  -13.94400 13.13500 41.83300
C  -15.19900 12.36300 42.32400
N  -9.09900 15.50900 42.49800
C  -9.62000 14.23900 42.63200
C  -8.53700 13.28200 42.81900
C  -7.39700 14.05100 42.59200
C  -7.79400 15.36900 42.40900
C  -8.70600 11.76400 42.89600
C  -5.97600 13.96400 42.49300
O  -5.27100 12.96900 42.46200
C  -5.46400 15.42200 42.28900
C  -4.44800 15.92100 43.35300
O  -3.31000 16.31200 43.06800
O  -4.99000 15.95200 44.63100
C  -4.38100 16.96300 45.52800
H  -8.87500 21.67000 41.69500
H  -14.37600 18.38100 42.25800
H  -11.14400 12.84400 42.74100
H  -5.01700 18.60500 42.58900
H  -6.50300 20.64500 40.96100
H  -7.02500 21.19300 43.76900
H  -6.01000 22.02900 42.56500
H  -5.33300 20.69600 43.66100
H  -3.93600 18.12800 40.68600
H  -4.68200 19.59200 39.93700
H  -6.61000 18.25800 39.32200
H  -5.61000 16.79100 39.52200
H  -10.34400 22.90500 40.50200
H  -10.68000 23.32600 42.13400
H  -11.96400 23.40200 40.97300
H  -15.49900 19.89000 41.50800
H  -16.23100 21.31800 42.02300
H  -15.53700 20.36200 43.23100
H  -14.69900 15.72200 41.31900
H  -13.51700 14.15100 43.65200
H  -15.03400 16.95700 43.88300
H  -15.41700 15.25400 44.08400
H  -16.32900 16.24800 42.86000
H  -13.11700 12.45400 41.63300
H  -14.15800 13.58300 40.86200
H  -16.07600 12.33800 41.67800
H  -15.64900 12.75600 43.23600
H  -14.88500 11.33600 42.51100
H  -7.81000 11.16800 43.06900
H  -9.12600 11.55700 41.91200
H  -9.37200 11.49900 43.71700
H  -4.89700 15.35000 41.36200
H  -4.00700 16.33700 46.33900
H  -5.14100 17.65500 45.89000
H  -3.60600 17.51700 44.99800

