158

Mg 34.95400 4.08400 30.17800
C  32.39600 4.98100 32.75100
C  37.14200 4.04900 32.86800
C  37.23300 3.07500 28.07700
C  32.48600 4.15300 27.78300
N  34.71300 4.42600 32.54600
C  33.63700 4.76900 33.32400
C  33.96600 4.97000 34.76900
C  35.57000 4.86500 34.78400
C  35.82300 4.37800 33.31100
C  36.42400 6.08300 35.31400
C  33.19100 3.95300 35.64300
C  33.38100 3.98300 37.19700
H  34.05100 5.23100 37.82400
N  36.87900 3.73600 30.35000
C  37.68100 3.85400 31.50700
C  39.02600 3.49600 31.23900
C  39.10700 3.22800 29.87100
C  37.69900 3.34000 29.36500
C  40.09700 3.51800 32.29400
C  40.27500 2.81400 29.03100
O  40.18700 2.58200 27.77100
C  41.57100 2.48200 29.70600
N  34.92000 3.65200 28.14600
C  35.97500 3.25200 27.42600
C  35.64800 2.94600 25.94000
C  34.15800 3.40200 25.92500
C  33.80600 3.72600 27.38000
C  36.60100 3.63400 24.94800
C  33.08400 2.48100 25.22700
C  32.88800 1.18700 25.91200
N  32.93400 4.47700 30.24000
C  32.11900 4.51200 29.04300
C  30.74800 4.95800 29.53400
C  30.82900 5.12500 30.91700
C  32.16100 4.84800 31.34800
C  29.52000 5.06600 28.66300
C  30.04200 5.39800 32.09400
O  28.84600 5.75400 32.20800
C  31.09200 5.44000 33.30300
C  31.05500 6.77500 33.91300
O  31.61300 7.75300 33.51100
O  30.49300 6.69900 35.18600
C  30.76200 7.76000 36.17900
H  37.80100 4.02600 33.73800
H  37.97200 2.71600 27.35700
H  31.74000 4.20800 26.98800
H  33.52100 5.93600 35.00900
H  35.81200 3.98500 35.38000
H  37.23300 5.63600 35.89200
H  35.89000 6.75300 35.98800
H  36.81200 6.62500 34.45200
H  33.32400 2.96600 35.20000
H  32.13200 4.19500 35.55900
H  34.02700 3.14600 37.46300
H  32.42600 3.81700 37.69600
H  39.68300 4.10200 33.11600
H  40.93600 4.02200 31.81300
H  40.38800 2.54600 32.69000
H  41.51400 1.60300 30.34700
H  41.88000 3.28900 30.37100
H  42.32300 2.38000 28.92300
H  35.80200 1.88300 25.75500
H  34.08200 4.40400 25.50300
H  37.19000 4.41800 25.42300
H  35.99100 4.06600 24.15400
H  37.18700 2.83400 24.49400
H  33.51300 2.21400 24.26200
H  32.16200 3.05400 25.12700
H  31.90000 1.22600 26.37200
H  33.62400 1.16700 26.71500
H  33.10800 0.34900 25.25000
H  29.64900 4.57300 27.69900
H  29.20500 6.09500 28.48800
H  28.72100 4.68400 29.29800
H  30.93900 4.63400 34.02100
H  29.91200 8.43700 36.26500
H  31.66100 8.36400 36.05500
H  30.78600 7.35400 37.19000
Mg 1.71600 41.58200 25.24500
C  2.75100 41.62400 28.62900
C  -1.40100 40.49300 26.41700
C  1.00700 40.86600 22.09100
C  5.10500 42.34800 24.36400
N  0.82300 40.99500 27.28300
C  1.40000 41.21200 28.55500
C  0.32200 41.19100 29.61300
C  -0.87900 40.59700 28.85500
C  -0.47000 40.72100 27.38800
C  -1.27700 39.12300 29.38200
C  -0.03000 42.52400 30.36800
C  -0.21400 42.36100 31.85000
H  -1.51900 41.67700 32.32600
N  0.03100 40.82700 24.34100
C  -1.17500 40.54000 25.00700
C  -2.06700 40.00300 23.98500
C  -1.36600 40.05800 22.73500
C  -0.04200 40.62200 23.02200
C  -3.54500 39.44800 24.28300
C  -1.85800 39.48100 21.43500
O  -1.05900 39.19400 20.57600
C  -3.22500 39.05800 21.16900
N  2.92700 41.62800 23.60100
C  2.26000 41.44600 22.35500
C  3.13300 41.93200 21.15100
C  4.44100 42.53100 21.92700
C  4.14800 42.13300 23.37100
C  3.31900 40.94200 20.02800
C  4.47600 44.02300 21.76200
C  4.87300 44.45700 20.34800
N  3.58400 42.04700 26.22100
C  4.87300 42.29700 25.76300
C  5.70000 42.63600 26.89300
C  4.90800 42.44900 28.05200
C  3.60100 42.07000 27.57200
C  7.17400 42.93600 26.95400
C  4.91000 42.35800 29.53000
O  5.81700 42.56700 30.30900
C  3.55300 41.88500 29.97500
C  3.85000 40.63700 30.90300
O  4.20500 39.49500 30.53900
O  3.51500 41.01900 32.26100
C  3.64200 39.98200 33.21200
H  -2.42800 40.30400 26.73900
H  0.67900 40.78200 21.05300
H  6.09400 42.65000 24.01400
H  0.73500 40.45800 30.30700
H  -1.83100 41.12500 28.91500
H  -0.85700 38.86600 30.35400
H  -0.88300 38.36200 28.70700
H  -2.35300 38.97300 29.28900
H  -0.92900 42.95100 29.92300
H  0.71400 43.31200 30.25000
H  -0.11000 43.28400 32.42000
H  0.60200 41.72800 32.19800
H  -4.23600 39.66900 23.46900
H  -3.99500 39.77500 25.22000
H  -3.59400 38.36100 24.33700
H  -3.26600 38.34500 20.34500
H  -3.79500 39.96600 20.97000
H  -3.57400 38.43300 21.99000
H  2.42900 42.65100 20.73400
H  5.37700 42.08700 21.58900
H  3.16200 39.90400 20.32200
H  4.33200 40.86700 19.63300
H  2.57800 41.17500 19.26300
H  5.18100 44.52400 22.42500
H  3.49800 44.37700 22.08900
H  4.83700 43.60700 19.66600
H  5.89500 44.83100 20.40700
H  4.14200 45.18100 19.98800
H  7.73100 42.62200 26.07100
H  7.60100 42.55600 27.88200
H  7.25600 44.01200 27.10800
H  3.15700 42.77600 30.46200
H  4.57500 39.43900 33.06000
H  2.81300 39.29100 33.06200
H  3.48600 40.39500 34.20800

