158

Mg 28.24300 56.46900 40.40200
C  25.85900 53.85900 39.53200
C  30.79400 54.38000 39.32300
C  30.28900 59.03500 40.41800
C  25.54300 58.73000 40.41800
N  28.27300 54.42500 39.25600
C  27.22300 53.52100 39.17600
C  27.67600 52.17600 38.59800
C  29.24600 52.28900 38.91400
C  29.50400 53.79400 39.18400
C  29.73800 51.39700 40.18600
C  27.32100 52.01100 37.15000
C  26.72400 53.20500 36.35500
H  26.93100 53.19900 34.87800
N  30.29300 56.61600 40.19100
C  31.12300 55.67100 39.70100
C  32.47900 56.16600 39.77300
C  32.37200 57.48900 40.24100
C  30.96300 57.76900 40.36800
C  33.66600 55.38500 39.38900
C  33.45200 58.50900 40.53600
O  34.59200 58.17200 40.26700
C  33.34300 59.80600 41.18000
N  27.95200 58.60900 40.42800
C  28.94200 59.47300 40.42300
C  28.49400 60.91100 40.61300
C  26.95600 60.81300 40.54100
C  26.78000 59.31000 40.47700
C  29.14400 61.66600 41.92400
C  26.42500 61.55000 39.22300
C  26.28800 63.04300 39.29600
N  26.25200 56.30200 40.27400
C  25.25600 57.32300 40.32000
C  23.93500 56.71300 40.27300
C  24.17100 55.35800 40.08800
C  25.56100 55.14500 40.04600
C  22.65500 57.45500 40.46200
C  23.48700 54.07100 40.09100
O  22.36700 53.72300 40.36200
C  24.58300 53.07400 39.61900
C  24.67300 52.01400 40.67000
O  24.02700 50.95500 40.67400
O  25.37100 52.49700 41.82200
C  25.63400 51.44700 42.85600
H  31.65300 53.70700 39.28400
H  30.88400 59.94200 40.28800
H  24.70400 59.42900 40.42300
H  27.21400 51.34100 39.12400
H  29.81600 52.01700 38.02600
H  30.04000 51.99000 41.05000
H  30.64600 50.84800 39.93500
H  28.97700 50.74500 40.61300
H  26.59900 51.19700 37.08100
H  28.21900 51.73200 36.59800
H  26.88600 54.17100 36.83300
H  25.64800 53.13900 36.51400
H  33.49500 54.66900 38.58600
H  34.02700 54.75400 40.20100
H  34.43500 56.10000 39.09800
H  32.42800 59.76800 41.77300
H  33.18100 60.53200 40.38300
H  34.23200 60.09500 41.74000
H  28.94600 61.47200 39.79500
H  26.44500 61.27200 41.38700
H  29.87600 62.43300 41.67000
H  29.69600 60.95300 42.53600
H  28.45500 62.05000 42.67700
H  25.47100 61.11000 38.93100
H  27.14500 61.34300 38.43200
H  26.86800 63.40200 40.14600
H  25.23500 63.31000 39.38200
H  26.77800 63.39400 38.38800
H  22.51700 57.73800 39.41800
H  22.58800 58.32800 41.11100
H  21.84800 56.78400 40.75700
H  24.18600 52.58400 38.73000
H  24.80800 50.73800 42.90600
H  25.65800 51.97600 43.80900
H  26.62000 50.99100 42.76900
Mg 9.94800 47.97500 25.63700
C  7.85400 48.43000 28.51300
C  12.46100 49.22600 27.37400
C  11.73300 47.58200 22.86400
C  6.88300 47.93000 23.67700
N  10.03200 48.82900 27.63800
C  9.20700 48.72300 28.71800
C  9.90700 49.05600 30.03200
C  11.27300 49.69800 29.59900
C  11.25900 49.25900 28.08300
C  11.27400 51.22900 29.62100
C  10.09500 47.88000 30.97800
C  10.45700 48.16400 32.46100
H  9.81600 47.33000 33.68900
N  11.94700 48.22100 25.21100
C  12.83200 48.81400 26.04700
C  14.12500 48.65500 25.51000
C  13.97800 48.18400 24.19400
C  12.52100 47.98600 24.01200
C  15.34700 48.83300 26.29900
C  14.96200 47.83400 23.13600
O  14.58000 47.54500 22.01200
C  16.41800 47.92400 23.33500
N  9.35900 47.84300 23.56900
C  10.29500 47.49700 22.61900
C  9.57900 46.97400 21.38100
C  8.15100 47.60400 21.50700
C  8.09900 47.78000 23.00900
C  10.14900 47.33800 19.97200
C  7.06100 46.69400 20.92200
C  6.02100 47.49900 20.08000
N  7.77000 48.13200 25.97800
C  6.71500 48.04100 25.09500
C  5.43300 47.95900 25.85700
C  5.88100 48.09700 27.16500
C  7.26400 48.17100 27.20300
C  4.04300 47.77200 25.30100
C  5.39300 48.16500 28.52000
O  4.22700 48.05500 28.89000
C  6.65100 48.42600 29.42800
C  6.52400 47.36400 30.40600
O  7.06400 46.28100 30.40600
O  5.77400 47.84400 31.46700
C  5.56100 47.00100 32.67800
H  13.31000 49.61800 27.93800
H  12.27000 47.28300 21.96100
H  5.99100 47.91800 23.04800
H  9.28200 49.79700 30.53100
H  12.12400 49.25300 30.11300
H  10.62200 51.47000 30.46000
H  10.81500 51.57300 28.69400
H  12.28300 51.62600 29.72700
H  10.76200 47.18300 30.47000
H  9.23700 47.21700 31.08500
H  10.10100 49.16900 32.69000
H  11.54000 48.04700 32.51700
H  15.15800 49.11400 27.33500
H  15.96500 49.61600 25.86000
H  15.94500 47.93400 26.44300
H  16.67800 48.50300 24.22100
H  16.94800 48.41100 22.51600
H  16.79600 46.90400 23.39100
H  9.47100 45.89200 21.45000
H  8.19600 48.58900 21.04300
H  10.89900 48.11100 20.14300
H  9.52200 47.85100 19.24200
H  10.71900 46.54700 19.48400
H  6.65000 46.08900 21.73000
H  7.45700 45.88100 20.31500
H  6.41500 48.48400 19.82900
H  5.12100 47.50200 20.69600
H  5.84200 47.01600 19.12000
H  3.33400 48.32700 25.91600
H  3.93900 46.68900 25.36800
H  3.76000 48.18100 24.33100
H  6.53800 49.36600 29.96800
H  4.89800 46.13700 32.62800
H  5.22200 47.72500 33.41900
H  6.53100 46.57000 32.92800

