158

Mg 47.68300 25.11000 28.47900
C  48.68000 27.30700 31.20800
C  46.49900 22.92700 30.90700
C  47.33600 23.03000 26.10700
C  49.13900 27.52800 26.25600
N  47.60700 25.12300 30.78100
C  48.05500 26.11000 31.60500
C  47.64600 25.80000 33.10300
C  47.16700 24.27500 32.98500
C  47.15900 24.03000 31.45800
C  48.06900 23.32500 33.70800
C  46.64100 26.78800 33.70400
C  47.05200 27.56900 34.98200
H  45.97700 27.84500 35.97800
N  46.88400 23.29300 28.49000
C  46.44900 22.58200 29.55500
C  45.84100 21.41000 28.98600
C  46.03600 21.37000 27.56400
C  46.87400 22.56100 27.36500
C  45.06500 20.35500 29.84700
C  45.49300 20.45400 26.45600
O  45.62000 20.60000 25.27000
C  44.58300 19.28400 26.95500
N  48.05500 25.35000 26.46200
C  47.85100 24.26000 25.68800
C  48.40500 24.40400 24.24200
C  48.82800 25.93900 24.22700
C  48.70000 26.35400 25.72800
C  49.64300 23.45900 23.96400
C  47.95200 26.74800 23.29200
C  46.71100 27.44000 23.85500
N  48.71200 26.98600 28.61200
C  49.16800 27.86100 27.64800
C  49.83700 28.99800 28.22100
C  49.64300 28.81400 29.63100
C  48.92600 27.58700 29.81200
C  50.62000 30.15500 27.66500
C  49.96400 29.39300 30.92900
O  50.60500 30.37800 31.30900
C  49.22900 28.49100 31.94900
C  50.26900 28.09000 32.91500
O  51.20000 27.30500 32.68700
O  50.14100 28.71700 34.15600
C  51.17800 28.47100 35.12100
H  46.09000 22.19200 31.60300
H  47.34400 22.33900 25.26100
H  49.51800 28.22900 25.51000
H  48.53300 25.89100 33.72900
H  46.17400 24.12700 33.40900
H  48.79000 22.94300 32.98600
H  47.50900 22.47200 34.09100
H  48.55600 23.80500 34.55600
H  45.78600 26.19200 34.02100
H  46.37400 27.57800 33.00200
H  47.35900 28.57200 34.68800
H  47.88200 27.08800 35.50000
H  44.00500 20.38200 29.59600
H  45.21100 20.59100 30.90100
H  45.41400 19.32400 29.77500
H  44.84900 18.65900 27.80800
H  44.57200 18.62600 26.08700
H  43.56300 19.64700 27.08400
H  47.58600 24.03900 23.62200
H  49.87500 26.05100 23.94500
H  50.02900 23.07100 24.90600
H  50.49100 23.85600 23.40600
H  49.22100 22.56500 23.50400
H  47.67800 26.24500 22.36400
H  48.58100 27.53500 22.87600
H  46.61300 27.60700 24.92800
H  45.78600 26.96700 23.52500
H  46.64700 28.49800 23.60200
H  50.84300 30.01100 26.60800
H  51.55400 30.12100 28.22600
H  50.20400 31.13200 27.91100
H  48.42500 29.06400 32.41200
H  50.93800 27.49500 35.54500
H  51.12700 29.34500 35.76900
H  52.15800 28.42200 34.64600
Mg -2.13700 33.98700 27.10400
C  -3.93100 32.40100 29.49700
C  -1.06300 36.20100 29.53900
C  -0.64500 35.89600 24.65400
C  -3.74400 32.17100 24.64500
N  -2.49800 34.23900 29.25100
C  -3.20400 33.41000 30.03400
C  -3.11100 33.79700 31.53400
C  -2.39000 35.21600 31.46100
C  -1.99900 35.20400 29.97100
C  -3.17900 36.44300 31.98400
C  -2.35100 32.74500 32.35400
C  -3.17300 32.17000 33.53700
H  -2.49800 31.70800 34.87600
N  -0.92500 35.65500 27.15300
C  -0.54200 36.40300 28.25000
C  0.50500 37.27900 27.90900
C  0.57100 37.24200 26.46500
C  -0.38300 36.27300 25.98600
C  1.37400 38.06500 28.91500
C  1.64600 37.91300 25.63800
O  1.71400 37.71200 24.44600
C  2.72400 38.85300 26.15600
N  -2.28600 34.09900 24.98100
C  -1.53000 34.93100 24.19700
C  -1.44300 34.40100 22.75500
C  -2.52000 33.28800 22.71800
C  -2.83700 33.12300 24.21400
C  -1.47400 35.35200 21.59000
C  -1.92700 32.04000 21.90700
C  -1.03300 31.08900 22.78300
N  -3.61400 32.61200 26.97600
C  -4.11500 31.87300 25.94100
C  -5.09500 30.88600 26.51000
C  -4.99000 31.05700 27.88300
C  -4.06100 32.07000 28.15800
C  -5.87400 29.81100 25.79500
C  -5.59200 30.55700 29.13300
O  -6.44200 29.74900 29.29500
C  -4.91200 31.43300 30.22500
C  -5.92300 32.20600 30.92400
O  -6.72700 32.95000 30.40300
O  -6.10500 31.77700 32.21300
C  -7.32300 32.24800 32.94000
H  -0.80600 36.88000 30.35500
H  -0.20800 36.49100 23.84900
H  -4.05900 31.57300 23.78700
H  -4.12100 33.95000 31.91500
H  -1.47900 35.26400 32.05600
H  -4.13200 36.25300 32.47900
H  -3.35000 37.08900 31.12300
H  -2.60200 37.06800 32.66500
H  -1.53900 33.27000 32.85700
H  -1.98000 31.91300 31.75600
H  -3.70700 31.32900 33.09600
H  -3.96500 32.87400 33.79200
H  2.23300 37.44600 29.17600
H  0.80100 38.36400 29.79200
H  1.75100 38.95400 28.41000
H  2.28600 39.75700 26.58000
H  3.53400 39.04600 25.45300
H  3.29600 38.25400 26.86500
H  -0.44100 33.97800 22.68800
H  -3.37300 33.67100 22.15700
H  -2.32300 35.09800 20.95500
H  -0.59600 35.22300 20.95700
H  -1.61400 36.37100 21.95100
H  -1.37700 32.37500 21.02800
H  -2.82300 31.48400 21.62800
H  -0.23800 30.54500 22.27400
H  -1.64400 30.28600 23.19600
H  -0.65400 31.74000 23.57100
H  -5.79100 28.87100 26.34200
H  -5.43800 29.83500 24.79700
H  -6.91300 30.13900 25.77000
H  -4.38000 30.72100 30.85500
H  -7.87400 33.04900 32.44700
H  -6.96400 32.76900 33.82800
H  -7.84000 31.34000 33.25100

