158

Mg 42.45600 41.83500 26.17100
C  41.42400 44.19100 28.57500
C  43.47900 39.77600 28.77700
C  43.74500 39.83400 23.87600
C  42.20600 44.40100 23.84700
N  42.44300 41.99300 28.44200
C  41.81900 42.94700 29.14600
C  41.78200 42.61900 30.68800
C  42.54800 41.22900 30.72800
C  42.83000 40.99000 29.21900
C  43.70100 41.03700 31.72600
C  40.35500 42.64000 31.44400
C  40.30400 43.69700 32.58400
H  39.43900 43.32800 33.76800
N  43.47700 40.10100 26.33500
C  43.67600 39.34600 27.43500
C  44.12100 37.99100 26.98800
C  44.15400 38.01400 25.57800
C  43.76500 39.37100 25.15400
C  44.64000 36.94000 27.90500
C  44.56200 36.85600 24.67600
O  44.45100 36.89300 23.43600
C  45.09700 35.62600 25.17800
N  42.78800 42.00700 24.18500
C  43.27200 41.06200 23.44600
C  43.52100 41.49600 21.96700
C  42.98000 42.97900 21.94900
C  42.61900 43.12000 23.42200
C  45.05800 41.35300 21.58400
C  41.85200 43.21400 20.92500
C  40.55300 42.42100 21.20400
N  41.80400 43.83500 26.11800
C  41.74500 44.76900 25.08800
C  41.09000 45.98200 25.46300
C  41.02500 45.86200 26.84800
C  41.46100 44.49700 27.17100
C  40.90800 47.19100 24.61900
C  40.63400 46.49800 28.06800
O  40.30000 47.65100 28.24900
C  40.93700 45.47200 29.23100
C  41.86500 46.15500 30.04100
O  43.07700 46.22500 29.82600
O  41.22600 46.48900 31.25300
C  42.21600 46.94200 32.24700
H  43.68200 39.06600 29.58100
H  44.14800 39.13200 23.14300
H  41.97500 45.00000 22.96400
H  42.42600 43.35300 31.17200
H  41.80100 40.54600 31.13300
H  43.95900 42.08200 31.89900
H  44.52200 40.47900 31.27500
H  43.37400 40.45900 32.59000
H  40.10900 41.66000 31.85300
H  39.65300 42.91600 30.65700
H  39.89200 44.58300 32.10100
H  41.30200 43.98100 32.91700
H  44.63800 37.35700 28.91200
H  45.68300 36.67700 27.72600
H  44.00800 36.05500 27.96900
H  44.50800 35.18300 25.98100
H  46.06600 35.82900 25.63600
H  45.34600 34.87900 24.42400
H  42.86400 40.86200 21.37300
H  43.77500 43.67100 21.67200
H  45.14500 40.39300 21.07300
H  45.64400 41.38700 22.50200
H  45.32600 42.16800 20.91200
H  42.31000 42.93800 19.97600
H  41.65300 44.28400 20.99200
H  40.29500 42.06000 20.20800
H  39.78700 43.15000 21.46600
H  40.77300 41.56500 21.84100
H  40.13200 46.72700 24.01000
H  41.77400 47.38000 23.98500
H  40.41400 48.01300 25.13700
H  39.99100 45.30700 29.74700
H  42.37700 46.15200 32.98200
H  41.77100 47.72600 32.85900
H  43.24100 47.27200 32.08000
Mg -10.01800 38.23300 40.93100
C  -7.88300 35.41800 40.64500
C  -7.46900 40.05700 39.43400
C  -12.07400 40.73200 40.65500
C  -12.54900 36.06700 42.03400
N  -7.96300 37.75300 40.10300
C  -7.31500 36.58300 40.10000
C  -5.90900 36.69100 39.44500
C  -5.78800 38.21800 39.17600
C  -7.19700 38.74800 39.58000
C  -4.59400 39.00300 39.85000
C  -5.89600 35.73500 38.19600
C  -4.73700 34.73900 38.14000
H  -3.76800 34.95800 36.92800
N  -9.74900 40.20700 40.28800
C  -8.60400 40.80800 39.70100
C  -8.91900 42.20700 39.49400
C  -10.27100 42.45700 39.81900
C  -10.78000 41.11600 40.29300
C  -7.87800 43.21600 38.93900
C  -11.03600 43.74500 39.69100
O  -10.42600 44.69600 39.28900
C  -12.50400 43.86200 40.07900
N  -11.96900 38.34500 41.24300
C  -12.64200 39.56000 41.04000
C  -14.12300 39.37700 41.28700
C  -14.28200 37.89900 41.68300
C  -12.87300 37.36400 41.59800
C  -14.64000 40.32000 42.40700
C  -15.41700 37.10100 40.94600
C  -16.83700 37.66400 41.21200
N  -10.16400 36.18000 41.44100
C  -11.26200 35.48200 41.89800
C  -10.81200 34.10500 42.17600
C  -9.46500 34.04100 41.68800
C  -9.14800 35.33800 41.25400
C  -11.64300 33.11400 42.98200
C  -8.43800 33.12500 41.45600
O  -8.38500 31.89300 41.65200
C  -7.23500 33.98200 40.81300
C  -6.05300 33.93200 41.86400
O  -5.33000 32.97600 41.93800
O  -5.92600 35.00500 42.75000
C  -4.84300 34.81700 43.83700
H  -6.69300 40.67400 38.97800
H  -12.85100 41.49900 40.63900
H  -13.40900 35.45100 42.30300
H  -5.14300 36.38600 40.15800
H  -5.59400 38.41600 38.12200
H  -3.98400 38.27900 40.39000
H  -4.90200 39.82000 40.50300
H  -3.91100 39.20900 39.02600
H  -5.95300 36.34800 37.29700
H  -6.81700 35.15300 38.15400
H  -5.07200 33.70300 38.18200
H  -4.01800 34.84300 38.95300
H  -8.01300 44.23100 39.31400
H  -8.03500 43.33800 37.86700
H  -6.82500 42.98600 39.09900
H  -12.64900 43.68400 41.14500
H  -13.11300 43.12500 39.55600
H  -12.95200 44.84100 39.90600
H  -14.75100 39.52100 40.40800
H  -14.46100 37.86500 42.75800
H  -14.74200 39.96000 43.43100
H  -15.61600 40.61700 42.02100
H  -14.08600 41.25800 42.41400
H  -15.45500 36.04500 41.21300
H  -15.23500 37.04200 39.87300
H  -17.43500 36.78700 41.46000
H  -17.21800 38.07000 40.27400
H  -16.92100 38.41800 41.99400
H  -12.64100 32.90800 42.59400
H  -11.76600 33.35200 44.03800
H  -11.07500 32.19500 42.83600
H  -6.86200 33.52200 39.89800
H  -3.95000 34.26600 43.54200
H  -5.32300 34.35700 44.70000
H  -4.53000 35.81100 44.15800

