158

Mg 17.31400 -0.52800 27.85300
C  16.10200 1.54000 30.48300
C  19.18700 -2.22300 30.11600
C  18.67100 -2.03900 25.20100
C  15.58100 1.70900 25.64000
N  17.56300 -0.37500 29.96200
C  16.98600 0.47900 30.82600
C  17.47100 0.23400 32.27500
C  18.51900 -0.86900 32.15900
C  18.37600 -1.23100 30.65900
C  19.98300 -0.54400 32.58900
C  16.38000 -0.21400 33.26300
C  16.39500 0.64700 34.54800
H  17.73800 1.04300 35.27400
N  18.73200 -2.03400 27.65200
C  19.34300 -2.62100 28.70700
C  20.02500 -3.78800 28.20700
C  19.94900 -3.73100 26.78800
C  19.18500 -2.52300 26.45100
C  20.90800 -4.75100 28.94600
C  20.65200 -4.55200 25.59700
O  20.49900 -4.31200 24.39000
C  21.44800 -5.76000 25.86800
N  17.31000 -0.00600 25.71300
C  17.96500 -0.87100 24.84500
C  17.48800 -0.60300 23.36900
C  16.43900 0.48100 23.54000
C  16.34000 0.67100 25.12000
C  18.56500 -0.12700 22.37100
C  15.13200 0.36300 22.70300
C  15.00800 1.41800 21.61400
N  16.09400 1.22200 27.99400
C  15.44400 2.03000 27.01600
C  14.61500 3.08500 27.61600
C  14.88300 2.88800 29.02000
C  15.69300 1.73400 29.16500
C  13.72700 4.23200 27.10300
C  14.64900 3.49600 30.39600
O  13.93700 4.42400 30.74100
C  15.43900 2.61600 31.39600
C  16.39500 3.55300 31.90600
O  17.46000 3.88300 31.44600
O  15.83800 4.04600 33.12400
C  16.69700 5.12700 33.67400
H  19.72600 -2.94300 30.73500
H  18.85300 -2.70500 24.35500
H  14.96600 2.25600 24.92300
H  17.96300 1.13100 32.65100
H  18.30700 -1.84900 32.58700
H  20.70100 -0.36500 31.78800
H  20.36500 -1.48500 32.98500
H  19.93900 0.29400 33.28400
H  16.53400 -1.24900 33.57000
H  15.42400 0.01500 32.79200
H  15.68600 0.30000 35.30000
H  15.92600 1.60300 34.31600
H  20.75600 -4.76200 30.02500
H  21.97100 -4.65600 28.72500
H  20.67700 -5.79100 28.72000
H  21.96900 -6.06800 24.96100
H  20.90700 -6.56100 26.37200
H  22.30100 -5.47800 26.48500
H  16.95100 -1.51700 23.11400
H  16.94000 1.40800 23.25900
H  19.52500 -0.03000 22.87900
H  18.29800 0.82700 21.91600
H  18.71300 -0.81000 21.53500
H  14.38300 0.37000 23.49400
H  15.15100 -0.58000 22.15600
H  14.57900 2.24500 22.18100
H  14.41700 1.11100 20.75200
H  15.96600 1.79700 21.25700
H  14.07400 4.67200 26.16800
H  13.66300 4.99300 27.88100
H  12.78900 3.68000 27.03900
H  14.69900 2.28800 32.12600
H  17.73100 4.78800 33.72300
H  16.46000 5.41800 34.69800
H  16.65100 5.97800 32.99500
Mg 40.77800 9.26300 30.30300
C  42.63800 10.23100 33.10400
C  38.16600 8.54400 32.53300
C  39.03600 8.04000 27.64000
C  43.53200 9.79300 28.29500
N  40.53500 9.33900 32.59800
C  41.32700 9.93900 33.55800
C  40.63900 10.09600 34.89000
C  39.32000 9.35000 34.66300
C  39.35600 9.06700 33.17900
C  39.18400 7.94500 35.28800
C  40.42700 11.63200 35.18500
C  39.94400 11.94200 36.63200
H  40.93100 12.71500 37.55600
N  38.88400 8.46600 30.06700
C  38.01700 8.17300 31.11300
C  36.85100 7.52000 30.54500
C  37.06200 7.44400 29.13400
C  38.40900 7.98000 28.86800
C  35.56600 7.14400 31.39600
C  36.13100 6.91200 28.03400
O  36.42300 6.82300 26.86500
C  34.68700 6.44600 28.33800
N  41.28000 8.75900 28.28500
C  40.35100 8.48800 27.39400
C  40.86200 8.77000 25.94600
C  42.31800 9.23300 26.15300
C  42.33200 9.27900 27.69400
C  40.68000 7.62400 24.87800
C  42.78300 10.65900 25.52900
C  42.14200 11.16600 24.25600
N  42.73200 9.83000 30.56200
C  43.77100 10.08000 29.64700
C  44.99200 10.44700 30.34600
C  44.55700 10.58000 31.65900
C  43.17900 10.22600 31.78900
C  46.35600 10.56700 29.84800
C  44.99200 10.91300 33.01700
O  46.06300 11.33800 33.37000
C  43.81100 10.80500 33.95700
C  44.09500 9.93300 35.15400
O  44.80200 8.93200 35.19000
O  43.73600 10.60300 36.32700
C  44.07400 9.97200 37.60200
H  37.30900 8.57600 33.20900
H  38.41900 7.87900 26.75300
H  44.36300 9.91200 27.59600
H  41.33300 9.48200 35.46400
H  38.46400 9.97100 34.92800
H  39.89300 7.72100 36.08500
H  39.25600 7.13600 34.56100
H  38.21400 7.92400 35.78300
H  39.79300 12.07400 34.41600
H  41.39700 12.11100 35.04700
H  39.64100 11.03500 37.15600
H  39.01900 12.46200 36.38200
H  35.71000 7.26400 32.46900
H  35.31700 6.10000 31.20400
H  34.65500 7.65200 31.08200
H  34.17000 7.38900 28.51000
H  34.63000 5.96700 29.31500
H  34.24100 5.83500 27.55300
H  40.30600 9.66200 25.65900
H  42.94300 8.36600 25.94400
H  40.07500 8.13400 24.12900
H  40.13300 6.72700 25.16700
H  41.64500 7.28900 24.49900
H  43.86900 10.69000 25.45000
H  42.45700 11.45200 26.20300
H  41.50500 10.40000 23.81300
H  42.93400 11.48700 23.57900
H  41.52900 12.03800 24.48300
H  46.85300 9.59700 29.82100
H  46.91900 11.34500 30.36300
H  46.27200 10.94500 28.82900
H  43.62800 11.82700 34.28900
H  43.80100 10.51100 38.51000
H  45.13700 9.73400 37.62100
H  43.47900 9.06000 37.65000

