158

Mg 1.28300 8.28500 25.32200
C  2.06900 10.12900 28.22600
C  1.61500 5.43800 27.22300
C  0.87600 6.66700 22.60400
C  1.28800 11.34100 23.54100
N  1.79400 7.89100 27.49700
C  1.91100 8.78200 28.57100
C  1.97800 8.13600 29.92100
C  2.09700 6.64400 29.51100
C  1.78100 6.66900 27.97000
C  3.50900 5.96300 29.79500
C  0.65400 8.41600 30.70400
C  0.67000 8.47200 32.23300
H  1.98200 7.93600 32.89100
N  1.23400 6.29900 24.95000
C  1.31300 5.30400 25.81700
C  1.26600 4.01700 25.06200
C  0.98900 4.40200 23.72400
C  1.12100 5.85500 23.66200
C  1.40600 2.62600 25.80000
C  0.64200 3.49100 22.61900
O  0.24300 3.83700 21.50200
C  0.70800 1.98300 22.72600
N  0.97700 8.85800 23.41300
C  0.85100 8.01900 22.40800
C  0.56000 8.66400 21.06900
C  0.40300 10.20700 21.48800
C  0.99900 10.14000 22.89500
C  1.72200 8.57000 19.99100
C  -1.04900 10.78600 21.55300
C  -2.00100 10.50200 20.41400
N  1.74300 10.26300 25.73700
C  1.69800 11.42900 24.90800
C  2.09300 12.57800 25.69200
C  2.23100 12.11900 26.97500
C  1.99700 10.69900 26.96100
C  2.14700 13.93100 25.19800
C  2.50800 12.53700 28.34100
O  2.93700 13.55800 28.74700
C  2.25300 11.32100 29.21400
C  3.35100 11.14200 30.24500
O  4.45200 10.73000 29.99400
O  2.95600 11.63700 31.43100
C  3.99000 11.65400 32.50100
H  1.51300 4.55900 27.86300
H  0.74700 6.18500 21.63300
H  1.26500 12.21400 22.88600
H  2.85400 8.45900 30.48400
H  1.38300 5.98300 30.00200
H  4.31100 6.65300 30.05700
H  3.96300 5.51400 28.91100
H  3.42100 5.15000 30.51600
H  -0.12900 7.70700 30.43400
H  0.36300 9.37200 30.27000
H  -0.20600 8.00900 32.68600
H  0.59100 9.50800 32.56300
H  2.18200 2.04600 25.30000
H  0.41400 2.23600 25.57500
H  1.53500 2.77800 26.87200
H  0.40800 1.59200 21.75400
H  -0.05400 1.64200 23.42700
H  1.74800 1.71500 22.90900
H  -0.43300 8.41700 20.69200
H  1.11300 10.80100 20.91300
H  2.59700 8.53700 20.64100
H  1.85100 9.43500 19.34100
H  1.65900 7.69600 19.34300
H  -0.99100 11.86300 21.71000
H  -1.47100 10.13500 22.31800
H  -1.39600 10.26000 19.54000
H  -2.66800 11.28200 20.04600
H  -2.57600 9.59700 20.60900
H  1.57100 14.43900 25.97100
H  1.78900 14.08900 24.18100
H  3.15200 14.35300 25.19600
H  1.31500 11.35600 29.76700
H  5.02200 11.54400 32.16600
H  3.76200 10.87400 33.22800
H  3.92200 12.54400 33.12600
Mg 16.48300 -2.57000 28.15900
C  15.89500 -0.44200 30.90300
C  17.83400 -4.81300 30.41900
C  17.66000 -4.42200 25.50700
C  15.29600 -0.35000 26.07500
N  16.91400 -2.61200 30.48300
C  16.52200 -1.63900 31.27900
C  16.86000 -2.04600 32.75000
C  17.77900 -3.32500 32.55000
C  17.46300 -3.65900 31.09200
C  19.29900 -2.96700 32.77600
C  15.61900 -2.45400 33.56900
C  15.36800 -1.65500 34.87600
H  16.66800 -1.19400 35.64700
N  17.51000 -4.44500 27.97300
C  17.84500 -5.22300 29.01700
C  18.38200 -6.47800 28.48500
C  18.24400 -6.42200 27.04400
C  17.77200 -5.03900 26.77300
C  18.88300 -7.57600 29.36200
C  18.58600 -7.47600 25.97500
O  18.38000 -7.27800 24.74700
C  19.24500 -8.77700 26.51900
N  16.55400 -2.33400 26.08700
C  17.07600 -3.22800 25.19000
C  16.95300 -2.72600 23.77400
C  15.88000 -1.62600 23.97800
C  15.80700 -1.46500 25.48400
C  18.27100 -2.18000 23.21400
C  14.40000 -1.77800 23.38300
C  13.11300 -1.97100 24.22000
N  15.71900 -0.76700 28.34100
C  15.26600 0.03800 27.38400
C  14.67600 1.17300 27.93800
C  14.87900 1.08200 29.34900
C  15.57500 -0.13900 29.48000
C  13.99300 2.29800 27.22800
C  14.68600 1.59300 30.67700
O  14.16800 2.63700 31.04500
C  15.37800 0.63600 31.72800
C  16.41700 1.48600 32.33200
O  17.58900 1.41800 32.03300
O  15.85300 2.42600 33.13500
C  16.70400 3.48900 33.67500
H  18.26400 -5.46800 31.17900
H  18.05000 -5.05300 24.70600
H  14.90400 0.44700 25.44000
H  17.39300 -1.20400 33.19200
H  17.74700 -4.13100 33.28400
H  19.51500 -1.96500 33.14600
H  19.86200 -3.15900 31.86200
H  19.66000 -3.54700 33.62400
H  15.46200 -3.53200 33.58700
H  14.88900 -2.05900 32.86200
H  14.91600 -2.25500 35.66500
H  14.69300 -0.88400 34.50600
H  18.50500 -8.58400 29.19600
H  18.42000 -7.44000 30.33900
H  19.95700 -7.51800 29.54300
H  20.04200 -8.52600 27.21900
H  19.72400 -9.31900 25.70400
H  18.50000 -9.43100 26.97300
H  16.51100 -3.54600 23.20800
H  16.16400 -0.67400 23.52700
H  18.95800 -1.83000 23.98500
H  18.10800 -1.30600 22.58300
H  19.01400 -2.77100 22.67800
H  14.38400 -2.57100 22.63400
H  14.19300 -0.84500 22.85900
H  12.74200 -1.02900 24.62500
H  13.31900 -2.51800 25.14000
H  12.44400 -2.55000 23.58400
H  12.98600 1.93900 27.01300
H  14.56400 2.51300 26.32500
H  13.95700 3.25100 27.75500
H  14.69800 0.28000 32.50200
H  16.09500 4.05200 34.38200
H  17.01800 4.17400 32.88700
H  17.59000 3.02200 34.10500

