158

Mg -2.08700 17.96800 26.71500
C  -2.87400 15.82300 29.64200
C  -3.14900 20.69100 28.68000
C  -1.83500 19.90400 24.03800
C  -2.20400 15.06300 24.77200
N  -2.68900 18.16200 28.97300
C  -3.01300 17.18200 29.85000
C  -3.35800 17.88600 31.18900
C  -3.87500 19.29800 30.74400
C  -3.18200 19.40300 29.39500
C  -5.44700 19.34900 30.71700
C  -2.16300 17.97700 32.09900
C  -2.49700 17.59900 33.51600
H  -1.34000 17.38700 34.47300
N  -2.18000 20.07000 26.43400
C  -2.63200 20.98300 27.37400
C  -2.41600 22.30900 26.74800
C  -2.11300 22.16400 25.36300
C  -2.10300 20.67200 25.21600
C  -2.87600 23.61600 27.42600
C  -1.86800 23.18100 24.25300
O  -1.74000 22.83800 23.06700
C  -1.72700 24.54500 24.60800
N  -2.09400 17.48800 24.69100
C  -1.93200 18.48900 23.83400
C  -1.75500 17.94000 22.42700
C  -1.64500 16.42600 22.68900
C  -2.01500 16.26900 24.11700
C  -2.90900 18.29600 21.51600
C  -0.24100 15.76500 22.39900
C  -0.01800 15.52600 20.93800
N  -2.47900 15.84800 27.06900
C  -2.31900 14.79400 26.18700
C  -2.47800 13.56600 26.91500
C  -2.72800 13.93500 28.27200
C  -2.68700 15.31200 28.29600
C  -2.60100 12.15200 26.38600
C  -2.92600 13.39700 29.56200
O  -2.98700 12.23300 29.89300
C  -3.12800 14.61500 30.47600
C  -2.12400 14.45700 31.60500
O  -0.94600 14.82600 31.58600
O  -2.61000 13.73800 32.67100
C  -1.63000 13.39000 33.80900
H  -3.46600 21.49000 29.35300
H  -1.56900 20.45100 23.13100
H  -1.92700 14.20400 24.15700
H  -4.08500 17.25700 31.70200
H  -3.44200 20.00600 31.45100
H  -5.81200 20.09000 31.42700
H  -5.83400 18.35100 30.92600
H  -5.82100 19.59800 29.72400
H  -1.71700 18.97100 32.06700
H  -1.37000 17.34700 31.69600
H  -3.06900 16.68200 33.37600
H  -3.12800 18.30000 34.06300
H  -2.08000 24.34700 27.28600
H  -2.89800 23.59000 28.51500
H  -3.85800 23.77600 26.98000
H  -1.38700 25.13000 23.75400
H  -0.89000 24.53400 25.30600
H  -2.66200 24.83400 25.08800
H  -0.81000 18.34700 22.06800
H  -2.36300 15.85300 22.10200
H  -3.77500 17.65400 21.67500
H  -2.61000 18.21000 20.47100
H  -3.24400 19.32300 21.66400
H  0.00600 14.86200 22.95700
H  0.45000 16.56500 22.66700
H  0.47600 14.55600 20.88300
H  0.61400 16.33500 20.57000
H  -0.96900 15.40700 20.41900
H  -1.63300 11.65100 26.40900
H  -3.01800 12.12800 25.37900
H  -3.28300 11.55500 26.99100
H  -4.17100 14.54700 30.78600
H  -1.79800 14.02800 34.67600
H  -0.60400 13.39500 33.44000
H  -1.90500 12.38800 34.14000
Mg -2.41100 35.16600 26.62200
C  -4.30500 33.30800 29.00600
C  -1.68000 37.32900 28.95900
C  -0.79300 36.97000 24.25000
C  -4.03000 33.28300 24.13500
N  -3.02000 35.32800 28.74600
C  -3.65800 34.42800 29.56300
C  -3.53900 34.73000 31.08400
C  -2.79800 36.15000 30.91000
C  -2.48400 36.30600 29.43000
C  -3.45800 37.47600 31.54100
C  -2.86500 33.63900 31.99700
C  -3.66500 33.29400 33.30700
H  -2.76100 33.15100 34.55000
N  -1.35200 36.96700 26.59400
C  -1.10500 37.66900 27.75300
C  -0.22600 38.74500 27.36900
C  0.08900 38.67200 26.00000
C  -0.64500 37.52100 25.54100
C  0.08900 39.75500 28.49500
C  0.92800 39.54100 25.21100
O  1.13600 39.31600 24.02300
C  1.60700 40.80500 25.84600
N  -2.43700 35.24900 24.53000
C  -1.59400 35.95100 23.77900
C  -1.61200 35.57000 22.30500
C  -2.63500 34.35700 22.27000
C  -3.16700 34.36700 23.74700
C  -1.98500 36.80300 21.36500
C  -1.74200 33.10500 21.82500
C  -0.95800 32.31000 22.83800
N  -3.94400 33.58600 26.51200
C  -4.45600 32.94700 25.39900
C  -5.32200 31.90600 25.85200
C  -5.31700 31.91100 27.26300
C  -4.41100 32.96900 27.60200
C  -6.09000 30.94800 25.03100
C  -5.81700 31.37300 28.51200
O  -6.50400 30.40800 28.80300
C  -5.16500 32.30000 29.68100
C  -6.30300 32.93900 30.34800
O  -7.15300 33.67100 29.86400
O  -6.51500 32.38200 31.61400
C  -7.76500 32.61100 32.33400
H  -1.53700 38.07800 29.74000
H  -0.29100 37.50900 23.44400
H  -4.48600 32.73600 23.30800
H  -4.55900 34.94100 31.40500
H  -1.86600 36.03700 31.46500
H  -4.49800 37.31600 31.82500
H  -3.42100 38.33300 30.86800
H  -2.78700 37.80300 32.33500
H  -1.79500 33.82600 32.08100
H  -2.88600 32.69100 31.46100
H  -4.20400 32.35400 33.18000
H  -4.37600 34.11200 33.41700
H  0.29200 39.25400 29.44100
H  -0.81400 40.26700 28.82500
H  0.82500 40.53900 28.31200
H  1.06700 41.46600 26.52300
H  1.89400 41.40800 24.98400
H  2.43400 40.34600 26.38800
H  -0.58400 35.32700 22.03600
H  -3.46500 34.63400 21.61900
H  -2.34000 37.62200 21.99100
H  -2.86200 36.61600 20.74500
H  -1.11400 36.99900 20.74000
H  -1.06600 33.31300 20.99600
H  -2.42300 32.38400 21.37200
H  -1.06300 32.66300 23.86400
H  0.07300 32.37400 22.49200
H  -1.29100 31.27200 22.82800
H  -5.92200 29.98600 25.51400
H  -5.75000 30.97100 23.99600
H  -7.16600 31.08400 25.14100
H  -4.66300 31.66800 30.41300
H  -8.06000 31.72100 32.89100
H  -8.56200 32.98000 31.68900
H  -7.63000 33.37900 33.09500

