158

Mg 46.95200 25.36300 28.37600
C  47.34400 27.52400 31.05300
C  46.17900 22.77100 30.71400
C  47.31200 23.25300 25.98300
C  48.40600 27.88000 26.42100
N  46.50300 25.25600 30.58300
C  46.69900 26.28500 31.44800
C  46.53000 25.75900 32.91200
C  46.12100 24.27300 32.72200
C  46.31800 24.03900 31.29100
C  46.92200 23.27200 33.50500
C  45.61500 26.66000 33.80900
C  46.03100 26.69400 35.29800
H  44.91600 26.61800 36.37000
N  46.43700 23.28400 28.29200
C  46.12800 22.40100 29.29600
C  45.96500 21.10300 28.68800
C  46.31300 21.22400 27.32400
C  46.65400 22.64000 27.12100
C  45.51700 19.88400 29.52200
C  46.58700 20.02500 26.31700
O  46.88600 20.23200 25.16800
C  46.22100 18.63500 26.63900
N  47.82800 25.48300 26.50400
C  47.75800 24.50300 25.58100
C  48.45500 24.88300 24.27400
C  48.42800 26.42700 24.36000
C  48.25200 26.65600 25.84600
C  49.86500 24.21500 24.04700
C  47.34300 27.12600 23.55800
C  47.79900 28.27500 22.68000
N  47.74100 27.38200 28.61200
C  48.25700 28.24000 27.73500
C  48.53200 29.49900 28.36900
C  48.23700 29.17800 29.72400
C  47.71000 27.94000 29.81600
C  49.16300 30.63100 27.74100
C  48.28000 29.82400 30.98700
O  48.85700 30.89600 31.27500
C  47.68400 28.70100 31.95600
C  48.66100 28.50000 33.00500
O  49.68300 27.96100 32.89700
O  48.24200 29.13100 34.17200
C  49.14000 29.16100 35.27100
H  45.85300 22.03100 31.44800
H  47.44100 22.47600 25.22700
H  48.66000 28.70400 25.75000
H  47.56900 25.84200 33.23300
H  45.05200 24.10300 32.85200
H  47.47700 22.64900 32.80300
H  46.27400 22.60800 34.07600
H  47.64100 23.68700 34.21100
H  44.60500 26.25000 33.80200
H  45.50600 27.66700 33.40600
H  46.46000 27.67800 35.48900
H  46.86900 26.00500 35.39800
H  44.83900 19.19000 29.02500
H  45.02500 20.24700 30.42500
H  46.46700 19.38500 29.70900
H  46.69200 18.26500 27.55000
H  46.58900 17.95100 25.87500
H  45.13700 18.64600 26.75600
H  47.78500 24.62900 23.45200
H  49.40600 26.80000 24.05800
H  49.86800 23.34100 23.39600
H  50.27500 23.85400 24.99000
H  50.64700 24.88700 23.69500
H  46.56200 27.47600 24.23200
H  46.86800 26.47700 22.82200
H  47.63500 27.93600 21.65700
H  48.84100 28.57900 22.78100
H  47.11300 29.08000 22.94500
H  48.40000 31.08900 27.11200
H  49.94400 30.40700 27.01400
H  49.58800 31.40300 28.38300
H  46.79300 29.12300 32.42100
H  48.95300 28.16900 35.68300
H  48.86200 29.98200 35.93200
H  50.20000 29.24000 35.03300
Mg 47.29900 35.95700 28.98600
C  45.78800 34.06700 31.41900
C  47.72400 38.54100 31.43900
C  48.11000 38.13500 26.56300
C  46.37800 33.50800 26.58300
N  46.91600 36.24300 31.15000
C  46.32300 35.26100 31.92200
C  46.46800 35.60200 33.42900
C  46.49000 37.19800 33.29200
C  47.04500 37.42600 31.86300
C  45.07900 37.77800 33.56400
C  47.78700 35.08400 34.01100
C  47.82300 34.67000 35.47400
H  47.00400 35.39200 36.47900
N  48.05000 37.98400 28.97400
C  48.14500 38.86500 30.05800
C  48.76100 40.08700 29.68100
C  48.91500 39.98200 28.25500
C  48.44200 38.64800 27.87400
C  48.94100 41.25500 30.64700
C  49.54000 40.93600 27.24100
O  49.97600 40.55600 26.19200
C  49.84000 42.36600 27.62900
N  47.22000 35.88200 26.94900
C  47.65600 36.89000 26.13700
C  47.48100 36.57200 24.64800
C  46.94400 35.06400 24.68400
C  46.93900 34.73100 26.18400
C  46.42500 37.50500 24.01100
C  47.84100 34.12900 23.83700
C  47.10900 33.01600 23.17300
N  46.25500 34.18000 28.95500
C  46.05700 33.23000 27.96300
C  45.43500 32.04800 28.51600
C  45.24200 32.35200 29.89300
C  45.86200 33.62200 30.06400
C  45.12300 30.75400 27.76800
C  44.72200 31.84200 31.12600
O  44.20100 30.78800 31.50500
C  44.94600 33.01000 32.10500
C  45.46500 32.45900 33.43700
O  46.58100 32.07400 33.61900
O  44.45300 32.30300 34.27700
C  44.68000 31.50000 35.46000
H  47.69600 39.35900 32.16200
H  48.15300 38.89400 25.77900
H  46.07400 32.73500 25.87400
H  45.61000 35.24800 34.00100
H  47.15500 37.66100 34.02100
H  45.18200 38.31000 34.50900
H  44.31500 37.00400 33.63700
H  44.82700 38.48000 32.76900
H  48.62900 35.74100 33.79400
H  47.99200 34.21800 33.38100
H  48.87100 34.64300 35.77200
H  47.33900 33.69700 35.55600
H  48.25200 41.34400 31.48600
H  48.84100 42.20500 30.12200
H  49.93000 41.22500 31.10300
H  50.71300 42.27400 28.27500
H  48.91100 42.69800 28.09100
H  49.91700 43.08000 26.80900
H  48.43300 36.61100 24.11900
H  45.89400 35.10200 24.39400
H  45.98800 38.09100 24.82000
H  45.68100 37.00800 23.38700
H  46.96100 38.18600 23.35000
H  48.52800 33.60500 24.50100
H  48.28400 34.69400 23.01700
H  47.11000 33.17500 22.09400
H  46.04400 32.94400 23.39200
H  47.57300 32.04600 23.35500
H  44.99700 29.86600 28.38800
H  45.90500 30.42800 27.08200
H  44.20700 30.92900 27.20400
H  44.00500 33.53200 32.28100
H  45.45900 30.75000 35.31800
H  43.72600 31.02400 35.68800
H  44.99500 32.07900 36.32800

