158

Mg 48.16000 15.11000 28.32900
C  46.08400 15.26000 31.34500
C  50.30500 17.28200 29.80100
C  49.91400 15.09100 25.50300
C  45.51800 13.48800 26.86900
N  48.09200 16.07500 30.38700
C  47.29500 16.00400 31.44000
C  47.88900 16.65200 32.67700
C  49.19100 17.50900 32.12400
C  49.19300 16.89300 30.63000
C  49.05400 19.05500 32.16600
C  48.33200 15.60800 33.70900
C  47.85100 15.90600 35.19900
H  47.74100 17.25200 35.82600
N  50.00300 15.99200 27.73700
C  50.75300 16.83700 28.49400
C  52.03800 17.14900 27.73300
C  51.92200 16.42700 26.49000
C  50.56500 15.79200 26.52500
C  53.09000 18.04000 28.27300
C  52.95300 16.43700 25.35900
O  52.69100 15.84500 24.32100
C  54.21800 17.19900 25.44400
N  47.72400 14.56100 26.37700
C  48.64100 14.60700 25.37200
C  48.15600 13.92400 24.06600
C  46.78400 13.33100 24.54100
C  46.67100 13.78000 26.06800
C  48.09700 14.76800 22.77200
C  46.56800 11.82900 24.24800
C  47.02800 10.84600 25.33500
N  46.18000 14.42200 28.91300
C  45.27400 13.80400 28.18800
C  44.12200 13.37700 28.95000
C  44.36800 14.00000 30.23900
C  45.58000 14.65700 30.13700
C  43.05600 12.47500 28.51200
C  43.94200 14.09500 31.55600
O  42.95600 13.55000 32.12200
C  45.00200 14.95100 32.34000
C  44.30000 16.15000 32.99400
O  43.35900 16.82700 32.49400
O  44.75900 16.34700 34.24000
C  43.98500 17.24700 35.18900
H  51.07900 17.82300 30.34900
H  50.48100 15.06900 24.57000
H  44.75400 12.82700 26.45300
H  47.05700 17.24600 33.05500
H  50.05600 17.25600 32.73700
H  49.32000 19.45400 31.18700
H  49.61500 19.38700 33.03900
H  48.02600 19.34900 32.37900
H  49.40600 15.42100 33.72400
H  47.88400 14.67400 33.37000
H  48.36400 15.23100 35.88300
H  46.82000 15.56500 35.29100
H  52.57100 18.55400 29.08200
H  53.41200 18.84300 27.60900
H  53.94900 17.46800 28.62300
H  53.94600 18.25300 25.38400
H  54.81300 16.92300 24.57400
H  54.72100 17.07800 26.40400
H  48.73100 13.02900 23.82800
H  45.95400 13.91400 24.14200
H  48.65200 15.69800 22.90000
H  47.13200 15.13200 22.42000
H  48.69800 14.20100 22.06100
H  46.88400 11.54600 23.24400
H  45.50500 11.61500 24.36300
H  46.19100 10.71400 26.02000
H  47.88800 11.16800 25.92300
H  47.32800 9.90800 24.86600
H  43.35500 11.42700 28.48300
H  42.79300 12.67400 27.47300
H  42.11200 12.56400 29.05000
H  45.51200 14.37900 33.11400
H  43.03600 16.80200 35.48600
H  43.88800 18.26700 34.81800
H  44.53600 17.28100 36.12900
Mg -4.55600 25.72400 25.76800
C  -3.34700 27.06600 28.62300
C  -6.21500 23.32400 27.85300
C  -6.01300 24.28500 23.07600
C  -2.70700 27.67400 23.87500
N  -4.88800 25.30600 28.10100
C  -4.29900 26.05800 28.98200
C  -4.77000 25.65200 30.33800
C  -5.58900 24.30300 30.12000
C  -5.55600 24.29600 28.62800
C  -5.00300 22.98500 30.77000
C  -5.58700 26.80500 31.02500
C  -5.69400 27.00900 32.57900
H  -5.28600 25.85300 33.56100
N  -5.84000 24.06800 25.47900
C  -6.29100 23.19200 26.42100
C  -7.10700 22.18400 25.79600
C  -7.08700 22.40500 24.35500
C  -6.29000 23.62000 24.22600
C  -7.84600 21.01900 26.58800
C  -7.62900 21.51300 23.28400
O  -7.43000 21.67800 22.06800
C  -8.55700 20.32900 23.62100
N  -4.30400 25.81700 23.71400
C  -5.13200 25.40300 22.84500
C  -5.06700 26.05700 21.47300
C  -3.93300 27.09700 21.66400
C  -3.64300 26.86800 23.19800
C  -4.71000 24.94700 20.29800
C  -4.18100 28.44700 21.20100
C  -4.70500 28.62300 19.78700
N  -3.26200 27.10000 26.09900
C  -2.52600 27.80700 25.24900
C  -1.73300 28.79400 25.99800
C  -1.96600 28.44200 27.32700
C  -2.96100 27.49200 27.32200
C  -0.89000 29.91300 25.40000
C  -1.72100 28.84800 28.63400
O  -1.08800 29.84000 29.04800
C  -2.61200 28.03000 29.53300
C  -1.80500 27.28900 30.43800
O  -1.10200 26.42200 30.08600
O  -2.01800 27.69300 31.70700
C  -1.36700 26.90300 32.77000
H  -6.77400 22.60300 28.45300
H  -6.54500 23.93200 22.19000
H  -2.20900 28.33600 23.16300
H  -3.99200 25.42000 31.06500
H  -6.57200 24.30100 30.59100
H  -4.69300 23.14800 31.80200
H  -4.06400 22.72100 30.28300
H  -5.73900 22.18200 30.75700
H  -6.59100 26.76200 30.60200
H  -5.18000 27.75300 30.67400
H  -6.73400 27.22600 32.82300
H  -5.17500 27.93600 32.81900
H  -7.83900 20.12900 25.95900
H  -8.87100 21.30200 26.82700
H  -7.29200 20.89100 27.51800
H  -7.81900 19.57700 23.90100
H  -9.16000 20.09900 22.74300
H  -9.25600 20.65600 24.39000
H  -6.03700 26.51800 21.28200
H  -3.04900 26.70200 21.16300
H  -4.04000 24.21200 20.74300
H  -4.21800 25.42000 19.44900
H  -5.61800 24.48400 19.91100
H  -3.24400 29.00200 21.25400
H  -4.94100 28.92300 21.82000
H  -4.92200 27.70000 19.25000
H  -3.96800 29.20400 19.23300
H  -5.58800 29.26200 19.75300
H  -1.17500 30.04600 24.35600
H  0.17400 29.68200 25.44000
H  -1.04900 30.83800 25.95500
H  -3.26600 28.73700 30.04400
H  -0.45500 27.39800 33.10500
H  -1.19400 25.87500 32.45100
H  -1.95100 26.76300 33.67900

