158

Mg 43.75900 4.37500 47.36500
C  41.66600 7.21400 47.17400
C  40.92200 2.54800 46.66600
C  45.73400 1.76800 46.87600
C  46.56000 6.54700 46.98400
N  41.46100 4.95000 46.83900
C  40.88500 6.10900 46.97000
C  39.38300 5.95700 46.85300
C  39.10400 4.42900 46.68700
C  40.57200 3.92000 46.73000
C  38.33000 3.70000 47.84400
C  38.79300 6.82000 45.67400
C  39.41700 6.72600 44.28700
H  38.52900 6.24700 43.09200
N  43.38800 2.39500 46.86400
C  42.17800 1.83800 46.67500
C  42.33100 0.37400 46.58100
C  43.69000 0.10200 46.54900
C  44.37000 1.43700 46.64300
C  41.16800 -0.60500 46.47300
C  44.24700 -1.31700 46.53900
O  43.53200 -2.32400 46.35800
C  45.74600 -1.51300 46.79400
N  45.88800 4.21400 47.09000
C  46.45400 2.93200 47.14100
C  47.99400 2.97500 47.20000
C  48.25600 4.46500 46.81700
C  46.86300 5.18700 46.99500
C  48.73100 2.67200 48.52800
C  48.89800 4.77200 45.41500
C  50.41300 4.58600 45.19300
N  44.10200 6.41600 47.20200
C  45.28300 7.16300 47.14200
C  45.03300 8.55800 47.31900
C  43.64300 8.58800 47.39800
C  43.09800 7.30400 47.32100
C  45.97000 9.69300 47.38000
C  42.53600 9.47700 47.49200
O  42.44500 10.71000 47.40400
C  41.17500 8.62600 47.32400
C  40.29800 8.92100 48.49800
O  40.53600 8.44600 49.57900
O  39.28200 9.69100 48.15600
C  38.13600 9.76300 49.02400
H  40.11200 1.85400 46.43000
H  46.27500 0.82500 46.77200
H  47.40000 7.24400 46.95100
H  38.91800 6.26400 47.79000
H  38.43000 4.27100 45.84600
H  37.56600 4.34500 48.27600
H  39.00100 3.44600 48.66400
H  37.68200 2.89800 47.48900
H  38.75300 7.86100 45.99400
H  37.76300 6.47100 45.59800
H  40.35000 6.16100 44.30300
H  39.81300 7.72500 44.10800
H  40.19000 -0.12600 46.48800
H  41.35500 -1.33600 47.25900
H  41.25300 -1.14600 45.53000
H  46.34400 -1.19800 45.93900
H  46.04300 -2.55800 46.88800
H  45.98700 -1.04400 47.74800
H  48.23600 2.16500 46.51300
H  48.81900 4.95800 47.61000
H  49.11300 1.65300 48.59500
H  48.14500 2.97100 49.39600
H  49.64600 3.26100 48.60800
H  48.78400 5.82500 45.15900
H  48.32700 4.17000 44.70800
H  50.68300 5.46000 44.60000
H  50.65300 3.65400 44.68200
H  50.94900 4.67500 46.13800
H  45.55300 10.53900 46.83400
H  46.85300 9.48300 46.77700
H  46.18500 10.13000 48.35500
H  40.68100 8.94000 46.40400
H  38.30100 10.38500 49.90400
H  37.84600 8.73900 49.26400
H  37.32700 10.21600 48.45100
Mg 48.48800 14.72700 28.01000
C  46.08000 14.75900 30.62300
C  50.30500 16.79900 30.02800
C  50.97100 14.36500 25.87000
C  46.28000 12.87100 25.98700
N  48.23700 15.61600 30.13600
C  47.23400 15.44700 30.96700
C  47.52700 16.05400 32.36200
C  48.81700 16.78000 32.11100
C  49.08600 16.47000 30.59800
C  48.77800 18.28600 32.27900
C  47.69700 14.89700 33.42500
C  47.42100 15.21700 34.93100
H  48.66200 15.14600 35.83200
N  50.32000 15.62300 27.91200
C  50.86800 16.42600 28.79400
C  52.17100 16.84500 28.36000
C  52.50900 15.98000 27.26600
C  51.26000 15.27700 26.96600
C  52.88300 18.07400 28.85000
C  53.76300 15.87600 26.39400
O  53.83700 15.07400 25.46700
C  55.02100 16.68200 26.68600
N  48.54400 13.86800 26.10000
C  49.78100 13.71700 25.46000
C  49.63800 12.71900 24.34500
C  48.11100 12.43300 24.21300
C  47.60000 13.15600 25.51200
C  50.31900 13.11500 23.08700
C  47.69100 10.94100 24.03600
C  46.81400 10.70100 22.80200
N  46.58600 14.00300 28.17500
C  45.81400 13.35300 27.26700
C  44.48300 13.15400 27.92000
C  44.54600 13.70300 29.16700
C  45.87800 14.13800 29.35800
C  43.33000 12.40500 27.31900
C  43.84800 13.93100 30.33400
O  42.65100 13.79200 30.51600
C  44.79800 14.51400 31.38400
C  44.22000 15.71400 31.98400
O  44.03100 16.78200 31.45000
O  43.88300 15.41900 33.29700
C  42.83400 16.30500 33.95700
H  50.98700 17.31000 30.71000
H  51.76000 14.17400 25.13900
H  45.57800 12.30500 25.37200
H  46.64900 16.61500 32.68300
H  49.69700 16.37000 32.60800
H  47.85700 18.56300 32.79100
H  48.85800 18.77300 31.30700
H  49.56200 18.74200 32.88300
H  48.76400 14.69600 33.32700
H  47.29200 13.96600 33.02800
H  46.72200 14.44600 35.25600
H  47.05800 16.24500 34.93900
H  53.65300 17.61000 29.46600
H  52.25700 18.67500 29.50900
H  53.32900 18.67700 28.05900
H  55.07400 17.65100 27.18400
H  55.45900 16.68500 25.68800
H  55.58500 15.96500 27.28200
H  50.07800 11.84700 24.82900
H  47.71400 13.12900 23.47400
H  51.30000 12.64700 23.00900
H  50.48500 14.19200 23.06300
H  49.66200 12.74400 22.30100
H  47.27800 10.62300 24.99400
H  48.62900 10.44300 23.79100
H  47.31400 10.10300 22.04000
H  46.63600 11.65600 22.30900
H  45.85400 10.22300 22.99600
H  43.66700 11.69300 26.56600
H  42.58800 13.06500 26.87100
H  42.82600 11.83000 28.09600
H  44.93200 13.76000 32.15900
H  43.26200 17.27200 34.22100
H  42.51000 15.69300 34.79900
H  41.92900 16.37400 33.35400

