158

Mg 41.73400 7.45400 30.19800
C  43.41600 8.78500 32.78800
C  39.42500 6.06400 32.34500
C  40.31400 5.70900 27.58600
C  44.70100 7.66500 28.32000
N  41.48700 7.34000 32.32000
C  42.21300 8.13000 33.20600
C  41.62100 8.04400 34.62700
C  40.42300 7.04200 34.50700
C  40.46300 6.77700 32.95500
C  40.59400 5.73000 35.28400
C  41.16500 9.43400 35.09800
C  40.77200 9.49900 36.54300
H  41.52000 10.53900 37.45700
N  40.05900 6.22800 30.00700
C  39.25500 5.77500 31.01800
C  38.17800 4.96300 30.44200
C  38.39800 4.86100 29.04000
C  39.65300 5.65100 28.83700
C  37.27300 4.18300 31.26500
C  37.49500 4.20900 27.98600
O  37.73900 4.21800 26.80400
C  36.17100 3.59900 28.47400
N  42.45000 6.71900 28.26300
C  41.65400 6.14100 27.36400
C  42.26700 6.05100 25.94800
C  43.60000 6.76900 26.14900
C  43.60900 7.03100 27.70400
C  42.27900 4.56000 25.47900
C  43.78600 7.99700 25.30800
C  42.81100 9.19500 25.53100
N  43.57500 8.23200 30.41500
C  44.62000 8.28400 29.54900
C  45.65200 9.13400 30.18900
C  45.18300 9.46800 31.44900
C  43.99100 8.79100 31.55100
C  46.94600 9.62700 29.67500
C  45.52900 10.06500 32.75100
O  46.52300 10.72100 33.05900
C  44.26200 9.63500 33.61600
C  44.74900 9.02100 34.79300
O  45.23200 7.91500 34.84600
O  44.82600 10.02200 35.75700
C  45.71000 9.83300 36.91500
H  38.61900 5.75600 33.01400
H  39.88900 5.13200 26.76200
H  45.61200 7.83800 27.74300
H  42.41800 7.72400 35.30000
H  39.62000 7.64200 34.93500
H  40.99300 5.00700 34.57200
H  39.57900 5.44200 35.55600
H  41.31500 5.82900 36.09500
H  40.32500 9.71400 34.46200
H  41.98600 10.11100 34.86200
H  40.87600 8.56400 37.09400
H  39.69500 9.64600 36.62400
H  37.47900 4.17700 32.33500
H  37.15300 3.13700 30.98100
H  36.32700 4.71000 31.14200
H  35.69300 4.21900 29.23300
H  36.42600 2.63300 28.90800
H  35.56800 3.49100 27.57300
H  41.50900 6.56300 25.35500
H  44.38400 6.13500 25.73500
H  41.32200 4.19800 25.10400
H  42.49100 3.92700 26.34100
H  43.05300 4.39300 24.73000
H  43.86400 7.59400 24.29800
H  44.77900 8.36800 25.56300
H  42.14800 9.22000 26.39500
H  42.06500 9.26200 24.74000
H  43.52300 10.00900 25.66700
H  46.95200 9.75600 28.59200
H  47.67600 8.91000 30.04900
H  47.17900 10.62200 30.05300
H  43.72800 10.57200 33.77300
H  45.17600 9.87000 37.86400
H  46.31600 10.73100 37.04400
H  46.37500 8.97200 36.84300
Mg 26.06100 50.59900 25.79800
C  23.90300 51.45600 28.46100
C  28.21200 49.41200 28.23300
C  28.04400 49.59700 23.32100
C  23.74100 51.71500 23.52500
N  26.01400 50.41600 28.23200
C  25.02200 50.80900 29.03300
C  25.40300 50.62700 30.48000
C  26.89500 50.03300 30.37700
C  27.09000 49.94100 28.85300
C  28.05500 50.76900 31.13100
C  24.36700 49.71600 31.27000
C  24.88800 49.17400 32.56500
H  24.11300 49.42100 33.79600
N  27.87500 49.78200 25.77300
C  28.57500 49.23500 26.88300
C  29.89700 48.78900 26.38000
C  29.89300 48.92600 24.98400
C  28.52900 49.48000 24.62600
C  30.96000 48.13000 27.31600
C  30.92800 48.61900 23.94100
O  30.92900 48.95100 22.76000
C  32.16200 47.99500 24.45800
N  25.90200 50.63100 23.71400
C  26.84200 50.13300 22.85800
C  26.36600 50.09000 21.36500
C  24.91400 50.68800 21.46500
C  24.83400 51.02300 22.98000
C  27.35800 50.68800 20.31200
C  23.87700 49.75300 20.79900
C  23.57400 48.46400 21.42100
N  24.19800 51.50500 25.88800
C  23.33400 51.87500 24.86500
C  22.09200 52.32700 25.45900
C  22.24100 52.24700 26.89100
C  23.55000 51.66700 27.10400
C  21.01100 52.80300 24.47700
C  21.68400 52.52600 28.18800
O  20.60900 52.93000 28.60900
C  22.73500 52.13100 29.18500
C  23.16400 53.32900 30.01000
O  24.16200 53.96200 29.73600
O  22.39200 53.40400 31.13400
C  22.72600 54.47100 32.01400
H  29.00900 49.14500 28.93000
H  28.67300 49.20200 22.52000
H  22.98200 52.08200 22.83100
H  25.30500 51.61200 30.93500
H  26.96200 49.03200 30.80500
H  28.67600 50.17200 31.79800
H  27.58100 51.56300 31.70800
H  28.79000 51.24800 30.48400
H  24.20100 48.81000 30.68700
H  23.35500 50.11300 31.33700
H  25.84300 49.64600 32.79700
H  24.95900 48.08800 32.50600
H  31.10700 47.06900 27.11600
H  30.72800 48.23800 28.37600
H  31.92600 48.63500 27.29700
H  32.78200 47.64100 23.63400
H  31.90800 47.10600 25.03500
H  32.68300 48.78400 25.00000
H  26.31700 49.04600 21.05700
H  25.05100 51.63000 20.93300
H  28.17100 51.18600 20.84000
H  26.91900 51.45400 19.67300
H  27.83000 49.93400 19.68200
H  24.33200 49.42600 19.86400
H  22.97900 50.30700 20.53100
H  22.48700 48.42100 21.48900
H  24.11300 48.26600 22.34700
H  23.89500 47.67000 20.74600
H  20.12100 52.97200 25.08300
H  20.76900 51.98800 23.79500
H  21.27600 53.73600 23.97900
H  22.31400 51.32500 29.78500
H  23.69700 54.24000 32.45400
H  21.95300 54.51900 32.78100
H  23.03600 55.43600 31.61400

