158

Mg 35.37600 1.21300 29.25800
C  33.30500 2.29300 31.85400
C  37.83200 0.87500 31.63700
C  37.73600 0.46500 26.84200
C  32.95300 1.84500 26.96300
N  35.56200 1.76900 31.50800
C  34.55000 1.98200 32.31300
C  34.98600 1.91300 33.76200
C  36.52300 1.75100 33.67100
C  36.68800 1.45800 32.20100
C  37.56100 2.75300 34.32400
C  34.18200 0.88900 34.61600
C  33.97400 1.14300 36.10700
H  34.72000 2.29100 36.74800
N  37.48400 0.83400 29.20700
C  38.25900 0.64400 30.27800
C  39.53500 0.09200 29.85300
C  39.60200 0.17500 28.47200
C  38.23500 0.50300 28.11800
C  40.60200 -0.26800 30.91300
C  40.76900 -0.07400 27.49800
O  40.58100 0.08200 26.29900
C  42.01400 -0.58100 27.94000
N  35.27600 1.15000 27.19900
C  36.41200 0.87400 26.39100
C  36.02100 0.67600 24.92000
C  34.49300 1.10600 24.98700
C  34.21300 1.32600 26.49000
C  36.81000 1.39600 23.79200
C  33.52000 0.15600 24.27800
C  33.12000 -1.14500 25.05600
N  33.50100 2.00700 29.29600
C  32.64400 2.14100 28.27900
C  31.39200 2.54400 28.78900
C  31.56300 2.68200 30.18400
C  32.83700 2.23400 30.49300
C  30.08500 2.66800 28.05800
C  30.90500 2.95300 31.46600
O  29.72200 3.20800 31.77700
C  31.99500 2.63400 32.55600
C  32.00200 3.85500 33.43200
O  32.72100 4.78000 33.34900
O  31.10300 3.66200 34.51100
C  31.06000 4.83100 35.45400
H  38.48000 0.75200 32.50700
H  38.44100 0.09800 26.09400
H  32.16800 2.08600 26.24400
H  34.78000 2.87000 34.24200
H  36.66900 0.79500 34.17400
H  38.20800 2.29000 35.07000
H  36.91600 3.50600 34.77400
H  38.11100 3.36000 33.60500
H  34.71200 -0.06400 34.62300
H  33.21300 0.68800 34.15900
H  34.06800 0.21900 36.67700
H  32.89900 1.31400 36.16500
H  40.20900 -0.37500 31.92400
H  41.50900 0.32700 30.80700
H  41.00600 -1.22900 30.59300
H  42.56100 0.25700 28.37300
H  42.62400 -0.97700 27.12900
H  41.88200 -1.39800 28.64900
H  36.00000 -0.37300 24.62600
H  34.35800 2.06100 24.47800
H  37.07000 0.67800 23.01400
H  37.69900 1.94700 24.10000
H  36.14400 2.14400 23.36300
H  34.01200 -0.21000 23.37700
H  32.66700 0.72300 23.90500
H  33.92600 -1.55300 25.66500
H  32.78500 -1.81100 24.26100
H  32.18800 -1.01200 25.60600
H  29.29800 2.33500 28.73500
H  29.96800 2.08900 27.14200
H  29.90700 3.69600 27.74500
H  31.58600 1.78200 33.09900
H  31.90400 4.73500 36.13600
H  30.12600 4.71700 36.00400
H  31.05400 5.78800 34.93200
Mg 9.01400 47.03700 25.78300
C  7.14200 47.02500 28.64200
C  11.62800 48.39200 27.43400
C  10.78100 47.28500 22.82600
C  6.14000 46.40200 23.86300
N  9.37600 47.53600 27.93100
C  8.46600 47.41500 28.87700
C  9.04600 47.92100 30.11600
C  10.27800 48.78500 29.67200
C  10.48900 48.16900 28.27300
C  9.98200 50.31300 29.54400
C  9.31300 46.70100 31.06900
C  8.82000 46.96700 32.52200
H  9.03500 45.93400 33.55400
N  10.94400 47.43400 25.29900
C  11.91100 47.94600 26.17900
C  13.18500 48.08100 25.41100
C  12.92100 47.70700 24.08700
C  11.49800 47.47700 23.98500
C  14.45800 48.61100 26.10500
C  13.89600 47.68200 22.92100
O  13.60300 47.51800 21.70800
C  15.37700 47.74500 23.26100
N  8.47700 47.03700 23.55700
C  9.40900 47.07400 22.58300
C  8.80500 46.76600 21.24100
C  7.24100 46.67900 21.55400
C  7.26100 46.65000 23.10500
C  9.29000 47.86500 20.20700
C  6.63300 45.43700 20.93000
C  5.30300 45.76600 20.26700
N  7.09000 46.71700 26.14000
C  6.01300 46.45800 25.29600
C  4.80700 46.31600 26.01600
C  5.21500 46.51900 27.36400
C  6.56900 46.74900 27.39000
C  3.43700 45.94600 25.49800
C  4.75000 46.55900 28.71100
O  3.64100 46.34900 29.23900
C  6.00100 46.84000 29.63800
C  6.23100 45.69200 30.52000
O  6.89700 44.67400 30.26800
O  5.53000 45.93900 31.62400
C  5.60900 44.82500 32.61900
H  12.31100 48.91200 28.10900
H  11.37000 47.16800 21.91400
H  5.24100 46.21200 23.27300
H  8.29500 48.56800 30.56800
H  11.19300 48.61400 30.23900
H  9.69200 50.53200 28.51600
H  10.85200 50.95600 29.66800
H  9.18700 50.55700 30.24900
H  10.37600 46.58200 31.28000
H  8.85300 45.79200 30.68100
H  7.75700 47.20700 32.53800
H  9.17000 47.89800 32.96900
H  15.21800 47.83100 26.08900
H  14.24800 48.88400 27.14000
H  14.69000 49.57400 25.65100
H  15.56000 48.75700 23.62400
H  15.92600 47.47500 22.35900
H  15.64700 47.08000 24.08200
H  9.38700 45.86100 21.06300
H  6.71800 47.59900 21.29500
H  8.58000 48.09100 19.41200
H  10.26700 47.53100 19.85800
H  9.48500 48.73400 20.83600
H  6.59300 44.63800 21.67000
H  7.36300 45.06500 20.21100
H  5.46300 46.30400 19.33300
H  4.65700 46.25700 20.99500
H  4.89200 44.80300 19.96600
H  3.45700 45.41800 24.54500
H  2.67700 46.72600 25.51200
H  3.01600 45.27100 26.24400
H  5.85000 47.75700 30.20800
H  5.94600 45.19400 33.58700
H  6.35900 44.07100 32.37900
H  4.71200 44.21100 32.54400

