158

Mg 1.09500 -0.93600 43.76600
C  4.49900 -0.44000 43.08100
C  0.19800 1.66900 41.83700
C  -2.20100 -2.15700 43.66000
C  1.96000 -4.05000 45.11800
N  2.26400 0.26800 42.28400
C  3.63100 0.42800 42.31100
C  3.98600 1.66600 41.57700
C  2.59300 2.45700 41.55300
C  1.58300 1.41200 41.89000
C  2.44400 3.68400 42.39400
C  4.83000 1.48900 40.26700
C  6.23400 2.16600 40.09100
H  6.49000 2.96500 38.80100
N  -0.75300 -0.25500 43.01200
C  -0.83800 0.82200 42.11900
C  -2.15400 1.06700 41.89300
C  -2.93200 0.00300 42.42600
C  -1.98500 -0.86200 43.08900
C  -2.62300 2.37800 41.20700
C  -4.46500 -0.03700 42.42000
O  -5.10900 0.89700 41.94900
C  -5.19400 -1.22100 42.92700
N  0.02200 -2.83000 44.23000
C  -1.30300 -3.04900 44.21600
C  -1.73700 -4.46400 44.77600
C  -0.40600 -4.92700 45.38600
C  0.57800 -3.90200 44.84200
C  -3.04300 -4.61400 45.57600
C  -0.09500 -6.39800 45.00400
C  -0.26300 -7.35700 46.20700
N  2.85200 -2.05600 44.12200
C  3.02100 -3.23000 44.77600
C  4.42600 -3.44100 45.02000
C  5.06000 -2.38000 44.27600
C  4.06900 -1.54200 43.78800
C  5.17000 -4.53700 45.69900
C  6.32700 -1.75000 43.96700
O  7.46100 -2.07000 44.27400
C  6.02700 -0.49900 43.13200
C  6.62100 0.76400 43.69300
O  6.24400 1.17800 44.81500
O  7.67500 1.30600 42.99100
C  8.48500 2.24100 43.79100
H  0.02300 2.67700 41.45500
H  -3.19700 -2.60600 43.66100
H  2.27600 -4.90100 45.72600
H  4.63400 2.21700 42.25800
H  2.46100 2.71900 40.50400
H  3.30700 3.93000 43.01300
H  1.55000 3.72800 43.01500
H  2.45200 4.48600 41.65600
H  4.33700 1.94500 39.40800
H  4.91000 0.40600 40.16900
H  7.02000 1.41000 40.09100
H  6.45000 2.67100 41.03300
H  -1.92700 3.21100 41.10500
H  -3.44100 2.78500 41.80100
H  -2.92700 2.22400 40.17200
H  -5.09800 -1.34600 44.00600
H  -4.66000 -2.02100 42.41400
H  -6.23000 -1.25800 42.59100
H  -1.89700 -4.91900 43.79900
H  -0.40800 -4.71500 46.45600
H  -3.48600 -3.65200 45.83600
H  -2.79700 -4.96900 46.57700
H  -3.62600 -5.38100 45.06700
H  0.90100 -6.44400 44.56200
H  -0.70100 -6.75600 44.17200
H  -1.19300 -7.09700 46.71200
H  0.60100 -7.32500 46.87000
H  -0.40200 -8.36000 45.80200
H  4.64200 -4.81700 46.61100
H  6.15200 -4.14300 45.95900
H  5.18300 -5.39400 45.02600
H  6.35000 -0.79000 42.13300
H  7.92400 3.14500 44.02900
H  9.37600 2.45600 43.20100
H  8.91500 1.76400 44.67200
Mg 0.77500 43.02600 26.64100
C  3.34000 42.99900 29.09100
C  -1.54300 42.48600 28.97200
C  -1.28700 42.70600 24.02900
C  3.44700 43.40300 24.37900
N  0.96000 42.93900 28.76600
C  2.06900 42.93500 29.63100
C  1.62400 42.97600 31.08100
C  0.12500 42.59400 31.02100
C  -0.20000 42.54000 29.48700
C  -0.33600 41.24300 31.81800
C  1.94600 44.39600 31.67200
C  2.11100 44.54200 33.16900
H  1.63300 43.44400 34.09600
N  -1.11900 42.56600 26.49600
C  -1.93000 42.32900 27.58100
C  -3.27800 42.06100 27.02100
C  -3.28700 42.18600 25.61100
C  -1.86200 42.52300 25.32200
C  -4.48400 41.65900 27.85600
C  -4.44100 42.03500 24.57600
O  -4.24000 41.88700 23.36300
C  -5.75800 41.62400 25.15300
N  0.98000 43.11300 24.52600
C  -0.00500 42.85600 23.64100
C  0.41500 42.87400 22.16100
C  1.94100 43.23200 22.32500
C  2.12300 43.32800 23.83100
C  0.15800 41.60400 21.39400
C  2.31100 44.62700 21.70700
C  2.11300 45.96700 22.59100
N  2.96200 43.30000 26.64600
C  3.88700 43.35700 25.64300
C  5.25800 43.35700 26.17400
C  5.09400 43.09300 27.50800
C  3.70700 43.21700 27.74900
C  6.40500 43.59200 25.40200
C  5.73800 42.77700 28.80400
O  6.94800 42.52900 29.02500
C  4.66900 42.92200 29.86800
C  4.95500 41.83400 30.84000
O  4.74200 40.61200 30.66800
O  5.43000 42.35900 32.02800
C  5.81500 41.40600 33.08900
H  -2.31200 42.14300 29.66800
H  -1.93800 42.57600 23.16300
H  4.24600 43.53700 23.64700
H  2.30700 42.24100 31.50800
H  -0.49600 43.38200 31.44900
H  -1.07200 41.57000 32.55200
H  0.52500 40.84400 32.35400
H  -0.81400 40.54200 31.13200
H  1.01400 44.87800 31.37700
H  2.75600 44.90100 31.14600
H  1.62000 45.41800 33.59300
H  3.19000 44.61600 33.31000
H  -5.17200 42.47100 28.09000
H  -4.15200 41.21600 28.79500
H  -5.10900 40.86000 27.45600
H  -5.71300 40.57500 25.44500
H  -6.41800 41.60700 24.28600
H  -6.11500 42.25000 25.97000
H  -0.03300 43.71200 21.62600
H  2.63400 42.47200 21.96600
H  -0.45200 41.04400 22.10400
H  1.06200 41.04600 21.15100
H  -0.45000 41.83800 20.52000
H  1.85500 44.93100 20.76500
H  3.38300 44.64400 21.51100
H  1.47800 46.62400 21.99700
H  3.09200 46.39100 22.81600
H  1.60500 45.88900 23.55200
H  7.33700 43.49400 25.95700
H  6.34500 44.45300 24.73500
H  6.45100 42.69300 24.78800
H  4.91100 43.88900 30.30900
H  6.75500 40.89100 32.88900
H  5.00400 40.72400 33.34300
H  5.94400 41.96600 34.01500

