158

Mg 1.59400 8.36000 26.17300
C  1.74500 10.54400 28.86500
C  2.34300 5.77800 28.31900
C  1.50000 6.43300 23.47400
C  1.72500 11.16900 24.05200
N  2.02900 8.17900 28.32400
C  1.91400 9.20800 29.26900
C  1.84300 8.68400 30.74000
C  2.12100 7.14900 30.54500
C  2.17200 6.97700 28.97600
C  3.44400 6.65200 31.16300
C  0.51500 9.02500 31.37500
C  0.35500 8.94900 32.86700
H  1.51600 8.30300 33.67500
N  1.96100 6.39800 25.94900
C  2.32300 5.52800 26.91900
C  2.56900 4.22700 26.20800
C  2.45000 4.43300 24.79100
C  1.90500 5.76400 24.67100
C  2.79200 2.99300 26.98200
C  2.64700 3.51100 23.67100
O  2.54100 3.75400 22.46100
C  3.08700 2.10800 24.01900
N  1.43400 8.76100 24.08100
C  1.37000 7.76500 23.16900
C  1.25700 8.23200 21.72500
C  1.25600 9.84500 21.94800
C  1.46600 9.95300 23.47900
C  2.38500 7.77100 20.73900
C  -0.08400 10.59200 21.54800
C  0.00100 12.04200 20.91400
N  1.64500 10.46500 26.40600
C  1.79400 11.47700 25.46000
C  1.87600 12.72500 26.11500
C  1.83400 12.44700 27.49000
C  1.75700 11.03000 27.58300
C  2.03700 14.08100 25.50400
C  1.90300 13.01800 28.79600
O  2.03000 14.21600 29.05500
C  1.70900 11.81100 29.77400
C  2.88900 11.96100 30.64000
O  4.05200 12.21900 30.38600
O  2.49600 11.75100 31.97700
C  3.49400 12.01500 33.06400
H  2.60700 4.97900 29.01600
H  1.48600 5.87000 22.53800
H  1.91000 11.97000 23.33300
H  2.69000 9.15400 31.24000
H  1.37800 6.52600 31.04300
H  3.99400 7.46600 31.63500
H  4.06900 6.13700 30.43300
H  3.25300 5.84100 31.86500
H  -0.25000 8.40900 30.90300
H  0.19600 10.04500 31.16000
H  -0.64800 8.55600 33.03800
H  0.20600 9.90500 33.36800
H  2.62500 3.28800 28.01800
H  3.81300 2.61100 26.99100
H  2.07400 2.22300 26.69900
H  3.21800 1.53900 23.09900
H  2.27000 1.66300 24.58800
H  3.99800 2.12600 24.61700
H  0.26200 7.94600 21.38500
H  2.06900 10.41900 21.50200
H  3.23700 7.30200 21.23000
H  2.69900 8.56600 20.06300
H  1.82300 7.06300 20.12900
H  -0.84300 10.48500 22.32300
H  -0.50200 10.02900 20.71300
H  0.83800 12.12800 20.22100
H  0.25600 12.69000 21.75300
H  -0.93300 12.37600 20.46200
H  2.73500 14.70200 26.06600
H  1.08500 14.60600 25.57700
H  2.41000 13.99900 24.48300
H  0.72200 11.77300 30.23700
H  3.08500 12.51800 33.94000
H  4.42900 12.53700 32.86000
H  3.80300 11.03400 33.42300
Mg 16.45400 -2.83800 27.04600
C  15.66100 -0.43700 29.49900
C  18.36800 -4.48200 29.42100
C  17.62900 -4.75400 24.57300
C  14.90900 -0.66400 24.54600
N  17.22200 -2.20700 29.14600
C  16.57800 -1.37400 30.00600
C  17.08100 -1.48200 31.54000
C  18.07300 -2.77700 31.37900
C  17.93800 -3.17200 29.83600
C  19.52400 -2.54000 31.74400
C  15.97000 -1.62900 32.57500
C  15.81100 -0.66500 33.65100
H  17.12200 -0.07800 34.25000
N  17.64000 -4.55500 27.08900
C  18.30300 -5.14100 28.13900
C  18.88900 -6.35200 27.66400
C  18.73000 -6.38300 26.26000
C  17.94600 -5.24300 25.88200
C  19.82300 -7.06800 28.50100
C  19.32400 -7.38500 25.30100
O  19.07700 -7.37300 24.06800
C  20.14100 -8.70100 25.86000
N  16.21700 -2.76100 24.91700
C  16.95100 -3.65400 24.14600
C  16.90100 -3.30300 22.62200
C  15.78700 -2.17400 22.64800
C  15.63600 -1.83300 24.10400
C  18.26300 -2.78700 22.02600
C  14.53300 -2.41400 21.83700
C  13.26100 -2.54500 22.59500
N  15.51600 -0.97800 26.95000
C  14.83800 -0.27000 25.95600
C  14.09000 0.89800 26.60900
C  14.40400 0.84800 27.97100
C  15.30600 -0.30600 28.13400
C  13.16000 1.83500 25.95800
C  14.11700 1.58100 29.25200
O  13.43700 2.55200 29.49600
C  14.87600 0.65200 30.22600
C  15.90500 1.61100 30.91500
O  16.99500 1.85500 30.40900
O  15.50000 2.23400 32.06900
C  16.43600 3.34100 32.51800
H  18.91600 -5.06000 30.16800
H  18.01100 -5.19300 23.64900
H  14.39100 -0.02000 23.83300
H  17.58300 -0.54500 31.78200
H  17.86200 -3.60700 32.05200
H  19.85700 -3.20300 32.54300
H  19.63300 -1.49600 32.04000
H  20.17100 -2.71700 30.88500
H  15.92900 -2.59900 33.07200
H  15.08100 -1.58700 31.94500
H  15.51100 -1.29000 34.49200
H  15.10300 0.14000 33.45400
H  20.83900 -7.00700 28.11200
H  19.64100 -8.13900 28.59000
H  19.78500 -6.74500 29.54100
H  19.53300 -9.36500 26.47500
H  21.04500 -8.30100 26.31800
H  20.63600 -9.28100 25.08100
H  16.56700 -4.14300 22.01200
H  16.17700 -1.25500 22.20900
H  19.10800 -3.21300 22.56700
H  18.41600 -1.71000 22.10100
H  18.35500 -3.07800 20.98000
H  14.74900 -3.25000 21.17200
H  14.42900 -1.48000 21.28400
H  13.40700 -3.04000 23.55500
H  12.60100 -3.19800 22.02300
H  12.77800 -1.58300 22.76500
H  12.74600 1.19500 25.17900
H  13.63400 2.72000 25.53200
H  12.52200 2.11900 26.79500
H  14.15500 0.33000 30.97800
H  16.29300 4.29000 32.00200
H  17.50000 3.10400 32.51600
H  16.24100 3.54700 33.57100

