158

Mg 48.47500 35.83300 28.43300
C  46.53300 33.87100 30.55900
C  48.74900 38.25100 30.80200
C  49.77100 37.93800 26.09300
C  48.25300 33.32600 25.98800
N  47.61700 36.03000 30.39000
C  47.11300 35.05900 31.15900
C  47.43200 35.30000 32.62100
C  47.60900 36.85800 32.60000
C  48.09000 37.09900 31.21300
C  46.40900 37.79200 33.01500
C  48.72400 34.54300 33.03500
C  49.09500 34.37300 34.50700
H  48.29800 35.21700 35.55900
N  49.37100 37.70700 28.51900
C  49.34800 38.49200 29.61400
C  49.98300 39.77400 29.28900
C  50.30600 39.72100 27.91300
C  49.75700 38.44300 27.44500
C  50.37100 40.84600 30.31100
C  51.04600 40.72100 27.19200
O  51.32000 40.41300 26.04600
C  51.47900 42.03400 27.82200
N  48.88900 35.66100 26.34700
C  49.38500 36.66700 25.56100
C  49.69600 36.09200 24.11900
C  49.47300 34.65000 24.29900
C  48.86500 34.51700 25.62600
C  48.73200 36.76500 23.11800
C  50.86100 33.86800 24.21200
C  50.94800 32.73200 23.16500
N  47.49600 33.95300 28.23700
C  47.55500 32.99200 27.19700
C  46.63100 31.97600 27.52000
C  46.21100 32.24100 28.83800
C  46.84300 33.42300 29.22800
C  46.33000 30.82500 26.60500
C  45.40300 31.77700 29.97400
O  44.64000 30.80800 30.06200
C  45.69900 32.76000 31.14000
C  46.42800 32.01000 32.20200
O  47.48200 31.38000 32.02000
O  45.82600 32.20100 33.48300
C  46.55600 31.79000 34.64600
H  48.89100 38.96500 31.61600
H  50.20400 38.49000 25.25600
H  48.32700 32.59100 25.18300
H  46.53200 35.16800 33.22200
H  48.42300 37.23000 33.22200
H  45.55100 37.15000 33.21500
H  46.08600 38.42500 32.18900
H  46.85500 38.39600 33.80500
H  49.54500 35.00000 32.48300
H  48.56900 33.49600 32.77200
H  50.15900 34.55100 34.66300
H  49.10000 33.30400 34.71900
H  51.43600 41.07000 30.24600
H  50.01200 40.65400 31.32300
H  49.74800 41.72600 30.15000
H  50.64300 42.52100 28.32400
H  51.78500 42.59800 26.94100
H  52.31100 41.87900 28.50800
H  50.68600 36.33100 23.73100
H  48.79200 34.25500 23.54500
H  49.28800 37.03800 22.22100
H  48.33200 37.71200 23.48300
H  47.94400 36.02300 22.99100
H  51.08500 33.50200 25.21400
H  51.63300 34.61600 24.03100
H  51.84100 32.17300 23.44600
H  51.05700 33.21800 22.19500
H  50.07700 32.11300 23.38100
H  45.49000 30.17800 26.85800
H  47.28400 30.30200 26.53300
H  46.04900 31.19200 25.61800
H  44.74200 33.11200 31.52400
H  46.73700 32.66200 35.27400
H  47.50500 31.30800 34.41400
H  45.84800 31.11100 35.12200
Mg -11.93600 39.47400 41.29700
C  -9.94600 36.49300 40.73100
C  -9.44000 41.14000 39.68100
C  -13.91500 42.00800 41.14800
C  -14.42600 37.40800 42.63800
N  -9.99200 38.75700 40.17400
C  -9.36400 37.54800 40.12200
C  -8.17500 37.60400 39.13600
C  -7.95400 39.17900 39.09100
C  -9.23400 39.77000 39.64300
C  -6.60600 39.65700 39.79600
C  -8.50600 36.87000 37.79300
C  -7.59500 35.68900 37.34700
H  -6.41500 35.96300 36.29500
N  -11.63400 41.34100 40.48300
C  -10.60800 41.89100 39.90900
C  -10.81200 43.23400 39.64000
C  -12.12800 43.53900 40.09100
C  -12.62300 42.27300 40.60400
C  -9.72600 44.08900 38.93200
C  -12.85100 44.88300 39.92200
O  -12.27800 45.79100 39.36600
C  -14.23000 45.17600 40.36000
N  -13.82800 39.59700 41.70600
C  -14.49500 40.81900 41.61100
C  -15.91200 40.81400 42.18900
C  -16.08700 39.34400 42.51600
C  -14.72700 38.69500 42.22400
C  -16.21800 41.82400 43.35500
C  -17.33700 38.70200 41.86600
C  -17.36600 38.56300 40.33000
N  -12.16700 37.41800 41.68500
C  -13.16400 36.74800 42.39900
C  -12.79200 35.31900 42.47900
C  -11.49900 35.24500 41.92900
C  -11.18800 36.51800 41.39500
C  -13.54300 34.28800 43.30200
C  -10.39100 34.31700 41.71000
O  -10.19100 33.15800 42.02000
C  -9.37900 35.10700 40.82100
C  -8.13100 34.89600 41.50100
O  -7.36500 33.94200 41.33900
O  -7.81900 35.91500 42.41100
C  -6.91100 35.53900 43.51000
H  -8.58500 41.72200 39.32900
H  -14.48800 42.90500 41.39400
H  -15.18900 36.85900 43.19200
H  -7.34100 37.06500 39.58700
H  -7.87300 39.41700 38.03000
H  -6.01200 38.83900 40.20200
H  -6.82500 40.40300 40.56000
H  -6.13900 40.17200 38.95600
H  -8.47500 37.60500 36.98800
H  -9.53800 36.51900 37.81600
H  -8.22400 34.90700 36.92200
H  -7.13700 35.28700 38.25100
H  -10.07700 44.24100 37.91200
H  -8.67600 43.84500 39.09300
H  -9.71000 45.11000 39.31300
H  -14.13800 45.34900 41.43200
H  -14.94500 44.38700 40.12500
H  -14.49100 46.07500 39.80300
H  -16.52800 41.15100 41.35600
H  -16.20300 39.26800 43.59800
H  -15.23800 42.19900 43.65300
H  -16.77700 41.42000 44.19800
H  -16.79800 42.64200 42.92800
H  -18.12900 39.42000 42.07800
H  -17.57800 37.77400 42.38500
H  -16.48800 39.05500 39.91200
H  -18.14600 39.04000 39.73700
H  -17.42600 37.48600 40.17700
H  -13.11200 34.41700 44.29500
H  -13.24100 33.26900 43.05900
H  -14.60300 34.48200 43.46300
H  -9.40500 34.62700 39.84300
H  -7.04100 34.47400 43.70300
H  -6.97200 36.16000 44.40400
H  -5.86600 35.65800 43.22400

