158

Mg 35.95700 1.37800 29.60300
C  33.79300 2.11500 32.22200
C  38.58600 1.30700 31.82800
C  38.06500 0.73200 27.10400
C  33.36900 1.99200 27.47400
N  36.12600 1.54500 31.83500
C  35.08200 1.84600 32.70500
C  35.61700 2.03100 34.05300
C  37.15800 2.07000 33.85800
C  37.34000 1.64100 32.39900
C  37.84500 3.35000 34.21300
C  35.09900 0.92000 35.05000
C  34.82300 1.35500 36.50700
H  35.57000 2.42200 37.25100
N  38.03800 0.92700 29.47800
C  38.89300 0.87100 30.55400
C  40.25100 0.37000 30.06600
C  40.12900 0.30000 28.63000
C  38.69200 0.59800 28.35900
C  41.44300 0.20400 31.00500
C  41.25700 -0.05600 27.60600
O  41.12000 0.00400 26.40900
C  42.62000 -0.50700 28.20300
N  35.70300 1.19500 27.61800
C  36.71900 1.00500 26.74800
C  36.25300 0.94200 25.27400
C  34.72500 1.20300 25.42200
C  34.57000 1.48200 26.97200
C  36.97900 1.90700 24.27400
C  33.88700 0.06300 24.81700
C  33.17100 -0.97400 25.69900
N  34.00700 2.00100 29.75200
C  33.05200 2.20600 28.78000
C  31.73200 2.48100 29.34800
C  32.03100 2.49700 30.72500
C  33.35500 2.22800 30.88700
C  30.52900 2.63000 28.64200
C  31.45300 2.73200 32.03400
O  30.31000 3.11800 32.26000
C  32.55100 2.50800 33.04000
C  32.72200 3.70300 33.93300
O  33.07300 4.76500 33.52000
O  32.23000 3.43200 35.20800
C  32.17200 4.60500 36.09200
H  39.35700 1.24000 32.59800
H  38.84800 0.56300 26.36100
H  32.54100 2.12400 26.77400
H  35.16600 2.92600 34.48200
H  37.58700 1.33500 34.53900
H  38.57600 3.21500 35.01000
H  37.26100 4.14500 34.67500
H  38.33800 3.73600 33.32100
H  35.71500 0.02200 35.00300
H  34.10800 0.62800 34.70400
H  34.95200 0.41400 37.04200
H  33.81100 1.75900 36.49500
H  42.12100 0.91100 30.52800
H  41.88100 -0.79100 30.92700
H  41.13700 0.61400 31.96800
H  43.12000 0.38000 28.59200
H  43.25500 -0.92600 27.42300
H  42.54600 -1.23500 29.01100
H  36.32300 -0.08400 24.91400
H  34.43100 2.13500 24.94000
H  37.92500 2.29500 24.65100
H  36.45700 2.84600 24.09200
H  37.21100 1.29600 23.40200
H  34.52400 -0.42300 24.07900
H  33.05100 0.62600 24.40000
H  32.12100 -0.83000 25.44300
H  33.41100 -0.88100 26.75800
H  33.32800 -2.03500 25.50900
H  30.39200 1.84300 27.90000
H  30.41800 3.53500 28.04400
H  29.79500 2.54600 29.44300
H  32.22600 1.77800 33.78100
H  31.18800 4.65900 36.55800
H  32.33300 5.52700 35.53300
H  32.97100 4.55300 36.83100
Mg 46.67700 44.59700 43.36200
C  43.05700 44.32600 43.21700
C  46.81500 41.30400 42.32200
C  49.80000 45.12600 42.81400
C  46.00400 48.18500 43.47900
N  45.07500 43.11900 42.74400
C  43.69600 43.14500 42.74800
C  43.02400 41.83900 42.25000
C  44.26700 40.92000 42.09900
C  45.49800 41.82300 42.45300
C  44.12000 39.56200 42.98000
C  42.00300 41.90900 41.07000
C  42.72800 42.39900 39.80300
H  42.64800 41.52200 38.58400
N  48.19500 43.33400 42.67600
C  48.09400 42.02600 42.39300
C  49.42800 41.51100 42.20500
C  50.33000 42.57200 42.35900
C  49.49800 43.76000 42.62600
C  49.84400 40.06200 41.86400
C  51.90500 42.55700 42.23500
O  52.47000 41.48900 42.02400
C  52.66800 43.79000 42.47300
N  47.67300 46.47300 42.82700
C  49.06800 46.31800 42.99000
C  49.74700 47.69500 43.30500
C  48.51200 48.63800 43.03900
C  47.29400 47.68900 43.23000
C  50.29800 47.71400 44.72500
C  48.47200 49.45200 41.68400
C  48.35900 50.98900 41.83100
N  44.93900 46.01300 43.44400
C  44.91500 47.40500 43.57000
C  43.55300 47.84700 43.78600
C  42.75600 46.65400 43.62100
C  43.68900 45.54300 43.47700
C  43.13900 49.24000 43.94800
C  41.39700 46.18100 43.59100
O  40.34300 46.74700 43.82100
C  41.60700 44.61600 43.33900
C  40.82800 43.89600 44.39600
O  39.70800 43.41000 44.16600
O  41.48800 43.79400 45.59200
C  40.74400 42.95400 46.55600
H  46.75000 40.24600 42.05800
H  50.86400 45.35900 42.72700
H  45.90200 49.27200 43.51200
H  42.38500 41.46600 43.05000
H  44.26400 40.67100 41.03800
H  44.89100 39.35900 43.72300
H  43.99800 38.68800 42.34100
H  43.23800 39.54600 43.62100
H  41.14000 42.51300 41.35100
H  41.58300 40.91100 40.94300
H  43.80500 42.52700 39.90400
H  42.25200 43.34700 39.55300
H  50.60400 40.19700 41.09400
H  48.95400 39.59100 41.44700
H  50.24300 39.46600 42.68500
H  52.50200 44.20700 43.46600
H  52.40800 44.42000 41.62200
H  53.69600 43.48100 42.28800
H  50.50900 47.84700 42.54100
H  48.38200 49.30500 43.89200
H  51.21000 48.30600 44.80200
H  50.53000 46.72300 45.11600
H  49.48400 48.02200 45.38300
H  47.57700 49.23000 41.10300
H  49.32400 49.14700 41.07600
H  47.62300 51.40800 41.14400
H  49.35700 51.32700 41.55400
H  48.14300 51.23800 42.87000
H  42.06200 49.37800 44.04200
H  43.51300 49.88700 43.15400
H  43.65400 49.56900 44.85100
H  41.08200 44.41500 42.40500
H  40.20500 43.70600 47.13100
H  41.54800 42.56100 47.17900
H  39.93000 42.28700 46.27100

