158

Mg 16.96500 -1.68200 28.12200
C  15.96700 0.79500 30.36500
C  18.89200 -3.11800 30.52000
C  18.49600 -3.47200 25.66000
C  15.44500 0.28800 25.46700
N  17.22400 -1.26000 30.24700
C  16.62500 -0.25800 30.95000
C  16.91500 -0.42800 32.48800
C  18.15000 -1.43500 32.41500
C  18.06500 -2.01000 30.97600
C  19.57400 -0.78900 32.67000
C  15.72500 -1.00000 33.32400
C  15.78100 -0.56400 34.83500
H  17.09000 -0.10900 35.50200
N  18.31100 -3.23200 28.11100
C  18.99700 -3.65500 29.21600
C  19.87400 -4.67600 28.75500
C  19.71600 -4.87600 27.35400
C  18.84900 -3.80000 26.97100
C  20.83200 -5.42600 29.67400
C  20.37100 -5.89000 26.36900
O  20.27900 -5.88500 25.16700
C  21.14700 -7.02900 26.95300
N  16.95500 -1.57800 25.92900
C  17.66700 -2.45100 25.17700
C  17.44200 -2.20700 23.68600
C  16.31400 -1.12700 23.70000
C  16.22700 -0.79000 25.17800
C  18.74500 -1.74400 22.95900
C  14.99400 -1.60500 23.04500
C  14.02200 -2.28400 23.99300
N  15.84900 0.15500 27.87300
C  15.23800 0.77200 26.78800
C  14.48200 1.95000 27.25600
C  14.82800 2.01200 28.65900
C  15.61100 0.91400 28.98600
C  13.76300 2.80200 26.29200
C  14.64400 2.74800 29.83400
O  14.09800 3.86400 29.99600
C  15.15900 1.85900 31.06000
C  15.96400 2.82800 31.79200
O  16.86300 3.43900 31.28800
O  15.39200 3.04700 33.09000
C  16.12400 3.92700 33.95400
H  19.46100 -3.57200 31.33500
H  19.04600 -3.95700 24.85100
H  15.04700 0.90300 24.65700
H  17.25600 0.47700 32.99100
H  18.05800 -2.20000 33.18600
H  20.09900 -1.56200 33.23100
H  19.53700 0.16700 33.19200
H  20.10700 -0.69000 31.72500
H  15.71800 -2.08300 33.19900
H  14.82000 -0.56600 32.89700
H  15.43800 -1.46100 35.34900
H  15.05900 0.23200 35.01800
H  21.86300 -5.33800 29.33000
H  20.62600 -6.47900 29.86600
H  20.79100 -4.93100 30.64400
H  20.48700 -7.56400 27.63600
H  22.02000 -6.62700 27.46800
H  21.40500 -7.73700 26.16500
H  17.04500 -3.15100 23.31300
H  16.63500 -0.22600 23.17700
H  18.56500 -1.28300 21.98800
H  19.41400 -2.59100 22.81000
H  19.21900 -0.87200 23.41100
H  15.31300 -2.27700 22.24900
H  14.48800 -0.73200 22.63200
H  13.24300 -1.58200 24.29100
H  14.52600 -2.66000 24.88300
H  13.61700 -3.14600 23.46300
H  13.72900 2.47300 25.25400
H  14.45100 3.64600 26.25600
H  12.81300 3.13900 26.70800
H  14.36300 1.53000 31.72800
H  16.18800 3.49000 34.95000
H  15.59100 4.87700 34.00600
H  17.13200 4.12500 33.59000
Mg 47.76200 35.16200 27.69600
C  45.90000 33.45600 30.16000
C  47.78000 37.92500 29.87700
C  49.15700 36.79500 25.38900
C  46.98800 32.51900 25.52600
N  47.05700 35.55100 29.78400
C  46.56600 34.58800 30.63500
C  46.70900 35.07000 32.09900
C  46.79400 36.60500 31.95100
C  47.24000 36.72500 30.45200
C  45.42300 37.31800 32.21300
C  47.96000 34.42600 32.85300
C  48.07500 34.56800 34.37100
H  47.35000 35.78100 35.06500
N  48.46400 37.12700 27.74100
C  48.43300 38.06700 28.66100
C  49.30900 39.16900 28.22100
C  49.83200 38.77400 26.97000
C  49.12700 37.53400 26.67000
C  49.61900 40.45900 28.99300
C  50.86100 39.46100 26.04500
O  51.26700 38.88600 25.05300
C  51.57600 40.69400 26.38000
N  48.06400 34.68600 25.70200
C  48.67800 35.55900 24.88600
C  48.59900 35.13600 23.41000
C  48.04600 33.71100 23.56400
C  47.69700 33.64500 25.05400
C  47.83100 36.08700 22.41800
C  49.13800 32.68200 23.12700
C  48.65400 31.54300 22.23600
N  46.83500 33.28000 27.78900
C  46.49400 32.33600 26.80900
C  45.78900 31.20100 27.42200
C  45.48300 31.67500 28.69200
C  46.12500 32.92800 28.87800
C  45.34500 29.92400 26.78800
C  44.77400 31.38700 29.88400
O  44.10200 30.43700 30.10700
C  44.87800 32.59500 30.82800
C  45.08500 32.20700 32.30200
O  46.06200 31.63900 32.75200
O  44.07500 32.71500 33.15000
C  44.45800 32.56500 34.59300
H  47.73900 38.83800 30.47500
H  49.66000 37.38000 24.61600
H  46.64900 31.80800 24.77100
H  45.79400 34.77600 32.61400
H  47.56100 36.91200 32.66200
H  45.40500 37.85300 33.16300
H  44.58300 36.63300 32.10400
H  45.25300 38.05800 31.43100
H  48.86900 34.70000 32.31600
H  47.85500 33.36900 32.60900
H  49.06800 34.62300 34.81600
H  47.70200 33.64800 34.82200
H  50.70300 40.51000 29.09700
H  49.27200 40.35000 30.02100
H  49.30600 41.42400 28.59500
H  52.14900 40.59400 27.30200
H  50.83300 41.47000 26.56400
H  52.27400 40.97000 25.58900
H  49.61600 35.03200 23.03100
H  47.15400 33.76400 22.94100
H  48.53900 36.80600 22.00600
H  47.33900 36.75800 23.12200
H  47.04600 35.61500 21.82600
H  49.45900 32.19700 24.04900
H  50.11000 33.11600 22.89100
H  47.89000 30.92900 22.71300
H  49.54500 30.94600 22.04400
H  48.31600 31.97600 21.29400
H  45.77400 29.88900 25.78700
H  44.25600 29.90500 26.76400
H  45.62700 29.02800 27.34200
H  43.88500 33.04500 30.81500
H  45.37700 33.09100 34.85100
H  44.57800 31.52700 34.90300
H  43.79100 33.11400 35.25700

