158

Mg 2.42000 -3.86600 44.16200
C  5.73000 -2.71800 43.93800
C  1.52500 -1.61000 41.77300
C  -0.65900 -5.35500 44.21400
C  3.69200 -6.38600 46.41300
N  3.47900 -2.33600 43.04400
C  4.83300 -2.06400 43.07200
C  5.18100 -0.93100 42.08700
C  3.79400 -0.41700 41.68000
C  2.88600 -1.56400 42.14600
C  3.30400 0.99100 42.15000
C  6.02000 -1.49700 40.90700
C  7.39600 -0.80700 40.46100
H  7.49000 -0.25700 39.00100
N  0.69800 -3.52900 43.07000
C  0.51100 -2.44600 42.28700
C  -0.83700 -2.45600 41.91900
C  -1.46800 -3.64600 42.40800
C  -0.52700 -4.18400 43.37500
C  -1.51100 -1.37100 41.10800
C  -2.86000 -4.16800 42.05900
O  -3.61800 -3.58000 41.33800
C  -3.43100 -5.49100 42.60900
N  1.60600 -5.70200 45.12300
C  0.33800 -6.03300 44.97900
C  0.07000 -7.36700 45.71300
C  1.41900 -7.68100 46.38700
C  2.37700 -6.56800 45.92100
C  -1.27800 -7.40800 46.59200
C  1.99700 -9.09100 46.10100
C  2.95100 -9.25300 44.85800
N  4.34300 -4.50200 45.06700
C  4.70100 -5.50200 45.98900
C  6.16500 -5.43200 46.42600
C  6.62000 -4.30000 45.55600
C  5.48000 -3.81500 44.83600
C  6.90100 -6.26600 47.34700
C  7.71700 -3.50300 45.12800
O  8.93200 -3.68300 45.38500
C  7.18200 -2.34400 44.09500
C  7.33600 -1.04600 44.62900
O  6.94700 -0.62400 45.69500
O  7.98600 -0.25700 43.72200
C  8.08600 1.13500 44.08200
H  1.09200 -0.92900 41.03800
H  -1.65000 -5.80300 44.30500
H  3.91200 -7.14200 47.16900
H  5.72900 -0.17600 42.65100
H  3.64300 -0.37600 40.60200
H  4.11400 1.48000 42.69000
H  2.44200 0.92200 42.81400
H  3.11100 1.73700 41.37900
H  5.44500 -1.41400 39.98500
H  6.25300 -2.54600 41.09200
H  8.30400 -1.36600 40.68800
H  7.59400 0.11100 41.01500
H  -1.56000 -1.38100 40.01900
H  -0.91100 -0.46800 41.21300
H  -2.49000 -1.08800 41.49300
H  -2.71800 -6.30900 42.71000
H  -4.27200 -5.73200 41.95900
H  -3.84900 -5.21500 43.57700
H  -0.08000 -7.94900 44.80300
H  1.33200 -7.43400 47.44500
H  -1.63500 -6.37900 46.55500
H  -1.00200 -7.82200 47.56200
H  -2.01100 -8.11500 46.20300
H  1.26600 -9.89800 46.05500
H  2.57500 -9.28200 47.00500
H  4.02600 -9.35200 45.01200
H  2.80600 -8.49500 44.08800
H  2.76100 -10.18500 44.32600
H  7.80500 -5.78300 47.71900
H  7.03700 -7.26700 46.93800
H  6.31200 -6.49400 48.23500
H  7.79100 -2.47900 43.20100
H  8.82200 1.37800 44.84900
H  7.08800 1.51800 44.29500
H  8.51900 1.65400 43.22700
Mg 49.59400 45.54200 42.86500
C  46.20700 45.19000 42.09300
C  49.99700 42.23600 41.97300
C  52.93700 45.87600 43.20900
C  49.26300 49.03000 43.00200
N  48.24400 43.91500 42.00100
C  46.87200 43.98300 41.92500
C  46.25000 42.69000 41.53200
C  47.44600 41.72400 41.59100
C  48.68300 42.62600 41.87600
C  47.21200 40.60100 42.64000
C  45.50000 42.69500 40.13800
C  46.08200 43.58000 38.98300
H  46.09400 42.92600 37.56400
N  51.25000 44.24400 42.70200
C  51.18000 42.92700 42.36200
C  52.52700 42.34700 42.47700
C  53.42000 43.43900 42.75000
C  52.53200 44.60500 42.84900
C  52.72200 40.94500 42.10100
C  54.89500 43.41500 42.77000
O  55.45700 42.34700 42.90400
C  55.88200 44.65800 42.78200
N  50.91200 47.18700 43.08300
C  52.25900 47.04500 43.22300
C  53.01700 48.38500 43.46400
C  51.78300 49.48500 43.38500
C  50.62800 48.53300 43.05800
C  53.87200 48.56300 44.71000
C  51.98000 50.54500 42.25100
C  51.96700 50.04600 40.80200
N  48.08000 46.88200 42.64700
C  48.03200 48.22700 42.72500
C  46.68600 48.75100 42.54700
C  45.92100 47.58100 42.26200
C  46.80000 46.46900 42.29400
C  46.24900 50.18500 42.64300
C  44.63100 47.01500 42.08200
O  43.57200 47.55200 42.09700
C  44.74000 45.46000 41.94600
C  43.82700 44.89500 42.96800
O  42.62100 44.71200 42.79400
O  44.43600 44.67400 44.17300
C  43.69000 44.13100 45.32900
H  50.28000 41.19000 41.83900
H  53.98100 46.08800 43.45000
H  49.05600 50.10200 43.01700
H  45.44800 42.52200 42.25200
H  47.57000 41.21500 40.63500
H  46.32700 40.79100 43.24700
H  48.07600 40.42200 43.28000
H  46.96300 39.68500 42.10300
H  44.51500 43.11800 40.33600
H  45.41500 41.64300 39.86700
H  47.06100 44.02500 39.16000
H  45.49200 44.47800 38.79900
H  52.54900 40.74000 41.04500
H  52.18400 40.27100 42.76800
H  53.79200 40.75400 42.18700
H  55.95900 45.01700 43.80900
H  55.43500 45.48200 42.22700
H  56.86900 44.38000 42.41100
H  53.63100 48.41300 42.56400
H  51.51300 49.88900 44.36100
H  54.92800 48.37300 44.51900
H  53.55100 47.92600 45.53500
H  53.73300 49.59200 45.04100
H  52.83400 51.21700 42.33500
H  51.19000 51.28300 42.39000
H  52.27900 49.00500 40.72100
H  52.73000 50.57600 40.23300
H  51.02200 50.21700 40.28600
H  45.23200 50.31300 42.27400
H  46.90400 50.72700 41.96100
H  46.43900 50.57600 43.64300
H  44.32900 45.23400 40.96200
H  43.34500 43.10300 45.21500
H  42.83200 44.76100 45.56300
H  44.38600 44.09500 46.16700

