158

Mg 44.39800 4.72400 46.47800
C  42.02900 7.18500 46.02000
C  41.89900 2.35400 46.21600
C  46.73200 2.23700 46.35600
C  46.95100 7.15500 46.07100
N  42.19700 4.77300 46.04000
C  41.46400 5.93800 45.97700
C  39.98400 5.56300 45.97300
C  39.96600 4.06300 46.11400
C  41.44300 3.68400 46.09200
C  39.20200 3.70500 47.46500
C  39.27500 6.08900 44.76300
C  40.10000 6.02200 43.41100
H  39.18900 5.84000 42.17200
N  44.38400 2.58500 46.39300
C  43.21600 1.83000 46.33800
C  43.55000 0.41500 46.29300
C  44.96100 0.37300 46.54100
C  45.43900 1.79000 46.47600
C  42.50100 -0.72900 46.19600
C  45.76300 -0.91800 46.85100
O  45.23800 -1.98800 47.04800
C  47.21600 -0.94200 46.84600
N  46.55000 4.69000 46.01700
C  47.26200 3.55600 46.26600
C  48.72900 3.87500 46.12900
C  48.81200 5.39200 46.07900
C  47.35300 5.82300 45.92300
C  49.53900 3.25500 47.37100
C  49.68300 5.94400 44.89300
C  51.19600 5.85600 45.03300
N  44.55000 6.76800 46.22900
C  45.59900 7.62200 46.16400
C  45.12500 8.96600 46.18800
C  43.73100 8.85700 46.10700
C  43.46100 7.47700 46.16400
C  45.86800 10.24100 46.12800
C  42.48600 9.58800 45.91600
O  42.30400 10.77000 45.88800
C  41.35700 8.55700 45.94100
C  40.53200 8.86500 47.09500
O  40.78400 8.41400 48.20400
O  39.38100 9.51100 46.76800
C  38.47800 9.81100 47.92400
H  41.06200 1.66000 46.31500
H  47.52700 1.49000 46.39700
H  47.82800 7.79200 46.20200
H  39.48700 5.97600 46.85100
H  39.41800 3.61500 45.28500
H  38.47900 4.48500 47.70300
H  39.79500 3.73200 48.37900
H  38.70100 2.75100 47.29800
H  38.80100 7.03900 45.00800
H  38.38600 5.49300 44.55700
H  40.86300 5.24700 43.34900
H  40.65300 6.95800 43.32500
H  41.46500 -0.39400 46.14100
H  42.49300 -1.41100 47.04600
H  42.62900 -1.24400 45.24300
H  47.64900 -0.29300 47.60800
H  47.54900 -0.71700 45.83300
H  47.61700 -1.90100 47.17500
H  49.12900 3.30400 45.29100
H  49.11300 5.99300 46.93700
H  48.78300 2.96700 48.10300
H  50.03900 4.14200 47.75900
H  50.18500 2.42700 47.08000
H  49.58700 7.02600 44.80500
H  49.50400 5.20100 44.11600
H  51.55300 6.88500 44.99300
H  51.65100 5.26100 44.24100
H  51.48500 5.44200 45.99900
H  46.64800 10.10000 45.37900
H  46.24500 10.68500 47.04900
H  45.27500 11.03800 45.68000
H  40.75000 8.64200 45.03900
H  38.29900 8.84800 48.40200
H  37.55400 10.26800 47.56900
H  39.05800 10.46400 48.57600
Mg 6.58700 52.10500 40.69200
C  6.08900 48.52700 40.08200
C  9.81300 51.56700 39.97400
C  6.80800 55.35800 40.28000
C  3.13700 52.27500 41.36000
N  7.81200 50.25200 40.19400
C  7.44000 48.99900 39.83600
C  8.61100 48.12700 39.54000
C  9.84400 48.98500 40.02700
C  9.13700 50.39300 40.12500
C  10.58100 48.64800 41.40400
C  8.60500 47.56500 38.11600
C  8.64900 48.61700 36.91300
H  7.60600 48.41000 35.82700
N  8.12900 53.32600 40.16700
C  9.40200 52.92500 39.93100
C  10.24100 54.12000 39.62400
C  9.36300 55.23500 39.59200
C  8.03400 54.69600 40.08700
C  11.79300 53.98500 39.41900
C  9.78500 56.66400 39.20300
O  10.88800 56.91300 38.80500
C  8.88200 57.81400 39.38600
N  5.12000 53.60100 40.69800
C  5.50900 54.93600 40.66800
C  4.37700 55.86000 40.89000
C  3.22900 54.83200 41.24900
C  3.87900 53.45900 41.12900
C  4.65100 56.92400 42.02900
C  2.05400 55.00300 40.20100
C  0.64400 55.28500 40.81400
N  5.00700 50.73700 40.85000
C  3.64800 50.99500 41.17200
C  2.98000 49.75900 41.34600
C  3.89200 48.79800 40.92200
C  5.11000 49.40200 40.66800
C  1.57900 49.58300 41.97500
C  3.94800 47.43700 40.59700
O  3.12500 46.56500 40.54800
C  5.40900 47.14800 40.14200
C  5.22600 46.46400 38.86500
O  4.97700 46.99600 37.78000
O  5.50500 45.13200 39.05700
C  5.67500 44.25400 37.89500
H  10.89800 51.45600 39.91400
H  6.89600 56.44600 40.24600
H  2.08900 52.41100 41.63700
H  8.46000 47.24900 40.16900
H  10.45600 49.05300 39.12800
H  11.62400 48.39700 41.21000
H  10.13900 47.70800 41.73500
H  10.41400 49.53400 42.01600
H  7.91800 46.73200 37.97400
H  9.55400 47.03100 38.07200
H  9.63400 48.51900 36.45600
H  8.60700 49.55200 37.47000
H  12.37800 54.76900 39.90000
H  12.03800 54.03000 38.35800
H  12.26800 53.09400 39.83000
H  8.55400 57.75400 40.42400
H  8.17300 57.80000 38.55900
H  9.38800 58.75000 39.15200
H  4.22500 56.50900 40.02700
H  2.86700 54.96300 42.26800
H  5.71600 56.80700 42.23200
H  3.99300 56.77600 42.88500
H  4.43500 57.94000 41.69900
H  2.11000 54.12600 39.55600
H  2.28100 55.85100 39.55400
H  0.25800 54.33400 41.18100
H  -0.03900 55.69600 40.07100
H  0.65500 55.93700 41.68800
H  1.25800 50.44200 42.56500
H  1.50800 48.67200 42.56900
H  0.88200 49.32800 41.17800
H  5.90900 46.47000 40.83300
H  6.37100 43.42800 38.04500
H  5.82700 44.74900 36.93600
H  4.73100 43.74500 37.69500

