158

Mg -2.25400 17.36400 27.53400
C  -2.95800 15.11500 30.31100
C  -2.85600 19.93500 29.62300
C  -2.44200 19.39300 24.86800
C  -2.42800 14.62700 25.51700
N  -2.83300 17.47300 29.70800
C  -3.01400 16.50800 30.68300
C  -3.22600 17.09700 32.08200
C  -3.09800 18.61600 31.72600
C  -2.93800 18.70500 30.20500
C  -4.25800 19.53900 32.33600
C  -2.17400 16.54900 33.07600
C  -1.68700 17.43700 34.28800
H  -1.64700 16.83200 35.71300
N  -2.33700 19.40200 27.23800
C  -2.60200 20.32400 28.24100
C  -2.50000 21.64400 27.68600
C  -2.42600 21.51600 26.27700
C  -2.38200 20.05300 26.11000
C  -2.52200 22.91200 28.60700
C  -2.30400 22.53700 25.25300
O  -2.21700 22.28000 24.06100
C  -2.20700 24.03700 25.74200
N  -2.58100 17.07100 25.50200
C  -2.48000 18.07100 24.58400
C  -2.54400 17.52900 23.15300
C  -2.46200 15.98300 23.36900
C  -2.37900 15.88200 24.87700
C  -3.78400 17.96800 22.24100
C  -1.29900 15.32300 22.63500
C  0.18800 15.48100 23.22900
N  -2.54400 15.24500 27.85800
C  -2.49800 14.28000 26.89400
C  -2.59300 12.97400 27.49200
C  -2.79900 13.27100 28.85400
C  -2.83300 14.65200 28.98600
C  -2.40100 11.63400 26.91800
C  -3.00400 12.65900 30.13100
O  -3.03000 11.49800 30.46000
C  -3.15300 13.85500 31.09500
C  -2.04000 13.61800 32.03300
O  -0.87000 13.80700 31.76300
O  -2.52700 13.02300 33.11600
C  -1.49700 12.69300 34.12300
H  -2.88500 20.72500 30.37700
H  -2.25600 19.99000 23.97300
H  -2.41300 13.81600 24.78700
H  -4.23900 16.85800 32.40500
H  -2.11500 18.91500 32.09000
H  -3.85200 20.24700 33.05800
H  -5.07100 18.95400 32.76500
H  -4.82100 20.00600 31.52700
H  -1.24300 16.36400 32.54000
H  -2.57300 15.71500 33.65400
H  -2.11300 18.44000 34.25300
H  -0.63800 17.69600 34.14400
H  -2.63100 22.64300 29.65800
H  -3.38200 23.53200 28.35400
H  -1.66800 23.51300 28.29400
H  -2.13400 24.71100 24.88800
H  -1.26400 24.11000 26.28400
H  -3.18200 24.17300 26.20900
H  -1.58100 17.86300 22.76700
H  -3.39300 15.58500 22.96500
H  -4.43400 17.15700 21.91300
H  -3.46800 18.47300 21.32700
H  -4.43100 18.69200 22.73500
H  -1.42400 15.72800 21.63100
H  -1.63000 14.30200 22.44200
H  0.78500 15.92600 22.43300
H  0.48100 14.47200 23.51900
H  0.30300 16.13300 24.09400
H  -3.25800 10.96000 26.95500
H  -1.61500 11.24800 27.56700
H  -2.04400 11.78400 25.89900
H  -4.12200 13.76600 31.58600
H  -2.05300 12.70100 35.06000
H  -0.65300 13.36700 34.27200
H  -1.07900 11.69100 34.02100
Mg 36.58100 49.21300 25.55000
C  36.49400 47.24900 28.52700
C  35.25800 51.84700 27.41700
C  36.32200 50.98700 22.68700
C  37.45300 46.36700 23.81400
N  35.88100 49.42000 27.64600
C  36.14700 48.55200 28.70000
C  35.96200 49.29000 30.06300
C  35.31500 50.65400 29.69800
C  35.50800 50.64200 28.18600
C  33.84100 50.86300 30.10300
C  37.32500 49.46400 30.92900
C  37.20200 49.65500 32.48200
H  35.81300 49.70000 33.01000
N  35.93400 51.16200 25.09600
C  35.43400 52.10200 25.99300
C  35.33300 53.35200 25.28800
C  35.65300 53.15800 23.90800
C  36.05900 51.73800 23.84000
C  34.87200 54.55000 26.00100
C  35.80200 54.24000 22.72600
O  36.19600 53.89600 21.64100
C  35.64200 55.72000 22.86500
N  36.66900 48.66100 23.52300
C  36.63700 49.64100 22.50900
C  36.99500 49.03300 21.16500
C  37.57600 47.66700 21.67300
C  37.23200 47.54500 23.04700
C  35.77800 49.14600 20.15300
C  39.10900 47.55300 21.31300
C  40.16600 48.34400 22.06100
N  36.86500 47.14300 26.01700
C  37.24700 46.14200 25.17600
C  37.59900 44.99900 26.04000
C  37.31800 45.38500 27.36800
C  36.82300 46.67000 27.31100
C  38.28400 43.77200 25.66800
C  37.29300 44.89900 28.71900
O  37.74500 43.83800 29.25700
C  36.65100 46.07200 29.51400
C  35.25700 45.80000 30.01600
O  34.28700 45.72500 29.31000
O  35.24200 45.83900 31.39500
C  33.94400 45.37600 31.97300
H  34.87100 52.67000 28.02100
H  36.27500 51.48900 21.71800
H  37.87700 45.41000 23.50500
H  35.30800 48.69000 30.69600
H  35.91000 51.48900 30.06700
H  33.81100 51.78600 30.68300
H  33.50800 50.03100 30.72300
H  33.14800 50.98300 29.27000
H  37.90100 50.29900 30.53100
H  37.92900 48.56500 30.80700
H  37.84900 50.47600 32.79000
H  37.66000 48.79100 32.96400
H  35.63400 55.30600 26.19400
H  34.33500 54.37600 26.93300
H  34.11000 55.06600 25.41700
H  35.16800 56.19100 23.72600
H  35.04100 56.00300 22.00100
H  36.66600 56.08600 22.79300
H  37.86300 49.58100 20.79800
H  37.03400 46.81700 21.25800
H  35.67300 48.17800 19.66400
H  36.03900 49.88800 19.39800
H  34.92400 49.46200 20.75200
H  39.04500 47.74000 20.24100
H  39.27500 46.48000 21.40300
H  39.82100 49.13800 22.72400
H  40.93100 48.75600 21.40200
H  40.71700 47.65100 22.69700
H  38.80100 43.97500 24.73100
H  37.58200 42.94200 25.59000
H  39.14000 43.58100 26.31600
H  37.19200 46.47000 30.37200
H  33.85400 45.71800 33.00400
H  34.02000 44.29200 32.05500
H  33.10300 45.74100 31.38300

