158

Mg 24.53900 1.35900 29.87100
C  26.82900 0.98700 32.54700
C  22.07100 1.69700 32.18300
C  22.40900 1.19100 27.37800
C  27.13300 0.77700 27.65100
N  24.46700 1.34700 32.16500
C  25.53800 1.28200 33.03400
C  25.03400 1.61500 34.48500
C  23.47300 1.76200 34.31700
C  23.29400 1.56600 32.81000
C  22.56100 0.80200 35.24800
C  25.84300 2.90300 35.04200
C  26.53800 2.71600 36.36600
H  26.12200 3.57600 37.55000
N  22.56200 1.38700 29.77000
C  21.71800 1.58200 30.88300
C  20.30800 1.58600 30.38100
C  20.40900 1.26200 28.96400
C  21.85500 1.25400 28.63900
C  19.07600 1.85300 31.22500
C  19.25300 0.96200 28.00800
O  19.51000 0.49800 26.88100
C  17.74800 1.14700 28.37600
N  24.73700 0.93200 27.80400
C  23.71200 1.09600 26.99200
C  24.14500 1.28900 25.46600
C  25.74600 1.15000 25.60200
C  25.87800 1.00000 27.11500
C  23.43000 0.36700 24.41900
C  26.52200 2.39100 25.09000
C  26.49000 3.75000 26.00000
N  26.57000 0.83500 30.04200
C  27.51400 0.63900 29.04800
C  28.79500 0.44600 29.59800
C  28.60900 0.54500 30.95900
C  27.20200 0.80200 31.21700
C  30.10900 0.29400 28.80800
C  29.27000 0.59100 32.17900
O  30.46000 0.44700 32.29500
C  28.16500 0.84200 33.29100
C  28.17500 -0.22800 34.31200
O  27.94500 -1.42200 34.01800
O  28.46800 0.20900 35.58400
C  28.48700 -0.87100 36.61100
H  21.22900 1.91600 32.84300
H  21.75900 1.13300 26.50200
H  27.89700 0.70500 26.87300
H  25.36300 0.78200 35.10500
H  23.23700 2.77500 34.64100
H  22.61200 1.23000 36.24900
H  22.96100 -0.21200 35.25200
H  21.51500 0.72100 34.95400
H  24.99100 3.58100 35.10300
H  26.40600 3.29600 34.19600
H  27.60600 2.93800 36.37200
H  26.50000 1.65600 36.61700
H  18.60300 0.88100 31.36500
H  18.50800 2.60700 30.67800
H  19.32400 2.30600 32.18500
H  17.51900 0.62900 29.30800
H  17.09500 0.96500 27.52300
H  17.70800 2.22800 28.51400
H  23.78600 2.28000 25.18700
H  26.00800 0.23200 25.07500
H  22.77300 0.83900 23.68900
H  22.77700 -0.23700 25.04900
H  24.20900 -0.27400 24.00700
H  26.22100 2.58000 24.05900
H  27.55200 2.03500 25.06900
H  25.86000 3.53100 26.86200
H  26.01500 4.55300 25.43500
H  27.50100 4.10800 26.19800
H  29.73700 -0.39900 28.05400
H  30.75600 -0.35200 29.40100
H  30.70000 1.16500 28.52500
H  28.37400 1.81100 33.74400
H  28.64300 -0.35100 37.55600
H  29.37900 -1.47000 36.42900
H  27.60300 -1.50600 36.65000
Mg 10.23200 46.65300 25.27700
C  8.23300 47.02900 28.22100
C  12.83300 48.15000 27.19300
C  12.11600 46.47200 22.64900
C  7.35900 46.24700 23.55500
N  10.51700 47.39000 27.45100
C  9.59100 47.37500 28.46700
C  10.20000 47.71800 29.78200
C  11.43200 48.51300 29.33100
C  11.66900 48.01300 27.88700
C  11.31700 50.04600 29.45600
C  10.43900 46.43000 30.65900
C  10.77800 46.72900 32.16600
H  10.20900 45.82600 33.24500
N  12.30400 47.06500 24.97900
C  13.14200 47.68400 25.86600
C  14.44700 47.68400 25.29100
C  14.25500 47.19100 23.94300
C  12.86200 46.93300 23.79400
C  15.67900 47.87500 26.17600
C  15.30700 46.89500 22.84000
O  15.01500 46.30500 21.80900
C  16.74900 47.39300 23.09900
N  9.77500 46.55700 23.30700
C  10.71800 46.35600 22.38700
C  10.21100 45.78400 21.00500
C  8.69300 45.78700 21.29500
C  8.59500 46.22600 22.78200
C  10.63400 46.52900 19.66500
C  7.91900 44.42000 20.99900
C  6.61300 44.64300 20.14700
N  8.19500 46.47800 25.70400
C  7.11700 46.32900 24.85300
C  5.87900 46.29600 25.61100
C  6.29200 46.61700 26.86700
C  7.71100 46.68200 26.93900
C  4.49500 46.05200 25.07400
C  5.79200 46.66100 28.26700
O  4.65900 46.53500 28.69800
C  7.07600 46.92700 29.25500
C  7.16300 45.83600 30.25200
O  7.65700 44.71500 30.19300
O  6.37700 46.26100 31.31900
C  6.07500 45.24900 32.26500
H  13.56400 48.68900 27.79900
H  12.56800 46.28300 21.67300
H  6.48600 46.12300 22.91100
H  9.51400 48.27200 30.42300
H  12.26100 48.16500 29.94800
H  10.34000 50.39500 29.78900
H  11.61600 50.44800 28.48800
H  12.05900 50.37900 30.18200
H  11.33600 45.99100 30.22300
H  9.58300 45.77600 30.82500
H  10.33200 47.67800 32.46100
H  11.84100 46.85500 32.37500
H  16.40700 47.11600 25.88900
H  15.49700 47.73900 27.24200
H  16.13600 48.86000 26.07900
H  17.19100 47.73300 22.16200
H  17.31900 46.59200 23.57200
H  16.53700 48.25200 23.73500
H  10.60700 44.79400 20.77800
H  8.18900 46.59600 20.76700
H  11.06300 45.77500 19.00500
H  11.32600 47.27800 20.05000
H  9.80100 47.02100 19.16300
H  7.59000 44.13600 21.99800
H  8.54000 43.67100 20.50700
H  6.57400 45.59500 19.61900
H  5.73200 44.75200 20.77900
H  6.38600 43.94400 19.34200
H  3.83000 46.37300 25.87600
H  4.16500 45.08200 24.70200
H  4.32300 46.73400 24.24100
H  6.82300 47.86000 29.75900
H  5.08500 44.83100 32.08400
H  6.16600 45.73000 33.23900
H  6.74500 44.39900 32.39800

