158

Mg 46.50200 16.16400 27.69100
C  44.62000 15.44700 30.62100
C  48.80500 17.87200 29.72100
C  47.73900 17.55200 24.99300
C  43.93000 14.74100 25.82700
N  46.59500 16.72600 29.95400
C  45.75600 16.33000 30.93500
C  46.26000 16.79400 32.33200
C  47.53600 17.67600 31.93800
C  47.69800 17.38600 30.44400
C  47.43700 19.21000 32.33200
C  46.63500 15.53900 33.22400
C  46.20700 15.62000 34.74300
H  45.73600 17.02600 35.24300
N  48.03900 17.51100 27.39300
C  48.89800 17.92500 28.34700
C  50.01100 18.66100 27.62000
C  49.67700 18.67500 26.23400
C  48.49000 17.84300 26.15200
C  51.25700 19.21800 28.38100
C  50.47100 19.24300 25.07400
O  50.11300 19.14800 23.89200
C  51.85600 19.73500 25.45100
N  45.99400 15.98400 25.61100
C  46.68700 16.72100 24.71700
C  46.01900 16.59100 23.31500
C  44.93600 15.43500 23.62200
C  44.94700 15.32400 25.07100
C  45.45100 17.94800 22.76100
C  45.31600 14.06200 22.96900
C  46.38800 13.08400 23.52800
N  44.76400 15.09300 28.09000
C  43.80100 14.63200 27.21300
C  42.66900 14.16800 27.98000
C  42.96700 14.41800 29.34000
C  44.20400 15.03200 29.36300
C  41.44800 13.47100 27.45500
C  42.49200 14.22600 30.70100
O  41.48000 13.67600 31.12600
C  43.56800 14.94800 31.64900
C  42.88200 16.04600 32.36300
O  42.42000 17.06800 31.85700
O  42.58400 15.63200 33.60700
C  41.52200 16.37700 34.25000
H  49.64700 18.16800 30.35000
H  48.14000 17.89300 24.03600
H  43.02300 14.43100 25.30300
H  45.39000 17.27400 32.77900
H  48.45200 17.42100 32.47000
H  48.34400 19.59000 32.80200
H  46.52800 19.36900 32.91300
H  47.28400 19.75200 31.39900
H  47.70100 15.35200 33.35400
H  46.10700 14.66200 32.85000
H  47.04800 15.33100 35.37500
H  45.43800 14.85700 34.86200
H  51.36200 20.26200 28.08600
H  52.16300 18.74600 28.00100
H  51.13600 19.06400 29.45300
H  51.93500 20.63500 26.06100
H  52.38500 20.06900 24.55900
H  52.48700 18.92400 25.81300
H  46.75400 16.18600 22.61900
H  43.98000 15.76400 23.21400
H  44.91700 17.79800 21.82200
H  46.13600 18.79500 22.79600
H  44.64300 18.02500 23.48900
H  45.57700 14.20000 21.91900
H  44.39800 13.47400 22.95100
H  46.94900 12.66400 22.69400
H  45.87000 12.29100 24.06800
H  47.02800 13.62100 24.22800
H  41.64600 12.45500 27.11400
H  41.13500 14.03400 26.57500
H  40.53900 13.50400 28.05400
H  44.04000 14.29100 32.37900
H  40.84600 15.66300 34.72100
H  40.84100 16.96700 33.63600
H  41.89400 16.98300 35.07500
Mg 47.95800 44.75900 43.37700
C  44.59300 45.07800 42.26100
C  47.86700 41.40900 42.39900
C  51.44900 44.60600 43.75800
C  48.09900 48.27100 43.59800
N  46.45500 43.48300 42.44300
C  45.16000 43.74000 42.14600
C  44.53900 42.48000 41.50000
C  45.43300 41.35900 41.95600
C  46.67800 42.13500 42.28500
C  44.76600 40.54500 43.13300
C  44.35300 42.69200 39.98000
C  43.04500 42.20100 39.38700
H  43.11900 41.58300 37.97100
N  49.45100 43.20500 43.19100
C  49.16800 41.86600 42.88100
C  50.46500 41.05500 42.92900
C  51.50500 41.99400 43.28600
C  50.83500 43.34500 43.46200
C  50.55000 39.62600 42.57300
C  52.98800 41.65000 43.37400
O  53.38700 40.52300 43.00800
C  54.03700 42.71100 43.78000
N  49.56600 46.21500 43.40700
C  50.85200 45.93600 43.75600
C  51.67100 47.16900 44.03100
C  50.64600 48.28600 43.97300
C  49.35800 47.56900 43.65400
C  52.40700 47.05100 45.45500
C  51.06400 49.31500 42.92400
C  51.83400 50.61900 43.16100
N  46.57700 46.37300 43.15100
C  46.85900 47.73800 43.16800
C  45.62900 48.40400 42.88000
C  44.69200 47.42300 42.55200
C  45.34900 46.22600 42.67600
C  45.50000 49.93400 42.80100
C  43.32800 47.25300 42.00500
O  42.50700 48.02500 41.59100
C  43.26500 45.67300 41.90000
C  42.07700 45.02500 42.51400
O  41.46800 44.07000 41.96800
O  41.82800 45.55500 43.75000
C  40.85000 44.89500 44.64200
H  47.87000 40.34600 42.14900
H  52.52300 44.70500 43.93200
H  48.24000 49.34600 43.73600
H  43.52900 42.53200 41.90700
H  45.62800 40.69500 41.11400
H  44.84400 39.47800 42.92400
H  43.73200 40.85500 43.28300
H  45.40100 40.73500 43.99800
H  45.27700 42.24600 39.61200
H  44.37700 43.76800 39.81200
H  42.28600 42.97700 39.28900
H  42.69200 41.36600 39.99200
H  50.82100 39.47600 41.52800
H  49.55200 39.19600 42.66600
H  51.18000 39.11100 43.29900
H  54.93600 42.10400 43.88500
H  53.82000 43.08200 44.78200
H  54.22000 43.50700 43.05900
H  52.46600 47.37700 43.31500
H  50.67600 48.63700 45.00500
H  52.37000 47.98800 46.01000
H  53.48400 46.88000 45.44800
H  51.96900 46.22800 46.01900
H  50.10200 49.69100 42.57600
H  51.56900 48.89900 42.05200
H  51.29500 51.44700 42.70200
H  52.79800 50.50300 42.66600
H  52.04200 50.69400 44.22900
H  44.46500 50.25100 42.92500
H  45.90200 50.40500 41.90300
H  46.14300 50.26500 43.61600
H  43.11800 45.54900 40.82800
H  39.87900 45.37200 44.50800
H  41.20800 44.99400 45.66600
H  40.81500 43.82400 44.43700

