158

Mg 8.76300 3.40500 27.42700
C  10.49000 2.14000 30.32400
C  7.64300 5.99100 29.14000
C  7.34200 4.39700 24.58600
C  10.16800 0.58900 25.65200
N  8.92800 3.99700 29.47600
C  9.71900 3.33400 30.50400
C  9.55000 4.09500 31.83900
C  8.47100 5.16500 31.54300
C  8.24700 5.01600 29.96900
C  7.07500 5.11200 32.20000
C  10.82600 4.47700 32.58300
C  10.65700 5.47300 33.71900
H  11.13700 4.92700 35.07100
N  7.70400 5.03200 26.84400
C  7.31400 5.99400 27.74300
C  6.58700 7.03700 26.95700
C  6.42300 6.53400 25.62600
C  7.18400 5.23700 25.67600
C  5.92000 8.17000 27.59800
C  5.80300 7.27600 24.42500
O  5.83500 6.74700 23.29800
C  5.07600 8.59600 24.64600
N  8.82600 2.65000 25.39500
C  7.99900 3.22200 24.45400
C  8.19100 2.57100 23.09900
C  8.93900 1.29100 23.42800
C  9.35100 1.49000 24.90600
C  6.91100 2.35200 22.18600
C  10.16600 1.05600 22.51900
C  9.94600 -0.03000 21.46400
N  10.03200 1.65700 27.88400
C  10.52900 0.65800 27.06000
C  11.36600 -0.27600 27.82900
C  11.37600 0.30800 29.11800
C  10.57400 1.46300 29.08400
C  12.17500 -1.35500 27.20700
C  11.95100 0.20300 30.49700
O  12.78000 -0.58800 30.98600
C  11.34500 1.39600 31.31000
C  10.61600 0.80000 32.50500
O  9.56000 0.19300 32.49700
O  11.46800 0.98200 33.56800
C  10.97200 0.47200 34.83600
H  7.22600 6.76300 29.79100
H  6.95400 4.67900 23.60500
H  10.61000 -0.20800 25.05000
H  9.06000 3.36300 32.48100
H  8.84700 6.13600 31.86600
H  6.34600 5.66300 31.60600
H  7.25900 5.45000 33.22000
H  6.86000 4.04700 32.12600
H  11.58900 4.78900 31.87000
H  11.21500 3.53300 32.96300
H  9.64900 5.83600 33.92300
H  11.36900 6.27500 33.52500
H  5.96500 8.15600 28.68700
H  4.83700 8.22400 27.47900
H  6.32400 9.12400 27.25900
H  4.27700 8.56400 25.38600
H  4.70000 8.98100 23.69800
H  5.84900 9.33100 24.87000
H  8.78600 3.24400 22.48100
H  8.31500 0.39700 23.43600
H  6.05100 2.69900 22.76000
H  6.85700 1.27700 22.01400
H  6.94400 2.96400 21.28500
H  10.98600 0.67800 23.13000
H  10.53400 1.97700 22.06700
H  8.90500 -0.30400 21.29500
H  10.40800 -0.98400 21.71900
H  10.41300 0.19300 20.50400
H  12.42300 -1.15800 26.16400
H  11.78300 -2.36000 27.35900
H  13.09600 -1.30500 27.78700
H  12.20400 1.97900 31.64300
H  11.60500 0.85100 35.63800
H  10.92700 -0.61100 34.94800
H  10.01200 0.98000 34.92700
Mg 46.88700 34.74100 28.95800
C  45.73300 32.54900 31.29000
C  47.18700 37.22500 31.31700
C  47.59700 36.94200 26.48400
C  46.23700 32.30500 26.44700
N  46.57700 34.79900 31.06000
C  46.15600 33.75500 31.84500
C  46.18700 34.13200 33.35700
C  46.17600 35.71200 33.12000
C  46.72200 35.95400 31.76600
C  44.75200 36.44500 33.23300
C  47.37900 33.43200 34.09100
C  48.20900 34.40100 35.00300
H  47.42100 35.15200 36.12300
N  47.43000 36.75700 28.95700
C  47.65800 37.56900 30.04900
C  48.26800 38.76800 29.61600
C  48.44100 38.70900 28.22100
C  47.81300 37.42300 27.82100
C  48.66600 39.80800 30.68500
C  49.01400 39.81100 27.30400
O  49.00100 39.80000 26.11600
C  49.64000 41.06200 27.89800
N  46.90000 34.68900 26.80300
C  47.27200 35.69700 26.03700
C  47.04600 35.41400 24.53900
C  46.64200 33.88700 24.52900
C  46.59800 33.57500 25.98600
C  45.98400 36.37500 23.89000
C  47.57400 32.89600 23.62300
C  47.69700 33.19400 22.09300
N  46.07600 32.83400 28.85800
C  45.83800 31.96500 27.77900
C  45.28000 30.71100 28.23500
C  45.09000 30.90600 29.62800
C  45.66100 32.19600 29.95500
C  44.98000 29.53500 27.26100
C  44.62400 30.34700 30.91700
O  44.12300 29.24600 31.20400
C  44.86500 31.50000 31.97300
C  45.33500 31.00700 33.30000
O  46.34300 30.38300 33.48800
O  44.34500 31.13400 34.23000
C  44.64700 30.78200 35.61600
H  47.34900 37.94000 32.12600
H  47.83800 37.65800 25.69500
H  46.15200 31.56300 25.65000
H  45.26200 33.79600 33.82700
H  46.73600 36.36900 33.78600
H  44.84000 37.26200 33.94900
H  44.04300 35.64800 33.45700
H  44.24000 36.92100 32.39700
H  48.06000 32.89700 33.43000
H  46.96600 32.73500 34.82100
H  48.71900 35.03400 34.27800
H  49.03100 33.87100 35.48500
H  49.66700 40.16300 30.44000
H  48.72100 39.29900 31.64700
H  47.98300 40.63900 30.86600
H  48.84300 41.60300 28.40800
H  49.81300 41.69900 27.03100
H  50.58400 40.84600 28.39800
H  47.95700 35.40600 23.94100
H  45.60600 33.81000 24.20100
H  45.39900 36.93300 24.62100
H  45.34100 35.73200 23.29000
H  46.39200 37.11700 23.20400
H  47.18600 31.87700 23.63800
H  48.57800 32.99600 24.03400
H  46.90300 33.89300 21.83100
H  47.49900 32.22400 21.63900
H  48.73400 33.45700 21.88400
H  45.78500 29.41500 26.53600
H  44.13400 29.91000 26.68400
H  44.79200 28.65500 27.87600
H  43.93300 32.05700 32.07800
H  43.71200 30.57900 36.13800
H  45.17800 31.53200 36.20200
H  45.24400 29.87200 35.55200

