158

Mg 43.58500 4.33000 46.69600
C  41.73900 7.41000 46.65000
C  40.58800 2.65600 46.60300
C  45.22500 1.62800 45.83200
C  46.61200 6.23700 46.36300
N  41.49500 5.01500 46.62200
C  40.95200 6.27100 46.64300
C  39.39500 6.27500 46.68200
C  39.11300 4.72600 46.78200
C  40.48100 4.05000 46.71900
C  38.20100 4.15600 47.93900
C  38.69400 6.94100 45.44000
C  39.20700 6.55100 44.08500
H  40.00500 7.56100 43.24200
N  42.99800 2.32700 46.57400
C  41.71300 1.81700 46.47100
C  41.73400 0.41100 46.22000
C  43.06900 0.00500 46.13300
C  43.84900 1.31000 46.13100
C  40.49900 -0.45400 46.18900
C  43.57500 -1.38600 45.96700
O  42.76700 -2.36000 45.88200
C  45.05800 -1.61100 46.16400
N  45.60100 4.03200 46.23700
C  46.05000 2.75200 46.03600
C  47.49900 2.66100 45.78700
C  48.03600 3.97900 46.29400
C  46.73100 4.81600 46.32300
C  48.24500 1.40800 46.32500
C  49.16800 4.65100 45.41300
C  50.18800 5.40300 46.23400
N  44.16300 6.39600 46.48800
C  45.41300 7.00000 46.43800
C  45.20400 8.46700 46.39500
C  43.80100 8.64600 46.58400
C  43.19300 7.35100 46.57700
C  46.27500 9.51700 46.35800
C  42.79000 9.62700 46.86000
O  42.90300 10.85200 47.06200
C  41.42600 8.87800 46.85300
C  40.65800 9.07100 48.14900
O  41.01500 8.77400 49.25300
O  39.47500 9.71700 47.96100
C  38.53300 9.74600 49.07200
H  39.61100 2.17500 46.52900
H  45.82200 0.80400 45.43600
H  47.50300 6.84200 46.54400
H  39.16600 6.81900 47.59800
H  38.63900 4.35200 45.87400
H  38.68900 3.49800 48.65900
H  37.43000 3.54800 47.46600
H  37.71700 4.92600 48.53900
H  38.77500 8.02400 45.53100
H  37.63900 6.66800 45.47000
H  38.32000 6.36800 43.47900
H  39.77200 5.62600 44.20200
H  40.82400 -1.47600 46.38300
H  40.17300 -0.49400 45.14900
H  39.74000 -0.25800 46.94600
H  45.46800 -0.85000 46.82900
H  45.59000 -1.66800 45.21400
H  45.10900 -2.54800 46.71800
H  47.68900 2.68000 44.71300
H  48.29100 3.77800 47.33500
H  47.75800 0.97600 47.20000
H  49.21700 1.73300 46.69500
H  48.45300 0.64400 45.57500
H  48.70200 5.38200 44.75200
H  49.75000 3.94200 44.82400
H  51.15100 4.89200 46.25000
H  49.85900 5.46700 47.27200
H  50.40600 6.41800 45.90300
H  45.87900 10.43300 45.92000
H  47.11700 9.21400 45.73600
H  46.61100 9.72700 47.37300
H  40.74800 9.31700 46.12100
H  38.64600 10.66300 49.65000
H  38.48600 8.89700 49.75500
H  37.53700 9.80500 48.63200
Mg 26.98300 50.27100 26.89200
C  24.62400 51.13000 29.45100
C  29.12000 49.34900 29.53300
C  29.19200 49.95400 24.55500
C  24.71300 51.65400 24.57500
N  26.87300 50.28100 29.26600
C  25.80200 50.59300 30.03900
C  26.09500 50.47600 31.55500
C  27.55700 49.90900 31.54600
C  27.88400 49.83100 30.02000
C  28.66800 50.73100 32.27300
C  25.01900 49.45500 32.22700
C  24.62800 49.80000 33.70500
H  24.97500 48.83000 34.85600
N  28.84200 49.67400 27.00300
C  29.56800 49.30900 28.15900
C  30.91000 48.88300 27.76600
C  31.04100 49.22700 26.35200
C  29.64100 49.60100 25.88300
C  31.97900 48.28100 28.67000
C  32.18000 49.33100 25.42200
O  32.12400 49.88600 24.35000
C  33.55400 48.86400 25.89800
N  27.02600 51.02700 24.93800
C  27.96900 50.44100 24.12000
C  27.56000 50.42000 22.61800
C  26.13600 50.79000 22.62700
C  25.90400 51.18600 24.15200
C  28.46200 51.28100 21.78100
C  25.15700 49.74200 22.15600
C  24.19300 50.22900 21.07200
N  25.13900 51.29600 26.97400
C  24.33800 51.75600 25.91400
C  23.12600 52.23800 26.39100
C  23.22700 52.01600 27.79600
C  24.45900 51.36600 28.07400
C  21.98600 52.66600 25.49600
C  22.32700 52.09400 28.97300
O  21.15800 52.40000 29.12800
C  23.28000 51.61600 30.11800
C  23.58400 52.79500 30.96900
O  24.56000 53.50100 30.86100
O  22.61500 52.85700 31.87100
C  22.79100 53.74100 33.03100
H  29.78600 49.02900 30.33700
H  29.89100 49.68900 23.75900
H  24.00100 51.96900 23.81000
H  25.92200 51.43800 32.03600
H  27.45200 48.86900 31.85400
H  28.44200 51.54200 32.96500
H  29.25900 51.18100 31.47500
H  29.12300 49.92000 32.84200
H  25.42600 48.44400 32.20500
H  24.11000 49.37700 31.63100
H  23.53800 49.76200 33.72200
H  24.95800 50.79800 33.99300
H  31.61200 48.06100 29.67200
H  32.83800 48.94400 28.76800
H  32.32500 47.34500 28.22900
H  33.50000 47.97400 26.52500
H  33.87900 49.74000 26.45900
H  34.31600 48.73600 25.12900
H  27.67000 49.40700 22.23100
H  26.05900 51.67500 21.99600
H  28.93500 50.63700 21.04000
H  29.12200 51.78000 22.49000
H  27.95000 52.16100 21.39100
H  24.51800 49.55400 23.01900
H  25.71700 48.82500 21.97000
H  24.57300 51.15100 20.63300
H  23.20000 50.39400 21.49100
H  24.11500 49.42300 20.34200
H  22.04200 53.73300 25.27700
H  21.05900 52.30800 25.94400
H  22.04700 52.08700 24.57500
H  22.81700 50.84800 30.73700
H  23.66700 54.38600 32.95900
H  23.08100 53.13300 33.88800
H  21.85100 54.16800 33.37900

