158

Mg 46.18100 16.86400 27.66500
C  44.41900 16.56800 30.80300
C  48.37100 18.94400 29.27900
C  47.70800 17.48500 24.72100
C  43.69700 15.06700 26.04300
N  46.37800 17.57400 29.83100
C  45.60600 17.22400 30.90400
C  46.20600 17.90600 32.18500
C  47.34600 18.79800 31.60700
C  47.44700 18.37800 30.12400
C  47.23400 20.42100 31.75500
C  46.73800 16.79800 33.11700
C  47.16900 17.40100 34.52900
H  46.46300 18.57100 35.19700
N  47.81900 18.06600 27.07900
C  48.62100 18.78900 27.88400
C  49.70000 19.39800 27.15300
C  49.58200 18.98900 25.76800
C  48.32500 18.15400 25.77100
C  50.80200 20.19000 27.77200
C  50.47200 19.24100 24.62000
O  50.11500 18.92100 23.51300
C  51.73900 20.14100 24.81600
N  45.71300 16.36200 25.69400
C  46.50700 16.71700 24.63100
C  45.92000 16.18000 23.34600
C  44.88400 15.08700 23.88300
C  44.72100 15.51000 25.29000
C  45.15800 17.15300 22.41300
C  45.35900 13.61500 23.66300
C  44.76200 12.78900 22.55600
N  44.38900 16.02900 28.17600
C  43.44000 15.32300 27.40300
C  42.37300 14.94800 28.25000
C  42.63600 15.49300 29.53700
C  43.96400 16.00600 29.49700
C  41.12200 14.34600 27.78800
C  42.06800 15.63100 30.84900
O  41.01600 15.33400 31.32800
C  43.26600 16.28700 31.77400
C  42.70100 17.46600 32.61800
O  42.84400 18.64800 32.31900
O  42.07000 17.01800 33.80500
C  41.71600 18.01300 34.87100
H  49.03700 19.54600 29.89900
H  48.26600 17.58900 23.78800
H  42.94000 14.40000 25.62500
H  45.47900 18.61100 32.59000
H  48.29300 18.52700 32.07500
H  46.28700 20.51600 32.28700
H  47.29300 20.89400 30.77500
H  48.00600 20.75400 32.44800
H  47.55200 16.35500 32.54400
H  45.94600 16.05000 33.15800
H  48.22200 17.65100 34.40100
H  47.16800 16.59900 35.26800
H  50.63900 20.41300 28.82600
H  50.89400 21.16100 27.28700
H  51.68100 19.57200 27.95700
H  52.24000 20.29900 23.86100
H  52.51600 19.77400 25.48700
H  51.49400 21.15500 25.13100
H  46.67400 15.65900 22.75500
H  43.89900 15.23700 23.44200
H  45.80200 17.18700 21.53400
H  45.14100 18.13400 22.88900
H  44.19500 16.78300 22.06400
H  45.36400 12.92900 24.51000
H  46.40900 13.66700 23.37500
H  45.48700 12.56400 21.77300
H  43.83400 13.22200 22.18400
H  44.37000 11.83900 22.91800
H  41.19300 13.28000 28.00600
H  41.16600 14.58200 26.72500
H  40.22000 14.83900 28.15100
H  43.65900 15.59200 32.51700
H  42.36800 18.88700 34.84800
H  41.76300 17.37100 35.75100
H  40.69200 18.33600 34.68300
Mg 16.66500 52.22700 26.39500
C  18.52500 50.79500 29.06700
C  14.13000 52.93100 28.65900
C  14.81700 53.31000 23.80200
C  19.14400 51.21000 24.29200
N  16.44700 51.95200 28.67900
C  17.31100 51.38600 29.51800
C  16.81200 51.54900 30.96400
C  15.31500 51.91400 30.71100
C  15.25100 52.33300 29.21000
C  14.30400 50.80100 30.99900
C  17.62300 52.68300 31.63300
C  18.36400 52.15500 32.95600
H  17.61300 52.35100 34.23000
N  14.75200 53.13400 26.24300
C  13.93000 53.41700 27.32300
C  12.79300 54.20700 26.86300
C  12.99900 54.30900 25.44800
C  14.24100 53.56500 25.09000
C  11.58300 54.64900 27.75000
C  12.19100 55.05100 24.37400
O  12.56200 55.08200 23.18100
C  10.87500 55.69300 24.74300
N  16.98000 52.36700 24.37600
C  16.00100 52.74400 23.51500
C  16.45200 52.55600 22.06100
C  17.86300 51.96800 22.26900
C  18.04300 51.82900 23.75600
C  15.44800 51.68800 21.23400
C  18.90500 52.73700 21.48800
C  19.85000 51.81400 20.66100
N  18.47800 51.20000 26.56300
C  19.39100 50.82500 25.59600
C  20.44000 49.99800 26.22400
C  20.10100 49.94700 27.58700
C  18.95500 50.72300 27.73600
C  21.71700 49.59200 25.56400
C  20.55300 49.50700 28.86500
O  21.47000 48.78200 29.21200
C  19.60200 50.09000 29.87800
C  19.21000 49.04000 30.84300
O  18.61800 48.03500 30.45000
O  19.76500 49.17300 32.07500
C  19.38500 48.20300 33.12400
H  13.39100 53.10500 29.44400
H  14.20600 53.61100 22.94900
H  19.83700 50.88300 23.51300
H  16.83000 50.57700 31.45800
H  14.94500 52.82900 31.17300
H  13.45200 51.35200 31.39600
H  14.74400 50.01900 31.61800
H  13.92100 50.33300 30.09200
H  16.95900 53.50700 31.89200
H  18.48100 53.02000 31.05100
H  19.23000 52.81400 33.02600
H  18.58100 51.09100 32.86200
H  11.75700 54.53600 28.82000
H  10.67300 54.09100 27.53000
H  11.40500 55.71800 27.63200
H  10.45300 56.05500 23.80500
H  11.09800 56.56600 25.35600
H  10.24700 54.93500 25.21100
H  16.52800 53.56300 21.65100
H  17.91400 50.95600 21.86700
H  14.71900 51.21800 21.89400
H  15.84800 51.04300 20.45100
H  14.82900 52.38900 20.67500
H  19.52100 53.15400 22.28400
H  18.54400 53.60100 20.93000
H  20.21100 52.40900 19.82100
H  19.35100 50.97000 20.18600
H  20.69000 51.40700 21.22500
H  22.39800 50.42500 25.74400
H  21.61500 49.55800 24.48000
H  22.11300 48.67300 25.99700
H  20.20400 50.79600 30.45000
H  19.53400 48.59800 34.12900
H  19.84700 47.21600 33.16000
H  18.32200 47.97900 33.03800

