158

Mg 8.68800 4.33500 27.43000
C  10.12500 2.77500 30.28800
C  6.88200 6.33900 29.49600
C  7.32200 5.63700 24.74500
C  10.23900 1.72900 25.47000
N  8.49500 4.50200 29.64100
C  9.22700 3.81600 30.57800
C  8.79900 4.25800 31.94600
C  7.57400 5.14600 31.67600
C  7.63500 5.38800 30.18800
C  6.17700 4.81200 32.26500
C  9.93200 4.90900 32.72600
C  10.24000 4.33400 34.16500
H  10.86700 5.29400 35.18700
N  7.39900 5.84600 27.17400
C  6.69500 6.53000 28.10600
C  5.78300 7.35100 27.38400
C  6.04700 7.32000 26.02500
C  6.98200 6.24300 25.92300
C  4.78700 8.14700 28.13600
C  5.50800 8.13500 24.81300
O  5.93800 8.16600 23.63200
C  4.34400 9.11100 25.12200
N  8.61800 3.61100 25.42400
C  8.08500 4.47900 24.48700
C  8.52800 4.16000 23.08100
C  9.50400 2.86400 23.25500
C  9.40500 2.65800 24.78800
C  7.31800 3.89900 22.15500
C  10.94800 3.05100 22.63900
C  11.12800 2.62200 21.06600
N  9.86500 2.55700 27.71100
C  10.46700 1.62500 26.87100
C  11.29500 0.75900 27.57500
C  11.25200 1.21600 28.92500
C  10.32600 2.26900 28.96600
C  12.22200 -0.36000 26.94500
C  11.79700 1.08100 30.20100
O  12.63700 0.30000 30.64000
C  11.01700 1.98100 31.22100
C  10.31600 1.08500 32.24400
O  9.22500 0.61100 32.12500
O  11.09200 1.03100 33.35100
C  10.44100 0.49900 34.54500
H  6.08500 6.72100 30.13700
H  6.96600 6.08000 23.81300
H  10.81200 1.03600 24.85000
H  8.43500 3.36900 32.46000
H  7.73300 6.12300 32.13000
H  6.12200 4.05800 33.05100
H  5.51500 4.56700 31.43400
H  5.72300 5.65900 32.77800
H  9.75600 5.97600 32.86200
H  10.79200 4.86800 32.05800
H  10.91700 3.48600 34.06900
H  9.25900 4.05400 34.54900
H  4.77700 9.15300 27.71700
H  5.02000 8.13200 29.20100
H  3.83900 7.64800 27.93200
H  3.52700 8.55800 25.58500
H  3.96500 9.61200 24.23100
H  4.62000 9.95700 25.75200
H  9.19100 4.91300 22.65200
H  9.06400 1.94500 22.86800
H  6.39500 4.18900 22.65700
H  7.38100 2.83400 21.93300
H  7.41100 4.53600 21.27500
H  11.61800 2.42300 23.22600
H  11.23500 4.09600 22.75200
H  10.27600 2.04500 20.70600
H  11.90200 1.86400 20.94300
H  11.17200 3.50100 20.42200
H  11.65800 -1.28600 26.83400
H  13.18400 -0.56200 27.41700
H  12.51000 -0.09500 25.92700
H  11.75800 2.54000 31.79300
H  10.19000 1.37800 35.14000
H  11.14000 -0.17000 35.04900
H  9.47200 0.01200 34.44200
Mg 30.18900 57.23800 40.50300
C  27.36500 55.30500 39.50300
C  32.15000 54.45700 39.85800
C  32.91300 59.27200 40.46400
C  28.03800 60.07700 40.40300
N  29.78600 55.14800 39.70500
C  28.57000 54.55300 39.41100
C  28.79600 53.20500 38.70600
C  30.12800 52.82700 39.41100
C  30.77200 54.22700 39.62900
C  30.10100 52.08300 40.82800
C  28.88500 53.35800 37.12100
C  27.91500 52.41700 36.31500
H  27.14300 52.89300 35.07600
N  32.28100 56.93200 40.25900
C  32.82800 55.69400 40.00000
C  34.30100 56.00800 40.02500
C  34.58100 57.38600 40.22400
C  33.24700 57.94600 40.32800
C  35.24100 54.93800 39.53700
C  36.00800 58.03100 40.29200
O  37.01400 57.37100 40.09300
C  36.29400 59.45200 40.79400
N  30.42600 59.30600 40.46400
C  31.64100 59.92200 40.54300
C  31.55300 61.43800 40.67900
C  29.97800 61.64800 40.74900
C  29.43800 60.24300 40.54800
C  32.22900 62.20000 41.90400
C  29.42700 62.62200 39.74400
C  28.22800 63.41900 40.26900
N  28.09800 57.64700 40.25600
C  27.37700 58.82200 40.25500
C  25.92200 58.52800 40.01100
C  25.87100 57.19800 39.75300
C  27.20000 56.70300 39.84600
C  24.76100 59.58300 39.93200
C  25.06100 56.03900 39.30000
O  23.91300 55.97700 39.09200
C  25.94600 54.77600 39.17700
C  25.55000 53.76400 40.15700
O  26.25700 53.44100 41.07900
O  24.36500 53.16400 39.77800
C  24.02800 51.81200 40.14000
H  32.81000 53.59700 39.72100
H  33.70100 60.02500 40.40700
H  27.31100 60.88600 40.49500
H  28.03700 52.49000 39.02400
H  30.80700 52.30700 38.73600
H  29.09700 51.66000 40.83800
H  30.17900 52.80900 41.63700
H  30.78400 51.24000 40.93800
H  29.93800 53.25300 36.86400
H  28.51600 54.34000 36.82300
H  27.32300 51.83700 37.02300
H  28.49000 51.58900 35.90100
H  34.80800 54.31700 38.75300
H  35.61700 54.22500 40.27000
H  36.07500 55.49500 39.10800
H  36.28700 60.23200 40.03300
H  37.22000 59.40300 41.36700
H  35.57800 59.68000 41.58400
H  31.95100 61.91300 39.78300
H  29.68800 62.02900 41.72900
H  33.00600 62.88800 41.56800
H  32.77600 61.47600 42.50800
H  31.50700 62.78200 42.47700
H  29.14900 62.23400 38.76400
H  30.09800 63.45400 39.53200
H  28.45200 64.48100 40.37400
H  27.83000 63.16100 41.25000
H  27.50400 63.25200 39.47200
H  24.96000 60.24000 39.08600
H  24.70800 60.14500 40.86500
H  23.88700 59.00000 39.64300
H  25.72100 54.28200 38.23200
H  23.09600 51.72400 40.69900
H  24.83300 51.31600 40.68200
H  23.86200 51.31600 39.18400

