158

Mg 35.28000 3.17800 29.43900
C  33.16100 4.13900 32.14000
C  37.85300 2.73900 31.64000
C  37.15200 2.00200 26.89700
C  32.68000 3.92200 27.18800
N  35.49900 3.51600 31.61100
C  34.52000 3.88800 32.54200
C  35.07500 3.85800 33.94400
C  36.64900 3.75800 33.67900
C  36.68200 3.30100 32.18200
C  37.47500 5.05100 33.91500
C  34.46100 2.81500 34.91100
C  34.17600 3.29600 36.30400
H  35.05700 4.39100 36.87100
N  37.22700 2.35700 29.29100
C  38.09900 2.23900 30.31700
C  39.34500 1.59400 29.83400
C  39.09100 1.26000 28.44500
C  37.70400 1.80900 28.15600
C  40.51100 1.16800 30.66200
C  39.96000 0.41300 27.47700
O  39.61100 0.22400 26.35600
C  41.35700 -0.23700 27.88400
N  35.02000 3.06500 27.45400
C  35.94500 2.64000 26.58300
C  35.46200 2.61600 25.13800
C  33.94000 2.88300 25.29300
C  33.86000 3.38800 26.67600
C  36.24800 3.68900 24.37300
C  32.84400 1.84600 24.97500
C  31.64500 2.39100 24.23700
N  33.37600 3.89700 29.57700
C  32.37600 4.03300 28.55300
C  31.15900 4.43000 29.13000
C  31.43600 4.46300 30.52900
C  32.80800 4.13400 30.73700
C  29.87500 4.66300 28.41400
C  30.83600 4.75800 31.79700
O  29.68200 5.11700 32.12000
C  31.92600 4.39000 32.94200
C  31.97100 5.62700 33.88000
O  32.46800 6.71700 33.68600
O  31.31200 5.40300 35.04500
C  31.23000 6.57400 35.98800
H  38.63500 2.54900 32.37700
H  37.62500 1.62400 25.98900
H  31.86400 4.00000 26.46700
H  34.77200 4.85000 34.28100
H  37.07800 3.03500 34.37300
H  36.80700 5.90400 34.03500
H  38.01000 5.25800 32.98800
H  38.14500 4.97600 34.77100
H  35.09800 1.93300 34.84500
H  33.51500 2.53000 34.45100
H  34.11100 2.51000 37.05800
H  33.18000 3.73000 36.39600
H  40.59200 0.08300 30.72200
H  40.37000 1.66500 31.62200
H  41.42100 1.45700 30.13700
H  42.08800 0.56000 28.01800
H  41.47400 -0.84400 26.98600
H  41.09500 -0.77100 28.79700
H  35.61200 1.64200 24.67300
H  33.73400 3.71400 24.61900
H  37.15600 3.96600 24.90900
H  35.73500 4.65100 24.36100
H  36.45300 3.21800 23.41200
H  32.57400 1.36900 25.91700
H  33.25700 1.07100 24.32900
H  30.76600 1.99900 24.75000
H  31.67100 1.94400 23.24300
H  31.58000 3.46800 24.08200
H  29.75800 4.01500 27.54500
H  29.73600 5.68100 28.05200
H  29.01100 4.34100 28.99500
H  31.52200 3.49300 33.41300
H  30.64600 7.34000 35.47700
H  32.17800 6.77100 36.48800
H  30.47000 6.31800 36.72600
Mg -5.93800 24.98400 26.10800
C  -4.30300 26.28300 29.06800
C  -7.80600 22.95200 28.19400
C  -6.74400 23.28800 23.43500
C  -3.53200 26.76200 24.25300
N  -5.93400 24.63200 28.38900
C  -5.18000 25.24300 29.35700
C  -5.62800 24.92400 30.71300
C  -6.61100 23.70400 30.43100
C  -6.87200 23.78000 28.86500
C  -5.93700 22.27800 30.73600
C  -6.43500 26.14300 31.23900
C  -6.30100 26.45000 32.74600
H  -5.65300 25.34800 33.64200
N  -7.23500 23.47400 25.85700
C  -7.97400 22.84800 26.79000
C  -8.82000 21.91300 26.09500
C  -8.60100 21.99400 24.74700
C  -7.49300 22.89400 24.59900
C  -9.73300 21.02800 26.88100
C  -9.24200 21.19200 23.55000
O  -8.88800 21.34600 22.42200
C  -10.35400 20.25000 23.81200
N  -5.35600 25.17800 24.06900
C  -5.85500 24.31000 23.16100
C  -5.12600 24.49200 21.73600
C  -4.21000 25.72700 22.01200
C  -4.33000 25.86800 23.53500
C  -4.40300 23.21700 21.31900
C  -4.60700 27.01400 21.23700
C  -5.46300 28.02600 21.89100
N  -4.40800 26.33300 26.52100
C  -3.55200 26.95400 25.63900
C  -2.74900 27.90300 26.40800
C  -3.04500 27.69600 27.69400
C  -4.03800 26.68900 27.74900
C  -1.78500 28.87000 25.90900
C  -2.63500 28.04400 28.99000
O  -1.81700 28.86800 29.45300
C  -3.43400 27.17700 29.95700
C  -2.44500 26.46100 30.85200
O  -1.90100 25.35700 30.69200
O  -2.33100 27.16700 32.02400
C  -1.69900 26.68600 33.29200
H  -8.28400 22.25100 28.88200
H  -6.94400 22.65000 22.57200
H  -2.81200 27.34200 23.67200
H  -4.74300 24.63900 31.28100
H  -7.55500 23.89300 30.94300
H  -5.84900 21.58300 29.90100
H  -6.62800 21.86000 31.46800
H  -5.01600 22.34900 31.31400
H  -7.47700 26.04400 30.93500
H  -6.20100 27.07500 30.72300
H  -7.30100 26.57600 33.16100
H  -5.75100 27.38300 32.86800
H  -9.61200 19.96200 26.68400
H  -10.68700 21.27200 26.41400
H  -9.80400 21.23600 27.94800
H  -11.10200 20.55900 24.54300
H  -9.82200 19.36000 24.14600
H  -10.77800 20.02500 22.83300
H  -5.84700 24.82100 20.98700
H  -3.16900 25.50100 21.78100
H  -4.55300 22.39900 22.02400
H  -3.34100 23.41400 21.17100
H  -4.73900 22.90400 20.33100
H  -4.94600 26.80200 20.22300
H  -3.66800 27.50200 20.97600
H  -4.88900 28.92900 22.10100
H  -6.02800 27.73500 22.77700
H  -6.13500 28.40800 21.12200
H  -2.28500 29.83100 25.78100
H  -1.44000 28.60600 24.90900
H  -0.84600 28.87900 26.46200
H  -4.07200 27.85700 30.52100
H  -2.29700 27.11500 34.09700
H  -0.62900 26.88400 33.34800
H  -1.72400 25.59800 33.36000

