158

Mg 55.00800 23.38200 44.09800
C  52.90100 26.28200 43.68700
C  52.38200 21.46300 43.06400
C  57.13500 21.04800 44.14400
C  57.61400 25.81300 44.75300
N  52.87700 23.93000 43.35600
C  52.24400 25.06400 43.30800
C  50.84900 24.86100 42.83600
C  50.58300 23.35100 43.12800
C  52.06300 22.83700 43.16600
C  49.73300 23.11300 44.44000
C  50.78800 25.18500 41.31100
C  49.39700 25.64200 40.76800
H  48.79600 24.65300 39.75700
N  54.75900 21.45500 43.73500
C  53.65700 20.79900 43.27900
C  53.92300 19.39100 43.27900
C  55.36700 19.23200 43.51100
C  55.83500 20.58900 43.83600
C  52.91600 18.23100 43.05300
C  56.08500 17.90400 43.42500
O  55.57300 16.87100 43.16600
C  57.49200 17.83100 43.64900
N  57.10000 23.49300 44.36400
C  57.67000 22.28500 44.48400
C  59.06500 22.50300 45.06100
C  59.17900 24.02600 45.28800
C  57.93100 24.47300 44.64800
C  59.50300 21.79900 46.30100
C  60.48200 24.64000 44.69600
C  61.25100 25.39200 45.67000
N  55.26800 25.55600 44.27100
C  56.36400 26.37300 44.59800
C  55.88900 27.81800 44.72500
C  54.57500 27.77900 44.34000
C  54.24900 26.38800 44.11600
C  56.70600 29.13000 44.86300
C  53.43700 28.62700 44.05600
O  53.37000 29.85600 44.04300
C  52.31200 27.69300 43.56900
C  52.06100 28.08300 42.07600
O  52.88600 28.34900 41.21200
O  50.71700 28.35800 42.03400
C  50.42000 29.31400 41.01100
H  51.57300 20.80700 42.73700
H  57.84900 20.22200 44.18700
H  58.41000 26.55700 44.83300
H  50.11600 25.44300 43.39500
H  50.08600 22.95900 42.24100
H  49.24200 24.02000 44.79400
H  50.28400 22.72700 45.29700
H  49.03500 22.29200 44.28000
H  50.95300 24.30700 40.68600
H  51.56700 25.88200 41.00400
H  49.71600 26.52800 40.21800
H  48.76400 25.95600 41.59800
H  53.31300 17.65900 42.21400
H  51.92100 18.61300 42.82200
H  52.88100 17.63200 43.96300
H  58.01100 18.41400 42.88800
H  57.94500 16.84000 43.69000
H  57.55800 18.32300 44.61900
H  59.65900 22.12300 44.23000
H  59.03600 24.25100 46.34500
H  60.46100 21.29800 46.16400
H  58.86800 20.92700 46.45500
H  59.59600 22.32000 47.25400
H  60.35500 25.21300 43.77700
H  61.12900 23.78100 44.51800
H  62.26100 25.50700 45.27600
H  61.32700 24.95400 46.66600
H  60.84700 26.38800 45.85100
H  56.07800 29.76600 45.48700
H  56.90000 29.56000 43.88000
H  57.66000 28.77800 45.25500
H  51.37100 27.71400 44.11900
H  51.00200 30.21200 41.21800
H  49.35900 29.54200 41.11700
H  50.67900 29.00600 39.99800
Mg -1.80700 34.83000 27.16000
C  -3.82100 33.12300 29.27300
C  -0.77200 36.97900 29.47600
C  -0.03100 36.57000 24.77800
C  -2.84100 32.64600 24.45200
N  -2.37200 35.00600 29.07200
C  -3.01200 34.08800 29.86100
C  -2.78400 34.38300 31.36200
C  -2.02500 35.75400 31.37300
C  -1.69400 35.97600 29.87300
C  -3.13000 36.83200 31.94600
C  -1.96900 33.25700 31.95900
C  -2.11900 32.98700 33.47800
H  -2.51400 34.12000 34.46000
N  -0.44600 36.43300 27.15100
C  -0.24400 37.20800 28.24100
C  0.62300 38.31000 27.86800
C  0.97800 38.19400 26.49200
C  0.22300 36.98600 26.07400
C  0.90100 39.45700 28.79200
C  1.76900 39.03300 25.52600
O  2.11200 38.62200 24.38400
C  2.46500 40.31200 26.07300
N  -1.38300 34.60900 24.92500
C  -0.62500 35.47700 24.23600
C  -0.48500 35.02900 22.74200
C  -1.44100 33.87700 22.67200
C  -1.90300 33.67600 24.08000
C  -0.73000 36.11700 21.63000
C  -0.84200 32.58000 22.08400
C  0.32400 32.04000 22.93100
N  -3.13500 33.25900 26.83300
C  -3.45600 32.48800 25.70200
C  -4.35100 31.44000 26.11000
C  -4.56500 31.67400 27.50000
C  -3.82000 32.79600 27.91800
C  -5.02200 30.32900 25.23300
C  -5.30700 31.19900 28.65500
O  -6.15100 30.32300 28.80100
C  -4.62700 32.05700 29.85800
C  -5.70400 32.60500 30.64900
O  -6.51500 33.44900 30.29600
O  -5.55700 32.32700 31.97100
C  -6.69000 32.74000 32.85100
H  -0.39000 37.63200 30.26400
H  0.49200 37.11500 23.99000
H  -3.08300 31.88600 23.70600
H  -3.80400 34.48200 31.73300
H  -1.10100 35.79000 31.94900
H  -2.79000 37.20100 32.91400
H  -4.12500 36.41100 32.08600
H  -3.05800 37.74400 31.35300
H  -0.93900 33.17200 31.61300
H  -2.37900 32.34900 31.51700
H  -1.09900 32.69600 33.73100
H  -2.86900 32.23800 33.73200
H  1.70900 40.13300 28.51600
H  1.06900 39.16900 29.83000
H  -0.02800 40.02700 28.77100
H  1.65500 40.93200 26.45600
H  2.99700 40.80100 25.25600
H  3.17900 39.95100 26.81300
H  0.54500 34.68600 22.64600
H  -2.32200 34.18400 22.10700
H  -1.38200 35.78700 20.82100
H  0.20600 36.03600 21.07700
H  -0.95200 37.15800 21.86400
H  -0.40400 32.72200 21.09500
H  -1.56100 31.80100 21.83100
H  0.46800 32.52000 23.89900
H  1.22000 32.15600 22.32200
H  0.31000 30.99600 23.24300
H  -5.19500 30.60600 24.19300
H  -5.99400 30.13400 25.68600
H  -4.43500 29.41100 25.27900
H  -3.98200 31.46700 30.50800
H  -6.32900 33.63500 33.35700
H  -6.85400 31.87100 33.48900
H  -7.65200 32.99100 32.40400

