158

Mg 16.80000 -1.21700 28.48100
C  15.53800 0.90800 31.06300
C  18.66100 -2.86700 30.81200
C  18.25900 -2.93800 26.00100
C  15.19300 0.87600 26.21100
N  17.08800 -0.89000 30.73500
C  16.37700 -0.05300 31.58200
C  16.81800 -0.37600 33.03900
C  17.88100 -1.61000 32.90400
C  17.99800 -1.74800 31.39700
C  19.16200 -1.35300 33.71400
C  15.62300 -0.75300 33.96600
C  15.41800 0.06900 35.19900
H  16.60700 0.44000 36.03600
N  18.34500 -2.64400 28.46700
C  18.76500 -3.31300 29.51400
C  19.58000 -4.43800 29.08700
C  19.42500 -4.49700 27.69400
C  18.65200 -3.28800 27.32900
C  20.48000 -5.26900 29.92100
C  20.03900 -5.58200 26.67900
O  20.00200 -5.49800 25.41700
C  20.77500 -6.74600 27.23700
N  16.88000 -0.99500 26.44300
C  17.51600 -1.82600 25.58100
C  17.30500 -1.44300 24.09900
C  16.39100 -0.19100 24.16900
C  16.16800 -0.03700 25.73400
C  18.60300 -1.25900 23.34300
C  15.16200 -0.43300 23.22400
C  13.96800 -1.00500 23.78400
N  15.55700 0.51700 28.59900
C  14.95300 1.25500 27.57500
C  14.08600 2.31700 28.17300
C  14.28800 2.23900 29.57300
C  15.25100 1.15600 29.72200
C  13.22400 3.28900 27.35500
C  13.95200 2.80300 30.80600
O  13.30100 3.80800 31.11700
C  14.76200 1.98100 31.93300
C  15.70900 2.98800 32.55300
O  16.82400 3.25600 32.11200
O  15.19300 3.25700 33.80400
C  16.00800 4.24600 34.47700
H  19.06900 -3.43300 31.65200
H  18.60000 -3.59900 25.20200
H  14.70900 1.53100 25.48300
H  17.21800 0.56100 33.42900
H  17.44000 -2.53300 33.28100
H  19.43500 -0.33200 33.98300
H  20.07200 -1.69400 33.22000
H  19.22000 -1.80500 34.70400
H  15.64000 -1.82600 34.15800
H  14.63300 -0.60100 33.53700
H  14.77200 -0.60600 35.76100
H  14.92000 0.99100 34.90000
H  20.74500 -4.77600 30.85600
H  21.46100 -5.29900 29.44600
H  20.25500 -6.31200 30.14300
H  20.22900 -7.23000 28.04700
H  21.73800 -6.35600 27.56400
H  21.01000 -7.48900 26.47500
H  16.75300 -2.27400 23.65900
H  16.92900 0.69800 23.83900
H  18.64300 -0.31800 22.79400
H  18.60000 -1.89000 22.45400
H  19.47800 -1.45500 23.96200
H  15.41700 -1.04600 22.35900
H  14.90500 0.57100 22.88700
H  14.19700 -1.12100 24.84300
H  13.68100 -1.99000 23.41400
H  13.04900 -0.44000 23.62500
H  13.71100 3.60500 26.43200
H  13.10200 4.19600 27.94700
H  12.28100 2.75300 27.24000
H  14.00600 1.54500 32.58600
H  16.26300 5.11600 33.87300
H  16.99600 3.82400 34.66100
H  15.55100 4.54200 35.42200
Mg -4.64800 25.20800 25.92900
C  -3.95100 26.70400 28.89200
C  -6.69700 22.82400 27.56700
C  -5.11200 23.52000 23.12500
C  -2.18800 27.24900 24.35800
N  -5.29000 24.91200 27.95000
C  -4.88900 25.65900 29.02200
C  -5.73400 25.26100 30.29300
C  -6.48100 23.98300 29.90200
C  -6.11700 23.81700 28.36400
C  -6.26600 22.67200 30.71100
C  -6.67100 26.40800 30.85400
C  -6.47000 26.69300 32.31500
H  -6.17100 25.56400 33.34800
N  -5.92300 23.59500 25.33100
C  -6.55700 22.70000 26.15900
C  -7.30700 21.75600 25.32100
C  -6.91200 21.92900 24.00600
C  -5.95000 23.07200 24.13800
C  -8.35900 20.79500 25.92400
C  -7.34200 21.27200 22.67300
O  -6.87600 21.69100 21.66300
C  -8.40400 20.15300 22.69900
N  -3.90700 25.45200 24.04400
C  -4.18100 24.54900 23.06900
C  -3.26800 24.76600 21.87300
C  -2.60700 26.07800 22.11200
C  -2.87700 26.34000 23.59500
C  -2.29900 23.57000 21.64600
C  -3.04100 27.16700 21.16300
C  -4.54800 27.45400 21.02800
N  -3.34700 26.75600 26.43700
C  -2.45900 27.54200 25.73600
C  -1.79700 28.47300 26.66000
C  -2.38200 28.20700 27.93700
C  -3.28900 27.15100 27.74700
C  -0.86200 29.55700 26.31500
C  -2.29000 28.49500 29.37200
O  -1.49000 29.27800 29.93200
C  -3.42200 27.56900 30.06200
C  -2.76900 26.92200 31.23300
O  -2.28000 25.76400 31.14100
O  -2.55300 27.76400 32.26200
C  -1.86700 27.07800 33.37700
H  -7.43800 22.22200 28.09700
H  -5.06400 23.20500 22.08100
H  -1.57300 27.92600 23.76100
H  -4.93200 24.92900 30.95200
H  -7.54200 24.22900 29.88700
H  -6.31100 22.94400 31.76600
H  -5.27300 22.29900 30.46300
H  -7.05100 21.94500 30.50400
H  -7.67500 26.01500 30.69800
H  -6.53000 27.32600 30.28300
H  -7.45900 27.04100 32.61200
H  -5.75600 27.49200 32.51600
H  -7.70500 20.03600 26.35400
H  -8.94300 20.16800 25.25000
H  -9.02400 21.27300 26.64400
H  -8.59400 19.66200 21.74500
H  -9.32900 20.57600 23.09300
H  -7.99300 19.37800 23.34600
H  -3.97600 24.80000 21.04400
H  -1.55300 25.84700 21.95800
H  -1.26700 23.92100 21.64500
H  -2.50100 23.18600 20.64600
H  -2.55100 22.79600 22.37100
H  -2.64700 26.88100 20.18800
H  -2.55200 28.08600 21.48900
H  -5.23600 26.61500 21.12900
H  -4.66100 27.84100 20.01500
H  -4.84200 28.17200 21.79400
H  -1.28300 30.56200 26.33800
H  -0.56600 29.53400 25.26600
H  -0.04700 29.45600 27.03100
H  -4.26400 28.18300 30.38300
H  -1.81700 27.85000 34.14600
H  -0.87600 26.72700 33.08700
H  -2.57700 26.30700 33.67600

