158

Mg 48.92100 46.68700 42.56900
C  45.78600 47.24600 41.34200
C  48.84200 43.62400 41.13100
C  52.31200 46.57800 43.25100
C  49.22200 50.32400 43.06900
N  47.50000 45.67100 41.14300
C  46.22900 45.98500 41.00600
C  45.50800 44.90900 40.16800
C  46.41800 43.62800 40.37100
C  47.69600 44.33000 40.89500
C  45.84500 42.53000 41.36900
C  45.36400 45.24400 38.61500
C  44.00300 45.21000 37.92500
H  43.89000 44.35100 36.68000
N  50.38600 45.23700 42.31500
C  50.14500 44.03000 41.68400
C  51.37200 43.18900 41.72200
C  52.28800 44.03200 42.42100
C  51.68600 45.36900 42.65700
C  51.46800 41.76400 41.16700
C  53.78000 43.53700 42.81000
O  54.05200 42.38600 42.53500
C  54.77100 44.38400 43.53000
N  50.54800 48.24000 43.02300
C  51.77900 47.87200 43.34600
C  52.61700 49.04600 43.89700
C  51.74000 50.31900 43.63000
C  50.42400 49.65900 43.11700
C  52.90500 48.83900 45.40000
C  52.35300 51.38400 42.65200
C  52.30700 52.86100 43.08800
N  47.74100 48.40600 42.41300
C  47.96200 49.82000 42.73800
C  46.63800 50.48300 42.67700
C  45.74900 49.51000 42.13500
C  46.50500 48.29100 41.92100
C  46.26500 51.88200 43.04300
C  44.44100 49.27700 41.61700
O  43.44900 49.99300 41.64800
C  44.41400 47.77600 41.03100
C  43.27600 47.01200 41.60600
O  42.41500 46.45900 40.97000
O  43.52200 46.86400 42.96300
C  42.62000 46.02900 43.70400
H  48.99900 42.59100 40.81300
H  53.36700 46.40800 43.47700
H  49.32500 51.38100 43.32400
H  44.55400 44.77000 40.67700
H  46.63500 43.06500 39.46300
H  45.68500 41.55200 40.91400
H  44.90300 42.92500 41.74800
H  46.51500 42.22800 42.17500
H  46.08900 44.66500 38.04400
H  45.67500 46.27900 38.46800
H  43.75100 46.23500 37.65200
H  43.24000 44.88300 38.63100
H  52.50900 41.48700 40.99500
H  51.01800 41.76800 40.17400
H  51.00000 41.09400 41.88800
H  55.71400 43.84500 43.44100
H  54.39200 44.61800 44.52500
H  54.94300 45.31000 42.98200
H  53.62800 49.19700 43.51700
H  51.48700 50.90600 44.51300
H  52.65500 47.81300 45.67000
H  52.30700 49.46500 46.06200
H  53.98500 48.84000 45.54100
H  51.94600 51.26300 41.64800
H  53.41200 51.18700 42.48200
H  52.67300 52.98600 44.10700
H  51.32200 53.30800 42.95800
H  52.99300 53.40300 42.43600
H  46.95800 52.53000 42.50700
H  46.36800 51.95600 44.12600
H  45.24600 52.19300 42.81500
H  44.35600 47.95800 39.95800
H  41.58500 46.31500 43.51700
H  42.90600 46.17900 44.74600
H  42.77700 45.00900 43.35600
Mg 30.39200 58.73800 40.49500
C  27.74500 56.76500 39.15500
C  32.50700 56.37700 39.57900
C  32.68200 61.02100 41.09800
C  27.87500 61.22700 41.28300
N  30.10800 56.84600 39.47800
C  29.02700 56.22100 38.94900
C  29.34200 55.00100 38.10800
C  30.72400 54.71600 38.64900
C  31.17600 56.07500 39.19800
C  30.81900 53.62700 39.76700
C  29.18100 55.39800 36.66800
C  28.46800 54.45000 35.71000
H  28.86700 54.53900 34.23300
N  32.37700 58.66300 40.45300
C  33.10500 57.60300 40.07900
C  34.45600 57.84600 40.40200
C  34.57400 59.22300 40.84600
C  33.19900 59.69600 40.77100
C  35.54900 56.92000 40.13700
C  35.87200 59.84600 41.28100
O  36.92800 59.31800 41.03600
C  35.99000 61.29400 41.85300
N  30.21800 60.84500 41.05900
C  31.38900 61.52800 41.25300
C  31.09200 62.89100 41.76000
C  29.59500 62.83800 42.22300
C  29.16500 61.58700 41.44400
C  32.11800 63.47800 42.76700
C  28.80100 64.06100 41.93700
C  28.14800 64.69800 43.17000
N  28.29800 59.05500 40.15700
C  27.43000 60.04400 40.59100
C  26.05300 59.70700 40.16400
C  26.16800 58.43600 39.63700
C  27.50700 58.03000 39.72600
C  24.84500 60.60900 40.33200
C  25.34800 57.37700 39.16000
O  24.14300 57.31200 38.94700
C  26.42200 56.23000 38.80300
C  26.25500 55.04400 39.61200
O  26.43500 55.01300 40.83700
O  25.87100 53.98600 38.81300
C  25.90300 52.72600 39.57400
H  33.36300 55.73200 39.37100
H  33.48700 61.74000 41.26200
H  27.12700 61.97500 41.55200
H  28.71600 54.16700 38.42800
H  31.36300 54.22400 37.91600
H  30.91100 54.13300 40.72800
H  31.69300 53.02300 39.52700
H  29.95400 52.96400 39.73600
H  30.18900 55.50300 36.26500
H  28.63600 56.34100 36.62800
H  27.40100 54.62200 35.85300
H  28.69500 53.41500 35.96500
H  36.11800 57.23100 39.26100
H  35.26800 55.88100 39.96400
H  36.23400 56.93400 40.98400
H  37.03900 61.54200 42.01500
H  35.33500 61.37400 42.72100
H  35.65600 62.05700 41.15000
H  31.15500 63.48400 40.84800
H  29.63100 62.55300 43.27400
H  32.69300 62.71900 43.29600
H  31.74000 64.20900 43.48300
H  32.83500 64.07800 42.20700
H  28.05500 63.80200 41.18600
H  29.48800 64.75000 41.44500
H  28.48100 65.73400 43.09600
H  28.63000 64.36400 44.08900
H  27.06900 64.54600 43.16200
H  24.37300 60.25500 41.24800
H  24.20300 60.33400 39.49500
H  25.15500 61.65400 40.32500
H  26.32700 56.02900 37.73600
H  25.48400 52.85900 40.57200
H  26.92000 52.41400 39.81000
H  25.32600 51.97800 39.03000

