158

Mg 25.13600 1.36700 29.38200
C  27.24200 1.22300 32.12500
C  22.44300 1.64900 31.61100
C  23.08500 0.69100 26.78800
C  27.95000 0.63500 27.30400
N  24.86900 1.58400 31.63000
C  25.92500 1.52500 32.51700
C  25.39000 1.69000 33.93000
C  23.87000 1.69400 33.83000
C  23.69600 1.60400 32.26700
C  23.14500 0.47200 34.55700
C  26.00600 2.87100 34.67900
C  26.59800 2.54300 36.11300
H  26.06400 3.51000 37.23000
N  23.08700 1.31100 29.23400
C  22.14000 1.42300 30.29600
C  20.81300 1.36600 29.66300
C  20.94600 1.08100 28.22500
C  22.42600 0.98100 28.01500
C  19.58900 1.63700 30.46400
C  19.85700 1.04600 27.11000
O  20.12400 0.75600 25.95100
C  18.43000 1.23700 27.38400
N  25.48700 0.67800 27.36100
C  24.43300 0.52200 26.52400
C  24.87400 0.39800 25.04800
C  26.45100 0.42200 25.18400
C  26.66900 0.66800 26.68800
C  24.39700 -0.98200 24.40300
C  27.12300 1.53700 24.37100
C  26.84800 3.05700 24.77700
N  27.15800 1.10100 29.61300
C  28.18000 0.81300 28.73400
C  29.42100 0.65500 29.38800
C  29.11400 0.80600 30.74200
C  27.73100 1.13300 30.84900
C  30.73200 0.20600 28.83700
C  29.68700 0.84300 32.08000
O  30.86400 0.78400 32.45200
C  28.41200 0.91200 33.00000
C  28.21900 -0.23700 33.85200
O  27.53600 -1.21100 33.62300
O  28.90800 0.00900 35.04800
C  28.81000 -1.02600 36.08500
H  21.63000 1.84700 32.31300
H  22.49900 0.46100 25.89500
H  28.80000 0.28600 26.71400
H  25.74400 0.79700 34.44400
H  23.49800 2.63400 34.23700
H  22.64500 0.85100 35.44800
H  23.88100 -0.23700 34.93600
H  22.43100 -0.03900 33.91100
H  25.37600 3.76100 34.68600
H  26.87500 3.11300 34.06700
H  27.65800 2.74200 35.96000
H  26.45700 1.47400 36.27500
H  19.69500 1.51100 31.54100
H  18.74900 0.97500 30.25300
H  19.24200 2.64800 30.24800
H  18.31300 2.23700 27.80000
H  18.26900 0.49800 28.16900
H  17.82400 1.00300 26.50800
H  24.45400 1.27700 24.56000
H  26.95400 -0.50600 24.91200
H  23.83800 -0.75600 23.49600
H  23.92200 -1.43700 25.27200
H  25.23400 -1.56400 24.01600
H  26.89500 1.35200 23.32200
H  28.19500 1.42200 24.53400
H  26.68400 3.65000 23.87800
H  27.71100 3.42000 25.33500
H  25.90300 3.18200 25.30600
H  30.57400 -0.22300 27.84700
H  31.14600 -0.53700 29.51800
H  31.38500 1.07200 28.73500
H  28.67700 1.70300 33.70100
H  28.97600 -1.97300 35.57200
H  27.82700 -0.85500 36.52300
H  29.64200 -0.80700 36.75400
Mg -10.75600 38.78800 43.08300
C  -9.43500 35.70900 41.72400
C  -8.10400 40.38800 41.48300
C  -12.33600 41.62700 43.39000
C  -13.67900 36.92300 43.96200
N  -9.06300 38.06300 41.61700
C  -8.69900 36.82400 41.34000
C  -7.36000 36.81200 40.54800
C  -6.79100 38.23400 40.83500
C  -8.01600 38.95400 41.43500
C  -5.50400 38.24300 41.67200
C  -7.46200 36.43700 38.97400
C  -6.29100 35.72400 38.43900
H  -5.49300 36.38400 37.33300
N  -10.28800 40.80800 42.51500
C  -9.18500 41.20500 41.89800
C  -9.16600 42.66500 41.74600
C  -10.35700 43.13400 42.30700
C  -11.05300 41.89400 42.84800
C  -8.04200 43.39500 40.98400
C  -10.86400 44.58300 42.23500
O  -10.18500 45.41200 41.67400
C  -12.20200 45.07500 42.76000
N  -12.81300 39.17600 43.33500
C  -13.14700 40.43100 43.60700
C  -14.63400 40.55400 44.09400
C  -14.99200 39.02000 44.31000
C  -13.77900 38.31600 43.87000
C  -14.80400 41.52700 45.36400
C  -16.33200 38.53600 43.66500
C  -16.22900 37.90500 42.24500
N  -11.31300 36.75300 43.14400
C  -12.54900 36.17200 43.48700
C  -12.37800 34.72800 43.42300
C  -11.17100 34.48300 42.74400
C  -10.62900 35.74000 42.45300
C  -13.32200 33.61100 43.87500
C  -10.30700 33.48600 42.15400
O  -10.47500 32.25900 42.08100
C  -9.14200 34.27200 41.43500
C  -7.85200 33.84200 41.82300
O  -7.05100 33.19900 41.10100
O  -7.62100 34.11400 43.12900
C  -6.36700 33.56700 43.68600
H  -7.34100 40.95000 40.94000
H  -12.89200 42.49800 43.74300
H  -14.50800 36.35100 44.38200
H  -6.78400 36.04600 41.07000
H  -6.65500 38.89200 39.97700
H  -5.64600 38.53600 42.71200
H  -4.85600 39.01000 41.24800
H  -5.01200 37.27600 41.56600
H  -7.83000 37.24700 38.34400
H  -8.31100 35.75400 38.96100
H  -6.56200 34.76700 37.99400
H  -5.65600 35.53900 39.30500
H  -8.23200 44.45700 40.83400
H  -7.92500 42.82500 40.06200
H  -7.11100 43.24300 41.53100
H  -13.02400 44.44600 42.41800
H  -12.48500 46.11500 42.59400
H  -12.15700 44.91600 43.83700
H  -15.24900 40.88000 43.25600
H  -15.20700 38.92100 45.37500
H  -15.57000 41.08700 46.00400
H  -15.20200 42.45400 44.95100
H  -13.86800 41.64000 45.91000
H  -16.94400 39.43200 43.55700
H  -16.89200 37.75600 44.17900
H  -16.65600 36.90700 42.34600
H  -15.20800 37.71600 41.91600
H  -16.76800 38.60400 41.60500
H  -14.14500 33.58800 43.16100
H  -13.80400 33.92900 44.79900
H  -12.93300 32.59300 43.87700
H  -9.11800 34.11800 40.35600
H  -6.14800 33.68800 44.74700
H  -5.60600 34.07200 43.09000
H  -6.33700 32.48200 43.58800

