158

Mg 48.20900 25.34500 27.73300
C  48.94900 27.82700 30.18900
C  47.40500 23.30200 30.44800
C  47.63200 22.81700 25.55900
C  49.62500 27.35100 25.35300
N  48.15100 25.62300 30.07100
C  48.40200 26.72500 30.83500
C  48.12500 26.49800 32.32800
C  48.02800 24.93500 32.39600
C  47.79300 24.57800 30.83400
C  49.31700 24.38700 33.01200
C  46.87900 27.27300 32.93100
C  47.25900 28.27900 34.02400
H  46.22800 28.44900 35.13200
N  47.57500 23.35800 28.01000
C  47.18300 22.70500 29.17900
C  46.45800 21.59000 28.77400
C  46.49700 21.41900 27.36600
C  47.28500 22.54200 26.93300
C  45.91000 20.67700 29.77400
C  45.95700 20.35900 26.38500
O  46.11900 20.36600 25.20400
C  45.00300 19.39900 26.98700
N  48.87400 25.01900 25.78300
C  48.39200 23.92500 25.09300
C  48.71300 24.12900 23.54500
C  49.11400 25.71700 23.48600
C  49.26800 26.08000 24.97500
C  49.74800 23.11900 22.98200
C  48.05400 26.50300 22.61900
C  48.31300 26.73600 21.12800
N  49.13800 27.22300 27.69600
C  49.69200 27.89700 26.67900
C  50.20400 29.16900 27.09900
C  49.91100 29.19800 28.48800
C  49.26000 28.00600 28.81400
C  50.79900 30.12900 26.11300
C  50.07400 29.97400 29.74400
O  50.62400 31.03000 29.96800
C  49.46400 29.05300 30.89700
C  50.62600 28.89800 31.83600
O  51.17400 27.85800 32.02400
O  50.78800 30.01300 32.63200
C  51.34700 29.54500 33.89200
H  47.03600 22.68500 31.27000
H  47.38500 22.26900 24.64800
H  50.07200 27.91500 24.53200
H  49.05700 26.80600 32.80300
H  47.26600 24.61800 33.10700
H  49.81000 23.71600 32.30800
H  49.06700 23.71600 33.83400
H  50.12500 25.10100 33.17300
H  46.14800 26.53000 33.25000
H  46.39400 27.85200 32.14500
H  47.50900 29.26400 33.63000
H  48.16200 27.86500 34.47200
H  46.55000 19.80400 29.64700
H  44.92000 20.36000 29.44700
H  45.99300 20.98200 30.81800
H  44.57500 18.85500 26.14500
H  44.20500 19.94700 27.48700
H  45.52000 18.74400 27.68900
H  47.77100 23.97900 23.01800
H  50.09500 25.81700 23.02200
H  50.74400 23.55300 22.90500
H  49.47500 23.00000 21.93400
H  49.70200 22.13200 23.44400
H  48.09300 27.50000 23.05800
H  47.03300 26.12400 22.64200
H  49.14200 26.08000 20.86100
H  48.53600 27.76400 20.84400
H  47.41900 26.49400 20.55500
H  50.18800 30.07100 25.21200
H  51.83600 29.93100 25.84300
H  50.75000 31.15700 26.47100
H  48.59500 29.55900 31.31700
H  51.35900 30.38600 34.58700
H  52.39400 29.24400 33.85000
H  50.65000 28.76600 34.19800
Mg 48.78800 35.08500 26.47200
C  46.84500 33.51100 28.96900
C  48.91100 37.85200 28.60200
C  50.12100 36.72800 23.95500
C  48.24200 32.30800 24.33700
N  48.06800 35.52200 28.62200
C  47.33000 34.72100 29.38300
C  47.34600 35.24200 30.79800
C  47.68900 36.68700 30.63800
C  48.31000 36.75000 29.22200
C  46.45900 37.69700 30.88800
C  48.44700 34.41800 31.62300
C  48.13600 33.94900 33.07100
H  47.72900 34.97000 34.11700
N  49.36400 37.02800 26.30500
C  49.31700 38.05700 27.24900
C  49.91200 39.29300 26.66100
C  50.27700 38.95700 25.31200
C  49.93300 37.54500 25.12700
C  50.07400 40.58400 27.45400
C  50.91900 39.79300 24.26600
O  51.29600 39.38400 23.16700
C  51.35900 41.16900 24.68000
N  48.99500 34.63100 24.32800
C  49.78800 35.42000 23.63700
C  50.16300 34.82700 22.26600
C  49.68700 33.29400 22.45200
C  48.94400 33.41600 23.78700
C  49.48400 35.47600 21.11300
C  50.71500 32.15700 22.61000
C  50.40200 30.75700 22.05500
N  47.78800 33.27700 26.55700
C  47.65100 32.22800 25.65700
C  46.82700 31.14300 26.20400
C  46.45100 31.63300 27.48900
C  47.08000 32.93300 27.69900
C  46.34700 29.87000 25.56600
C  45.70000 31.33800 28.65300
O  44.94600 30.42500 28.94600
C  45.72700 32.61700 29.47600
C  45.79600 32.34100 30.95200
O  46.52500 31.54500 31.45500
O  44.82700 32.98500 31.54500
C  44.64500 32.81900 32.99200
H  48.97800 38.79000 29.15600
H  50.61800 37.12700 23.06800
H  48.09400 31.41900 23.72000
H  46.41400 35.10200 31.34500
H  48.58300 36.92900 31.21200
H  46.34300 38.42300 30.08300
H  46.66700 38.39000 31.70300
H  45.50800 37.19700 31.07200
H  49.44000 34.86700 31.62000
H  48.63300 33.46700 31.12500
H  49.01500 33.64800 33.64100
H  47.44000 33.11500 33.16800
H  49.28900 40.46900 28.20100
H  49.84900 41.39400 26.75900
H  51.13400 40.72800 27.66600
H  50.62300 41.97200 24.73200
H  52.06300 41.58800 23.96000
H  51.84600 41.07800 25.65100
H  51.22000 34.87800 22.00700
H  48.90900 32.97600 21.75800
H  48.64600 36.07800 21.46600
H  49.15100 34.74500 20.37600
H  50.24300 36.10900 20.65200
H  50.91100 31.98000 23.66700
H  51.71000 32.47500 22.29800
H  50.42100 30.09500 22.92000
H  51.12500 30.42200 21.31100
H  49.37900 30.66900 21.68900
H  45.27000 29.92000 25.40400
H  46.60100 29.00800 26.18400
H  46.84800 29.89500 24.59900
H  44.82600 33.18000 29.23200
H  43.75500 32.25000 33.26200
H  44.58200 33.82100 33.41500
H  45.48500 32.24200 33.37900

