158

Mg 41.87200 40.68700 27.06300
C  41.13200 43.27800 29.25800
C  42.45800 38.67000 29.72700
C  42.97200 38.46200 24.99100
C  41.71500 43.09400 24.38800
N  41.89300 40.98400 29.18100
C  41.54900 42.07700 29.93200
C  41.37600 41.88900 31.42700
C  41.85900 40.38000 31.56600
C  42.16600 39.99400 30.07100
C  43.09400 40.06000 32.43400
C  39.92700 42.14000 32.03700
C  39.61300 41.65700 33.45500
H  39.05300 42.71000 34.47600
N  42.50200 38.84400 27.32100
C  42.67200 38.09900 28.42900
C  43.08800 36.71900 28.10200
C  42.95800 36.62600 26.71800
C  42.82800 38.02700 26.31200
C  43.39800 35.73300 29.23900
C  42.92200 35.45400 25.81900
O  42.66800 35.68100 24.57100
C  43.10000 34.13300 26.41000
N  42.38100 40.85100 24.92500
C  42.81700 39.70400 24.36400
C  42.95500 39.88700 22.85500
C  42.38400 41.33700 22.63800
C  42.17400 41.80900 24.02400
C  44.30300 39.61600 22.14300
C  41.15100 41.49300 21.70900
C  39.81700 41.20600 22.40200
N  41.48100 42.72600 26.81200
C  41.40500 43.56600 25.69700
C  40.89700 44.88700 26.12300
C  40.81100 44.81900 27.53500
C  41.16000 43.51800 27.85700
C  40.59500 46.07400 25.24000
C  40.50400 45.57900 28.72300
O  40.23400 46.75800 28.85000
C  40.67300 44.60800 29.91700
C  41.74500 45.24600 30.71500
O  42.95400 44.92500 30.66800
O  41.16500 46.13900 31.55800
C  42.13700 46.70700 32.48600
H  42.42900 37.95200 30.54900
H  43.34300 37.77100 24.23200
H  41.44800 43.76700 23.57000
H  42.14400 42.42700 31.98400
H  41.05000 39.71900 31.87900
H  43.74800 40.92700 32.52800
H  43.76000 39.26400 32.10100
H  42.74100 39.77700 33.42600
H  39.07400 41.77700 31.46300
H  39.68200 43.20200 32.03500
H  40.60900 41.47400 33.85900
H  39.00500 40.75200 33.46500
H  43.41100 36.02900 30.28800
H  44.37600 35.30000 29.03200
H  42.74100 34.86600 29.30100
H  42.26900 33.84400 27.05400
H  44.08300 34.00100 26.86000
H  43.15200 33.38200 25.62200
H  42.32600 39.14100 22.37000
H  43.16300 41.96000 22.19900
H  44.57300 40.49900 21.56400
H  44.17700 38.73300 21.51600
H  45.09900 39.33600 22.83400
H  41.34600 40.78800 20.90100
H  41.20300 42.52500 21.36300
H  39.83100 40.54400 23.26800
H  39.15800 40.68900 21.70400
H  39.20400 42.10000 22.51800
H  39.55200 45.99600 24.93300
H  41.13900 46.08900 24.29600
H  40.90800 46.94300 25.82000
H  39.68100 44.64300 30.36700
H  42.99200 47.27100 32.11500
H  42.43100 45.83600 33.07100
H  41.63200 47.37900 33.18000
Mg -9.67400 17.37800 42.43300
C  -6.20400 17.28200 42.54800
C  -9.49500 20.73000 41.96800
C  -13.11200 17.41800 42.14100
C  -9.81700 13.96300 42.94600
N  -7.98500 18.84200 42.28900
C  -6.70200 18.57300 42.36000
C  -5.82400 19.81300 42.32300
C  -6.89500 20.92600 42.39900
C  -8.24800 20.13300 42.27500
C  -6.70700 21.86700 43.61800
C  -4.92800 20.01600 41.07800
C  -5.47300 19.81000 39.70900
H  -4.97400 18.76200 38.76900
N  -11.11000 18.86400 41.96500
C  -10.78000 20.15500 41.71300
C  -12.01100 20.86700 41.40200
C  -13.17000 19.97000 41.62900
C  -12.48800 18.64600 41.88500
C  -12.08600 22.39100 41.13700
C  -14.58400 20.32500 41.60000
O  -14.91600 21.45500 41.17500
C  -15.71400 19.38700 42.00500
N  -11.31900 15.79200 42.27800
C  -12.61400 16.13400 42.36300
C  -13.50400 14.84500 42.71900
C  -12.34100 13.85200 43.19400
C  -11.10400 14.58800 42.73400
C  -14.58100 15.11400 43.74600
C  -12.39900 12.42200 42.42000
C  -12.31400 11.18400 43.34400
N  -8.30500 15.89500 42.68900
C  -8.50100 14.51900 42.74600
C  -7.22200 13.90600 42.84500
C  -6.27100 14.92700 42.79600
C  -6.99000 16.11600 42.70000
C  -6.89800 12.48600 42.94500
C  -4.85100 15.24400 42.83900
O  -3.86600 14.54500 42.86900
C  -4.75500 16.73400 42.77500
C  -4.17100 17.27700 43.95300
O  -3.16500 17.95400 44.01700
O  -4.85300 16.82500 45.07700
C  -4.29200 17.29300 46.37800
H  -9.48700 21.82000 41.90300
H  -14.20000 17.33200 42.11300
H  -9.89200 12.93300 43.30200
H  -5.09200 19.88300 43.12800
H  -6.92600 21.58400 41.53000
H  -6.06700 22.69400 43.31200
H  -6.03400 21.41000 44.34400
H  -7.61600 22.21800 44.10600
H  -4.09400 19.35600 41.31900
H  -4.45400 20.99800 41.07700
H  -5.23000 20.79900 39.31900
H  -6.56200 19.83800 39.72200
H  -12.53000 22.81600 42.03700
H  -12.67500 22.61400 40.24700
H  -11.09300 22.73800 40.85300
H  -15.91600 18.61800 41.26000
H  -16.60500 20.00100 42.13800
H  -15.54400 18.92700 42.97900
H  -13.94100 14.35400 41.84900
H  -12.39800 13.69800 44.27200
H  -14.59200 16.12300 44.15800
H  -14.56600 14.51800 44.65800
H  -15.54100 15.07600 43.22900
H  -11.57600 12.52200 41.71300
H  -13.32000 12.41500 41.83600
H  -11.47100 10.58500 43.00100
H  -13.16700 10.50800 43.28900
H  -12.03300 11.41000 44.37300
H  -7.70300 11.76900 43.10600
H  -6.21400 12.30300 43.77400
H  -6.34600 12.19100 42.05300
H  -4.14000 16.93700 41.89800
H  -3.20200 17.29200 46.35000
H  -4.46100 16.52900 47.13600
H  -4.58900 18.27600 46.74200

