158

Mg 0.97900 8.22200 24.80300
C  1.56600 9.96300 27.68200
C  1.63900 5.26700 26.56000
C  0.55900 6.47200 21.99300
C  1.18800 11.22700 23.00700
N  1.42600 7.69800 26.92900
C  1.48000 8.57300 27.94200
C  1.60300 7.81300 29.31800
C  1.92000 6.31000 28.85800
C  1.64800 6.41300 27.32600
C  3.41200 5.90300 29.11900
C  0.29500 7.98900 30.15000
C  0.56800 8.36600 31.60400
H  1.61100 7.56400 32.36000
N  0.93300 6.16100 24.33000
C  1.27100 5.12600 25.15600
C  1.02300 3.87600 24.45600
C  0.59500 4.19200 23.11800
C  0.64100 5.68100 23.08500
C  1.15100 2.51100 25.06300
C  0.21300 3.34500 21.83700
O  -0.07700 3.81500 20.73200
C  0.36500 1.83400 21.91800
N  0.86800 8.83700 22.80000
C  0.76100 7.87800 21.80400
C  0.77400 8.52800 20.39100
C  0.94400 10.07300 20.74900
C  0.90000 10.10200 22.29600
C  1.84800 8.07600 19.36700
C  -0.04700 11.11200 20.12300
C  0.37500 11.82900 18.82000
N  1.36000 10.23800 25.11700
C  1.39900 11.34100 24.37500
C  1.45400 12.54000 25.17000
C  1.60300 11.99200 26.48100
C  1.49200 10.60900 26.41300
C  1.44800 14.01300 24.72100
C  1.79900 12.34600 27.74500
O  2.07000 13.44200 28.23800
C  1.66900 11.13800 28.65100
C  2.91000 10.98800 29.46200
O  4.07300 10.87400 29.02900
O  2.49800 11.13100 30.72600
C  3.54100 11.38900 31.70700
H  1.98700 4.30300 26.93900
H  0.50900 6.02700 20.99700
H  1.25600 12.11400 22.37400
H  2.38600 8.32500 29.87700
H  1.16500 5.60500 29.20500
H  4.03200 6.55500 29.73400
H  3.86800 5.67400 28.15600
H  3.34700 4.87800 29.48600
H  -0.25200 7.04600 30.15500
H  -0.39700 8.74300 29.77400
H  -0.37000 8.04800 32.05800
H  0.83700 9.41300 31.74400
H  1.70700 2.66100 25.98900
H  1.77300 1.89400 24.41500
H  0.15700 2.07500 25.16000
H  -0.01400 1.22300 22.73700
H  1.43700 1.66100 21.81800
H  -0.01100 1.44700 20.97100
H  -0.24300 8.40100 20.02100
H  1.90800 10.34600 20.32100
H  2.37200 7.34700 19.98500
H  2.42800 8.92700 19.01000
H  1.45400 7.55800 18.49200
H  -0.47400 11.93300 20.69900
H  -0.96300 10.59200 19.84300
H  1.43400 11.74600 18.57700
H  0.47700 12.90300 18.97700
H  -0.17700 11.64100 17.89900
H  1.26300 14.62300 25.60500
H  0.64000 14.16100 24.00400
H  2.43600 14.29400 24.35500
H  0.74800 11.33500 29.20000
H  3.30500 12.26900 32.30500
H  4.51200 11.49400 31.22200
H  3.59900 10.50400 32.34100
Mg 48.08800 15.10900 28.26200
C  45.74000 15.35900 31.00700
C  49.98400 17.61800 29.89000
C  50.13600 15.13000 25.65300
C  45.58100 13.54400 26.40800
N  47.83600 16.26400 30.22700
C  46.95500 16.14600 31.26900
C  47.29400 17.03500 32.51800
C  48.23300 18.06400 31.80300
C  48.76500 17.27700 30.52300
C  47.70800 19.53100 31.59300
C  48.03900 16.14900 33.58200
C  47.28400 16.12400 34.93500
H  48.07800 15.80700 36.12000
N  49.87600 16.16000 27.86600
C  50.51700 17.06100 28.67300
C  51.80000 17.33900 28.10300
C  51.89700 16.59200 26.90900
C  50.62600 15.88800 26.77000
C  52.81700 18.21200 28.79400
C  53.02800 16.53100 25.88100
O  52.93200 15.91900 24.80100
C  54.32000 17.30900 26.13700
N  47.78800 14.67100 26.23000
C  48.89800 14.52600 25.46200
C  48.50200 13.71900 24.21100
C  47.01000 13.43400 24.28400
C  46.77200 13.85000 25.73300
C  48.97100 14.24300 22.81500
C  46.51500 12.00900 23.87300
C  45.55100 11.96000 22.66200
N  46.12500 14.44000 28.66300
C  45.23700 13.79800 27.77900
C  44.10200 13.43300 28.49100
C  44.21000 14.12500 29.70900
C  45.49500 14.68000 29.78400
C  43.00900 12.68500 27.96300
C  43.51800 14.46400 30.90600
O  42.35600 14.16900 31.15400
C  44.55100 15.01100 31.92500
C  43.98400 16.28600 32.62400
O  43.45300 17.26300 32.09300
O  44.14600 16.16500 33.96800
C  43.73200 17.29200 34.79400
H  50.67200 18.30200 30.39000
H  50.84300 14.84700 24.87000
H  44.75800 13.10500 25.84000
H  46.33300 17.42400 32.85500
H  49.04400 18.20900 32.51700
H  48.35900 20.22900 32.11900
H  46.71100 19.51800 32.03300
H  47.86000 19.85600 30.56300
H  49.12300 16.22700 33.65400
H  47.93500 15.14400 33.17100
H  46.61000 15.27700 34.80400
H  46.66500 16.97200 35.22700
H  52.43100 18.75900 29.65400
H  53.21400 18.93600 28.08300
H  53.58400 17.53700 29.17200
H  54.86100 16.88700 26.98400
H  54.17600 18.38800 26.07100
H  54.91900 17.10200 25.25000
H  48.99800 12.74900 24.23400
H  46.40600 14.11800 23.68700
H  49.61300 15.12100 22.89100
H  48.11000 14.71900 22.34600
H  49.30600 13.43000 22.17000
H  46.09200 11.46400 24.71800
H  47.36800 11.37800 23.62300
H  46.06000 11.69700 21.73500
H  45.00000 12.89100 22.53000
H  44.76600 11.21300 22.77100
H  43.36000 11.96200 27.22700
H  42.43200 13.35000 27.32100
H  42.38000 12.23600 28.73100
H  44.86900 14.20500 32.58600
H  44.30400 18.16600 34.48100
H  43.85700 17.08000 35.85500
H  42.64900 17.40300 34.84500

