158

Mg 43.85000 4.91500 47.41100
C  42.05600 7.96500 47.46000
C  40.77000 3.27700 47.43900
C  45.46200 2.05700 46.69800
C  46.74900 6.77300 46.59900
N  41.67100 5.57000 47.30200
C  41.21000 6.86900 47.30400
C  39.68900 6.98200 47.51500
C  39.27800 5.44300 47.67100
C  40.58800 4.74300 47.50800
C  38.51000 5.11000 49.04200
C  38.93300 7.57600 46.32400
C  39.61900 8.05300 45.01600
H  39.25200 7.21500 43.79700
N  43.26000 2.92400 47.20300
C  41.95300 2.44400 47.24600
C  42.05100 1.04600 47.04900
C  43.38000 0.65600 46.94200
C  44.11400 1.84700 46.94200
C  40.76800 0.14400 46.88500
C  43.87200 -0.75100 46.89900
O  43.07300 -1.70100 46.90300
C  45.29300 -1.12600 46.81400
N  45.80000 4.43200 46.75900
C  46.28400 3.15500 46.68900
C  47.86900 3.16100 46.31800
C  48.19000 4.71900 46.24400
C  46.81400 5.36400 46.50800
C  48.64000 2.34500 47.38500
C  48.95700 5.20600 44.98100
C  50.46200 5.04100 45.00400
N  44.35300 6.95800 47.11100
C  45.57200 7.51500 46.96900
C  45.42300 8.96600 46.99300
C  44.09900 9.20500 47.31200
C  43.40800 7.99200 47.24700
C  46.61000 9.96800 47.01900
C  43.04800 10.21700 47.55400
O  43.25700 11.43400 47.64300
C  41.65200 9.52900 47.58800
C  40.86700 9.81500 48.86400
O  40.99500 9.19600 49.96000
O  40.20300 10.99800 48.77700
C  39.19400 11.13600 49.82500
H  39.79400 2.78800 47.47400
H  46.08900 1.19600 46.45700
H  47.66000 7.37300 46.56600
H  39.37400 7.51800 48.41000
H  38.78000 5.03400 46.79200
H  38.14000 6.02000 49.51400
H  39.31400 4.70100 49.65500
H  37.74200 4.35600 48.87200
H  38.51400 8.48200 46.76300
H  37.98600 7.03700 46.29800
H  40.70300 8.05300 45.13000
H  39.30500 9.03500 44.66300
H  39.87000 0.75400 46.98000
H  40.65600 -0.69400 47.57300
H  40.80100 -0.29400 45.88700
H  45.73200 -0.52200 47.60800
H  45.65800 -0.85100 45.82400
H  45.54600 -2.17300 46.97900
H  48.00300 2.76200 45.31200
H  48.83000 4.96500 47.09100
H  49.50600 1.84900 46.94700
H  47.93500 1.58900 47.73000
H  49.01500 2.99000 48.18000
H  48.66300 6.16600 44.55800
H  48.56300 4.59000 44.17200
H  50.76200 4.25400 45.69600
H  51.03900 5.94200 45.21500
H  50.78200 4.63800 44.04300
H  47.49200 9.43300 47.36900
H  46.28000 10.81100 47.62700
H  46.73100 10.26400 45.97700
H  41.03500 9.84100 46.74600
H  39.57800 11.43900 50.79900
H  38.58200 10.23500 49.87100
H  38.54300 11.92500 49.45000
Mg -6.61400 24.58500 25.31800
C  -5.42400 26.24100 28.01600
C  -8.49400 22.53800 27.38000
C  -7.77000 23.21200 22.67200
C  -4.51300 26.85500 23.21800
N  -6.87400 24.35300 27.45400
C  -6.31600 25.23300 28.39300
C  -6.84300 24.94400 29.81300
C  -7.46700 23.44800 29.64100
C  -7.68500 23.41100 28.06800
C  -6.86700 22.25200 30.27400
C  -7.71400 26.03000 30.41100
C  -7.48000 26.27400 31.92900
H  -7.06600 25.08400 32.83000
N  -8.05200 23.15200 25.06200
C  -8.70000 22.42500 25.97100
C  -9.62400 21.56400 25.34500
C  -9.54700 21.75900 23.94100
C  -8.46100 22.78100 23.84000
C  -10.56300 20.59700 26.19000
C  -10.37700 21.17800 22.81300
O  -10.39300 21.52600 21.64800
C  -11.39200 20.08900 23.20600
N  -6.13200 24.94800 23.20500
C  -6.76600 24.09200 22.35200
C  -6.26000 24.31500 20.87500
C  -5.31900 25.56500 21.01200
C  -5.36600 25.84500 22.55300
C  -5.67300 22.93400 20.33900
C  -5.71200 26.85400 20.20700
C  -4.54000 27.55200 19.58800
N  -5.22100 26.24800 25.52900
C  -4.53000 27.04200 24.60800
C  -3.66000 27.98100 25.41200
C  -3.98500 27.71600 26.75700
C  -4.95000 26.68300 26.77600
C  -2.62400 29.03100 24.95700
C  -3.74700 28.05800 28.10300
O  -2.94600 28.88200 28.59400
C  -4.71400 27.18000 28.91600
C  -3.89400 26.32500 29.92000
O  -2.93500 25.57200 29.63100
O  -4.17800 26.64700 31.18000
C  -3.33700 26.22400 32.29000
H  -9.07800 21.86700 28.01300
H  -8.27600 22.75500 21.81800
H  -3.96900 27.53400 22.55800
H  -5.96000 24.79700 30.43600
H  -8.47200 23.44700 30.06200
H  -6.29900 22.52400 31.16400
H  -6.09000 21.84300 29.62800
H  -7.57500 21.52100 30.66300
H  -8.76200 25.80200 30.21600
H  -7.51700 26.91800 29.81100
H  -8.34900 26.86500 32.21600
H  -6.61000 26.93100 31.91100
H  -11.55300 20.39000 25.78300
H  -10.86600 21.07600 27.12100
H  -9.94700 19.72000 26.38700
H  -11.97200 19.69200 22.37300
H  -12.12800 20.63600 23.79500
H  -10.86500 19.34300 23.80100
H  -7.19000 24.55500 20.36100
H  -4.32800 25.15900 20.81000
H  -5.93500 22.10300 20.99500
H  -4.59700 23.06200 20.22000
H  -6.03700 22.58300 19.37300
H  -6.33200 27.48300 20.84500
H  -6.42500 26.51200 19.45600
H  -4.75900 27.52800 18.52000
H  -3.65200 26.92100 19.60200
H  -4.25900 28.50600 20.03500
H  -3.04700 30.01100 24.73400
H  -2.01700 28.55900 24.18500
H  -1.88000 29.15000 25.74400
H  -5.40100 27.77300 29.52100
H  -3.73700 26.71800 33.17500
H  -2.28000 26.43900 32.13600
H  -3.40400 25.14200 32.40900

