158

Mg 46.66500 24.36900 28.33200
C  47.56300 26.75700 30.90300
C  46.08800 22.19100 30.87200
C  46.48900 22.10400 26.13800
C  47.82400 26.72700 26.02000
N  46.58900 24.57700 30.67600
C  46.99300 25.60300 31.47800
C  46.78100 25.23800 32.94500
C  46.38900 23.78400 32.94100
C  46.35000 23.48500 31.39800
C  47.32000 22.89200 33.70900
C  45.86700 26.17900 33.76600
C  46.52500 26.77900 35.09600
H  45.54300 27.19300 36.12800
N  46.17300 22.44100 28.40300
C  45.99300 21.73800 29.53900
C  45.48700 20.41100 29.17200
C  45.69300 20.30800 27.76600
C  46.09100 21.63100 27.35700
C  44.98600 19.34100 30.14000
C  45.37100 19.19600 26.81900
O  45.20400 19.32500 25.59900
C  45.03500 17.81500 27.47200
N  47.14300 24.38100 26.31500
C  46.75800 23.31200 25.58900
C  47.01200 23.54800 24.11300
C  47.14000 25.09700 24.07800
C  47.42400 25.48300 25.60600
C  48.30900 22.94000 23.50100
C  45.97000 25.92800 23.52600
C  44.76700 26.23100 24.40300
N  47.50000 26.35400 28.36500
C  47.91300 27.15400 27.37000
C  48.56300 28.32400 27.82700
C  48.39900 28.25500 29.21500
C  47.78600 26.99000 29.50400
C  49.17900 29.42500 26.97100
C  48.61300 28.91700 30.43900
O  49.06200 30.02700 30.62600
C  48.16300 27.97400 31.62100
C  49.29900 27.46400 32.46300
O  49.83700 26.37700 32.48000
O  49.72000 28.45000 33.33500
C  50.52600 28.08300 34.48200
H  45.87100 21.47700 31.66900
H  46.52100 21.31700 25.38100
H  48.01900 27.54000 25.31700
H  47.73600 25.26700 33.46900
H  45.34200 23.81300 33.24300
H  46.70600 22.06800 34.07200
H  47.75100 23.39800 34.57200
H  48.11900 22.48000 33.09200
H  45.00100 25.57500 34.03600
H  45.47700 27.01800 33.19000
H  47.14300 27.62600 34.79800
H  47.23400 26.03600 35.46100
H  44.00900 19.00300 29.79500
H  44.64900 19.81500 31.06200
H  45.72400 18.55300 30.28800
H  45.91000 17.31000 27.88100
H  44.82900 17.10500 26.67100
H  44.14300 17.69700 28.08800
H  46.11000 23.33700 23.53900
H  47.92200 25.40100 23.38200
H  49.10100 23.61900 23.18700
H  48.04400 22.28100 22.67400
H  48.72200 22.26400 24.25000
H  45.65600 25.36900 22.64400
H  46.43400 26.86500 23.21800
H  44.83900 25.72200 25.36500
H  43.82000 25.81700 24.05700
H  44.79000 27.31800 24.47600
H  49.59600 28.96800 26.07300
H  49.95700 29.96100 27.51300
H  48.45400 30.14500 26.59100
H  47.42200 28.44500 32.26600
H  50.47400 28.88900 35.21500
H  51.51500 27.76400 34.15500
H  50.16700 27.18600 34.98600
Mg 29.38800 57.77700 40.68500
C  26.38100 56.14800 39.75300
C  31.01000 55.12000 39.28300
C  32.16700 59.59400 40.90600
C  27.46500 60.67300 41.10600
N  28.75400 55.78000 39.84500
C  27.52200 55.46000 39.38300
C  27.48700 54.41600 38.24600
C  28.87600 53.84400 38.65800
C  29.65400 54.97000 39.30000
C  28.82400 52.63200 39.66500
C  27.36200 55.00100 36.75700
C  26.04100 54.69900 36.00700
H  26.06900 54.40800 34.49900
N  31.34500 57.25300 40.38300
C  31.79200 56.15700 39.77500
C  33.27400 56.22800 39.78900
C  33.69100 57.47100 40.18200
C  32.38700 58.14000 40.51900
C  34.14500 55.11100 39.23100
C  35.08600 58.04800 40.22700
O  36.02200 57.34100 39.93000
C  35.44500 59.58000 40.50100
N  29.73300 59.83500 40.84700
C  30.97100 60.36900 41.05300
C  30.96200 61.91000 41.22100
C  29.46800 62.12900 41.44700
C  28.81600 60.79900 41.11700
C  32.06600 62.49500 42.23500
C  28.76500 63.24300 40.60500
C  28.54200 62.87300 39.12100
N  27.32200 58.26500 40.69400
C  26.69300 59.46500 40.87900
C  25.25300 59.18700 40.91300
C  25.10000 57.91800 40.43600
C  26.43500 57.41900 40.34100
C  24.23200 60.30200 41.15300
C  24.07800 57.00800 40.10100
O  22.82900 57.15800 40.13300
C  24.82800 55.77100 39.51100
C  24.40600 54.48800 40.19200
O  24.41000 54.23700 41.44800
O  23.69600 53.63400 39.34000
C  22.77000 52.85800 40.13400
H  31.52600 54.27800 38.81800
H  33.08700 60.15200 41.09000
H  26.80600 61.51500 41.32600
H  26.59700 53.84700 38.51300
H  29.44000 53.46300 37.80700
H  27.81200 52.40900 40.00300
H  29.21800 52.90300 40.64500
H  29.36900 51.73500 39.37000
H  28.15600 54.76400 36.04800
H  27.49700 56.06600 36.94900
H  25.37900 55.55300 36.14700
H  25.50900 53.93300 36.57000
H  33.65600 54.21400 39.61100
H  35.11900 54.96200 39.69800
H  34.01600 55.19300 38.15200
H  35.30400 59.87800 41.54000
H  35.05300 60.25000 39.73500
H  36.50700 59.69800 40.29000
H  31.27500 62.37600 40.28700
H  29.31300 62.39500 42.49200
H  32.85000 62.99000 41.66100
H  32.40500 61.65600 42.84300
H  31.43200 63.21300 42.75400
H  29.46600 64.07700 40.60600
H  27.78600 63.54300 40.97900
H  28.95900 61.92800 38.77400
H  28.99400 63.64700 38.50000
H  27.49700 62.98100 38.82800
H  24.28500 60.99000 40.30900
H  24.53900 60.81800 42.06200
H  23.21900 59.92200 41.28700
H  24.49600 55.77300 38.47300
H  22.14300 52.43600 39.34900
H  22.19900 53.46900 40.83300
H  23.27100 52.05100 40.66900

