158

Mg 7.15700 1.68900 28.15700
C  8.96400 0.51200 30.89900
C  5.66300 4.01900 30.22500
C  5.55000 2.96900 25.49100
C  8.40400 -0.85900 26.18000
N  7.36500 2.27600 30.26200
C  8.00500 1.52000 31.26100
C  7.81800 2.11700 32.68700
C  6.51700 3.04800 32.39000
C  6.48800 3.12100 30.88000
C  5.20000 2.39100 33.02600
C  9.04500 2.83400 33.28900
C  9.49100 2.43900 34.70700
H  9.92100 3.57200 35.65900
N  5.81200 3.30600 27.86200
C  5.38300 4.15500 28.86100
C  4.58300 5.18500 28.25700
C  4.65400 5.00700 26.84500
C  5.37800 3.71300 26.67000
C  3.90400 6.35100 28.94200
C  4.08600 5.88800 25.66100
O  4.13800 5.51400 24.54000
C  3.20100 7.20800 25.89100
N  6.93600 1.02100 26.16100
C  6.26400 1.77700 25.24900
C  6.38600 1.11300 23.80800
C  7.45100 -0.06000 24.05300
C  7.49000 -0.05000 25.53900
C  5.06700 0.60800 23.12900
C  8.83100 0.20000 23.43700
C  9.50500 -0.96900 22.65900
N  8.39600 0.17800 28.40500
C  8.83000 -0.77900 27.49600
C  9.90800 -1.56700 28.15300
C  9.96100 -1.14600 29.46800
C  8.99600 -0.10300 29.60500
C  10.77700 -2.56500 27.45800
C  10.64500 -1.28200 30.70000
O  11.55000 -2.04700 30.92600
C  10.01000 -0.29000 31.73100
C  9.52200 -0.99300 32.94800
O  8.60300 -1.84100 32.83400
O  10.19900 -0.58300 34.05900
C  9.42100 -0.90200 35.26800
H  5.20400 4.75100 30.89300
H  5.16000 3.23900 24.50700
H  8.79400 -1.75900 25.70000
H  7.47000 1.24200 33.23700
H  6.52600 4.10100 32.67300
H  4.78000 3.13000 33.70700
H  5.43200 1.44000 33.50600
H  4.55100 2.17800 32.17700
H  8.77100 3.88900 33.31000
H  9.90200 2.62700 32.64900
H  10.39000 1.82500 34.66400
H  8.67500 1.90500 35.19400
H  4.24000 7.30100 28.52600
H  4.21600 6.38300 29.98600
H  2.82300 6.21600 28.92000
H  3.09300 7.77100 24.96400
H  3.58000 7.86200 26.67700
H  2.23300 6.82800 26.21600
H  6.77500 1.95100 23.22900
H  7.22800 -1.04100 23.63400
H  4.55600 0.21800 24.00900
H  5.13500 -0.14000 22.34000
H  4.49400 1.45300 22.74500
H  9.54900 0.40300 24.23200
H  8.88700 1.09800 22.82200
H  10.32800 -1.32200 23.28000
H  9.94800 -0.53300 21.76300
H  8.91900 -1.85700 22.41800
H  11.28000 -2.07800 26.62300
H  10.32900 -3.50900 27.15100
H  11.71800 -2.78700 27.96100
H  10.73500 0.47600 32.00900
H  10.00300 -0.73000 36.17300
H  8.97700 -1.89500 35.19700
H  8.57100 -0.24600 35.45900
Mg -1.95600 33.80900 26.96300
C  -3.76500 32.06200 29.45500
C  -0.73300 35.90000 29.31700
C  -0.67500 35.54700 24.47100
C  -3.93700 31.97800 24.62000
N  -2.42000 34.12600 29.17400
C  -2.90100 33.11400 29.92300
C  -2.70500 33.45000 31.43500
C  -1.98900 34.79700 31.39200
C  -1.65600 34.95700 29.88200
C  -2.82700 35.92100 31.97900
C  -1.87000 32.28400 32.18300
C  -2.52600 31.89500 33.60600
H  -1.49700 31.95200 34.77700
N  -0.76400 35.37100 26.92700
C  -0.31700 36.07400 27.96200
C  0.69500 37.02100 27.49700
C  0.69200 36.97300 26.10100
C  -0.27400 35.87800 25.75500
C  1.46600 37.91200 28.48600
C  1.47100 37.78600 25.09100
O  1.47800 37.51800 23.92700
C  2.29700 39.04000 25.52300
N  -2.25000 33.72600 24.80100
C  -1.56200 34.52300 23.99500
C  -2.13600 34.44200 22.57100
C  -2.99800 33.13500 22.62200
C  -3.09700 32.89100 24.10500
C  -2.96600 35.66900 22.13700
C  -2.30000 31.99300 21.79800
C  -1.27200 31.04900 22.50200
N  -3.49400 32.36600 26.97600
C  -4.09600 31.64400 25.95900
C  -4.87700 30.53600 26.46600
C  -4.77200 30.63600 27.90800
C  -3.93500 31.76100 28.09600
C  -5.49000 29.42900 25.59400
C  -5.26500 30.18700 29.23200
O  -6.11200 29.37500 29.51300
C  -4.44200 31.00600 30.27100
C  -5.39500 31.54200 31.19300
O  -6.16300 32.45700 30.98900
O  -5.46800 30.74100 32.34100
C  -6.47700 30.90200 33.40000
H  -0.23500 36.55300 30.03700
H  -0.33600 36.28900 23.74400
H  -4.50600 31.57100 23.78200
H  -3.70100 33.63900 31.83300
H  -1.04300 34.89900 31.92500
H  -3.65800 35.57900 32.59500
H  -3.32500 36.41200 31.14300
H  -2.16300 36.60200 32.51100
H  -0.83900 32.63400 32.24900
H  -1.75500 31.36300 31.61100
H  -2.78300 30.83800 33.68300
H  -3.34800 32.57200 33.84000
H  1.31900 38.96600 28.25100
H  2.51600 37.62100 28.46500
H  1.13800 37.70700 29.50500
H  2.89000 39.41800 24.69000
H  2.96000 38.62000 26.28000
H  1.71000 39.83100 25.98800
H  -1.28100 34.32800 21.90400
H  -4.04100 33.31600 22.36300
H  -2.59300 36.12900 21.22300
H  -3.08200 36.47700 22.86000
H  -4.01000 35.45800 21.90200
H  -1.95000 32.42200 20.85900
H  -3.10300 31.38000 21.38800
H  -1.62500 30.82500 23.50800
H  -0.26800 31.47500 22.48600
H  -1.39700 30.09000 21.99900
H  -4.76500 29.23100 24.80400
H  -6.37700 29.86100 25.13000
H  -5.65800 28.47300 26.09100
H  -3.74800 30.31900 30.75500
H  -7.19000 31.71900 33.29200
H  -5.97400 31.12000 34.34200
H  -6.98200 29.96100 33.62200

