158

Mg 2.34600 -0.44300 43.23600
C  5.71100 0.30000 42.82300
C  1.53200 2.49400 41.67600
C  -0.86700 -1.45500 43.24200
C  3.32200 -3.65000 44.37200
N  3.61000 1.16300 42.31600
C  4.95300 1.23800 42.16500
C  5.40100 2.60800 41.64500
C  4.02200 3.33600 41.42300
C  2.90400 2.30700 41.90200
C  3.86800 4.77100 42.06800
C  6.26000 2.46300 40.40000
C  5.84400 1.36300 39.32000
H  5.59000 1.91900 37.93200
N  0.55200 0.39500 42.51000
C  0.46400 1.64300 41.98500
C  -1.00000 1.90600 41.69400
C  -1.72400 0.80400 42.11700
C  -0.70200 -0.15500 42.67600
C  -1.43100 3.23700 41.07700
C  -3.28700 0.75200 42.02400
O  -3.96900 1.70400 41.52900
C  -4.09100 -0.42100 42.47300
N  1.42300 -2.32700 43.59400
C  0.05100 -2.38500 43.69200
C  -0.41900 -3.82100 44.23800
C  0.89500 -4.62200 44.34000
C  1.94500 -3.44200 44.10600
C  -1.44400 -3.82100 45.43000
C  1.17600 -5.88800 43.42400
C  1.50500 -7.22300 44.15700
N  4.15100 -1.47600 43.70200
C  4.38600 -2.72400 44.15600
C  5.75000 -2.97000 44.33900
C  6.37800 -1.76000 43.86600
C  5.32600 -0.91100 43.48600
C  6.46700 -4.21500 44.77300
C  7.66500 -1.00600 43.65400
O  8.85000 -1.33300 43.80600
C  7.21000 0.32500 42.97600
C  7.80500 1.47100 43.76400
O  8.88600 2.01700 43.55500
O  6.94300 1.73700 44.79700
C  7.39600 2.87000 45.60000
H  1.36600 3.49400 41.27000
H  -1.89900 -1.71900 43.48000
H  3.66100 -4.64100 44.68100
H  5.80800 3.08000 42.53900
H  3.85000 3.49500 40.35800
H  2.91000 4.87400 42.57700
H  3.93500 5.49000 41.25200
H  4.73500 4.92000 42.71300
H  7.29500 2.22500 40.64400
H  6.26000 3.50000 40.06400
H  4.97000 0.80500 39.65400
H  6.68000 0.66300 39.33100
H  -1.34700 3.21800 39.99000
H  -0.72000 3.99300 41.41100
H  -2.47500 3.49500 41.25900
H  -4.01300 -0.53700 43.55400
H  -3.75700 -1.33300 41.97900
H  -5.07700 -0.34900 42.01400
H  -1.01000 -4.21300 43.41000
H  0.98300 -4.86700 45.39800
H  -2.42300 -4.10600 45.04700
H  -1.41300 -2.80800 45.83300
H  -1.09900 -4.60700 46.10100
H  2.02500 -5.55100 42.83100
H  0.32800 -6.11800 42.77800
H  0.70300 -7.95700 44.07000
H  1.69800 -6.97100 45.20000
H  2.50900 -7.49200 43.82900
H  6.53900 -4.94500 43.96700
H  6.00100 -4.71900 45.62000
H  7.47300 -3.90000 45.04700
H  7.67300 0.44400 41.99600
H  7.20600 3.77800 45.02800
H  8.43700 2.66800 45.85300
H  6.84500 2.97900 46.53500
Mg 44.16000 3.67600 47.18600
C  42.13100 6.54200 46.72200
C  41.33600 1.77400 47.05300
C  46.16200 0.90500 47.27900
C  46.92200 5.73700 46.81600
N  41.93700 4.12500 46.68300
C  41.38900 5.35100 46.77500
C  39.80000 5.24600 46.83900
C  39.61900 3.68700 46.84100
C  41.04300 3.12500 46.86600
C  38.63100 3.17500 47.94200
C  39.18000 6.01900 45.68700
C  39.88900 5.88300 44.32900
H  38.91000 5.46500 43.23500
N  43.76000 1.61400 47.05000
C  42.54100 1.05000 47.12300
C  42.82100 -0.38600 47.29100
C  44.16100 -0.70100 47.10000
C  44.76800 0.63100 47.09100
C  41.66100 -1.34800 47.37800
C  44.81100 -2.04800 47.02200
O  44.15000 -3.11800 47.18800
C  46.34900 -2.22600 46.76100
N  46.23700 3.35200 46.94800
C  46.80500 2.18900 47.29500
C  48.30300 2.29000 47.62700
C  48.57900 3.81400 47.32800
C  47.17900 4.37100 46.97100
C  48.61900 1.82300 49.06200
C  49.58900 4.12100 46.20900
C  51.02300 4.53700 46.79600
N  44.47300 5.67600 46.78500
C  45.65700 6.39300 46.66300
C  45.42400 7.83300 46.58300
C  44.02200 7.93900 46.63200
C  43.50700 6.62500 46.68000
C  46.46800 8.88900 46.39000
C  42.92600 8.87700 46.52200
O  42.99600 10.12600 46.30800
C  41.63000 8.01700 46.69900
C  40.96400 8.43100 47.91700
O  41.34300 8.19100 49.05100
O  39.85100 9.14100 47.60000
C  39.25700 9.89000 48.72100
H  40.40300 1.20700 47.05300
H  46.84600 0.09000 47.52500
H  47.73800 6.46000 46.87100
H  39.66400 5.68400 47.82800
H  39.30900 3.38000 45.84200
H  38.70200 2.11200 48.16900
H  37.62400 3.40200 47.59100
H  38.76300 3.77000 48.84600
H  39.02700 7.04000 46.03800
H  38.18800 5.58200 45.57000
H  40.61300 5.07900 44.19500
H  40.26900 6.87400 44.08300
H  41.59500 -1.73500 48.39500
H  41.70300 -2.15400 46.64500
H  40.76000 -0.78300 47.14200
H  46.77200 -2.16200 47.76400
H  46.65200 -1.34700 46.19100
H  46.55700 -3.15600 46.23200
H  48.85000 1.61900 46.96500
H  48.91000 4.21000 48.28900
H  48.07000 0.88600 49.15800
H  48.16500 2.56900 49.71300
H  49.61400 1.54300 49.40900
H  49.23900 4.84000 45.46800
H  49.84400 3.23300 45.63200
H  51.85600 4.10800 46.23900
H  51.15300 4.20700 47.82700
H  50.97800 5.62500 46.84300
H  45.93700 9.72500 45.93500
H  47.27400 8.60200 45.71600
H  47.01000 9.22800 47.27300
H  40.93100 8.19000 45.88000
H  38.69000 10.78300 48.45700
H  40.01600 10.39500 49.31800
H  38.64000 9.31600 49.41300

