158

Mg 25.31000 -8.05700 46.85700
C  26.99700 -5.36700 45.33300
C  22.67400 -7.41700 44.60300
C  23.84300 -10.93900 47.67400
C  28.21800 -9.02100 48.42700
N  25.01200 -6.73200 45.06600
C  25.75600 -5.65500 44.67100
C  25.22500 -4.97700 43.43200
C  23.77300 -5.53000 43.34400
C  23.83100 -6.68800 44.35700
C  22.69400 -4.53800 43.60800
C  26.08200 -5.25800 42.06400
C  26.19700 -3.92000 41.23200
H  25.05600 -3.78400 40.26100
N  23.40300 -8.94400 46.35500
C  22.50300 -8.54600 45.44700
C  21.33600 -9.43900 45.44700
C  21.67200 -10.48900 46.27700
C  23.01600 -10.16000 46.81100
C  20.06600 -9.14800 44.73000
C  20.78400 -11.79100 46.53500
O  19.69500 -11.78900 46.05000
C  21.27000 -12.98900 47.16400
N  26.00400 -9.75800 47.77600
C  25.19500 -10.77500 48.15400
C  25.87300 -11.77900 49.08000
C  27.22300 -11.15000 49.31200
C  27.17900 -9.90800 48.42900
C  25.10800 -12.01700 50.47300
C  28.39800 -12.12100 49.23300
C  29.25800 -12.27800 50.50800
N  27.27000 -7.45100 46.82400
C  28.29100 -7.79200 47.68200
C  29.38500 -6.85100 47.55900
C  28.93800 -5.90200 46.57200
C  27.59100 -6.28300 46.23400
C  30.60900 -6.90700 48.29200
C  29.32000 -4.69700 45.90700
O  30.41300 -4.15300 45.78200
C  28.03500 -4.31400 45.02700
C  27.48500 -3.04600 45.46000
O  27.21300 -2.16300 44.65600
O  27.21900 -2.85500 46.79700
C  26.63700 -1.55400 47.16700
H  21.81200 -7.09100 44.01800
H  23.48000 -11.83700 48.17800
H  29.07300 -9.25300 49.06700
H  25.27400 -3.91100 43.65400
H  23.67600 -5.90700 42.32600
H  22.30500 -4.16900 42.66000
H  23.02600 -3.59400 44.04000
H  21.82200 -4.89200 44.15800
H  25.58600 -6.00900 41.44800
H  27.06500 -5.60100 42.38500
H  27.17500 -3.87900 40.75200
H  26.03200 -3.00500 41.79900
H  20.33200 -9.43900 43.71400
H  19.90300 -8.07100 44.77500
H  19.12300 -9.54500 45.10400
H  21.89100 -12.98500 48.05900
H  21.93100 -13.38400 46.39200
H  20.46100 -13.71100 47.27800
H  25.85500 -12.73200 48.55100
H  27.30100 -10.74300 50.32000
H  24.23400 -11.36600 50.47400
H  25.70700 -11.77600 51.35200
H  24.91500 -13.07700 50.64100
H  29.02100 -11.73800 48.42400
H  27.98600 -13.12000 49.08900
H  30.30400 -12.26300 50.20100
H  28.78300 -13.08800 51.06200
H  29.15600 -11.44400 51.20300
H  31.18700 -5.99900 48.12500
H  31.23900 -7.79600 48.24100
H  30.25900 -6.83200 49.32200
H  28.35700 -4.28400 43.98600
H  26.95100 -1.26900 48.17100
H  25.56300 -1.67200 47.31400
H  26.82000 -0.71300 46.49800
Mg 44.32900 3.78600 47.92000
C  41.73700 6.15100 47.23300
C  41.90800 1.36800 47.95800
C  46.74400 1.48500 47.96500
C  46.61000 6.25400 47.21400
N  42.02100 3.80600 47.64000
C  41.18800 4.88400 47.43200
C  39.73200 4.44500 47.29600
C  39.83000 2.92900 47.86300
C  41.36400 2.62400 47.83300
C  39.37100 2.85100 49.30100
C  39.22400 4.45000 45.84100
C  38.06500 5.37500 45.58000
H  38.01700 6.17100 44.21000
N  44.33900 1.63700 47.87800
C  43.23700 0.88400 47.97700
C  43.65700 -0.55200 47.97200
C  45.07900 -0.58700 47.95000
C  45.46000 0.84600 48.00500
C  42.71800 -1.67400 48.20700
C  45.95500 -1.87900 48.01500
O  45.50700 -3.01300 47.93200
C  47.47300 -1.74300 48.20700
N  46.33900 3.86400 47.56200
C  47.14900 2.83200 47.84100
C  48.60300 3.22800 48.02200
C  48.56500 4.67200 47.38800
C  47.07600 4.96800 47.45100
C  49.23900 2.94500 49.34200
C  49.15900 4.75900 45.92000
C  50.66700 5.02000 45.85600
N  44.26300 5.84800 47.46600
C  45.29400 6.66000 47.17000
C  44.75000 7.95300 46.91500
C  43.34700 7.86700 46.95800
C  43.11100 6.46000 47.25400
C  45.37400 9.22300 46.39600
C  42.12200 8.49700 46.75700
O  41.88600 9.63100 46.40300
C  41.01400 7.48100 47.20100
C  40.56200 7.80500 48.61000
O  41.29100 8.25200 49.49500
O  39.21400 7.41300 48.74500
C  38.66300 7.85300 50.05200
H  41.11200 0.63000 47.84400
H  47.49000 0.75200 48.28000
H  47.35300 7.04400 47.09000
H  39.05000 4.90900 48.00900
H  39.30600 2.12800 47.34000
H  40.19800 2.70600 49.99600
H  38.72700 1.97100 49.30000
H  38.82000 3.71300 49.67700
H  38.86900 3.49700 45.45100
H  40.04700 4.72900 45.18300
H  38.12000 6.00700 46.46600
H  37.16600 4.75900 45.54200
H  41.74300 -1.24300 48.43200
H  43.00600 -2.37500 48.99000
H  42.70500 -2.12800 47.21600
H  47.68600 -1.24100 49.15100
H  48.00900 -1.22100 47.41500
H  47.90100 -2.74400 48.24700
H  49.29900 2.76400 47.32300
H  49.09400 5.35800 48.04900
H  48.48200 2.69900 50.08600
H  49.63300 3.86800 49.76900
H  50.06300 2.24400 49.20700
H  48.68000 5.51100 45.29200
H  48.87500 3.84400 45.40000
H  50.84500 5.99800 46.30400
H  51.24700 4.97600 44.93400
H  51.19400 4.40500 46.58500
H  44.92000 9.46100 45.43400
H  46.45500 9.15000 46.28000
H  45.21400 10.01400 47.12900
H  40.13300 7.37900 46.56600
H  38.57100 8.93500 50.15200
H  39.32700 7.49900 50.84000
H  37.67400 7.40500 50.14300

