158

Mg 8.72200 48.14700 27.37400
C  6.76000 47.41200 30.19600
C  11.36500 48.40800 29.36000
C  10.36700 48.98600 24.51500
C  5.85100 47.59000 25.41200
N  8.97200 47.95000 29.52200
C  8.02200 47.68700 30.57800
C  8.72600 47.84900 31.99300
C  10.17200 48.17300 31.58800
C  10.17900 48.13100 30.07800
C  10.63800 49.45000 32.32500
C  8.49600 46.60800 32.91600
C  9.51200 46.49100 33.99000
H  9.14300 45.74700 35.30900
N  10.65000 48.52200 26.99800
C  11.62100 48.55300 27.92600
C  12.85400 48.75800 27.25000
C  12.65200 48.98100 25.83800
C  11.19700 48.84200 25.72900
C  14.18900 48.54800 27.98000
C  13.63400 49.14300 24.75200
O  13.38800 49.26300 23.56800
C  15.08900 49.03100 25.08300
N  8.07500 48.48600 25.31400
C  9.00800 48.89700 24.32900
C  8.39100 49.02200 22.93200
C  6.97000 48.33100 23.20300
C  6.91300 48.10900 24.73100
C  8.32100 50.53900 22.48300
C  6.63600 47.10700 22.20300
C  5.61800 47.50400 21.08800
N  6.65000 47.92400 27.70200
C  5.67400 47.58000 26.77800
C  4.46400 47.26000 27.51000
C  4.85000 47.14200 28.81600
C  6.19600 47.49600 28.88900
C  3.12700 47.05900 26.88300
C  4.29100 46.94600 30.15600
O  3.18100 46.59600 30.55500
C  5.57400 47.16100 31.09200
C  5.44900 45.91000 31.93600
O  5.92900 44.81000 31.65800
O  4.83100 46.22600 33.15600
C  4.78300 45.02600 34.06300
H  12.27500 48.60100 29.93200
H  10.83500 49.17200 23.54700
H  4.98500 47.32100 24.80500
H  8.31600 48.77100 32.40600
H  10.90700 47.41100 31.84400
H  11.69300 49.38100 32.59300
H  10.04300 49.70100 33.20200
H  10.65000 50.32400 31.67400
H  8.45800 45.70600 32.30500
H  7.57800 46.83300 33.45900
H  9.96400 47.47700 34.09600
H  10.32000 45.87900 33.59000
H  14.78700 49.44300 27.80900
H  14.72300 47.69900 27.55300
H  14.10700 48.49400 29.06500
H  15.38900 49.89700 25.67300
H  15.59200 49.14500 24.12300
H  15.20900 48.04300 25.52700
H  8.91500 48.39200 22.21300
H  6.24200 49.10700 22.96600
H  7.43000 50.63000 21.86300
H  9.20200 50.76300 21.88100
H  8.16900 51.21300 23.32600
H  6.37300 46.16700 22.68900
H  7.53100 46.84200 21.64000
H  4.92100 46.67600 20.95800
H  6.12200 47.74900 20.15300
H  4.93900 48.23900 21.52200
H  3.07400 46.75400 25.83800
H  2.53900 47.97400 26.94300
H  2.62800 46.37300 27.56700
H  5.33400 48.05800 31.66300
H  4.56200 45.45400 35.04000
H  5.73200 44.49500 34.13800
H  4.00000 44.31900 33.78600
Mg -4.87700 24.89000 26.59500
C  -3.34800 26.31000 29.38000
C  -6.30500 22.46500 28.60600
C  -6.23900 23.42600 23.88900
C  -3.08200 27.14700 24.58300
N  -4.83000 24.44800 28.72800
C  -4.28200 25.30000 29.63100
C  -4.80600 24.95900 31.06400
C  -5.47500 23.49100 30.91400
C  -5.58700 23.48000 29.31800
C  -4.76900 22.35000 31.73200
C  -5.81600 26.11200 31.48800
C  -6.01000 26.16600 32.99100
H  -5.52200 25.03000 33.88400
N  -6.00600 23.16300 26.28900
C  -6.50300 22.26500 27.26100
C  -7.30100 21.25300 26.59600
C  -7.29100 21.52300 25.22600
C  -6.46700 22.74700 25.05700
C  -8.00800 20.19000 27.41000
C  -8.03400 20.84800 24.01100
O  -7.86500 21.17000 22.86800
C  -8.97900 19.68100 24.32500
N  -4.78000 25.27300 24.56600
C  -5.49900 24.56400 23.66000
C  -5.07000 25.00900 22.26800
C  -4.05700 26.19600 22.44800
C  -3.98100 26.16900 23.97900
C  -4.47000 23.88800 21.27700
C  -4.35300 27.61700 21.86400
C  -3.08800 28.26700 21.10700
N  -3.50300 26.42100 26.94300
C  -2.86300 27.24700 26.01200
C  -2.06800 28.31100 26.70700
C  -2.23200 27.93100 28.10500
C  -3.07700 26.76500 28.08200
C  -1.13200 29.35400 26.09200
C  -1.76100 28.21000 29.48300
O  -1.02200 29.12400 29.88500
C  -2.63800 27.27400 30.35200
C  -1.62900 26.61500 31.26100
O  -0.67900 25.91000 30.95900
O  -1.99700 26.96900 32.56300
C  -1.08500 26.49700 33.59600
H  -6.78400 21.80000 29.32700
H  -6.61200 23.00800 22.95200
H  -2.41000 27.66600 23.89600
H  -3.89000 24.91900 31.65400
H  -6.50100 23.56600 31.27300
H  -5.35100 21.82300 32.48800
H  -3.85500 22.77400 32.14800
H  -4.52700 21.57900 31.00000
H  -6.83500 25.86300 31.19000
H  -5.33500 27.07000 31.29200
H  -7.08300 26.17800 33.18200
H  -5.61800 27.10900 33.37000
H  -9.03700 19.94700 27.14600
H  -8.17200 20.38900 28.46900
H  -7.39100 19.29200 27.45900
H  -8.35700 18.92700 24.80800
H  -9.36600 19.38000 23.35200
H  -9.83200 19.97500 24.93600
H  -5.98400 25.39500 21.81700
H  -3.05800 25.98100 22.07000
H  -3.43700 23.66000 21.53800
H  -4.48300 24.27700 20.25800
H  -5.14600 23.03500 21.33200
H  -4.71200 28.30900 22.62700
H  -5.17300 27.48000 21.15900
H  -3.23300 28.28100 20.02700
H  -2.12900 27.76200 21.23200
H  -2.84100 29.25200 21.50100
H  -0.26200 29.45300 26.74000
H  -1.58700 30.31400 25.85100
H  -0.71700 28.93400 25.17500
H  -3.32000 27.84500 30.98100
H  -1.63400 26.22600 34.49800
H  -0.38500 27.32800 33.68800
H  -0.53300 25.61100 33.28500

