158

Mg 46.87400 24.76700 28.74000
C  47.86500 27.28400 30.95200
C  45.89700 22.79800 31.32600
C  46.64400 22.33100 26.55600
C  48.68200 26.64300 26.24700
N  46.91100 25.02800 30.85300
C  47.23000 26.14300 31.55600
C  46.96600 25.90300 33.07900
C  46.65600 24.36000 33.16500
C  46.53600 23.98300 31.66100
C  47.59900 23.47900 33.98800
C  45.81200 26.79500 33.64300
C  45.48800 26.74200 35.14800
H  46.54500 26.17600 36.14300
N  46.16400 22.85800 28.89600
C  45.67400 22.25700 30.02000
C  44.94900 21.09400 29.64000
C  45.14800 20.90700 28.24400
C  46.04600 22.00700 27.81100
C  44.22600 20.11100 30.57900
C  44.60100 19.82300 27.29200
O  44.72400 19.96000 26.05300
C  43.73100 18.68700 27.74700
N  47.76400 24.50800 26.72500
C  47.44300 23.36100 26.05900
C  47.96900 23.37300 24.57300
C  48.35600 24.88100 24.46100
C  48.32400 25.37100 25.85700
C  49.11600 22.39000 24.25900
C  47.41300 25.72900 23.54800
C  48.06900 26.51400 22.36500
N  47.88300 26.63700 28.54500
C  48.58400 27.22900 27.55000
C  49.09900 28.54700 27.92300
C  48.78000 28.61300 29.29500
C  48.15500 27.40200 29.61800
C  49.78800 29.44800 26.94000
C  48.96800 29.45000 30.51800
O  49.42400 30.61400 30.65300
C  48.36600 28.53700 31.61500
C  49.50000 28.41400 32.48500
O  50.49500 27.69200 32.27000
O  49.27400 29.13400 33.64700
C  50.32900 29.11000 34.65100
H  45.57800 22.13100 32.13000
H  46.60900 21.45200 25.90900
H  49.14700 27.30200 25.51000
H  47.89000 26.22300 33.56000
H  45.75100 24.27200 33.76600
H  48.33800 24.02000 34.57900
H  48.14500 22.87700 33.26100
H  47.09500 22.68700 34.54200
H  44.89900 26.73000 33.05100
H  46.12600 27.83800 33.67000
H  44.62000 26.09200 35.26200
H  45.28100 27.76200 35.47200
H  44.41200 20.47000 31.59100
H  44.66300 19.11700 30.49200
H  43.18400 20.16200 30.26000
H  44.07000 18.20500 28.66400
H  43.79100 17.94300 26.95300
H  42.77400 19.14200 28.00100
H  47.17700 23.23500 23.83600
H  49.40500 24.83900 24.16800
H  49.05500 21.67800 25.08100
H  50.10800 22.83300 24.35900
H  48.86500 21.97700 23.28200
H  46.74700 26.33400 24.16300
H  46.81300 25.04500 22.94700
H  47.52900 27.46200 22.36700
H  47.89600 26.06700 21.38600
H  49.13200 26.72400 22.48200
H  50.79100 29.02200 26.90800
H  49.78800 30.47500 27.30500
H  49.25300 29.43000 25.99100
H  47.52400 29.02000 32.11100
H  50.33700 28.11700 35.10000
H  50.16600 29.94000 35.33800
H  51.28000 29.08100 34.11900
Mg 16.61200 52.59700 25.69600
C  18.44100 51.04600 28.25800
C  14.11800 53.11100 27.92500
C  14.82200 53.99000 23.14100
C  18.96200 51.41300 23.35200
N  16.38400 52.22400 27.83000
C  17.29200 51.74400 28.69200
C  16.83400 51.80400 30.14000
C  15.29700 52.15300 29.91400
C  15.25100 52.60200 28.50700
C  14.34500 50.94300 30.36700
C  17.55100 52.88500 30.95900
C  17.65700 52.75500 32.50500
H  16.78900 51.86100 33.29500
N  14.70700 53.53500 25.61600
C  13.86400 53.64800 26.63000
C  12.66000 54.31700 26.16900
C  12.75700 54.47500 24.77900
C  14.16400 54.06100 24.43800
C  11.52200 54.60800 27.03300
C  11.74600 54.94200 23.78400
O  12.05500 54.95100 22.60800
C  10.36200 55.44500 24.00900
N  16.84300 52.65900 23.60300
C  16.05900 53.42600 22.78200
C  16.67600 53.68400 21.36000
C  18.05200 53.00900 21.58200
C  17.92900 52.27100 22.91300
C  15.88000 53.26500 20.12200
C  19.27500 53.91700 21.52400
C  20.41900 53.56600 20.51700
N  18.30800 51.42800 25.67800
C  19.19100 51.03700 24.69300
C  20.22900 50.22100 25.26400
C  20.00500 50.15600 26.65300
C  18.84200 50.98100 26.87300
C  21.26500 49.64700 24.39700
C  20.46900 49.65000 27.91900
O  21.41900 48.89700 28.19400
C  19.45900 50.22600 28.99000
C  18.97500 49.07400 29.91600
O  18.41300 48.06900 29.59100
O  19.58000 49.15600 31.15400
C  19.47700 48.04200 32.13800
H  13.30700 53.28100 28.63600
H  14.23500 54.54600 22.40800
H  19.67800 51.11600 22.58200
H  16.90500 50.83100 30.62600
H  15.17700 53.05300 30.51800
H  13.69500 51.33600 31.14900
H  14.80700 50.07700 30.84000
H  13.69900 50.64400 29.54100
H  17.12600 53.85300 30.69400
H  18.57900 52.85000 30.59900
H  17.58500 53.73600 32.97400
H  18.70300 52.59700 32.76800
H  10.68800 53.90700 26.99300
H  11.10600 55.58000 26.77000
H  11.80600 54.76700 28.07300
H  9.82800 54.78600 24.69300
H  9.86800 55.41600 23.03800
H  10.37800 56.47900 24.35400
H  16.73900 54.75500 21.16800
H  18.19300 52.29200 20.77200
H  16.48500 53.00200 19.25400
H  15.11300 53.98200 19.82900
H  15.14800 52.49100 20.35300
H  19.80300 53.82200 22.47300
H  19.03500 54.92600 21.18800
H  20.49000 54.28600 19.70300
H  20.30700 52.62100 19.98500
H  21.37000 53.45900 21.04000
H  21.72600 50.42800 23.79100
H  20.67600 49.02500 23.72400
H  22.03500 49.09600 24.93700
H  20.10500 50.91400 29.53500
H  18.53700 47.49300 32.10300
H  19.79800 48.43000 33.10500
H  20.29400 47.41300 31.78300

