158

Mg 47.93000 15.75300 28.26100
C  46.14400 15.63000 31.16400
C  50.54300 17.23500 30.00800
C  49.51900 15.82100 25.44900
C  45.23100 14.24300 26.59600
N  48.16100 16.61600 30.32800
C  47.35800 16.28800 31.40000
C  47.97800 16.78400 32.70100
C  49.19100 17.66900 32.25000
C  49.38700 17.14700 30.78900
C  49.16200 19.27400 32.43100
C  48.32100 15.69200 33.69700
C  47.70000 15.82700 35.06600
H  47.51500 17.24800 35.77500
N  49.76900 16.53500 27.76300
C  50.72100 16.99000 28.59000
C  52.02000 17.11700 27.85200
C  51.72300 16.63400 26.53400
C  50.31700 16.34500 26.48500
C  53.30800 17.73900 28.40400
C  52.61400 16.55300 25.27700
O  52.20400 16.26800 24.13900
C  54.07000 16.77400 25.50200
N  47.31100 15.30400 26.21400
C  48.28000 15.30000 25.25800
C  47.80200 14.77300 23.86200
C  46.52200 13.90800 24.45800
C  46.28500 14.54400 25.85000
C  47.54200 15.79700 22.76400
C  46.86200 12.39900 24.56300
C  46.51400 11.53900 23.34800
N  45.98000 15.08900 28.72100
C  44.93100 14.55400 27.96900
C  43.87600 14.14300 28.82700
C  44.22700 14.49700 30.09200
C  45.48900 15.17700 29.97400
C  42.62100 13.43100 28.40700
C  43.91700 14.51900 31.49800
O  42.98500 14.08900 32.20700
C  45.12100 15.23900 32.19300
C  44.46200 16.46600 32.75900
O  44.54100 17.59200 32.32400
O  43.88500 16.06100 33.98100
C  43.17100 17.06900 34.71400
H  51.39200 17.63200 30.56900
H  50.09700 15.70800 24.52900
H  44.47900 13.64800 26.07500
H  47.28600 17.50000 33.14400
H  50.08000 17.44400 32.83900
H  49.18300 19.70600 31.43000
H  50.12900 19.61800 32.79800
H  48.31900 19.60400 33.03800
H  49.40100 15.66700 33.83800
H  47.81600 14.76900 33.41000
H  48.35600 15.23100 35.70100
H  46.78600 15.23400 35.03400
H  54.04600 16.99400 28.70100
H  53.18100 18.41000 29.25400
H  53.92200 18.38500 27.77800
H  54.27800 17.83900 25.40600
H  54.53600 16.30000 24.63900
H  54.47000 16.25800 26.37500
H  48.58600 14.22200 23.34300
H  45.68200 14.02400 23.77300
H  47.70500 16.82800 23.07800
H  46.48400 15.79600 22.50100
H  47.98400 15.53200 21.80400
H  46.23500 11.96800 25.34400
H  47.92500 12.29000 24.77600
H  45.59600 11.82800 22.83600
H  46.53700 10.48500 23.62300
H  47.24400 11.61800 22.54100
H  42.84000 12.71900 27.61100
H  41.94300 14.12600 27.91200
H  42.14700 13.01400 29.29500
H  45.41200 14.53300 32.97000
H  43.60500 18.06700 34.65100
H  43.22800 16.82500 35.77500
H  42.11700 17.04500 34.43900
Mg 29.83500 57.45200 40.95100
C  26.91700 55.87800 39.67500
C  31.62400 55.03500 39.24700
C  32.57700 59.46400 40.79700
C  27.79100 60.18000 41.74900
N  29.26900 55.55600 39.69800
C  28.07000 55.15900 39.29600
C  28.18300 53.91600 38.38900
C  29.63400 53.57000 38.51500
C  30.22700 54.84600 39.14700
C  29.92600 52.35500 39.43000
C  27.62700 54.05500 36.93600
C  27.88800 55.37900 36.17800
H  27.03300 55.55500 34.93900
N  31.87000 57.15600 40.45100
C  32.38200 56.11400 39.73100
C  33.83500 56.21300 39.70100
C  34.16500 57.52800 40.19200
C  32.86100 58.17300 40.46900
C  34.70900 55.26200 38.95100
C  35.58500 58.03100 40.30600
O  36.54900 57.38200 39.95600
C  35.85300 59.36000 40.96600
N  30.08400 59.43500 41.29600
C  31.33300 60.03000 41.22300
C  31.29300 61.59700 41.33800
C  29.83400 61.77800 42.00000
C  29.15100 60.38800 41.71400
C  32.36600 62.18700 42.27800
C  29.08900 63.01300 41.41700
C  28.88600 64.20900 42.43200
N  27.73800 57.94300 40.97200
C  27.07700 59.01900 41.44900
C  25.67400 58.79900 41.29100
C  25.55900 57.51200 40.75600
C  26.86800 57.11600 40.41600
C  24.56500 59.79200 41.63900
C  24.62500 56.46200 40.22700
O  23.42100 56.37700 40.30000
C  25.46300 55.48200 39.41100
C  25.27500 54.08100 39.92700
O  25.66600 53.65300 41.04100
O  24.51600 53.34100 39.04300
C  24.27200 51.91500 39.48800
H  32.28800 54.23300 38.91900
H  33.43300 60.10300 40.57000
H  27.21000 60.97100 42.22600
H  27.51000 53.15600 38.78700
H  30.15700 53.49800 37.56200
H  29.47800 51.49600 38.93000
H  29.36300 52.51200 40.35000
H  31.00000 52.28700 39.60500
H  26.62200 53.63600 36.89300
H  28.33100 53.39900 36.42400
H  28.95700 55.39600 35.96900
H  27.67500 56.16500 36.90400
H  35.37400 55.80300 38.27700
H  34.20000 54.52000 38.33600
H  35.37600 54.89100 39.73000
H  35.62900 60.08800 40.18700
H  36.88300 59.56900 41.25300
H  35.12800 59.52500 41.76400
H  31.24500 62.03300 40.34000
H  29.84800 61.76700 43.09000
H  33.04100 62.93300 41.85800
H  33.11100 61.42900 42.52100
H  31.88500 62.60200 43.16400
H  28.13800 62.77000 40.94300
H  29.66000 63.41600 40.58000
H  29.05500 65.15800 41.92400
H  29.68000 64.15600 43.17700
H  27.91800 64.29800 42.92500
H  24.39800 60.48800 40.81700
H  24.98700 60.45100 42.39800
H  23.58900 59.45700 41.99000
H  25.27500 55.47600 38.33800
H  25.29400 51.53500 39.50200
H  23.87500 51.36900 38.63200
H  23.77500 51.64300 40.42000

