158

Mg 25.80700 0.92600 29.52300
C  27.77000 0.69200 32.50400
C  23.02400 0.88000 31.39600
C  24.20300 0.89400 26.70000
C  28.79200 0.18600 27.71300
N  25.48900 0.58100 31.71300
C  26.36800 0.79700 32.74700
C  25.58600 0.93100 34.07700
C  24.10200 0.68800 33.62600
C  24.21500 0.74900 32.12900
C  23.44500 -0.62700 34.16500
C  25.98100 2.28800 34.72200
C  25.17200 2.68800 35.91600
H  25.92900 2.58000 37.26100
N  23.84200 0.90900 29.07900
C  22.83700 0.90900 29.98300
C  21.58900 1.18000 29.31100
C  21.85600 1.09600 27.89200
C  23.32200 0.91200 27.85300
C  20.19600 1.42800 30.02900
C  20.98600 1.00700 26.72000
O  21.41100 0.68900 25.62200
C  19.52600 1.23500 26.86200
N  26.42600 0.73800 27.55500
C  25.59700 0.97500 26.53200
C  26.16300 0.69600 25.16000
C  27.64400 0.42400 25.47900
C  27.63900 0.42700 27.02000
C  25.50500 -0.39400 24.24200
C  28.64400 1.46300 24.85700
C  29.99700 0.83900 24.52000
N  27.88000 0.49400 29.97000
C  28.95200 0.30200 29.12600
C  30.11800 0.09600 29.96500
C  29.74000 0.31100 31.32400
C  28.32800 0.49700 31.23000
C  31.39900 -0.28300 29.50600
C  30.20400 0.40000 32.67600
O  31.31400 0.42500 33.16300
C  28.88300 0.72900 33.51600
C  28.67100 -0.20300 34.61800
O  28.42900 -1.35200 34.49300
O  29.07800 0.42500 35.82100
C  28.93300 -0.26100 37.12900
H  22.10200 0.88100 31.98000
H  23.63900 0.95100 25.76600
H  29.60600 -0.24100 27.12400
H  26.00700 0.22200 34.79000
H  23.56600 1.56800 33.98200
H  23.17700 -1.43100 33.47900
H  22.59300 -0.33600 34.78000
H  24.13100 -1.05000 34.89900
H  25.92900 3.06100 33.95500
H  27.02100 2.19900 35.03600
H  24.24500 2.12300 36.01100
H  24.82000 3.70400 35.73700
H  19.61400 0.51300 29.91300
H  19.65300 2.20200 29.48700
H  20.22400 1.65400 31.09500
H  19.04700 1.05700 25.89900
H  19.24700 2.22300 27.22900
H  19.18000 0.46300 27.55000
H  26.09400 1.64600 24.62900
H  27.94400 -0.60400 25.27800
H  24.63700 -0.90900 24.65400
H  26.26800 -1.09000 23.89400
H  25.11600 0.22900 23.43700
H  28.66700 2.29100 25.56600
H  28.18100 1.87300 23.95900
H  30.28400 0.97900 23.47800
H  30.11400 -0.14000 24.98400
H  30.79000 1.40100 25.01500
H  31.55700 0.20800 28.54600
H  31.47100 -1.34800 29.28400
H  32.13700 -0.01100 30.26100
H  29.00900 1.72700 33.93600
H  28.47100 0.28500 37.95100
H  29.94000 -0.46600 37.49400
H  28.43600 -1.23100 37.10000
Mg 41.92200 41.11600 27.31600
C  41.05800 43.34300 29.61200
C  43.02600 38.92800 29.72700
C  42.64700 38.90900 24.82200
C  41.08300 43.53100 24.77700
N  41.88900 41.06200 29.36600
C  41.48000 42.13500 30.14100
C  41.56300 41.81200 31.67900
C  42.50200 40.57000 31.62500
C  42.49400 40.15400 30.18100
C  43.89900 40.67800 32.32300
C  40.18400 41.57900 32.38100
C  39.96700 42.57000 33.52500
H  39.15100 41.85800 34.72700
N  42.71800 39.14600 27.29800
C  43.08000 38.37800 28.40600
C  43.40400 37.11900 27.91400
C  43.25400 37.03700 26.50700
C  42.88000 38.39500 26.12300
C  43.74800 36.03900 28.88800
C  43.49700 35.89100 25.54300
O  43.40500 36.00500 24.30500
C  43.95700 34.52700 26.03700
N  42.16700 41.32400 25.07500
C  42.33700 40.16100 24.31900
C  42.40500 40.55700 22.85100
C  41.66300 41.86700 22.76000
C  41.62600 42.31200 24.29600
C  43.84000 40.48800 22.21800
C  40.25700 41.76400 22.06100
C  39.10900 41.23000 22.95300
N  41.14300 43.06500 27.15700
C  40.82800 43.91400 26.10900
C  40.36700 45.17300 26.67600
C  40.38300 44.98300 28.04700
C  40.85700 43.66700 28.27600
C  39.95000 46.40200 25.89400
C  40.18400 45.61800 29.26300
O  39.79700 46.76100 29.48000
C  40.59300 44.58700 30.33000
C  41.57300 45.10600 31.26300
O  42.75100 44.87700 31.28300
O  40.87300 45.75500 32.29600
C  41.64200 46.18200 33.47900
H  43.29400 38.22300 30.51800
H  42.80900 38.20000 24.00700
H  40.84600 44.31700 24.05700
H  42.10800 42.71200 31.96300
H  41.98300 39.82700 32.23000
H  43.90200 40.08300 33.23600
H  44.18700 41.68400 32.62900
H  44.69700 40.36200 31.65000
H  40.19000 40.55200 32.74700
H  39.35700 41.72800 31.68800
H  39.43000 43.48100 33.26300
H  40.96200 42.86100 33.86200
H  42.93200 35.32000 28.81900
H  43.65900 36.41400 29.90800
H  44.71000 35.59300 28.63600
H  44.15400 33.72600 25.32400
H  43.18700 34.18600 26.72900
H  44.82200 34.69800 26.67800
H  41.87200 39.76000 22.33300
H  42.24700 42.58500 22.18500
H  44.54800 40.70500 23.01700
H  43.96200 41.13500 21.34900
H  44.06900 39.47500 21.88800
H  40.35100 41.07300 21.22400
H  39.95000 42.70500 21.60500
H  39.41100 40.74400 23.88100
H  38.49900 40.53700 22.37400
H  38.37100 42.01400 23.12500
H  39.51200 45.94500 25.00600
H  40.76900 47.11200 25.77500
H  39.14400 46.89300 26.43900
H  39.69200 44.21500 30.81800
H  41.90100 45.31100 34.08100
H  41.14100 46.89200 34.13800
H  42.63000 46.58100 33.24900

