158

Mg 29.81900 58.65000 39.04000
C  27.02900 56.70100 38.14800
C  31.85600 56.01500 38.50900
C  32.38300 60.81100 39.13500
C  27.61700 61.35000 39.30200
N  29.46200 56.66000 38.02300
C  28.18700 56.03800 37.92000
C  28.40800 54.57500 37.51500
C  29.83100 54.25500 38.20400
C  30.46300 55.72700 38.25000
C  29.77300 53.57800 39.59100
C  28.41700 54.44700 35.96000
C  27.23300 53.67100 35.30200
H  26.21700 54.48700 34.43700
N  31.97000 58.40600 39.01700
C  32.59600 57.25900 38.73100
C  34.01500 57.46200 38.75700
C  34.26200 58.82400 39.05700
C  32.86800 59.42000 39.01900
C  34.96500 56.34700 38.67700
C  35.51000 59.52600 39.17500
O  36.59500 59.01800 38.99900
C  35.56000 60.92000 39.51100
N  30.02300 60.76300 39.45200
C  31.18200 61.43700 39.29300
C  30.95700 62.96400 39.45200
C  29.48000 63.11600 39.61400
C  29.01400 61.64300 39.45600
C  31.83700 63.58900 40.61200
C  28.75100 64.08000 38.64600
C  28.15300 65.29000 39.18800
N  27.73900 59.05700 38.82400
C  26.98800 60.15100 38.98600
C  25.64700 59.86200 38.85200
C  25.55000 58.56700 38.51900
C  26.87900 58.07300 38.51800
C  24.50900 60.74700 39.22100
C  24.69300 57.47200 38.28000
O  23.47200 57.41900 38.19300
C  25.58300 56.21300 38.01500
C  25.17400 55.10900 38.94400
O  25.32000 55.10700 40.15400
O  24.57700 54.12200 38.19100
C  23.89100 52.95100 38.78400
H  32.44600 55.09700 38.46400
H  33.17100 61.55100 39.28900
H  26.93600 62.16000 39.57400
H  27.57500 53.93100 37.79900
H  30.45000 53.53600 37.66800
H  30.47200 52.74500 39.66800
H  28.78500 53.11900 39.57100
H  29.90000 54.23200 40.45400
H  29.28500 53.84300 35.69700
H  28.55300 55.45500 35.56800
H  26.66300 53.11200 36.04500
H  27.66700 52.88100 34.68800
H  35.92100 56.65500 39.10000
H  35.16300 56.16400 37.62100
H  34.53800 55.47800 39.17800
H  36.57500 61.22700 39.76500
H  34.85800 61.27200 40.26700
H  35.38700 61.48000 38.59200
H  31.26400 63.40200 38.50300
H  29.18900 63.32200 40.64400
H  31.94100 64.66900 40.50300
H  32.82100 63.14000 40.48200
H  31.27300 63.34100 41.51100
H  27.94800 63.61900 38.07100
H  29.51400 64.40800 37.94000
H  28.64200 66.09000 38.63300
H  28.51800 65.42500 40.20700
H  27.07200 65.31900 39.05300
H  24.88700 61.44300 39.97000
H  23.61300 60.17900 39.47200
H  24.24400 61.45900 38.43900
H  25.47900 55.90900 36.97400
H  23.15500 52.46500 38.14300
H  23.31900 53.12500 39.69500
H  24.66500 52.23400 39.06100
Mg 35.88700 49.48000 25.78200
C  35.86300 47.56400 28.68000
C  34.24700 52.03200 27.40700
C  35.73200 51.17800 22.82800
C  36.94300 46.57100 23.97800
N  35.19600 49.74200 27.81400
C  35.46700 48.92500 28.88900
C  34.98400 49.61100 30.24000
C  34.47100 51.01700 29.81800
C  34.62000 50.91200 28.24500
C  33.11300 51.47600 30.37600
C  36.07900 49.45900 31.35100
C  35.53800 49.00000 32.70900
H  35.39600 50.01800 33.81200
N  35.22600 51.41500 25.21800
C  34.45400 52.25400 26.02800
C  34.09900 53.45200 25.33200
C  34.58900 53.20400 23.98300
C  35.21100 51.86200 23.94300
C  33.54600 54.74600 25.91900
C  34.51300 54.09900 22.67300
O  34.83500 53.73200 21.52900
C  34.06200 55.54400 22.77700
N  36.13400 48.90300 23.66800
C  36.11400 49.81100 22.70500
C  36.57700 49.16600 21.36800
C  37.10600 47.79300 21.78300
C  36.67700 47.71700 23.27800
C  35.43100 49.17200 20.29200
C  38.58700 47.47000 21.39700
C  38.92600 46.07400 20.96400
N  36.31300 47.42400 26.15600
C  36.67500 46.35400 25.35000
C  36.97400 45.20600 26.20700
C  36.63800 45.58200 27.48600
C  36.24400 47.00900 27.41400
C  37.49600 43.82900 25.77600
C  36.55700 45.14800 28.89000
O  36.74600 44.07200 29.43800
C  36.09700 46.44800 29.69800
C  34.92200 46.02300 30.46600
O  33.80400 46.03000 30.07900
O  35.36400 45.84300 31.79100
C  34.41800 45.31900 32.79300
H  33.83900 52.83700 28.02200
H  35.79500 51.62000 21.83200
H  37.36200 45.70900 23.45700
H  34.14700 48.98500 30.54800
H  35.20400 51.74600 30.16400
H  32.39300 51.88100 29.66500
H  33.38800 52.32000 31.00900
H  32.67900 50.64300 30.92900
H  36.48000 50.45500 31.53800
H  36.94400 48.87100 31.04300
H  35.92000 48.06700 33.12400
H  34.52400 48.66700 32.48300
H  34.22000 55.56400 25.66700
H  33.47500 54.68700 27.00500
H  32.65700 54.94500 25.32000
H  33.10000 55.65700 23.27700
H  33.91700 56.10000 21.85100
H  34.87000 56.07000 23.28500
H  37.36300 49.85800 21.06600
H  36.46800 47.12900 21.20000
H  34.73800 50.00200 20.42500
H  34.91900 48.21100 20.24100
H  35.83800 49.42500 19.31300
H  39.13000 47.70700 22.31200
H  38.93900 48.20800 20.67600
H  39.25000 46.26400 19.94100
H  38.06000 45.41500 21.02500
H  39.74600 45.65500 21.54800
H  37.68000 43.71200 24.70900
H  36.67300 43.19000 26.09700
H  38.40100 43.64100 26.35300
H  36.95300 46.68900 30.32800
H  34.41200 46.06500 33.58700
H  34.74400 44.34500 33.15900
H  33.43600 45.17600 32.34000

