158

Mg 6.78200 54.15500 41.45400
C  5.85200 50.94900 40.50100
C  9.84300 53.63400 39.96300
C  7.32400 57.37500 41.83700
C  3.27500 54.79800 42.14400
N  7.69800 52.47100 40.18200
C  7.18000 51.27400 39.96900
C  8.17500 50.29600 39.25200
C  9.48400 51.14700 39.26800
C  9.00100 52.53000 39.75300
C  10.62400 50.58700 40.17000
C  7.61200 49.87000 37.86000
C  8.47900 50.03300 36.62500
H  7.91300 49.60200 35.22200
N  8.38100 55.36400 41.00200
C  9.52100 54.92300 40.47400
C  10.42700 56.11400 40.38300
C  9.70100 57.18600 40.76900
C  8.40100 56.68200 41.21400
C  11.80600 56.05000 39.68300
C  10.30500 58.55400 40.94400
O  11.45400 58.78400 40.65100
C  9.55300 59.75700 41.50700
N  5.45800 55.87700 41.89900
C  6.02900 57.12400 42.18300
C  4.98100 58.11700 42.72800
C  3.75100 57.18300 42.89800
C  4.14800 55.89200 42.19500
C  5.18400 58.90200 44.07600
C  2.48100 57.73200 42.29800
C  1.19900 57.77700 43.16600
N  4.96900 53.14800 41.41000
C  3.66900 53.55000 41.66200
C  2.80400 52.37800 41.55600
C  3.59600 51.32900 41.17900
C  4.91400 51.85700 41.02800
C  1.30000 52.37800 41.84200
C  3.60200 49.92000 40.87700
O  2.74400 49.04400 40.90600
C  5.17300 49.61800 40.66900
C  5.26800 48.74000 39.52900
O  4.69200 48.86600 38.43300
O  5.91800 47.59800 39.92000
C  5.70900 46.48700 38.94900
H  10.80400 53.49500 39.46500
H  7.51200 58.41700 42.10700
H  2.25300 54.92500 42.50800
H  8.33300 49.44400 39.91400
H  9.92800 51.46300 38.32400
H  10.71400 50.99800 41.17600
H  11.53700 50.92100 39.67900
H  10.56600 49.50200 40.07800
H  6.65800 50.38600 37.75200
H  7.37500 48.80600 37.85400
H  9.42800 49.55300 36.86400
H  8.62700 51.09500 36.42500
H  12.04800 55.03300 39.37300
H  12.68900 56.24100 40.29300
H  11.82200 56.62200 38.75500
H  9.34000 59.60800 42.56500
H  8.59900 59.82500 40.98300
H  10.10400 60.63300 41.16600
H  4.64600 58.74700 41.90500
H  3.73700 56.85300 43.93700
H  6.13200 58.62800 44.53900
H  4.49700 58.60300 44.86800
H  5.15800 59.97800 43.90400
H  2.27600 57.15300 41.39800
H  2.65300 58.75600 41.96800
H  1.46800 57.70600 44.22000
H  0.52500 56.98700 42.83400
H  0.71800 58.74200 43.01100
H  0.97900 51.33800 41.79200
H  0.80400 52.91700 41.03500
H  1.10000 52.81700 42.82000
H  5.68400 49.21800 41.54400
H  6.06400 45.64600 39.54400
H  6.30700 46.73500 38.07200
H  4.66900 46.28100 38.69700
Mg -2.41000 33.90500 26.32000
C  -4.05700 32.42300 29.07000
C  -0.71700 35.95900 28.50200
C  -1.21200 35.40500 23.67200
C  -4.08300 31.64300 24.28400
N  -2.36700 34.07400 28.56300
C  -3.11200 33.42900 29.44100
C  -2.88700 33.85900 30.87100
C  -1.98200 35.18600 30.61000
C  -1.65400 35.13300 29.16000
C  -2.57500 36.59800 31.02900
C  -2.33700 32.79700 31.82000
C  -3.08200 32.52700 33.12400
H  -2.18600 32.57700 34.37400
N  -1.09000 35.45900 26.10500
C  -0.47200 36.10600 27.15300
C  0.46300 36.98100 26.53500
C  0.25200 36.92800 25.08000
C  -0.69600 35.89700 24.93600
C  1.24200 38.05700 27.35600
C  0.90800 37.76100 24.02800
O  0.69400 37.72900 22.86400
C  2.02300 38.69700 24.48900
N  -2.77700 33.69300 24.35800
C  -2.14200 34.42800 23.41700
C  -2.46900 34.05700 21.95400
C  -3.11500 32.65600 22.15500
C  -3.26700 32.59200 23.70900
C  -3.41400 35.11200 21.29300
C  -2.29700 31.54900 21.48500
C  -1.24700 30.83200 22.39800
N  -3.76000 32.32400 26.58800
C  -4.33800 31.49700 25.66100
C  -5.26500 30.59300 26.25700
C  -5.14300 30.88100 27.61700
C  -4.29100 32.00700 27.73800
C  -6.07600 29.41500 25.65400
C  -5.55900 30.44600 28.89600
O  -6.26400 29.51400 29.19500
C  -4.92200 31.52700 29.90600
C  -5.97500 32.28700 30.64600
O  -6.78000 32.93900 30.08800
O  -5.92000 32.03700 32.04900
C  -6.99600 32.77000 32.75800
H  -0.16300 36.60100 29.19100
H  -0.59300 35.72600 22.83200
H  -4.60000 31.07400 23.50800
H  -3.84500 34.19700 31.26700
H  -1.15800 35.06900 31.31300
H  -2.52700 37.18100 30.10900
H  -2.03000 37.03800 31.86500
H  -3.63900 36.63200 31.26500
H  -1.42500 33.29300 32.15200
H  -2.10900 31.79900 31.44700
H  -3.60000 31.56900 33.14300
H  -3.75600 33.36700 33.29300
H  0.81000 39.01400 27.06400
H  2.28000 38.04800 27.02400
H  1.19600 38.03700 28.44500
H  2.37700 39.15700 23.56600
H  2.85100 38.18000 24.97400
H  1.53100 39.43800 25.11800
H  -1.47400 34.09000 21.50900
H  -4.09200 32.49700 21.69800
H  -3.13300 36.11000 21.62800
H  -4.42700 35.02900 21.68500
H  -3.27700 34.94600 20.22400
H  -1.70600 31.91800 20.64700
H  -2.96300 30.76500 21.12400
H  -0.22500 31.17900 22.24600
H  -1.27100 29.79100 22.07500
H  -1.45200 30.71200 23.46100
H  -7.04900 29.81000 25.36200
H  -6.11100 28.70000 26.47600
H  -5.48400 28.96900 24.85400
H  -4.32300 30.90100 30.56800
H  -6.46000 33.45400 33.41600
H  -7.53800 32.04100 33.36000
H  -7.72400 33.32900 32.17000

