158

Mg -2.35800 17.52500 26.40000
C  -2.87800 15.05500 29.03600
C  -2.84800 19.91400 28.74800
C  -2.44500 19.73400 23.90600
C  -2.72400 14.85800 24.02900
N  -2.78200 17.36000 28.68200
C  -2.82600 16.34700 29.59500
C  -2.76500 16.87600 30.99900
C  -2.85000 18.42800 30.84800
C  -2.86900 18.59700 29.31800
C  -3.94900 19.21400 31.63900
C  -1.57800 16.18700 31.84000
C  -0.79500 17.01100 32.91000
H  -0.53400 16.37100 34.25300
N  -2.50200 19.52900 26.35200
C  -2.66100 20.41500 27.41400
C  -2.56300 21.78000 26.96800
C  -2.31900 21.69800 25.52200
C  -2.43100 20.28700 25.20800
C  -2.69200 22.98900 27.83400
C  -2.03700 22.74800 24.58800
O  -1.99400 22.68900 23.35200
C  -1.62700 24.10700 25.13000
N  -2.60400 17.34800 24.32300
C  -2.49800 18.37200 23.47600
C  -2.41400 17.98900 22.00100
C  -2.75700 16.48400 22.09200
C  -2.62900 16.18000 23.55700
C  -3.33900 18.69000 20.90400
C  -1.86900 15.54800 21.19600
C  -2.73100 14.34400 20.67700
N  -2.68800 15.44900 26.47200
C  -2.79800 14.53900 25.42000
C  -3.02200 13.24800 25.95900
C  -2.98100 13.36200 27.37600
C  -2.80400 14.76100 27.62400
C  -3.28900 11.97100 25.08600
C  -3.08100 12.62300 28.58300
O  -3.25900 11.43500 28.75200
C  -2.98700 13.68100 29.77300
C  -1.65700 13.35300 30.47000
O  -0.51300 13.52300 29.93900
O  -1.83000 12.78800 31.68000
C  -0.70800 12.37600 32.42700
H  -3.04600 20.76400 29.40400
H  -2.53400 20.46700 23.10100
H  -2.69400 13.99700 23.35800
H  -3.68900 16.51600 31.45300
H  -1.90500 18.84200 31.19900
H  -4.47900 19.93600 31.01800
H  -3.53300 19.76000 32.48500
H  -4.54400 18.49300 32.20000
H  -0.80400 16.03600 31.08800
H  -1.96800 15.26100 32.26400
H  -1.25500 17.99700 32.97700
H  0.20300 17.18600 32.50800
H  -3.11700 22.77200 28.81400
H  -3.41500 23.65100 27.35700
H  -1.80600 23.62300 27.79800
H  -2.53700 24.61900 25.44300
H  -1.26800 24.69100 24.28200
H  -0.90800 24.06300 25.94800
H  -1.36400 18.05300 21.71500
H  -3.84500 16.47400 22.01900
H  -4.09200 18.01200 20.50300
H  -2.67800 19.02200 20.10400
H  -3.83600 19.48000 21.46800
H  -0.99800 15.14300 21.71000
H  -1.54700 16.18000 20.36800
H  -2.62100 14.22400 19.60000
H  -3.78900 14.42400 20.92800
H  -2.40300 13.37900 21.06200
H  -4.08900 12.19200 24.37900
H  -3.50000 11.02300 25.58100
H  -2.40500 11.82900 24.46400
H  -3.72900 13.68000 30.57200
H  -1.13700 11.80800 33.25300
H  -0.21500 13.29900 32.73300
H  -0.03200 11.82000 31.77800
Mg 34.83100 2.47100 29.36600
C  32.38100 3.80500 31.63400
C  37.28500 2.92300 31.83800
C  37.15600 1.95800 27.03700
C  32.32000 2.50100 26.92700
N  34.82600 3.34000 31.43900
C  33.66100 3.55400 32.17100
C  33.98400 3.66500 33.70700
C  35.53500 3.55700 33.67400
C  35.91100 3.22500 32.25900
C  36.22400 4.84800 34.21200
C  33.28800 2.53900 34.54800
C  32.92600 2.80100 36.05900
H  33.97100 3.44000 36.93500
N  36.85200 2.31900 29.40200
C  37.67300 2.53500 30.52500
C  39.02400 2.14600 30.06100
C  39.00800 1.99900 28.65200
C  37.61500 2.13400 28.29500
C  40.18100 1.87900 31.00900
C  40.16900 1.62800 27.70300
O  39.98700 1.57100 26.48100
C  41.63600 1.33400 28.08000
N  34.78200 2.37800 27.22800
C  35.87900 2.06300 26.48000
C  35.47400 1.68100 25.04300
C  33.92200 1.54500 25.11900
C  33.62300 2.09500 26.52800
C  35.77500 2.71400 23.96500
C  33.41400 0.08900 24.94400
C  33.17800 -0.72900 26.21100
N  32.78500 3.01900 29.25700
C  31.92600 2.97700 28.16800
C  30.65200 3.53600 28.57400
C  30.76600 3.91300 29.96200
C  32.07200 3.53500 30.29300
C  29.38000 3.73800 27.67800
C  30.12000 4.40000 31.22000
O  28.99700 4.71500 31.43400
C  31.18700 4.32000 32.31900
C  31.50000 5.67200 32.94000
O  31.65700 6.70000 32.29000
O  31.31800 5.69400 34.32300
C  31.65700 6.88700 35.07800
H  38.08000 2.81300 32.57800
H  37.81300 1.53700 26.27300
H  31.51700 2.33000 26.20800
H  33.62200 4.58700 34.16100
H  35.84700 2.70600 34.28000
H  36.81600 4.47100 35.04600
H  35.61200 5.64000 34.64300
H  36.94700 5.30500 33.53700
H  33.90100 1.64200 34.46300
H  32.42900 2.16000 33.99600
H  32.66500 1.82500 36.46700
H  32.03200 3.42000 35.99100
H  39.83400 2.00800 32.03400
H  41.04400 2.51000 30.79700
H  40.55000 0.85400 31.01600
H  42.06300 1.88800 28.91600
H  42.16100 1.69800 27.19700
H  41.88100 0.29400 28.29500
H  35.91500 0.74100 24.71300
H  33.42800 2.23900 24.43900
H  36.77000 2.36800 23.68300
H  35.90500 3.76200 24.23400
H  35.07800 2.69400 23.12700
H  34.07900 -0.47700 24.29200
H  32.46300 0.21800 24.42700
H  33.78800 -0.29700 27.00500
H  33.48300 -1.77100 26.11400
H  32.11800 -0.65100 26.45300
H  28.50700 3.23300 28.09100
H  29.58800 3.60500 26.61600
H  29.13400 4.79400 27.56500
H  30.94600 3.68800 33.17400
H  31.46800 7.83900 34.58000
H  32.65400 6.86100 35.51700
H  30.94600 6.93400 35.90300

