158

Mg 1.06800 8.16200 27.24800
C  1.20200 10.58200 29.83400
C  1.45100 5.74100 29.76200
C  1.36200 5.66700 24.94200
C  1.28000 10.52800 24.92100
N  1.27700 8.18200 29.52500
C  1.10200 9.26000 30.35000
C  1.10900 8.89000 31.84300
C  1.30300 7.37300 31.79300
C  1.31200 7.04200 30.28500
C  2.62700 6.86100 32.56000
C  -0.14600 9.46800 32.56400
C  -0.02200 9.89000 34.08400
H  -0.66900 8.86800 35.03500
N  1.18000 5.99100 27.27100
C  1.33900 5.26300 28.42900
C  1.35400 3.85700 28.06800
C  1.17600 3.80200 26.65700
C  1.19700 5.18300 26.21000
C  1.53700 2.65700 28.99800
C  1.06600 2.58900 25.76800
O  0.84400 2.65800 24.55300
C  1.02900 1.23100 26.37200
N  1.26500 8.12200 25.26400
C  1.38500 7.00900 24.48300
C  1.43700 7.35300 22.98400
C  1.48000 8.91000 22.96700
C  1.28800 9.19900 24.47300
C  2.53800 6.70200 22.06900
C  0.31100 9.64300 22.18000
C  0.76100 10.56300 21.02300
N  1.18500 10.20500 27.30200
C  1.25100 11.04700 26.25200
C  1.41200 12.39500 26.79200
C  1.48600 12.30000 28.18400
C  1.27800 10.92400 28.43300
C  1.71600 13.59600 25.98200
C  1.70400 13.04800 29.44900
O  1.96300 14.23800 29.64700
C  1.42900 11.91000 30.58800
C  2.65800 11.84300 31.49900
O  3.71500 11.30000 31.28800
O  2.17100 12.42100 32.61700
C  3.11400 12.30800 33.75600
H  1.59300 4.96400 30.51700
H  1.23400 4.84300 24.23700
H  1.27500 11.41200 24.28000
H  1.98800 9.25000 32.37700
H  0.45000 6.88600 32.26500
H  3.19200 7.60700 33.11800
H  3.32500 6.37200 31.88100
H  2.29900 6.02100 33.17300
H  -0.97300 8.75800 32.56700
H  -0.59100 10.26700 31.97100
H  -0.39400 10.87000 34.38200
H  1.04400 9.93700 34.30900
H  2.23900 1.92500 28.59800
H  0.52700 2.32300 29.23600
H  2.04900 2.95000 29.91500
H  0.41000 1.06500 27.25400
H  2.05600 1.06400 26.69600
H  0.91100 0.41000 25.66500
H  0.49900 7.02900 22.53100
H  2.40800 9.30300 22.55100
H  3.39800 6.24400 22.55700
H  2.95300 7.43500 21.37700
H  2.04100 5.93600 21.47300
H  -0.35000 10.09200 22.92100
H  -0.39800 8.91200 21.79100
H  1.81400 10.84100 20.98000
H  0.14700 11.46200 20.97400
H  0.68100 10.10900 20.03500
H  2.53500 13.30200 25.32600
H  1.94700 14.46400 26.59900
H  0.80900 13.79900 25.41300
H  0.53600 12.15700 31.16300
H  3.98000 11.66300 33.61200
H  2.54200 11.85600 34.56600
H  3.19300 13.34300 34.08800
Mg -5.52200 25.58200 26.29100
C  -4.53300 27.42900 29.32300
C  -7.35700 23.59500 28.54500
C  -6.31700 23.72400 23.80100
C  -3.30000 27.53000 24.60300
N  -5.94700 25.59600 28.71600
C  -5.34900 26.36600 29.70600
C  -5.80600 25.85000 31.11900
C  -6.68100 24.57000 30.83700
C  -6.71700 24.59600 29.30300
C  -6.04100 23.21500 31.48000
C  -6.60400 26.89700 31.88800
C  -6.42000 27.01900 33.41800
H  -5.84400 25.93500 34.23800
N  -6.72000 23.98000 26.16900
C  -7.35000 23.27900 27.17500
C  -8.21600 22.22900 26.55400
C  -7.90400 22.26900 25.15900
C  -6.96900 23.34500 25.02700
C  -9.15700 21.36600 27.36900
C  -8.42400 21.39100 24.06100
O  -7.98800 21.38000 22.92300
C  -9.54400 20.37900 24.34600
N  -4.93800 25.66400 24.49000
C  -5.39200 24.71000 23.56800
C  -4.72300 24.88700 22.14700
C  -3.86900 26.26000 22.38000
C  -4.03100 26.45200 23.91200
C  -3.90200 23.60200 21.68600
C  -4.38300 27.65100 21.74100
C  -4.10700 27.82200 20.28900
N  -4.25100 27.18300 26.72700
C  -3.38600 27.83800 25.93100
C  -2.72600 28.87100 26.64800
C  -3.15600 28.78300 27.94200
C  -4.12900 27.75800 27.98000
C  -1.84100 29.85800 25.98000
C  -3.04000 29.32700 29.26300
O  -2.25900 30.20000 29.64900
C  -3.83200 28.47800 30.19400
C  -2.83600 27.79100 31.05300
O  -2.19400 26.80900 30.66300
O  -2.69300 28.35000 32.27500
C  -1.97300 27.50700 33.27700
H  -7.78500 22.84200 29.21000
H  -6.50200 23.14800 22.89200
H  -2.66700 28.24000 24.06700
H  -4.91500 25.59200 31.69100
H  -7.73000 24.70100 31.10300
H  -6.78900 22.65100 32.03600
H  -5.24800 23.54000 32.15300
H  -5.64400 22.56300 30.70100
H  -7.61000 26.93900 31.47000
H  -6.18400 27.77300 31.39400
H  -7.44300 27.03400 33.79200
H  -5.84400 27.94000 33.50900
H  -10.10600 21.11900 26.89400
H  -9.34100 21.74900 28.37300
H  -8.63000 20.42700 27.53800
H  -9.38100 19.67400 25.16100
H  -9.63700 19.76100 23.45200
H  -10.48600 20.91500 24.46100
H  -5.34000 24.99800 21.25600
H  -2.82100 26.11800 22.11600
H  -2.86400 23.77100 21.39900
H  -4.27300 23.23600 20.72900
H  -4.02200 22.71400 22.30700
H  -4.11100 28.51400 22.34800
H  -5.46700 27.54900 21.77900
H  -3.91100 26.82800 19.88700
H  -3.17600 28.38900 20.30000
H  -4.86000 28.40100 19.75500
H  -2.35900 30.34500 25.15400
H  -1.05600 29.34400 25.42600
H  -1.34800 30.56400 26.64900
H  -4.54900 29.04300 30.78900
H  -2.06200 26.42900 33.14000
H  -2.32700 27.82100 34.25800
H  -0.89900 27.69000 33.24200

