158

Mg 1.28100 7.81300 25.79400
C  1.87000 9.82700 28.67300
C  1.63700 5.02700 27.78200
C  0.51300 5.96000 23.11100
C  1.15200 10.72400 23.96000
N  1.76700 7.60700 27.92900
C  1.87200 8.52600 28.98800
C  2.00200 7.84000 30.35900
C  2.18700 6.31700 29.98300
C  1.89300 6.26100 28.42500
C  3.52700 5.71900 30.35800
C  0.72700 8.24100 31.25500
C  0.99600 8.63000 32.70200
H  2.07500 7.75100 33.45100
N  1.10500 5.77100 25.43800
C  1.21400 4.75000 26.38500
C  0.71100 3.47100 25.86600
C  0.46000 3.74700 24.46000
C  0.61500 5.21900 24.28400
C  0.55300 2.23500 26.75800
C  0.07900 2.74800 23.40000
O  -0.07000 3.10500 22.22600
C  -0.23000 1.33900 23.70500
N  1.01600 8.21700 23.74700
C  0.63000 7.36700 22.82200
C  0.47700 8.07000 21.48300
C  0.70700 9.59700 21.78200
C  0.94200 9.56200 23.28600
C  1.40400 7.34600 20.40800
C  -0.52600 10.53100 21.37400
C  -0.10900 11.81500 20.70300
N  1.48200 9.89200 26.19000
C  1.27700 10.96900 25.33800
C  1.51500 12.21800 26.01900
C  1.75900 11.81000 27.40800
C  1.64700 10.40400 27.42700
C  1.36400 13.65100 25.50400
C  2.09800 12.26500 28.67800
O  2.40400 13.35700 29.03200
C  2.09100 10.96600 29.60900
C  3.30900 10.88800 30.31900
O  4.41100 10.65700 29.78900
O  3.06500 11.15300 31.66300
C  4.25100 11.30500 32.54700
H  1.90900 4.11300 28.31300
H  0.16100 5.43900 22.21800
H  1.04200 11.61600 23.33900
H  2.87100 8.37200 30.74800
H  1.38800 5.79300 30.50700
H  3.38500 4.97100 31.13800
H  4.05200 6.55800 30.81600
H  4.14300 5.43200 29.50700
H  -0.06100 7.48900 31.29200
H  0.28500 9.16200 30.87200
H  0.02100 8.38000 33.12100
H  1.03100 9.71400 32.81600
H  -0.32400 1.77500 26.30100
H  0.33800 2.56200 27.77500
H  1.34200 1.48200 26.77000
H  0.55100 0.94300 24.35400
H  -0.38500 0.68600 22.84600
H  -1.14200 1.33200 24.30100
H  -0.56300 7.96500 21.17500
H  1.62700 10.00200 21.36100
H  2.24800 6.80400 20.83500
H  1.80400 8.03100 19.65900
H  0.70500 6.62100 19.99300
H  -1.04600 10.78600 22.29700
H  -1.17900 10.02400 20.66200
H  0.91000 12.08100 20.42000
H  -0.59900 12.58900 21.29400
H  -0.68800 11.78400 19.78000
H  1.40700 14.41900 26.27700
H  0.58200 13.88800 24.78300
H  2.22800 13.84100 24.86800
H  1.25100 11.03100 30.30000
H  4.78800 12.23500 32.35900
H  5.01800 10.54900 32.37700
H  4.02200 11.07900 33.58800
Mg 46.99500 24.67200 28.31700
C  47.30700 27.02700 30.59800
C  46.57300 22.34400 30.75900
C  46.94300 22.38100 26.00900
C  47.72600 27.09800 25.79900
N  46.67100 24.71500 30.43700
C  46.85300 25.80100 31.17100
C  46.63100 25.53400 32.67200
C  46.80600 24.02800 32.69300
C  46.69000 23.65200 31.23300
C  48.11000 23.60000 33.43200
C  45.40300 26.20900 33.31600
C  45.26900 25.87000 34.83000
H  45.25200 26.95700 35.86000
N  46.65700 22.69400 28.35000
C  46.54000 21.91700 29.48400
C  46.32400 20.55200 29.08000
C  46.42700 20.49700 27.65200
C  46.69900 21.90100 27.27100
C  45.86900 19.39800 30.02000
C  46.40200 19.24200 26.69300
O  46.39000 19.42600 25.47100
C  46.35800 17.80000 27.13200
N  47.18800 24.80400 26.18200
C  47.19300 23.63300 25.48200
C  47.47000 23.97700 23.93600
C  47.22600 25.49300 23.86200
C  47.47100 25.83500 25.33000
C  48.84600 23.57700 23.44200
C  45.88400 26.13600 23.38800
C  44.63300 25.49100 23.94200
N  47.62400 26.64800 28.16400
C  47.92100 27.50200 27.12300
C  48.19300 28.84500 27.63200
C  47.87500 28.76000 28.98700
C  47.59200 27.35500 29.28600
C  48.54400 29.98800 26.72700
C  47.81800 29.47200 30.26000
O  48.11800 30.57900 30.65100
C  47.41100 28.36500 31.31600
C  48.55300 28.34400 32.28500
O  49.64900 27.85500 32.08500
O  48.11300 28.74400 33.53100
C  49.01000 28.50400 34.70900
H  46.55900 21.68600 31.63100
H  46.82200 21.69700 25.16600
H  47.81800 27.86200 25.02400
H  47.52000 26.05500 33.02700
H  46.02800 23.56300 33.29700
H  48.98400 23.38300 32.81800
H  47.82500 22.72800 34.02000
H  48.37600 24.35800 34.16900
H  44.48300 25.84300 32.86000
H  45.45600 27.29500 33.24100
H  46.12500 25.24200 35.07700
H  44.35900 25.29800 35.01600
H  46.54800 18.58300 29.76700
H  44.86000 19.20900 29.65300
H  45.95100 19.67900 31.07000
H  47.35600 17.56700 27.50400
H  46.07400 17.12000 26.32900
H  45.60600 17.62500 27.90200
H  46.79300 23.51300 23.22000
H  48.04900 25.90600 23.27800
H  49.24400 22.90300 24.20100
H  49.52400 24.39500 23.20000
H  48.85600 23.10400 22.46000
H  45.95600 26.06400 22.30300
H  45.89000 27.20500 23.59800
H  44.02400 26.32000 24.30400
H  44.80900 24.72800 24.70000
H  44.10000 24.94300 23.16600
H  48.36500 30.96100 27.18600
H  48.01000 29.90300 25.78000
H  49.58400 29.91100 26.41100
H  46.49800 28.68000 31.82000
H  49.58300 27.58200 34.61400
H  48.26800 28.43000 35.50300
H  49.53000 29.43800 34.92400

