158

Mg 53.26900 23.04700 44.37200
C  50.87000 25.46100 43.19000
C  51.34900 20.61400 43.22900
C  55.80200 21.06100 44.99600
C  55.36500 25.88300 44.94700
N  51.42700 23.11600 43.25700
C  50.48200 24.15900 42.95400
C  49.20100 23.60500 42.42500
C  49.35100 22.04400 42.81900
C  50.78600 21.92500 43.11200
C  48.41300 21.63200 44.01600
C  49.13700 23.83200 40.92500
C  50.42400 23.75100 40.10300
H  51.15400 22.31300 40.01900
N  53.51000 21.05000 44.24800
C  52.56900 20.17800 43.79900
C  53.12900 18.83700 43.78300
C  54.39600 18.96700 44.47300
C  54.59900 20.37300 44.62600
C  52.44200 17.71500 43.11300
C  55.28300 17.86500 44.87500
O  54.96800 16.71000 44.58900
C  56.53400 18.00400 45.69400
N  55.35200 23.47600 44.65500
C  56.12900 22.48000 45.07000
C  57.53800 22.96100 45.64900
C  57.40100 24.43200 45.40400
C  55.93900 24.57600 44.96500
C  57.74800 22.52700 47.18700
C  58.36400 25.01200 44.25800
C  58.16700 24.45900 42.89700
N  53.14900 25.22000 44.29800
C  54.01900 26.16900 44.72200
C  53.31600 27.47400 44.85500
C  52.14500 27.19000 44.13200
C  52.06700 25.85700 43.85600
C  53.87100 28.73700 45.55500
C  50.87100 27.79800 43.81100
O  50.46500 28.93600 44.02300
C  50.04600 26.77400 43.02600
C  50.09200 27.28200 41.66600
O  51.10000 27.60400 41.06500
O  48.85700 27.35500 41.12900
C  48.73500 27.65600 39.68600
H  50.65300 19.87900 42.81900
H  56.66700 20.48200 45.32700
H  56.05900 26.66800 45.25400
H  48.32600 24.08900 42.85900
H  49.12400 21.41100 41.96100
H  47.89100 20.75200 43.64100
H  47.75200 22.48400 44.17700
H  49.00200 21.39600 44.90300
H  48.72100 24.80700 40.67200
H  48.53100 23.04000 40.48600
H  51.16100 24.43200 40.52800
H  50.16800 24.19900 39.14300
H  51.89300 18.02400 42.22400
H  51.64600 17.31700 43.74200
H  53.08200 16.90300 42.76700
H  56.86000 16.98100 45.88300
H  56.38500 18.51500 46.64500
H  57.23700 18.50600 45.03000
H  58.32800 22.44200 45.10600
H  57.41700 24.97700 46.34800
H  57.37500 21.50900 47.29800
H  57.34900 23.33300 47.80300
H  58.80000 22.47800 47.46800
H  59.39300 24.75500 44.51000
H  58.33100 26.09700 44.15900
H  57.31800 23.77800 42.95100
H  59.08200 23.93700 42.61800
H  57.74800 25.14800 42.16400
H  53.49400 28.61200 46.57000
H  53.62100 29.73800 45.20400
H  54.96100 28.76200 45.54600
H  49.01200 26.59400 43.32300
H  49.61200 27.51100 39.05500
H  48.54000 28.72800 39.65000
H  47.92200 27.06400 39.26500
Mg 30.28800 57.98200 40.62500
C  27.61000 55.79200 39.43900
C  32.50200 55.76900 39.12100
C  32.60300 60.33800 40.92900
C  27.68600 60.29200 41.36600
N  30.03400 55.96200 39.61400
C  28.86300 55.37900 39.10100
C  29.20100 54.01800 38.43900
C  30.73800 53.94800 38.58100
C  31.17000 55.33200 39.07800
C  31.20600 52.91100 39.64500
C  28.81600 53.94200 36.91300
C  29.12700 55.20600 35.98600
H  28.07900 55.62800 34.90800
N  32.30000 58.06200 40.11800
C  32.96300 57.05500 39.48400
C  34.39700 57.42100 39.36300
C  34.51100 58.71900 39.98500
C  33.12000 59.09300 40.39600
C  35.57000 56.60100 38.81300
C  35.78800 59.64000 40.15100
O  36.93300 59.19600 39.85500
C  35.61000 61.01400 40.86000
N  30.16300 59.96000 41.29800
C  31.27100 60.75300 41.25900
C  30.89200 62.22200 41.62000
C  29.32800 62.16800 41.72900
C  29.00600 60.72900 41.38200
C  31.54300 62.74900 42.93600
C  28.54300 63.24400 40.97600
C  28.23600 62.98400 39.52100
N  28.12200 58.01400 40.58900
C  27.25500 59.05900 40.85300
C  25.90600 58.63900 40.67600
C  26.01600 57.44000 40.11100
C  27.35900 57.09300 40.04600
C  24.73700 59.51100 41.14200
C  25.21700 56.32900 39.63400
O  24.01700 56.20300 39.49200
C  26.19200 55.23100 39.13400
C  25.95800 54.06000 40.10400
O  25.75700 54.18200 41.32700
O  25.76400 52.82000 39.50400
C  25.08800 51.84100 40.38400
H  33.18500 55.08500 38.61300
H  33.29400 61.18300 40.94800
H  26.89300 61.04100 41.32900
H  28.77600 53.12900 38.90400
H  31.25300 53.83900 37.62600
H  30.32100 52.75100 40.26100
H  32.05600 53.34800 40.16800
H  31.56500 51.95000 39.27600
H  27.75200 53.81000 36.71900
H  29.35700 53.06100 36.56600
H  29.96800 54.96100 35.33800
H  29.50700 56.06500 36.53900
H  36.16200 57.11500 38.05600
H  35.20300 55.77900 38.19900
H  36.06100 56.14400 39.67200
H  35.36900 61.83400 40.18400
H  36.61300 61.21300 41.23700
H  34.94700 60.96000 41.72400
H  31.22000 62.84700 40.78900
H  28.98000 62.22300 42.76000
H  32.38600 62.13000 43.24300
H  30.81900 62.84100 43.74500
H  31.99300 63.72000 42.72800
H  29.19100 64.11900 41.02100
H  27.66900 63.50400 41.57200
H  27.17500 62.78200 39.37800
H  28.72400 62.08200 39.15100
H  28.54000 63.88300 38.98500
H  24.32300 60.02800 40.27700
H  25.01400 60.22200 41.92100
H  23.95500 58.87300 41.55500
H  25.95000 54.92300 38.11700
H  24.38900 51.34400 39.71200
H  24.54800 52.12600 41.28600
H  25.83700 51.07500 40.58700

