158

Mg 24.32700 -5.58900 46.16000
C  26.90600 -3.53800 44.80800
C  22.06700 -4.07000 44.02600
C  22.18600 -8.13100 46.68600
C  26.81900 -7.47300 47.79600
N  24.58100 -4.09000 44.51900
C  25.68100 -3.36100 44.17900
C  25.31100 -2.42500 42.94200
C  23.71600 -2.36800 42.95100
C  23.40500 -3.60500 43.96200
C  23.18900 -0.94200 43.30200
C  25.90100 -2.96700 41.68200
C  26.96400 -2.14400 40.82300
H  26.93000 -2.30300 39.36300
N  22.31600 -5.89900 45.61100
C  21.56800 -5.16300 44.69600
C  20.23400 -5.70800 44.64600
C  20.26900 -6.89400 45.46400
C  21.66700 -7.03000 45.92400
C  19.05700 -5.15200 43.86700
C  19.04000 -7.70700 45.76900
O  17.93400 -7.34100 45.30000
C  19.05200 -8.95200 46.64500
N  24.47900 -7.55400 47.08700
C  23.40700 -8.37900 47.23400
C  23.73900 -9.72300 48.04100
C  25.22600 -9.37900 48.39300
C  25.54300 -8.05600 47.73200
C  22.82700 -9.95200 49.22900
C  26.13700 -10.52100 47.87900
C  26.81400 -11.30700 48.95200
N  26.43300 -5.55400 46.35200
C  27.24200 -6.24000 47.19200
C  28.53300 -5.63200 47.23500
C  28.41100 -4.54000 46.33100
C  27.14900 -4.57900 45.77100
C  29.70000 -6.04300 48.08500
C  29.17700 -3.44600 45.71900
O  30.27400 -3.01400 45.86000
C  28.18000 -2.71000 44.66500
C  27.81900 -1.35500 45.09800
O  28.04200 -0.31800 44.41800
O  27.14100 -1.37800 46.25800
C  26.24100 -0.17200 46.59100
H  21.31600 -3.48500 43.49000
H  21.46100 -8.81200 47.13800
H  27.62700 -7.97600 48.33200
H  25.70100 -1.41700 43.07700
H  23.26600 -2.48700 41.96500
H  22.23300 -1.01200 42.78400
H  23.70100 -0.18300 42.71000
H  23.24500 -0.74400 44.37200
H  25.07200 -3.15400 41.00000
H  26.35900 -3.94400 41.83900
H  27.94900 -2.25900 41.27500
H  26.69900 -1.12800 41.11300
H  19.34000 -4.34000 43.19700
H  18.26300 -4.80500 44.52800
H  18.69100 -5.98000 43.25900
H  19.46500 -9.80800 46.11200
H  17.98200 -9.00000 46.84800
H  19.56800 -8.70300 47.57200
H  23.64200 -10.49600 47.27800
H  25.36400 -9.16300 49.45200
H  21.78700 -9.80400 48.93700
H  23.11400 -9.27400 50.03200
H  22.83500 -10.99500 49.54700
H  26.97000 -10.12500 47.29700
H  25.71500 -11.30400 47.24800
H  26.19700 -12.17600 49.17900
H  26.81700 -10.73200 49.87800
H  27.82000 -11.51700 48.58900
H  29.58200 -6.02400 49.16900
H  30.54400 -5.37200 47.92800
H  30.03800 -7.01300 47.72000
H  28.56500 -2.64100 43.64800
H  25.41000 0.02200 45.91300
H  26.77800 0.77500 46.63600
H  25.69400 -0.38600 47.50900
Mg -6.89700 25.75500 26.13900
C  -5.17900 27.73400 28.50900
C  -7.56400 23.65800 28.68100
C  -7.98800 23.57900 23.84600
C  -5.47400 27.74800 23.55800
N  -6.48900 25.78800 28.43200
C  -5.87400 26.68300 29.17000
C  -6.11200 26.48500 30.60400
C  -6.71700 25.03800 30.65100
C  -6.97800 24.79300 29.15200
C  -5.75600 24.00500 31.30800
C  -7.16600 27.39000 31.22000
C  -7.35500 27.71100 32.72000
H  -6.93400 26.79200 33.87800
N  -7.84300 23.95200 26.27500
C  -8.08600 23.24700 27.45600
C  -8.91400 22.19300 27.17100
C  -9.04200 22.09400 25.78300
C  -8.25200 23.17200 25.20900
C  -9.64300 21.35600 28.31800
C  -9.88500 21.08700 25.01300
O  -9.87500 21.14300 23.78800
C  -10.75700 19.89200 25.74900
N  -6.69500 25.68900 23.91000
C  -7.35500 24.66000 23.22900
C  -7.12000 24.91800 21.69000
C  -6.54500 26.39700 21.62500
C  -6.29400 26.72300 23.12500
C  -6.13800 23.90700 21.08600
C  -7.44400 27.44900 21.03100
C  -6.85200 28.31600 19.91200
N  -5.56200 27.33500 26.03800
C  -5.01500 28.03100 24.89300
C  -4.10800 29.09100 25.31800
C  -4.15300 28.96800 26.70900
C  -5.02000 27.93200 27.07400
C  -3.29900 30.06500 24.52600
C  -3.63700 29.53900 27.91100
O  -2.83400 30.46600 27.98900
C  -4.33900 28.76700 29.11500
C  -3.26400 28.25300 30.00900
O  -2.29000 27.54300 29.68600
O  -3.44200 28.66900 31.33200
C  -2.67800 27.98900 32.38900
H  -7.68800 23.12800 29.62700
H  -8.28600 22.92300 23.02600
H  -5.15600 28.39600 22.73900
H  -5.13400 26.44700 31.08400
H  -7.70300 24.93100 31.10500
H  -5.13200 24.51300 32.04400
H  -5.25400 23.39600 30.55700
H  -6.51500 23.40900 31.81400
H  -8.13800 27.04300 30.87100
H  -6.94900 28.42100 30.93900
H  -8.44200 27.78700 32.69800
H  -6.96800 28.70400 32.94800
H  -9.60300 20.28800 28.10400
H  -10.66400 21.72300 28.42000
H  -9.11800 21.44400 29.26900
H  -11.51500 20.32600 26.40000
H  -10.09100 19.20600 26.27100
H  -11.38200 19.24100 25.13700
H  -8.06100 24.78000 21.15700
H  -5.55200 26.34600 21.17800
H  -5.80300 23.24400 21.88500
H  -5.23500 24.25800 20.58700
H  -6.69900 23.23800 20.43400
H  -7.71500 28.15400 21.81700
H  -8.36200 27.03500 20.61200
H  -6.15400 27.74900 19.29600
H  -6.29400 29.15900 20.32000
H  -7.54000 28.83900 19.24900
H  -3.79400 31.02500 24.67800
H  -3.26000 29.98400 23.44000
H  -2.28800 30.16500 24.92200
H  -4.92200 29.46500 29.71500
H  -1.88700 28.59700 32.82800
H  -2.42600 26.97800 32.06600
H  -3.36500 27.84300 33.22300

