158

Mg 53.04800 23.98600 44.42600
C  50.59100 26.36300 43.91300
C  50.96000 21.56700 43.18400
C  55.67600 21.92900 44.00400
C  55.25900 26.58000 45.30800
N  51.06000 23.99300 43.64900
C  50.17800 25.06500 43.58700
C  48.92800 24.61700 42.70600
C  48.88300 23.15400 43.23800
C  50.38900 22.82600 43.31400
C  48.07100 22.90400 44.50100
C  48.94600 24.67500 41.12000
C  50.31400 25.04400 40.49500
H  50.29500 25.73200 39.08300
N  53.24900 21.87200 43.87700
C  52.25700 21.12800 43.29700
C  52.71100 19.83900 43.05900
C  54.13700 19.82800 43.36900
C  54.41200 21.24100 43.74500
C  51.84600 18.67900 42.46300
C  55.06100 18.64100 43.05500
O  54.64700 17.60700 42.50200
C  56.52500 18.76200 43.35600
N  55.11100 24.24100 44.58800
C  55.96500 23.25700 44.34800
C  57.44200 23.59800 44.83200
C  57.33400 25.12500 44.83400
C  55.87300 25.32600 44.98600
C  57.73400 23.00100 46.23600
C  58.00500 25.89300 43.59900
C  58.99200 26.96400 43.98800
N  52.96600 26.01400 44.66200
C  53.89900 26.89800 45.15800
C  53.23700 28.22000 45.17200
C  51.94900 28.12800 44.67200
C  51.84700 26.70100 44.39900
C  53.78800 29.53500 45.57800
C  50.66100 28.78400 44.36200
O  50.34000 29.95800 44.44600
C  49.80000 27.61000 43.82600
C  49.59300 28.02400 42.37000
O  50.53800 28.29600 41.63300
O  48.28800 28.22800 42.10900
C  47.90900 28.85700 40.82500
H  50.29800 20.74700 42.89700
H  56.62100 21.38200 44.00600
H  55.78300 27.42300 45.76200
H  48.05200 25.20500 42.98000
H  48.43000 22.55300 42.44900
H  47.26900 22.17700 44.36900
H  47.74800 23.89400 44.82400
H  48.81800 22.53200 45.20200
H  48.14400 25.30000 40.72700
H  48.71800 23.68200 40.73300
H  50.96900 24.17300 40.45900
H  50.64800 25.82800 41.17400
H  50.78300 18.91700 42.42900
H  52.01800 17.71800 42.94800
H  52.12800 18.69300 41.41000
H  57.08500 17.90400 42.98300
H  56.60700 18.93900 44.42800
H  56.89000 19.61700 42.78600
H  58.23700 23.26300 44.16500
H  57.83600 25.48000 45.73300
H  58.06100 21.96300 46.18700
H  56.82800 23.18100 46.81500
H  58.52000 23.61900 46.67100
H  57.15600 26.33700 43.08000
H  58.57400 25.20600 42.97400
H  59.02100 27.02000 45.07600
H  58.72500 27.92600 43.55200
H  59.98200 26.66200 43.64400
H  53.32500 29.95200 46.47200
H  53.69200 30.27100 44.78000
H  54.81300 29.40300 45.92400
H  48.83300 27.68800 44.32200
H  48.39300 29.83200 40.77200
H  46.83700 29.02900 40.72900
H  48.14600 28.26900 39.93800
Mg 42.44900 41.97100 25.78800
C  41.91600 44.44100 28.45800
C  43.60500 39.98200 28.35900
C  43.30700 39.93600 23.44600
C  41.86400 44.60200 23.53300
N  42.73000 42.25600 28.14800
C  42.34600 43.24800 29.06200
C  42.25000 42.70000 30.52500
C  43.08100 41.38200 30.36500
C  43.19600 41.20000 28.84400
C  44.55000 41.40500 31.00600
C  40.81000 42.59200 31.04400
C  40.57600 41.89800 32.41700
H  39.87500 42.79000 33.48900
N  43.21700 40.15200 25.89600
C  43.59400 39.41400 27.05100
C  44.01000 38.11800 26.60500
C  43.86700 38.04300 25.21300
C  43.50300 39.39500 24.80300
C  44.52400 37.06000 27.59300
C  44.08900 36.80700 24.30200
O  44.10400 36.82900 23.11200
C  44.41000 35.50800 25.01100
N  42.66900 42.26700 23.79400
C  43.04700 41.23700 22.98000
C  43.10800 41.75900 21.51500
C  42.69400 43.27500 21.54300
C  42.29900 43.35200 23.03400
C  44.49100 41.37200 20.90900
C  41.57000 43.74300 20.51000
C  40.18100 43.12700 20.66000
N  41.97800 44.07700 25.93500
C  41.80000 44.99700 24.93000
C  41.32900 46.23500 25.50700
C  41.33700 46.02200 26.87000
C  41.89400 44.77000 27.07800
C  40.93100 47.52200 24.71100
C  41.15500 46.71100 28.08200
O  40.83800 47.89200 28.27500
C  41.44600 45.68100 29.19600
C  42.47800 46.19300 30.15400
O  43.54200 46.71800 29.87800
O  41.91100 46.14900 31.44000
C  42.84600 46.39800 32.55700
H  43.91600 39.31500 29.16600
H  43.52700 39.17900 22.69100
H  41.65700 45.36600 22.78100
H  42.72600 43.47600 31.12400
H  42.60100 40.45800 30.68700
H  44.98400 42.40400 31.01400
H  45.24400 40.78100 30.44100
H  44.56700 41.04300 32.03400
H  40.14400 42.03000 30.38900
H  40.41400 43.60600 31.10700
H  41.51800 41.49300 32.78700
H  39.89800 41.04500 32.42800
H  43.93200 36.17700 27.35200
H  44.39100 37.40000 28.61900
H  45.56500 36.78700 27.41600
H  44.65000 34.81400 24.20600
H  43.52900 35.13100 25.53100
H  45.30000 35.61400 25.63200
H  42.24800 41.28400 21.04300
H  43.59200 43.87900 21.41300
H  44.92000 42.29600 20.52300
H  44.36400 40.66200 20.09200
H  45.16600 40.91100 21.63000
H  41.95700 43.51300 19.51700
H  41.48500 44.82100 20.64700
H  39.84500 42.49000 19.84200
H  39.47100 43.91000 20.92500
H  40.05900 42.59200 21.60200
H  41.04700 47.43000 23.63100
H  41.56500 48.32600 25.08400
H  39.88600 47.78500 24.87600
H  40.45500 45.61000 29.64400
H  42.71700 47.46600 32.73400
H  43.87900 46.19800 32.27400
H  42.52700 45.71200 33.34100

