158

Mg -2.06000 18.10900 27.35100
C  -2.63000 15.77200 29.63300
C  -2.81600 20.60100 29.55200
C  -1.62700 20.19400 24.81500
C  -1.60100 15.50200 24.94900
N  -2.79800 18.14600 29.27600
C  -2.79500 17.07800 30.17700
C  -2.88400 17.48500 31.70600
C  -3.12400 19.03000 31.57900
C  -2.89300 19.32500 30.05300
C  -4.54900 19.64600 32.09400
C  -1.79200 17.01300 32.65500
C  -1.39000 17.80600 33.92800
H  -0.77600 16.98500 35.00500
N  -2.25200 20.10600 27.20700
C  -2.56100 20.98000 28.21600
C  -2.38900 22.37000 27.72200
C  -1.82700 22.25300 26.40700
C  -1.78800 20.84100 26.08700
C  -2.69100 23.59200 28.68100
C  -1.26500 23.39700 25.60800
O  -0.72900 23.25000 24.51400
C  -1.26200 24.77100 26.14800
N  -1.82500 17.84800 25.17100
C  -1.55100 18.90300 24.43600
C  -1.35500 18.48900 22.92600
C  -1.06000 17.00500 22.99300
C  -1.49900 16.71200 24.43800
C  -2.60100 18.73600 22.05600
C  0.40900 16.64100 22.72600
C  1.52600 17.18100 23.73200
N  -1.92100 16.11000 27.27600
C  -1.86100 15.14000 26.27100
C  -1.97700 13.81300 26.84000
C  -2.33300 13.98200 28.13300
C  -2.32300 15.38100 28.30900
C  -1.80800 12.52700 26.20100
C  -2.63400 13.29900 29.31900
O  -2.66600 12.11100 29.48200
C  -2.83400 14.40100 30.39600
C  -1.79700 14.01700 31.39300
O  -0.57600 14.23300 31.32800
O  -2.35600 13.29500 32.47000
C  -1.49600 13.04200 33.61700
H  -2.66100 21.35100 30.33000
H  -1.39800 20.80300 23.93800
H  -1.27400 14.69600 24.28800
H  -3.84500 17.08000 32.02300
H  -2.33600 19.53900 32.13400
H  -4.27200 20.34600 32.88200
H  -5.15900 18.98800 32.71300
H  -5.12300 20.09800 31.28500
H  -0.84500 17.09800 32.12300
H  -1.95600 15.96100 32.88900
H  -2.25900 18.36400 34.27700
H  -0.57200 18.49600 33.71900
H  -1.75000 24.05300 28.98000
H  -3.22100 23.20800 29.55300
H  -3.35800 24.34300 28.25900
H  -2.24300 25.18800 26.37400
H  -0.80100 25.46700 25.44700
H  -0.64200 24.79400 27.04400
H  -0.51500 19.03600 22.49900
H  -1.62700 16.37400 22.30900
H  -3.32800 19.19700 22.72500
H  -3.05700 17.85300 21.60800
H  -2.31800 19.48300 21.31400
H  0.69100 16.87100 21.69800
H  0.46600 15.55800 22.61900
H  2.09500 16.38800 24.21800
H  1.05800 17.77100 24.52000
H  2.26900 17.85200 23.30000
H  -1.06200 12.57500 25.40700
H  -2.68200 11.99800 25.82200
H  -1.44100 11.85300 26.97500
H  -3.84600 14.24200 30.76800
H  -2.10500 13.43400 34.43100
H  -0.57600 13.62500 33.58300
H  -1.33200 11.96500 33.62100
Mg 35.62000 2.89800 29.81900
C  33.24500 3.60500 32.26800
C  37.98900 2.69600 32.47000
C  38.15000 2.65000 27.51000
C  33.26300 3.25000 27.34800
N  35.58400 3.25200 32.09700
C  34.46900 3.39600 32.88400
C  34.80700 3.40100 34.36200
C  36.31100 3.30400 34.39500
C  36.64100 3.04100 32.90500
C  37.03200 4.56100 34.97100
C  34.15900 2.23200 35.21600
C  33.72000 2.67800 36.55900
H  34.67900 3.63300 37.40500
N  37.68100 2.55400 29.97700
C  38.46700 2.51100 31.14400
C  39.87600 2.19900 30.81400
C  39.99100 2.23900 29.37100
C  38.58600 2.42600 28.88200
C  40.96000 1.90500 31.92500
C  41.17700 2.05100 28.42500
O  41.17000 1.94800 27.21800
C  42.49400 2.02500 29.11700
N  35.68800 2.97000 27.73100
C  36.86000 2.87000 27.04400
C  36.55100 3.16600 25.52500
C  35.04200 3.40500 25.43600
C  34.63400 3.20400 26.93800
C  37.32100 4.28400 24.85600
C  34.34100 2.45500 24.46000
C  34.16500 1.00700 24.84900
N  33.61900 3.40500 29.73100
C  32.75100 3.38900 28.71500
C  31.43800 3.76500 29.18100
C  31.62000 3.81000 30.57200
C  32.91100 3.51300 30.87400
C  30.14400 4.09700 28.37800
C  30.86500 4.09900 31.79700
O  29.68500 4.39000 31.95700
C  31.94700 3.97300 33.05500
C  31.99400 5.36200 33.57500
O  32.26700 6.30200 32.84500
O  31.63900 5.42000 34.91900
C  32.00200 6.65400 35.58300
H  38.69400 2.64400 33.30300
H  38.92200 2.76700 26.74700
H  32.62000 3.64800 26.56000
H  34.44100 4.36900 34.70600
H  36.73700 2.49800 34.99200
H  36.49400 5.19000 35.68000
H  37.47800 5.25400 34.25800
H  37.86900 4.07400 35.47200
H  34.90900 1.44200 35.23900
H  33.36200 1.67900 34.71800
H  33.42700 1.87700 37.23700
H  32.88700 3.34700 36.34300
H  41.36500 0.89800 31.82600
H  40.51000 1.93000 32.91700
H  41.77400 2.62400 31.83200
H  42.63500 2.95700 29.66300
H  43.30700 1.86900 28.40800
H  42.50100 1.15800 29.77900
H  36.69400 2.33800 24.83100
H  34.71700 4.39700 25.12300
H  36.64500 5.07200 24.52400
H  37.70100 3.92400 23.90000
H  38.14100 4.74700 25.40500
H  34.68900 2.61900 23.44000
H  33.29700 2.75800 24.38000
H  33.15200 0.64400 24.67700
H  34.43600 0.87200 25.89600
H  34.89200 0.43200 24.27500
H  30.27500 3.98800 27.30100
H  29.69300 5.06400 28.60000
H  29.27500 3.44600 28.47300
H  31.58200 3.16300 33.68700
H  32.46700 6.32500 36.51300
H  31.12200 7.24600 35.83800
H  32.81700 7.13400 35.04200

