158

Mg 1.72700 -1.06900 43.98700
C  5.18900 -0.67600 43.47800
C  1.14100 1.70400 42.11800
C  -1.44100 -2.13200 43.78200
C  2.55000 -4.34900 45.39100
N  3.10000 0.30500 42.77700
C  4.42500 0.31100 42.77000
C  4.99200 1.58400 42.02400
C  3.65500 2.31000 41.63200
C  2.55500 1.44200 42.29500
C  3.53300 3.80900 42.14900
C  6.01000 1.22700 40.88300
C  5.86800 -0.03400 40.03000
H  5.69300 0.08700 38.50900
N  0.01200 -0.22100 43.23200
C  -0.01800 0.98300 42.59600
C  -1.32100 1.26700 42.19700
C  -2.11500 0.10400 42.47700
C  -1.22500 -0.84300 43.23300
C  -1.83400 2.48800 41.44100
C  -3.62500 -0.20000 42.17800
O  -4.24200 0.67200 41.60700
C  -4.36500 -1.42900 42.64800
N  0.70700 -3.08000 44.45900
C  -0.56700 -3.17300 44.38600
C  -1.11600 -4.58200 44.74200
C  0.11700 -5.11400 45.56700
C  1.20700 -4.16200 45.09700
C  -2.52700 -4.74400 45.31500
C  0.32300 -6.62300 45.28100
C  0.99000 -7.49400 46.43500
N  3.46400 -2.29300 44.39600
C  3.59200 -3.53700 44.95800
C  4.97000 -3.87900 45.06700
C  5.63000 -2.80000 44.54500
C  4.71600 -1.84500 44.09600
C  5.51600 -5.13300 45.68900
C  6.96100 -2.25700 44.25200
O  8.07900 -2.65800 44.57100
C  6.71800 -0.81300 43.63200
C  7.29400 0.20000 44.56900
O  6.99300 0.34500 45.72800
O  8.13300 1.10700 43.94300
C  8.63200 2.30900 44.68500
H  0.92300 2.62800 41.57800
H  -2.39500 -2.62500 43.58300
H  2.79400 -5.32200 45.82300
H  5.63300 2.25400 42.59600
H  3.60700 2.19800 40.54800
H  3.37100 4.00400 43.21000
H  2.68400 4.25600 41.63100
H  4.45700 4.24800 41.77400
H  6.94900 1.23900 41.43600
H  6.16400 2.08000 40.22200
H  4.92900 -0.49300 40.34000
H  6.61300 -0.74700 40.38200
H  -2.67200 2.97800 41.93600
H  -2.16100 2.37700 40.40700
H  -1.15800 3.34200 41.48100
H  -5.27200 -1.34200 42.04800
H  -4.52600 -1.53200 43.72100
H  -3.87700 -2.31800 42.25000
H  -1.24900 -5.06600 43.77400
H  -0.09900 -4.97100 46.62600
H  -3.25900 -5.13600 44.60900
H  -2.95500 -3.75400 45.47200
H  -2.51900 -5.26700 46.27100
H  0.99200 -6.74300 44.42900
H  -0.65400 -7.08000 45.12400
H  0.24000 -8.21800 46.75000
H  1.36600 -6.92300 47.28400
H  1.88400 -7.94300 46.00300
H  4.84900 -5.99300 45.62200
H  5.86800 -4.99600 46.71100
H  6.38900 -5.45900 45.12300
H  7.33900 -0.82000 42.73700
H  8.36000 2.33800 45.74000
H  8.32300 3.14800 44.06200
H  9.71900 2.29800 44.60100
Mg -12.53600 17.32800 40.53500
C  -9.26400 15.88300 40.25600
C  -11.11500 20.35900 39.51100
C  -15.62100 18.63100 39.92900
C  -13.91400 14.16300 40.83500
N  -10.43100 17.92900 39.97000
C  -9.31000 17.26400 39.88200
C  -8.10400 18.13900 39.51200
C  -8.72800 19.54800 39.47300
C  -10.18600 19.25700 39.67600
C  -8.18700 20.42600 40.63600
C  -7.54700 17.64800 38.14200
C  -6.04900 17.52400 38.01900
H  -5.52200 16.21300 37.43400
N  -13.27400 19.32100 39.92900
C  -12.51100 20.39300 39.54200
C  -13.37700 21.51100 39.19700
C  -14.74900 21.01300 39.25300
C  -14.56900 19.59300 39.72600
C  -12.81200 22.88400 38.77900
C  -15.94200 21.83800 38.92400
O  -15.80000 23.03000 38.65700
C  -17.41000 21.34400 38.93300
N  -14.55100 16.50900 40.29500
C  -15.61300 17.25300 40.25000
C  -16.93200 16.41800 40.45200
C  -16.38300 14.92200 40.59600
C  -14.84300 15.18300 40.57600
C  -17.76000 16.89700 41.68000
C  -16.88700 13.89400 39.54600
C  -17.85900 12.87500 40.01700
N  -11.79700 15.39400 40.58300
C  -12.46100 14.21300 40.78900
C  -11.54500 13.18000 40.91900
C  -10.22500 13.78600 40.77000
C  -10.41500 15.11600 40.49500
C  -11.96600 11.70900 40.98400
C  -8.77000 13.53000 40.87000
O  -8.16600 12.47400 41.10600
C  -8.08700 14.91500 40.46600
C  -7.16400 15.23100 41.50500
O  -7.38800 15.88600 42.49600
O  -5.92600 14.88700 41.17700
C  -4.89000 15.16400 42.23000
H  -10.51600 21.22600 39.22600
H  -16.67200 18.92800 39.91300
H  -14.36700 13.20900 41.11400
H  -7.34000 18.18000 40.28700
H  -8.62600 20.09200 38.53400
H  -7.24600 20.04600 41.03500
H  -8.98100 20.66900 41.34200
H  -8.02500 21.45600 40.31900
H  -7.93000 18.38800 37.43800
H  -7.99900 16.75300 37.71600
H  -5.59200 17.66700 38.99900
H  -5.80600 18.44900 37.49700
H  -13.29900 23.64400 39.39000
H  -13.13600 23.18400 37.78200
H  -11.75900 23.05600 39.00100
H  -17.39000 20.33600 38.52100
H  -18.12100 21.90500 38.32600
H  -17.71700 21.39600 39.97800
H  -17.55200 16.45200 39.55600
H  -16.68500 14.52900 41.56700
H  -17.25100 17.72500 42.17400
H  -17.87900 16.12400 42.43900
H  -18.75000 17.26600 41.41100
H  -16.06600 13.40100 39.02600
H  -17.39700 14.47400 38.77600
H  -17.49500 11.84800 39.99000
H  -18.76100 12.95600 39.41000
H  -18.09800 13.06800 41.06300
H  -12.91200 11.66100 40.44600
H  -12.20000 11.38000 41.99600
H  -11.12800 11.19200 40.51500
H  -7.47200 14.83000 39.57000
H  -4.62300 16.21300 42.10500
H  -3.94100 14.69600 41.96800
H  -5.19600 14.97100 43.25800

