158

Mg 24.00900 -4.83300 46.50500
C  26.22700 -2.54100 45.07800
C  21.63700 -3.69900 44.37500
C  22.29700 -7.59700 47.28800
C  26.93100 -6.21000 48.11100
N  23.98700 -3.29900 44.83500
C  24.96600 -2.44700 44.44300
C  24.49900 -1.61000 43.23600
C  22.91000 -1.75900 43.40400
C  22.80500 -2.96100 44.33800
C  22.14100 -0.54300 43.92000
C  25.09100 -2.12600 41.85800
C  26.15100 -1.23900 41.10300
H  26.05000 -1.43800 39.63200
N  22.12500 -5.50100 45.99700
C  21.33700 -4.92500 45.03200
C  20.15000 -5.70500 44.94400
C  20.25900 -6.86600 45.81800
C  21.59600 -6.74600 46.47800
C  18.98000 -5.36800 44.03400
C  19.26400 -7.98900 45.92700
O  18.15800 -7.93500 45.36500
C  19.65500 -9.34300 46.55900
N  24.61200 -6.55400 47.54400
C  23.66900 -7.53500 47.80100
C  24.16900 -8.76600 48.62100
C  25.66000 -8.36400 48.78500
C  25.77200 -6.94900 48.08200
C  23.38600 -9.08600 49.95100
C  26.52900 -9.47000 48.18700
C  27.69100 -9.83900 49.11200
N  26.18600 -4.36200 46.77500
C  27.13200 -4.90600 47.53100
C  28.40800 -4.22000 47.38800
C  28.08100 -3.22500 46.46200
C  26.71200 -3.36200 46.13700
C  29.74800 -4.42900 48.05300
C  28.62200 -2.16500 45.69600
O  29.72500 -1.71900 45.58500
C  27.53900 -1.69000 44.71200
C  27.44300 -0.24000 44.83100
O  26.96300 0.37800 45.75500
O  28.02900 0.36700 43.79500
C  28.04400 1.86400 43.94500
H  20.96600 -3.24700 43.64100
H  21.66900 -8.39200 47.69700
H  27.80000 -6.55800 48.67400
H  24.73100 -0.54600 43.27200
H  22.46400 -2.05800 42.45600
H  22.72200 0.24900 44.39200
H  21.38400 -0.89800 44.61900
H  21.61900 -0.00200 43.13100
H  24.33400 -2.33400 41.10300
H  25.52200 -3.10600 42.06100
H  27.17100 -1.48200 41.40300
H  26.06800 -0.21800 41.47700
H  19.12800 -4.43100 43.49600
H  18.05900 -5.30500 44.61400
H  18.80200 -6.20700 43.36200
H  20.65900 -9.52500 46.17400
H  19.01100 -10.14800 46.20700
H  19.67700 -9.23300 47.64300
H  24.09600 -9.65700 47.99800
H  25.73900 -8.04400 49.82400
H  23.08000 -10.12900 50.03300
H  22.49900 -8.45300 49.92500
H  24.07700 -8.84400 50.75900
H  26.96900 -9.12200 47.25200
H  25.89200 -10.31200 47.91700
H  27.46900 -9.35300 50.06200
H  28.60700 -9.48200 48.63900
H  27.84600 -10.90000 49.30700
H  30.10600 -5.41300 47.75200
H  29.82400 -4.20500 49.11700
H  30.43100 -3.85400 47.42800
H  27.80900 -1.96600 43.69200
H  28.35300 2.31000 43.00000
H  28.86700 2.27500 44.53000
H  27.06600 2.28400 44.18300
Mg 4.85200 53.16900 42.09800
C  5.01400 49.78000 41.25600
C  7.83200 53.69900 40.47300
C  4.39700 56.49300 42.58800
C  1.55500 52.56600 43.30300
N  6.17400 51.92700 40.87900
C  6.06100 50.59300 40.73900
C  7.29800 50.09800 39.93700
C  8.30800 51.18400 40.18800
C  7.38500 52.39100 40.53600
C  9.28400 51.03900 41.42800
C  6.99200 49.92200 38.41300
C  7.62100 48.79400 37.62000
H  6.92000 48.05100 36.38800
N  5.93700 54.85300 41.57800
C  7.18200 54.83500 40.96200
C  7.70500 56.20700 40.93400
C  6.66700 57.04800 41.44200
C  5.61300 56.18000 41.93800
C  9.11100 56.55100 40.49800
C  6.68500 58.53200 41.50200
O  7.71800 59.17700 41.21100
C  5.63700 59.34000 42.10300
N  3.21200 54.33500 42.80100
C  3.31400 55.69700 42.94000
C  2.09100 56.38700 43.39600
C  1.10800 55.14700 43.56800
C  1.97500 53.89900 43.22200
C  2.25100 57.15500 44.73100
C  -0.12600 55.21900 42.57900
C  -1.43700 54.54300 43.21300
N  3.47400 51.55100 42.22300
C  2.28900 51.46700 42.86000
C  1.87200 50.07700 42.95000
C  2.91200 49.36700 42.31000
C  3.83900 50.29700 41.86100
C  0.63200 49.51300 43.44600
C  3.34700 48.06300 41.90600
O  2.80200 47.02300 41.97900
C  4.80500 48.25400 41.30800
C  4.86700 47.54900 40.06700
O  4.21600 47.81100 39.07800
O  5.77600 46.49800 40.15700
C  5.83100 45.53300 39.04200
H  8.82200 53.81100 40.02500
H  4.24100 57.54900 42.81900
H  0.55900 52.42600 43.72900
H  7.58400 49.12900 40.34600
H  9.02200 51.44300 39.40600
H  10.20500 51.49000 41.06100
H  9.37500 49.99100 41.71300
H  8.97800 51.64100 42.28400
H  7.28800 50.86300 37.95200
H  5.92500 49.92400 38.19000
H  7.83100 48.07000 38.40700
H  8.61500 49.02700 37.23900
H  9.66700 55.66200 40.20100
H  9.60300 56.97300 41.37500
H  9.05300 57.29800 39.70600
H  5.80600 60.41000 42.22100
H  5.41300 58.96200 43.10100
H  4.81700 59.12800 41.41700
H  1.81500 57.05800 42.58300
H  0.86300 54.87500 44.59500
H  2.40900 58.18400 44.40800
H  3.11700 56.80700 45.29400
H  1.33300 57.03700 45.30600
H  0.24100 54.59800 41.76200
H  -0.39000 56.23500 42.28300
H  -1.69400 53.63200 42.67200
H  -2.27000 55.22400 43.38600
H  -1.21200 54.14400 44.20200
H  0.66800 49.35300 44.52300
H  0.38900 48.61000 42.88500
H  -0.14800 50.22600 43.17900
H  5.59200 47.79100 41.90300
H  6.85800 45.55600 38.67600
H  5.16800 45.72000 38.19800
H  5.36300 44.58200 39.29800

