158

Mg 1.72700 8.12100 25.33000
C  2.13900 10.11300 28.20800
C  1.80600 5.30900 27.42000
C  1.68200 6.22500 22.67800
C  1.87400 11.01200 23.35300
N  2.04000 7.76400 27.64700
C  2.13000 8.73800 28.57800
C  2.12500 8.04100 29.97800
C  2.32400 6.51700 29.68600
C  2.00100 6.50000 28.16300
C  3.76600 5.89600 30.00100
C  0.85600 8.31700 30.86500
C  1.21400 8.73500 32.29300
H  2.41400 7.96300 32.91100
N  1.65200 6.06300 25.08600
C  1.58900 5.08500 26.07100
C  1.27500 3.78700 25.49300
C  1.24800 4.03900 24.05600
C  1.61300 5.42500 23.90100
C  1.23900 2.57900 26.40500
C  0.88000 3.03800 23.02200
O  1.01600 3.26700 21.83400
C  0.40900 1.71300 23.39300
N  1.80600 8.58900 23.29100
C  1.75500 7.57600 22.45700
C  1.82000 8.04100 20.95300
C  1.59600 9.60700 21.13000
C  1.83100 9.77900 22.67000
C  3.17700 7.69600 20.26400
C  0.26000 10.17100 20.73400
C  0.41700 11.53300 20.02600
N  2.02100 10.21500 25.59300
C  1.96700 11.31500 24.70300
C  2.12100 12.52800 25.49900
C  2.23300 12.09000 26.81600
C  2.08100 10.67900 26.82900
C  2.36000 13.92800 24.94200
C  2.39700 12.57000 28.12200
O  2.68700 13.67300 28.55700
C  2.20600 11.34500 29.05700
C  3.29600 11.39700 30.10600
O  4.49500 11.29800 29.90800
O  2.66700 11.60900 31.33300
C  3.49600 11.87100 32.50800
H  1.92100 4.45000 28.08400
H  1.44000 5.63000 21.79600
H  1.97800 11.89000 22.71300
H  2.99300 8.35600 30.55700
H  1.60500 5.95900 30.28500
H  4.36600 6.68400 30.45700
H  4.25400 5.46000 29.12900
H  3.54800 4.98600 30.56000
H  0.30300 7.37800 30.85800
H  0.19100 9.06800 30.43800
H  0.37400 8.40600 32.90400
H  1.26800 9.81500 32.42500
H  2.22600 2.11500 26.40900
H  0.39900 1.92000 26.18400
H  1.18600 2.75800 27.47900
H  -0.39700 1.85900 24.11100
H  1.33900 1.21100 23.66200
H  -0.01000 1.09800 22.59600
H  0.92900 7.56400 20.54500
H  2.47700 10.14300 20.77600
H  3.85300 7.24000 20.98800
H  3.70300 8.60000 19.95500
H  3.08000 7.02000 19.41400
H  -0.45400 10.18400 21.55800
H  -0.16800 9.49100 19.99700
H  1.39000 12.02300 20.07900
H  -0.29300 12.14200 20.58500
H  0.17300 11.41200 18.97100
H  2.26500 14.02500 23.86000
H  3.34600 14.27400 25.24900
H  1.71500 14.72400 25.31300
H  1.25800 11.40500 29.59200
H  2.92400 11.71000 33.42200
H  3.72100 12.92700 32.66300
H  4.39900 11.27200 32.40000
Mg -5.21300 24.72200 26.32100
C  -3.72300 26.59500 29.03300
C  -6.67300 22.68600 28.69800
C  -6.72900 23.41500 23.86400
C  -3.44700 26.95000 24.15800
N  -5.28900 24.77800 28.65000
C  -4.65200 25.55200 29.51100
C  -5.08100 25.30000 30.96100
C  -5.81700 23.94600 30.89600
C  -5.91100 23.74500 29.33800
C  -5.15400 22.69900 31.55000
C  -6.03600 26.51100 31.39700
C  -6.45400 26.60300 32.93200
H  -5.83300 25.62900 33.92500
N  -6.49200 23.22700 26.24200
C  -7.00700 22.47700 27.32900
C  -7.86500 21.45400 26.75400
C  -7.97500 21.61200 25.36100
C  -7.13300 22.85300 25.12200
C  -8.47300 20.45700 27.67900
C  -8.69000 20.75000 24.33300
O  -8.80600 21.08000 23.14900
C  -9.20300 19.38900 24.75100
N  -5.05800 25.19000 24.25700
C  -5.83900 24.45500 23.38700
C  -5.53200 24.73400 21.89600
C  -4.70600 26.10900 22.04800
C  -4.35500 26.09800 23.56200
C  -4.81700 23.54700 21.18900
C  -5.44900 27.37700 21.61900
C  -4.59400 28.42800 20.84000
N  -3.74300 26.32600 26.55200
C  -3.15200 27.05100 25.54400
C  -2.11000 27.87400 26.13900
C  -2.33000 27.73600 27.56300
C  -3.35400 26.85500 27.71400
C  -1.03200 28.76300 25.37400
C  -2.09500 28.32600 28.91400
O  -1.39300 29.23500 29.33000
C  -2.87300 27.45100 29.89500
C  -1.86900 26.53300 30.62200
O  -1.51200 25.40600 30.30200
O  -1.58800 27.11200 31.81600
C  -0.89800 26.28400 32.82300
H  -7.21900 22.08900 29.43100
H  -7.31800 22.87800 23.11800
H  -2.82800 27.53100 23.47000
H  -4.22600 25.37700 31.63200
H  -6.84100 24.02500 31.26100
H  -5.80900 22.32100 32.33400
H  -4.27600 23.02900 32.10500
H  -4.82400 21.93000 30.85100
H  -6.93300 26.31800 30.80900
H  -5.57000 27.45400 31.11000
H  -7.54000 26.64400 33.02000
H  -6.08000 27.60900 33.12400
H  -9.52600 20.71400 27.78900
H  -7.97800 20.47000 28.65000
H  -8.33700 19.42300 27.36300
H  -8.34600 18.85800 25.16500
H  -9.50900 18.86000 23.84800
H  -9.96300 19.56800 25.51100
H  -6.52900 24.79700 21.46000
H  -3.81900 25.99200 21.42500
H  -3.79300 23.60200 21.56000
H  -4.92700 23.48600 20.10700
H  -5.33800 22.68600 21.60800
H  -5.79900 27.89700 22.51100
H  -6.31400 27.06000 21.03700
H  -3.79700 27.97800 20.24900
H  -4.06600 29.12900 21.48700
H  -5.14900 29.03600 20.12600
H  -1.55100 29.57500 24.86300
H  -0.45400 28.09500 24.73600
H  -0.42900 29.27500 26.12400
H  -3.41600 28.06100 30.61600
H  0.03400 26.70600 33.20000
H  -0.63100 25.27300 32.51800
H  -1.57600 26.04200 33.64100

