158

Mg 44.58000 4.21600 45.80900
C  43.14800 7.30900 45.82900
C  41.42100 2.78800 45.32000
C  46.07400 1.30900 44.91700
C  47.69000 5.76000 45.85100
N  42.46700 5.01200 45.71900
C  42.12800 6.33500 45.66500
C  40.60500 6.52900 45.57000
C  40.14000 5.05900 45.47300
C  41.38900 4.18500 45.55300
C  39.06100 4.67700 46.57000
C  40.18300 7.36200 44.26200
C  41.06700 7.43100 42.94200
H  40.42600 7.98100 41.65800
N  43.86100 2.28400 45.19500
C  42.52600 1.96300 45.06000
C  42.52700 0.52800 44.68700
C  43.80200 0.08400 44.58700
C  44.65800 1.21500 44.92000
C  41.26400 -0.28100 44.35800
C  44.23200 -1.30800 44.19800
O  43.42700 -2.19400 43.92600
C  45.64100 -1.75900 43.92800
N  46.60100 3.63200 45.45200
C  46.95900 2.34000 45.25800
C  48.48500 2.16800 45.43900
C  49.02900 3.65400 45.52000
C  47.70000 4.37800 45.54800
C  48.85900 1.21700 46.61100
C  50.09500 4.14800 44.53000
C  51.42900 4.62300 45.09800
N  45.27700 6.08900 45.84100
C  46.55800 6.58900 45.88300
C  46.52100 8.00800 45.94500
C  45.20800 8.34400 45.96000
C  44.49700 7.13700 45.87900
C  47.69100 8.88700 46.12700
C  44.32500 9.38000 46.20000
O  44.53100 10.58600 46.38700
C  42.89900 8.79600 45.98700
C  42.06800 9.13500 47.17700
O  42.12000 8.53900 48.23700
O  41.25100 10.20900 46.83000
C  40.46900 10.58200 47.97900
H  40.49800 2.21800 45.19400
H  46.54300 0.34100 44.73300
H  48.69500 6.18500 45.88900
H  40.23100 6.94000 46.50700
H  39.76700 4.80000 44.48200
H  38.84200 5.55400 47.17900
H  39.56500 3.92800 47.18200
H  38.15400 4.37100 46.04900
H  40.12900 8.40400 44.57600
H  39.13800 7.06800 44.15900
H  41.50500 6.44600 42.78400
H  41.92800 8.04900 43.19500
H  41.26900 -0.59600 43.31400
H  40.33000 0.17200 44.68900
H  41.28600 -1.27200 44.81200
H  45.72600 -2.80300 43.62800
H  46.17800 -1.62000 44.86700
H  46.01700 -1.09800 43.14800
H  48.93400 1.72000 44.55200
H  49.47400 3.72900 46.51200
H  48.05100 0.94300 47.29000
H  49.63800 1.73600 47.16800
H  49.27100 0.37400 46.05600
H  49.75500 4.98900 43.92600
H  50.38000 3.41300 43.77700
H  52.22600 4.11500 44.55500
H  51.65300 4.49700 46.15700
H  51.52300 5.67700 44.83500
H  48.54100 8.43000 46.63300
H  47.39800 9.80300 46.64100
H  48.04300 9.21800 45.15000
H  42.33700 9.24900 45.17100
H  39.81300 11.37700 47.62600
H  41.08200 10.83900 48.84300
H  39.94200 9.69600 48.33400
Mg 40.80700 9.55100 29.15500
C  42.71100 10.90900 31.89100
C  38.49700 8.64500 31.63600
C  39.10200 7.99500 26.78000
C  43.38900 10.44400 27.04700
N  40.58200 9.87900 31.57800
C  41.47100 10.36200 32.41400
C  40.96900 10.37500 33.87200
C  39.59100 9.73800 33.76800
C  39.54000 9.34900 32.29100
C  39.51800 8.44400 34.71000
C  41.00700 11.82900 34.51000
C  40.38800 11.89400 35.90900
H  41.20100 12.72900 36.87000
N  39.01700 8.63000 29.12000
C  38.28700 8.23400 30.29400
C  37.29900 7.22000 29.90100
C  37.39500 7.06100 28.50800
C  38.52100 7.95500 28.06300
C  36.37400 6.63500 30.86000
C  36.57300 6.27400 27.48900
O  36.60500 6.42100 26.28200
C  35.47200 5.35900 28.04900
N  41.20100 9.13000 27.25800
C  40.28800 8.63200 26.37100
C  40.80800 8.82100 24.95400
C  42.13300 9.54600 25.05500
C  42.24700 9.77100 26.54100
C  40.62200 7.65300 23.95300
C  42.31700 10.84100 24.18600
C  41.74400 12.09200 24.66600
N  42.67400 10.33900 29.33200
C  43.63800 10.61800 28.44100
C  44.68900 11.25500 29.05000
C  44.35300 11.46800 30.37300
C  43.13000 10.82400 30.51900
C  45.89900 11.74400 28.43900
C  44.77100 12.01800 31.66000
O  45.79800 12.69900 31.88600
C  43.81100 11.62000 32.71400
C  44.60100 10.67900 33.62200
O  45.17300 9.63300 33.39900
O  44.68100 11.26200 34.83600
C  45.38200 10.60800 35.93600
H  37.75100 8.47500 32.41500
H  38.50300 7.47100 26.03200
H  44.06800 10.80900 26.27300
H  41.66300 9.80800 34.49300
H  38.85500 10.46000 34.12400
H  40.44500 8.31200 35.26800
H  39.29700 7.51400 34.18800
H  38.75500 8.44500 35.48700
H  40.64700 12.59500 33.82300
H  42.07600 12.00400 34.63600
H  40.23500 10.93700 36.40600
H  39.39900 12.33200 35.77500
H  36.39900 5.55200 30.73700
H  35.36400 7.04000 30.92400
H  36.83300 6.71400 31.84500
H  34.81400 6.01200 28.62300
H  35.95800 4.61800 28.68400
H  34.94500 4.88400 27.22200
H  40.09900 9.57100 24.60200
H  42.98200 8.90700 24.81300
H  40.28200 6.75700 24.47300
H  41.56400 7.44100 23.44600
H  39.87900 7.90900 23.19800
H  41.83900 10.70000 23.21600
H  43.36600 10.86100 23.89000
H  41.23100 11.94600 25.61700
H  41.09700 12.62800 23.97200
H  42.58300 12.73000 24.94600
H  45.67500 12.60000 27.80200
H  46.29500 10.98700 27.76300
H  46.65300 12.04600 29.16600
H  43.46300 12.53000 33.20300
H  45.97300 11.40700 36.38400
H  46.11300 9.82900 35.72400
H  44.69400 10.18400 36.66800

