158

Mg 8.68800 4.33500 27.43000
C  10.12500 2.77500 30.28800
C  6.88200 6.33900 29.49600
C  7.32200 5.63700 24.74500
C  10.23900 1.72900 25.47000
N  8.49500 4.50200 29.64100
C  9.22700 3.81600 30.57800
C  8.79900 4.25800 31.94600
C  7.57400 5.14600 31.67600
C  7.63500 5.38800 30.18800
C  6.17700 4.81200 32.26500
C  9.93200 4.90900 32.72600
C  10.24000 4.33400 34.16500
H  10.86700 5.29400 35.18700
N  7.39900 5.84600 27.17400
C  6.69500 6.53000 28.10600
C  5.78300 7.35100 27.38400
C  6.04700 7.32000 26.02500
C  6.98200 6.24300 25.92300
C  4.78700 8.14700 28.13600
C  5.50800 8.13500 24.81300
O  5.93800 8.16600 23.63200
C  4.34400 9.11100 25.12200
N  8.61800 3.61100 25.42400
C  8.08500 4.47900 24.48700
C  8.52800 4.16000 23.08100
C  9.50400 2.86400 23.25500
C  9.40500 2.65800 24.78800
C  7.31800 3.89900 22.15500
C  10.94800 3.05100 22.63900
C  11.12800 2.62200 21.06600
N  9.86500 2.55700 27.71100
C  10.46700 1.62500 26.87100
C  11.29500 0.75900 27.57500
C  11.25200 1.21600 28.92500
C  10.32600 2.26900 28.96600
C  12.22200 -0.36000 26.94500
C  11.79700 1.08100 30.20100
O  12.63700 0.30000 30.64000
C  11.01700 1.98100 31.22100
C  10.31600 1.08500 32.24400
O  9.22500 0.61100 32.12500
O  11.09200 1.03100 33.35100
C  10.44100 0.49900 34.54500
H  6.08500 6.72100 30.13700
H  6.96600 6.08000 23.81300
H  10.81200 1.03600 24.85000
H  8.43500 3.36900 32.46000
H  7.73300 6.12300 32.13000
H  6.12200 4.05800 33.05100
H  5.51500 4.56700 31.43400
H  5.72300 5.65900 32.77800
H  9.75600 5.97600 32.86200
H  10.79200 4.86800 32.05800
H  10.91700 3.48600 34.06900
H  9.25900 4.05400 34.54900
H  4.77700 9.15300 27.71700
H  5.02000 8.13200 29.20100
H  3.83900 7.64800 27.93200
H  3.52700 8.55800 25.58500
H  3.96500 9.61200 24.23100
H  4.62000 9.95700 25.75200
H  9.19100 4.91300 22.65200
H  9.06400 1.94500 22.86800
H  6.39500 4.18900 22.65700
H  7.38100 2.83400 21.93300
H  7.41100 4.53600 21.27500
H  11.61800 2.42300 23.22600
H  11.23500 4.09600 22.75200
H  10.27600 2.04500 20.70600
H  11.90200 1.86400 20.94300
H  11.17200 3.50100 20.42200
H  11.65800 -1.28600 26.83400
H  13.18400 -0.56200 27.41700
H  12.51000 -0.09500 25.92700
H  11.75800 2.54000 31.79300
H  10.19000 1.37800 35.14000
H  11.14000 -0.17000 35.04900
H  9.47200 0.01200 34.44200
Mg 49.01100 44.60200 43.15700
C  45.67100 45.41300 42.06900
C  48.60400 41.62200 41.35900
C  52.34400 44.27200 43.10300
C  49.26500 47.82100 44.37400
N  47.43200 43.75000 41.75300
C  46.13300 44.27200 41.50900
C  45.31500 43.31000 40.66400
C  46.05300 42.03100 40.78900
C  47.49000 42.45100 41.27500
C  45.33900 41.00400 41.70700
C  45.25000 43.87800 39.20700
C  43.98200 43.67300 38.41400
H  44.03900 42.79000 37.15700
N  50.30500 43.14100 42.41900
C  49.91600 41.96000 41.80000
C  51.12100 41.23600 41.47200
C  52.21500 41.89700 42.10300
C  51.61600 43.17800 42.53800
C  51.04800 39.88700 40.67400
C  53.60300 41.42900 42.15500
O  53.89200 40.35600 41.64000
C  54.64800 42.12400 42.87800
N  50.57900 45.90700 43.58600
C  51.90000 45.45900 43.54300
C  52.89700 46.52300 44.09600
C  51.87400 47.59200 44.69600
C  50.45100 47.10500 44.21400
C  53.99600 46.12000 45.09100
C  52.24800 49.16700 44.48300
C  52.61500 50.02500 45.65300
N  47.67900 46.22900 43.43000
C  47.95000 47.46800 43.95800
C  46.66500 48.23000 44.02100
C  45.82400 47.46000 43.29900
C  46.46000 46.24500 42.90300
C  46.43500 49.57800 44.66300
C  44.50100 47.45100 42.72500
O  43.58700 48.28700 42.62400
C  44.39300 46.08200 41.90200
C  43.15500 45.28600 42.34900
O  42.24100 44.87900 41.63400
O  43.18200 45.08900 43.68300
C  42.04100 44.45100 44.33900
H  48.43600 40.60900 40.98600
H  53.43200 44.31600 43.02100
H  49.35300 48.78600 44.87700
H  44.31300 43.24700 41.09000
H  46.22000 41.56600 39.81700
H  44.51800 41.49900 42.22600
H  45.96400 40.55700 42.47900
H  44.91200 40.16000 41.16400
H  46.01800 43.38500 38.61100
H  45.46600 44.94600 39.17500
H  43.58900 44.62500 38.05500
H  43.23400 43.22900 39.07100
H  51.82000 39.84300 39.90500
H  50.04900 39.66900 40.29600
H  51.14900 39.07700 41.39500
H  54.88300 42.94300 42.20000
H  55.42300 41.43200 43.20900
H  54.30800 42.64800 43.77100
H  53.29100 47.05400 43.22900
H  51.73900 47.41800 45.76300
H  53.97100 46.74300 45.98500
H  54.93800 46.27300 44.56600
H  53.95400 45.05700 45.32900
H  51.33200 49.69200 44.21300
H  52.93000 49.32300 43.64700
H  51.92900 50.84400 45.86700
H  53.61900 50.38100 45.42000
H  52.62000 49.42600 46.56400
H  47.32600 50.17000 44.87500
H  46.11700 49.48400 45.70100
H  45.67500 50.15000 44.13100
H  44.18900 46.23500 40.84200
H  41.73100 44.98400 45.23800
H  42.19000 43.40400 44.60400
H  41.14100 44.56700 43.73500

