158

Mg 1.04600 43.68200 25.18900
C  2.39200 43.46100 28.40800
C  -2.09000 42.56300 26.50700
C  -0.24000 42.95200 22.08500
C  4.08300 44.34600 23.81600
N  0.27800 43.13500 27.18300
C  0.95000 43.30500 28.39300
C  0.08600 43.07700 29.59700
C  -1.32600 42.62200 28.96700
C  -1.05300 42.78700 27.47100
C  -1.77900 41.18200 29.40000
C  -0.04500 44.50700 30.26300
C  -0.13500 44.44200 31.80500
H  -0.47900 43.19200 32.62400
N  -0.92900 43.00100 24.42300
C  -2.02300 42.71900 25.14800
C  -3.14500 42.50800 24.22500
C  -2.60200 42.49200 22.91700
C  -1.23400 42.80000 23.07700
C  -4.47700 42.21000 24.80000
C  -3.20300 42.20800 21.58000
O  -2.59300 42.27400 20.54300
C  -4.73600 41.88900 21.46500
N  1.86100 43.34000 23.17100
C  1.13000 43.26600 22.06800
C  1.89900 43.60900 20.85000
C  3.11300 44.43600 21.42500
C  3.03400 44.02700 22.91800
C  2.33200 42.43500 19.94400
C  2.87000 45.99300 21.22900
C  4.02000 46.66100 20.63400
N  2.95300 43.85000 25.96000
C  4.10800 44.14400 25.27700
C  5.14700 44.32000 26.25900
C  4.52300 43.94600 27.46500
C  3.17700 43.71400 27.28000
C  6.53800 44.77700 25.95300
C  4.66400 43.93400 28.93200
O  5.61000 44.23900 29.59300
C  3.32300 43.59900 29.59200
C  3.54500 42.46700 30.57200
O  3.25000 41.31100 30.35900
O  4.07000 42.95300 31.73900
C  4.04600 42.02900 32.90100
H  -3.06800 42.43500 26.97700
H  -0.57600 42.89200 21.04700
H  4.95400 44.84000 23.38000
H  0.60100 42.33800 30.21100
H  -2.03700 43.41400 29.20300
H  -2.76000 41.30500 29.85900
H  -1.08900 40.78000 30.14200
H  -1.90000 40.52100 28.54200
H  -0.91300 45.06600 29.91300
H  0.74200 45.21000 29.99200
H  -0.83700 45.14000 32.26100
H  0.83700 44.73900 32.19800
H  -5.07200 42.09200 23.89500
H  -4.72000 42.86400 25.63800
H  -4.54300 41.20900 25.22600
H  -5.38300 42.74300 21.66900
H  -4.95500 40.94600 21.96700
H  -4.84600 41.84000 20.38200
H  1.28300 44.17000 20.14700
H  4.04300 44.05200 21.00600
H  1.70800 42.40500 19.05100
H  2.22600 41.53500 20.55000
H  3.32100 42.55900 19.50100
H  2.51800 46.48100 22.13800
H  2.08500 46.10800 20.48100
H  3.74800 46.96700 19.62400
H  4.99300 46.17000 20.64600
H  4.12800 47.60400 21.17000
H  7.28200 44.09500 26.36400
H  6.64400 45.78900 26.34400
H  6.69100 44.69200 24.87800
H  3.03200 44.43700 30.22400
H  4.05800 42.76300 33.70700
H  4.88300 41.33200 32.86200
H  3.10600 41.50000 33.05600
Mg -4.90700 25.67600 26.06800
C  -3.86200 27.08300 29.16500
C  -6.52800 23.20600 27.97100
C  -5.52800 24.09200 23.15300
C  -2.90900 27.92200 24.43400
N  -5.11900 25.12100 28.29900
C  -4.62100 25.87300 29.40900
C  -5.10800 25.26900 30.70100
C  -5.75700 23.93000 30.29700
C  -5.74400 24.03100 28.75800
C  -5.09500 22.60500 30.92400
C  -5.91700 26.27800 31.45700
C  -5.66800 26.49000 32.93100
H  -5.29000 25.34900 33.92800
N  -6.03400 24.02800 25.61000
C  -6.73900 23.19900 26.52000
C  -7.47600 22.19300 25.73500
C  -7.23800 22.47400 24.32500
C  -6.25800 23.56000 24.27100
C  -8.35100 21.14900 26.48500
C  -7.81400 21.80600 23.10300
O  -7.63400 22.24100 21.94700
C  -8.81500 20.84600 23.42000
N  -4.23000 25.90200 24.14800
C  -4.66000 25.16900 23.09800
C  -4.04000 25.59500 21.74500
C  -3.33400 26.92400 22.15900
C  -3.53000 26.94400 23.66300
C  -3.12400 24.58100 21.07600
C  -4.00300 28.20500 21.56100
C  -3.30100 28.72500 20.37200
N  -3.61300 27.17400 26.70000
C  -2.89800 27.99500 25.85000
C  -2.29900 29.03500 26.63000
C  -2.68600 28.72500 27.99900
C  -3.47000 27.58800 27.95800
C  -1.48500 30.20300 26.19300
C  -2.40600 29.04100 29.38900
O  -1.69100 29.88500 29.89900
C  -3.18500 27.96800 30.22000
C  -2.27300 27.23500 31.10000
O  -1.64900 26.26600 30.75300
O  -2.05400 27.92600 32.30500
C  -1.35900 27.15700 33.36100
H  -7.04800 22.48600 28.60700
H  -5.71200 23.55100 22.22300
H  -2.52600 28.76500 23.85500
H  -4.22200 25.13300 31.32100
H  -6.80900 23.93200 30.58400
H  -4.59500 22.83800 31.86500
H  -4.28400 22.24100 30.29300
H  -5.85800 21.82900 30.97200
H  -6.96300 25.99000 31.35500
H  -5.87800 27.26500 30.99700
H  -6.61600 26.88200 33.29700
H  -4.89000 27.25400 32.91000
H  -9.39900 21.34300 26.71300
H  -7.96800 20.93800 27.48400
H  -8.34100 20.24000 25.88400
H  -9.34400 21.33400 24.23800
H  -8.31100 19.92400 23.71100
H  -9.46000 20.68100 22.55600
H  -4.87700 25.88600 21.11000
H  -2.27900 26.89000 21.89000
H  -2.07400 24.78300 21.28800
H  -3.31200 24.51500 20.00400
H  -3.38400 23.58500 21.43400
H  -3.93800 29.03400 22.26500
H  -5.06900 28.12300 21.35100
H  -2.70900 27.93800 19.90500
H  -2.59400 29.46300 20.75100
H  -3.96500 29.07400 19.58100
H  -0.40500 30.05500 26.19300
H  -1.69100 30.94200 26.96800
H  -1.83300 30.63200 25.25300
H  -4.01800 28.48600 30.69500
H  -0.27900 27.22000 33.23200
H  -1.69500 26.12000 33.33900
H  -1.62700 27.54600 34.34300

