158

Mg 49.49500 46.65700 43.85800
C  46.34700 46.93100 42.50300
C  49.96200 43.67500 42.29400
C  52.95100 46.93000 44.46800
C  49.32700 50.02200 44.82100
N  48.22400 45.44400 42.45200
C  46.96400 45.68200 42.07000
C  46.41700 44.59500 41.11300
C  47.59600 43.48800 41.18000
C  48.68400 44.20800 42.03000
C  47.18000 42.10700 41.74100
C  46.02500 45.21400 39.70200
C  44.68200 44.83500 39.14000
H  44.58100 43.78300 38.06300
N  51.15800 45.46300 43.49500
C  51.14500 44.24200 42.93000
C  52.45900 43.62100 42.90100
C  53.29500 44.49800 43.65000
C  52.49500 45.71100 43.91100
C  52.73400 42.24200 42.42300
C  54.71500 44.20000 43.99800
O  55.23100 43.14100 43.68700
C  55.49300 45.10600 44.85900
N  50.97200 48.33500 44.51700
C  52.30200 48.15500 44.70000
C  52.93500 49.45600 45.34700
C  51.75400 50.42100 45.43100
C  50.61700 49.54100 45.01300
C  53.87600 49.21700 46.56700
C  51.75000 51.89700 44.70900
C  51.79100 53.11400 45.70500
N  48.07800 48.11900 43.91700
C  48.14700 49.43900 44.31300
C  46.84900 50.05200 44.12000
C  46.07500 49.06700 43.49900
C  46.90600 47.96300 43.31800
C  46.43700 51.40100 44.45100
C  44.86400 48.79100 42.79700
O  43.85000 49.37200 42.61500
C  44.97000 47.35300 42.22400
C  44.03700 46.52800 43.01600
O  43.94800 46.57600 44.23500
O  43.23300 45.91000 42.12500
C  42.01100 45.29100 42.65300
H  50.00600 42.76200 41.69700
H  54.04100 46.97500 44.52200
H  49.18300 51.07400 45.08000
H  45.53600 44.10700 41.53100
H  48.05200 43.29000 40.21000
H  47.84900 41.95200 42.58700
H  47.37200 41.24100 41.10800
H  46.14500 41.99100 42.06200
H  46.81500 44.82200 39.06200
H  45.95100 46.30000 39.65300
H  44.09000 45.68000 38.78800
H  44.03800 44.54100 39.96900
H  53.22100 42.38400 41.45800
H  51.81800 41.65200 42.42100
H  53.34300 41.77800 43.19800
H  56.32400 44.47000 45.16500
H  54.83600 45.45800 45.65400
H  55.88100 45.99400 44.36200
H  53.52600 50.01300 44.62000
H  51.68400 50.58900 46.50600
H  54.01900 48.15700 46.77300
H  53.47800 49.73800 47.43800
H  54.86100 49.56500 46.25600
H  50.85000 51.95900 44.09600
H  52.58600 51.94700 44.01100
H  52.38300 53.86800 45.18700
H  52.17600 52.92800 46.70800
H  50.74200 53.38200 45.82700
H  46.71900 51.54400 45.49400
H  45.40200 51.53200 44.13400
H  46.99600 52.11800 43.85100
H  44.80000 47.34300 41.14700
H  42.28700 44.23900 42.73600
H  41.18800 45.46000 41.95900
H  41.71900 45.75100 43.59700
Mg -1.87900 34.65100 27.41700
C  -3.81300 33.00100 29.76200
C  -0.51900 36.53900 29.57500
C  -0.50100 36.45400 24.81500
C  -3.48200 32.74300 24.80100
N  -2.14900 34.62600 29.43600
C  -3.02500 34.00900 30.26000
C  -2.89400 34.39100 31.69500
C  -2.00800 35.70700 31.58000
C  -1.52000 35.62700 30.09700
C  -2.76400 37.02100 31.93000
C  -2.31100 33.23500 32.62200
C  -3.03800 32.76000 33.84500
H  -2.27300 32.62900 35.12300
N  -0.61600 36.25800 27.23900
C  -0.05600 36.82500 28.33200
C  0.97300 37.77000 27.92800
C  0.94100 37.81900 26.49700
C  -0.05800 36.77700 26.09500
C  1.82000 38.60900 28.91500
C  1.75900 38.64200 25.54100
O  1.38200 38.87200 24.43700
C  2.85100 39.52400 25.96900
N  -2.05400 34.72900 25.14100
C  -1.42600 35.60200 24.36200
C  -1.88800 35.44800 22.86600
C  -2.57600 33.96600 22.80500
C  -2.70100 33.80400 24.36600
C  -2.78200 36.67700 22.52000
C  -1.95800 32.92200 22.01500
C  -1.00400 33.26900 20.87000
N  -3.26200 33.12100 27.22800
C  -3.73600 32.39200 26.14900
C  -4.69500 31.37600 26.57200
C  -4.69100 31.51700 27.93700
C  -3.84000 32.61000 28.38000
C  -5.62900 30.50000 25.81100
C  -5.40100 31.12400 29.17600
O  -6.29900 30.29000 29.32400
C  -4.69600 32.02300 30.41500
C  -5.75300 32.60200 31.30500
O  -6.45700 33.59400 31.07600
O  -5.89400 31.83500 32.50400
C  -6.89400 32.35200 33.48500
H  0.01400 37.00700 30.40400
H  -0.03300 37.06800 24.04300
H  -4.08900 32.30400 24.00700
H  -3.89600 34.54100 32.09900
H  -1.15500 35.71600 32.25800
H  -3.22200 36.95200 32.91700
H  -3.51600 37.19500 31.16000
H  -1.99000 37.78700 31.96600
H  -1.28700 33.51400 32.87000
H  -2.14400 32.29500 32.09500
H  -3.68500 31.89200 33.71500
H  -3.85300 33.47900 33.92600
H  1.59400 38.46700 29.97200
H  1.61800 39.63100 28.59400
H  2.88500 38.44000 28.75900
H  3.36700 39.08000 26.82000
H  2.25700 40.34100 26.37700
H  3.53400 39.83800 25.17900
H  -0.97500 35.50000 22.27300
H  -3.60500 34.06600 22.46100
H  -3.12000 37.25000 23.38300
H  -3.74900 36.39400 22.10200
H  -2.25900 37.39000 21.88300
H  -2.78600 32.38100 21.55700
H  -1.42800 32.19900 22.63300
H  -1.16300 32.58000 20.04000
H  0.03600 33.06800 21.12800
H  -1.10700 34.27000 20.45200
H  -5.64100 29.48700 26.21200
H  -5.31600 30.48500 24.76700
H  -6.63100 30.92900 25.84000
H  -4.09300 31.35000 31.02400
H  -7.39500 31.42500 33.76600
H  -7.61900 33.05100 33.06800
H  -6.36900 32.79600 34.33100

