158

Mg 24.13400 -4.90200 45.97800
C  26.17500 -2.49300 44.39700
C  21.63800 -4.02100 43.85700
C  22.56200 -7.72900 46.92700
C  27.06800 -5.92000 47.74600
N  23.96000 -3.35800 44.42100
C  24.86400 -2.46100 43.91200
C  24.32400 -1.56500 42.81900
C  22.78100 -1.95000 42.88200
C  22.76200 -3.17300 43.78400
C  21.71800 -0.89700 43.30300
C  24.92100 -1.91300 41.38200
C  25.56000 -0.73900 40.53200
H  26.02200 -1.05200 39.07500
N  22.33200 -5.71700 45.45100
C  21.48200 -5.25500 44.52800
C  20.35800 -6.20400 44.47000
C  20.53800 -7.29200 45.41800
C  21.84000 -6.91000 46.01800
C  19.13000 -5.93100 43.55800
C  19.63100 -8.43300 45.76800
O  18.57800 -8.58300 45.15300
C  19.76100 -9.40700 46.94600
N  24.75200 -6.55400 47.18200
C  23.89300 -7.61100 47.39200
C  24.62400 -8.80200 48.06400
C  25.98500 -8.11400 48.42800
C  25.97400 -6.79900 47.69000
C  23.87500 -9.49400 49.20800
C  27.17700 -8.99300 48.21800
C  28.24000 -9.03200 49.31200
N  26.13300 -4.24600 46.26900
C  27.16100 -4.76600 47.04600
C  28.30800 -3.93600 46.85400
C  28.01000 -3.04400 45.82900
C  26.63500 -3.29400 45.50500
C  29.65000 -4.16600 47.53500
C  28.55300 -1.98400 44.95300
O  29.71100 -1.56500 44.90700
C  27.43600 -1.61500 44.00400
C  27.19200 -0.25600 44.17600
O  27.33800 0.57800 43.33000
O  26.80400 -0.03900 45.49700
C  26.41900 1.39100 45.83300
H  20.82500 -3.66700 43.22100
H  22.14500 -8.72500 47.09000
H  27.99000 -6.25500 48.22500
H  24.57700 -0.51500 42.97000
H  22.41600 -2.40600 41.96200
H  21.22700 -1.15100 44.24200
H  20.92700 -0.92700 42.55300
H  22.10200 0.12300 43.31800
H  24.16300 -2.50100 40.86400
H  25.78200 -2.56900 41.50800
H  26.46700 -0.31400 40.96100
H  24.77100 0.01000 40.47300
H  19.38400 -5.79400 42.50700
H  18.63400 -5.11000 44.07500
H  18.45600 -6.78600 43.59900
H  20.54800 -10.13900 46.76400
H  18.79200 -9.86300 47.14800
H  20.02600 -8.72700 47.75500
H  24.91300 -9.47700 47.25800
H  25.92200 -7.90100 49.49500
H  23.35000 -10.41500 48.95300
H  23.25800 -8.68000 49.58800
H  24.60300 -9.79700 49.96100
H  27.64800 -8.65600 47.29400
H  26.88400 -10.02100 48.00500
H  28.71400 -10.01400 49.30100
H  27.68500 -8.78500 50.21700
H  29.12100 -8.39400 49.24400
H  30.15800 -4.97500 47.01000
H  29.40700 -4.48800 48.54800
H  30.29300 -3.28900 47.45900
H  27.84300 -1.83700 43.01700
H  25.34900 1.50600 46.00800
H  26.72300 2.20200 45.17200
H  26.95800 1.49800 46.77500
Mg 0.66100 43.08700 25.80800
C  2.61700 43.22400 28.64100
C  -1.99600 42.00700 27.88700
C  -1.29600 42.45800 23.19700
C  3.47300 43.34600 23.79400
N  0.31300 42.73900 28.05500
C  1.26600 42.89900 28.99500
C  0.69300 42.86000 30.42700
C  -0.80700 42.35600 30.14800
C  -0.90400 42.43500 28.59100
C  -1.08500 40.90200 30.70300
C  0.79300 44.29200 31.05300
C  0.92700 44.42600 32.62200
H  0.45700 43.22300 33.38500
N  -1.43300 42.47700 25.64800
C  -2.30800 42.11900 26.57000
C  -3.62600 41.64000 25.95700
C  -3.41600 41.83900 24.59200
C  -2.01000 42.31500 24.41300
C  -4.89000 41.28100 26.79000
C  -4.30400 41.66600 23.39200
O  -4.04700 41.93000 22.24600
C  -5.67600 41.19400 23.69000
N  1.11000 42.72000 23.77900
C  0.03300 42.77200 22.86200
C  0.60300 42.63900 21.45800
C  2.06600 43.04500 21.64000
C  2.24100 43.17300 23.13000
C  0.36400 41.25400 20.77500
C  2.40200 44.41500 20.97300
C  1.95500 45.70000 21.71000
N  2.62800 43.33300 26.10600
C  3.68100 43.35700 25.19800
C  4.90600 43.54900 25.96200
C  4.54000 43.51100 27.31300
C  3.16300 43.34200 27.35000
C  6.34500 43.61300 25.39800
C  5.07900 43.48100 28.63000
O  6.25000 43.47400 29.02600
C  3.80300 43.49800 29.58300
C  3.98200 42.50000 30.64800
O  3.87800 41.31500 30.53600
O  4.13800 43.06700 31.83600
C  4.30400 42.19400 32.99600
H  -2.76400 41.64500 28.57300
H  -1.85800 42.34500 22.26700
H  4.33000 43.47200 23.12900
H  1.29600 42.22500 31.07600
H  -1.56500 43.02800 30.54900
H  -0.52200 40.63200 31.59600
H  -0.82600 40.21400 29.89900
H  -2.13100 40.87900 31.00700
H  -0.09200 44.88400 30.81900
H  1.67000 44.82400 30.68400
H  0.43500 45.34200 32.95000
H  1.98200 44.61400 32.82300
H  -5.37200 40.47200 26.24100
H  -5.54700 42.12200 27.00900
H  -4.68600 40.95400 27.81000
H  -5.95100 41.70200 24.61400
H  -5.65500 40.11700 23.85800
H  -6.30600 41.54400 22.87200
H  0.10700 43.43200 20.89900
H  2.74100 42.31100 21.20000
H  -0.19900 40.54500 21.38200
H  1.36900 40.84400 20.67000
H  -0.04000 41.35500 19.76700
H  2.13300 44.40700 19.91700
H  3.48500 44.43500 20.84700
H  0.98700 45.59800 22.20000
H  1.97600 46.55000 21.02800
H  2.79000 46.08500 22.29500
H  6.32200 43.57900 24.30800
H  7.04300 42.84300 25.72500
H  6.74700 44.58800 25.67500
H  3.73700 44.43300 30.13900
H  3.77700 42.71800 33.79400
H  5.35600 42.15300 33.27500
H  3.81900 41.21800 32.99200

