158

Mg 30.39300 58.21900 40.10200
C  27.58300 56.21200 39.34300
C  32.37900 55.52100 39.58700
C  33.00700 60.32300 40.11000
C  28.24400 60.88400 40.72100
N  29.98500 56.10200 39.52600
C  28.81100 55.50900 39.23600
C  29.08700 54.05700 38.75900
C  30.49900 53.78000 39.36200
C  30.99100 55.23700 39.55800
C  30.50500 52.96300 40.65400
C  29.05300 53.98600 37.20600
C  27.88700 53.09100 36.72400
H  27.00800 53.67700 35.59000
N  32.45600 57.94300 39.86000
C  33.07400 56.75600 39.65800
C  34.52500 56.99200 39.72700
C  34.70900 58.36400 39.77800
C  33.37300 58.97900 39.95900
C  35.59600 55.93800 39.58100
C  36.04900 58.99800 39.85300
O  37.14200 58.38400 39.74800
C  36.17600 60.46100 40.26200
N  30.58900 60.37900 40.27400
C  31.78400 60.95400 40.29800
C  31.59100 62.47600 40.53700
C  30.09400 62.59200 40.83100
C  29.56400 61.18400 40.61800
C  32.40000 63.17200 41.64400
C  29.26300 63.66500 40.04000
C  28.37400 64.50500 40.88200
N  28.32000 58.52500 40.10700
C  27.63300 59.67100 40.45100
C  26.26300 59.33800 40.37800
C  26.20100 58.03100 39.92600
C  27.47600 57.55500 39.75500
C  25.11500 60.23100 40.85500
C  25.34200 57.01200 39.61600
O  24.12300 57.04800 39.44800
C  26.10200 55.77600 39.24800
C  25.71600 54.73400 40.26800
O  26.29400 54.54600 41.38900
O  24.67600 54.01300 39.83100
C  24.21000 53.00500 40.77300
H  33.05000 54.66000 39.61200
H  33.79200 61.08200 40.12000
H  27.52900 61.69700 40.86100
H  28.41700 53.35600 39.25700
H  31.05600 53.27200 38.57500
H  29.54500 52.49700 40.87600
H  30.74500 53.42000 41.61300
H  31.19300 52.12900 40.51300
H  29.98700 53.59500 36.80200
H  28.84700 54.99300 36.84200
H  27.21600 52.80300 37.53300
H  28.28500 52.11400 36.45200
H  36.02600 56.06000 38.58700
H  35.08400 54.97900 39.66200
H  36.33200 56.04700 40.37700
H  35.80800 61.07700 39.44200
H  37.22800 60.70600 40.41400
H  35.58400 60.70900 41.14300
H  31.84000 63.01400 39.62200
H  30.01600 62.82500 41.89300
H  33.08200 62.46700 42.11900
H  31.80200 63.64200 42.42500
H  32.99800 64.01100 41.28900
H  28.61600 63.15800 39.32500
H  29.88200 64.25600 39.36500
H  27.43700 64.77600 40.39600
H  28.92100 65.41100 41.14300
H  28.08100 63.98500 41.79400
H  24.25100 60.03500 40.22000
H  25.31100 61.30300 40.87300
H  24.80700 59.99100 41.87300
H  25.75600 55.40700 38.28300
H  24.48200 52.01600 40.40600
H  23.15600 53.28100 40.72000
H  24.50900 53.09400 41.81700
Mg 16.89000 52.18200 26.48800
C  18.77600 50.65600 29.17100
C  14.55400 52.97000 28.88500
C  15.14600 53.51900 24.14600
C  19.07500 50.63900 24.26000
N  16.72500 51.88200 28.82200
C  17.66200 51.29300 29.71200
C  17.23400 51.51100 31.17500
C  15.77700 52.08100 30.98000
C  15.65400 52.33400 29.49700
C  14.61600 51.17900 31.58600
C  18.17300 52.52400 31.86700
C  17.84700 52.96600 33.39400
H  16.69200 52.22300 34.11400
N  15.08200 53.10700 26.52500
C  14.26700 53.35700 27.56700
C  13.08900 54.17500 27.15700
C  13.27100 54.29300 25.72200
C  14.55600 53.64400 25.41500
C  12.00700 54.82200 28.10800
C  12.39000 55.09700 24.74100
O  12.66600 55.22100 23.57400
C  11.08000 55.80600 25.16400
N  17.01200 52.04100 24.48100
C  16.21000 52.80400 23.68800
C  16.51900 52.57100 22.17600
C  17.84900 51.82900 22.20600
C  18.04800 51.47100 23.75400
C  15.44700 51.77100 21.39500
C  19.02900 52.64000 21.63100
C  19.55500 53.81700 22.45900
N  18.57000 50.90400 26.65400
C  19.34900 50.30500 25.65200
C  20.39400 49.49100 26.22300
C  20.19300 49.62900 27.58200
C  19.06900 50.44700 27.82200
C  21.39900 48.66200 25.54200
C  20.71400 49.28400 28.84900
O  21.71300 48.68500 29.09900
C  19.81200 49.90900 29.92000
C  19.24600 48.84700 30.87500
O  18.64900 47.79100 30.60800
O  19.77000 49.12300 32.12300
C  19.33700 48.24900 33.25700
H  13.74800 53.23800 29.57100
H  14.68500 54.00500 23.28300
H  19.81700 50.34900 23.51400
H  17.19200 50.49600 31.57200
H  15.70300 53.06300 31.44700
H  15.01100 50.29300 32.08300
H  14.04200 50.80100 30.74000
H  13.98500 51.71800 32.29200
H  18.00200 53.44500 31.30900
H  19.16300 52.08900 31.73100
H  17.60800 54.02300 33.27300
H  18.77100 52.77800 33.93900
H  11.94200 55.89100 27.90400
H  12.17200 54.68100 29.17600
H  11.09700 54.26800 27.88000
H  10.62300 55.22200 25.96200
H  10.49500 55.80500 24.24400
H  11.14100 56.86300 25.42100
H  16.59800 53.57100 21.75000
H  17.76600 50.85400 21.72700
H  14.50000 52.30700 21.46500
H  15.29900 50.79400 21.85500
H  15.76700 51.45200 20.40300
H  18.88600 52.90500 20.58300
H  19.86500 51.94200 21.64800
H  19.68900 54.65900 21.77900
H  20.28300 53.55600 23.22800
H  18.72200 54.11700 23.09400
H  21.57500 49.07300 24.54800
H  20.94400 47.67500 25.46100
H  22.32500 48.51600 26.09800
H  20.40000 50.64800 30.46400
H  20.27900 48.00300 33.74600
H  18.89800 47.31400 32.91100
H  18.64100 48.67100 33.98300

