158

Mg 25.87600 2.02000 28.81100
C  27.57100 1.79900 31.93500
C  22.94200 2.37200 30.66100
C  24.22500 1.88200 26.00700
C  28.85700 1.02900 27.13700
N  25.30500 2.02600 31.13300
C  26.21800 2.08700 32.12700
C  25.49800 2.37300 33.48900
C  23.97400 2.50300 33.05400
C  24.01700 2.34300 31.55100
C  22.97200 1.57300 33.74900
C  26.04500 3.60600 34.16600
C  25.36000 4.01500 35.51700
H  26.32600 4.12300 36.67700
N  23.82100 2.16400 28.43100
C  22.76300 2.30300 29.28000
C  21.53000 2.43900 28.51900
C  21.95700 2.22600 27.14200
C  23.37500 2.15500 27.15000
C  20.15500 2.62900 29.19500
C  21.03500 2.21700 25.87500
O  21.40300 2.01000 24.72900
C  19.63400 2.43800 26.09500
N  26.49600 1.38800 26.89900
C  25.59100 1.56400 25.90200
C  26.16500 1.29600 24.52000
C  27.68800 1.30500 24.80800
C  27.72800 1.28900 26.37000
C  25.59600 -0.03100 24.01700
C  28.37300 2.58500 24.17700
C  29.74100 2.46400 23.47000
N  27.91300 1.56900 29.36200
C  28.94300 1.10200 28.59000
C  30.14800 0.94900 29.48500
C  29.70700 1.19400 30.79200
C  28.35100 1.57400 30.64300
C  31.50600 0.65600 29.08200
C  30.04000 1.13800 32.19800
O  31.14000 0.82400 32.69200
C  28.81100 1.63100 32.92000
C  28.44500 0.78500 34.10000
O  27.76800 -0.17400 34.03000
O  28.87700 1.31000 35.32400
C  28.41300 0.67800 36.52800
H  22.10300 2.70800 31.27300
H  23.68400 1.90200 25.05800
H  29.84900 0.92300 26.69300
H  25.60200 1.46800 34.08700
H  23.69700 3.54100 33.24000
H  22.12400 2.09800 34.18800
H  23.47300 1.01700 34.54100
H  22.55600 0.82500 33.07500
H  25.99500 4.37900 33.39900
H  27.10300 3.41500 34.34600
H  24.64000 3.25900 35.83000
H  24.83800 4.96700 35.42500
H  20.25000 2.68100 30.27900
H  19.52600 1.74200 29.11500
H  19.61100 3.47900 28.78100
H  19.10300 1.54400 26.42400
H  19.14000 2.90900 25.24500
H  19.65400 3.29300 26.77100
H  25.74900 1.99800 23.79600
H  28.14200 0.39300 24.42100
H  25.05300 0.15400 23.09100
H  24.95200 -0.34800 24.83800
H  26.44200 -0.71500 23.94900
H  28.56600 3.32600 24.95300
H  27.69400 3.13500 23.52500
H  30.20400 1.47800 23.52100
H  30.46000 3.15100 23.91500
H  29.70900 2.78800 22.42900
H  32.18200 1.28100 29.66700
H  31.59700 0.76200 28.00100
H  31.71600 -0.38600 29.32200
H  29.11800 2.59700 33.32200
H  27.98200 1.49700 37.10300
H  29.33700 0.27500 36.94400
H  27.76600 -0.19700 36.46200
Mg 37.12300 49.70700 24.73100
C  37.34000 48.07300 27.84000
C  35.65000 52.35900 26.43400
C  36.83200 51.33900 21.78300
C  38.02700 46.82700 23.08600
N  36.53600 50.05400 26.96700
C  36.87800 49.35300 28.05000
C  36.48000 49.98400 29.38600
C  35.85700 51.36300 28.81400
C  36.00600 51.29700 27.31100
C  34.49100 51.71100 29.34600
C  37.63900 50.10200 30.36000
C  37.59000 49.45000 31.76700
H  36.21900 49.69700 32.34300
N  36.40100 51.63200 24.16300
C  35.80800 52.56100 25.02000
C  35.51100 53.73400 24.20400
C  35.87100 53.45500 22.82900
C  36.46900 52.10500 22.89900
C  34.84000 54.97000 24.85600
C  35.64600 54.35700 21.56600
O  35.85800 53.91600 20.43100
C  35.04000 55.67000 21.80500
N  37.48200 49.16300 22.75000
C  37.29700 50.00600 21.73400
C  37.57800 49.34700 20.36100
C  37.92800 47.88200 20.78200
C  37.87200 48.00000 22.28000
C  36.38000 49.56500 19.30100
C  39.32600 47.40500 20.14100
C  40.58300 47.60500 21.06100
N  37.58300 47.77400 25.27600
C  37.97600 46.71300 24.48500
C  38.19400 45.59000 25.38300
C  37.96000 46.06700 26.66600
C  37.64100 47.39900 26.57500
C  38.62700 44.21800 24.95400
C  38.04800 45.72300 28.01700
O  38.38800 44.65900 28.54700
C  37.60400 47.00200 28.84500
C  36.34400 46.58500 29.55900
O  35.18400 46.52000 29.05700
O  36.75700 46.14100 30.86100
C  35.72200 45.45500 31.65300
H  35.23700 53.19900 26.99600
H  36.88600 51.91600 20.85800
H  38.48600 45.94900 22.62600
H  35.71700 49.34500 29.83000
H  36.47200 52.21700 29.09600
H  34.17300 50.93300 30.04100
H  33.78900 51.70300 28.51200
H  34.51300 52.64700 29.90300
H  37.73100 51.14900 30.64900
H  38.54000 49.66700 29.92600
H  38.44000 49.84200 32.32700
H  37.76000 48.40000 31.52800
H  35.13900 55.92600 24.42600
H  35.00400 54.96200 25.93400
H  33.79300 54.75100 24.64900
H  34.02500 55.55800 22.18600
H  34.93200 56.19000 20.85300
H  35.69300 56.19900 22.50000
H  38.45900 49.81400 19.92000
H  37.11200 47.21400 20.50900
H  35.53900 49.87600 19.92000
H  36.13500 48.62800 18.79900
H  36.58200 50.36800 18.59300
H  39.37400 47.92300 19.18300
H  39.27300 46.33100 19.95900
H  40.57300 48.39900 21.80800
H  41.37000 47.94700 20.38900
H  40.98000 46.66900 21.45300
H  38.12900 43.50000 25.60600
H  39.69700 44.04100 25.06200
H  38.28800 43.81400 24.00000
H  38.43300 47.12500 29.54200
H  35.15700 44.76300 31.02900
H  35.11000 46.18900 32.17800
H  36.24700 44.83000 32.37600

