158

Mg 52.48300 24.32200 45.35500
C  49.62300 26.06100 44.59900
C  50.92600 21.60200 43.82400
C  55.46200 22.78600 45.29600
C  54.02300 27.33300 46.35700
N  50.48000 23.93300 44.40100
C  49.51400 24.81800 44.08800
C  48.58100 24.29500 43.05100
C  48.71600 22.76900 43.29400
C  50.11100 22.69700 43.92900
C  47.62100 22.18100 44.25500
C  49.00300 24.70800 41.56200
C  47.83000 24.98400 40.59100
H  47.78700 24.04400 39.32800
N  53.12500 22.44300 44.70800
C  52.32000 21.43100 44.13500
C  53.10600 20.20600 43.94500
C  54.40300 20.52400 44.31800
C  54.41600 21.99300 44.77700
C  52.60400 18.98600 43.23600
C  55.59300 19.56200 44.18800
O  55.41800 18.39300 43.73500
C  56.93400 19.95400 44.53200
N  54.55900 25.07900 45.52400
C  55.53500 24.18300 45.68900
C  56.81100 24.90000 46.32700
C  56.37400 26.39500 46.29000
C  54.91200 26.29300 46.06500
C  57.28000 24.38800 47.71500
C  56.93600 27.29400 45.18800
C  57.90200 28.50100 45.55900
N  51.96800 26.21800 45.55300
C  52.65300 27.31900 46.04300
C  51.66500 28.36100 46.22600
C  50.47800 27.87700 45.66200
C  50.72300 26.58700 45.29700
C  51.76000 29.68200 46.85500
C  49.10900 28.24700 45.30900
O  48.53500 29.27600 45.55200
C  48.52500 27.11100 44.53400
C  48.21900 27.66100 43.20000
O  48.97500 28.12300 42.39000
O  46.81900 27.73700 43.01800
C  46.24900 28.36800 41.86000
H  50.45500 20.81100 43.23700
H  56.39600 22.22200 45.34700
H  54.37900 28.26600 46.79900
H  47.56800 24.57600 43.33900
H  48.58600 22.31000 42.31400
H  46.86000 21.67900 43.65700
H  47.10400 22.92100 44.86600
H  48.08800 21.47000 44.93700
H  49.48400 23.84600 41.10000
H  49.60600 25.61100 41.46300
H  47.67000 26.01200 40.26800
H  46.89200 24.77800 41.10600
H  51.66600 19.20000 42.72300
H  52.41600 18.19700 43.96400
H  53.31100 18.55500 42.52700
H  57.20500 20.80400 43.90600
H  57.74200 19.22700 44.45100
H  56.90700 20.30100 45.56500
H  57.66600 24.82900 45.65400
H  56.63000 26.83200 47.25600
H  56.87900 23.38700 47.87800
H  56.92500 25.10100 48.46000
H  58.35800 24.25200 47.79700
H  56.11500 27.68800 44.58900
H  57.39100 26.64500 44.44100
H  58.87200 28.23900 45.13800
H  58.04200 28.64800 46.63000
H  57.68000 29.50800 45.20400
H  52.39400 29.55300 47.73200
H  50.76300 29.96200 47.19600
H  52.13100 30.35100 46.07900
H  47.62600 26.70400 44.99700
H  45.25300 28.66200 42.19000
H  46.12400 27.61000 41.08600
H  46.89400 29.18600 41.54000
Mg 8.72700 48.40700 28.02000
C  7.17600 47.58000 30.97900
C  11.61200 48.84700 29.64400
C  10.17900 49.44600 25.17500
C  5.58900 48.60900 26.46800
N  9.25600 48.28500 30.10700
C  8.44000 47.96700 31.19600
C  9.21100 48.30900 32.50000
C  10.43100 49.13700 31.90700
C  10.46600 48.76000 30.42000
C  10.37900 50.67100 32.09800
C  9.51000 47.08100 33.44000
C  9.07500 47.27900 34.91400
H  9.50800 46.29000 35.99800
N  10.67400 48.70000 27.39600
C  11.74300 48.82500 28.23900
C  12.94500 48.79100 27.40200
C  12.56500 48.92000 26.06600
C  11.06100 48.97600 26.14400
C  14.27600 48.68700 28.08300
C  13.36800 49.02000 24.79200
O  12.80300 49.03500 23.74900
C  14.91300 48.97400 24.90900
N  7.99200 48.92000 26.13200
C  8.81200 49.50700 25.15700
C  8.05700 50.08900 24.00400
C  6.60900 49.58500 24.28200
C  6.68900 48.96000 25.72200
C  8.09200 51.66200 24.08600
C  6.13800 48.55300 23.19800
C  5.00200 49.07500 22.29300
N  6.74300 48.18100 28.56300
C  5.60100 48.15200 27.78600
C  4.53000 47.78600 28.64100
C  5.10900 47.48700 29.91100
C  6.45000 47.75200 29.79200
C  3.00200 47.66300 28.27400
C  4.78400 47.10300 31.28600
O  3.64800 46.83800 31.71400
C  6.15100 47.06000 31.97800
C  6.30600 45.74700 32.52600
O  6.93200 44.84100 31.94300
O  5.92100 45.75500 33.84000
C  6.43500 44.59800 34.63300
H  12.46300 49.06400 30.29200
H  10.64500 49.96300 24.33300
H  4.62600 48.59800 25.95200
H  8.56300 48.96200 33.08400
H  11.28300 48.81500 32.50600
H  9.56900 50.95400 32.77000
H  10.18600 51.24200 31.18900
H  11.32800 51.02400 32.50300
H  10.54700 46.76100 33.34200
H  8.88700 46.28300 33.03600
H  7.98600 47.25500 34.96400
H  9.27000 48.28500 35.28500
H  14.17500 48.41400 29.13400
H  14.75100 49.66700 28.11900
H  14.83000 47.85100 27.65800
H  15.23400 49.88000 25.42400
H  15.31100 48.83100 23.90500
H  15.33000 48.12800 25.45500
H  8.53700 49.82700 23.06200
H  5.91700 50.41600 24.41900
H  7.20900 52.18600 23.72100
H  8.87500 52.08200 23.45500
H  8.29800 51.88600 25.13300
H  6.00200 47.57100 23.65300
H  6.95300 48.33200 22.50800
H  5.07800 49.11000 21.20600
H  4.69900 50.07400 22.60800
H  4.17200 48.36900 22.30500
H  2.33700 47.64800 29.13800
H  2.89800 46.67900 27.81600
H  2.74900 48.39000 27.50200
H  6.02800 47.81100 32.75800
H  7.25300 44.85100 35.30700
H  6.64500 43.65600 34.12700
H  5.56100 44.40500 35.25600

