158

Mg 47.57400 25.13500 28.14600
C  48.62700 27.38100 30.69200
C  47.12400 22.74900 30.51700
C  46.96800 22.96300 25.63900
C  48.60700 27.49900 25.76300
N  47.92900 25.08500 30.32700
C  48.20800 26.10800 31.14100
C  47.81300 25.79400 32.56600
C  47.42300 24.25800 32.53800
C  47.46700 23.99600 31.03200
C  48.41600 23.23500 33.24200
C  46.84800 26.85700 33.32100
C  46.29300 26.39300 34.64600
H  46.12100 27.34000 35.78700
N  47.04900 23.18400 28.09900
C  46.90300 22.39500 29.19400
C  46.42500 21.15400 28.77600
C  46.37900 21.14100 27.31000
C  46.82300 22.48100 26.94400
C  45.98900 19.98900 29.73600
C  45.89300 20.04800 26.36700
O  45.97100 20.26400 25.14000
C  45.46800 18.70200 26.81400
N  47.76100 25.20200 26.03600
C  47.48700 24.17200 25.23600
C  47.68300 24.48500 23.78300
C  47.92400 25.99400 23.83000
C  48.13400 26.23700 25.32700
C  48.81900 23.71500 23.06300
C  46.69800 26.81900 23.37200
C  46.88600 28.08800 22.44600
N  48.57300 26.97000 28.17100
C  48.89200 27.79600 27.09000
C  49.45200 29.04700 27.60000
C  49.29000 28.92100 29.01900
C  48.78300 27.63700 29.31700
C  50.09500 30.21200 26.89800
C  49.35100 29.63700 30.25900
O  49.72800 30.77400 30.52400
C  48.85800 28.65800 31.40500
C  49.94000 28.74900 32.43900
O  51.17000 28.51800 32.30400
O  49.37100 29.19400 33.57000
C  50.10600 29.19500 34.86600
H  46.86300 22.14300 31.38700
H  47.02900 22.29300 24.77900
H  48.99900 28.05000 24.90600
H  48.77900 25.81100 33.07200
H  46.46500 24.27000 33.05800
H  49.03000 22.65900 32.54900
H  47.69700 22.73800 33.89300
H  49.10100 23.77400 33.89700
H  46.13000 27.20400 32.57800
H  47.45400 27.70900 33.62700
H  47.00100 25.63700 34.98400
H  45.36500 25.83400 34.52100
H  45.13900 19.48700 29.27400
H  45.69200 20.53200 30.63300
H  46.83800 19.32900 29.90800
H  44.55000 18.87700 27.37400
H  46.32500 18.42900 27.43100
H  45.39300 18.09100 25.91500
H  46.80900 24.31200 23.15500
H  48.85000 26.27800 23.32900
H  48.43300 23.53000 22.06100
H  49.12700 22.85000 23.65100
H  49.76800 24.24400 22.97900
H  46.09200 27.14200 24.21800
H  46.05600 26.13900 22.81300
H  46.55600 27.85600 21.43300
H  47.89800 28.48000 22.34800
H  46.33100 28.94100 22.83500
H  50.59300 29.83300 26.00600
H  50.86200 30.64000 27.54300
H  49.38300 30.99300 26.63600
H  47.92300 28.96900 31.87100
H  49.66700 28.45200 35.53300
H  50.00300 30.18100 35.31900
H  51.15400 28.95000 34.69200
Mg 26.36100 50.28400 26.02800
C  24.81300 51.34500 28.97200
C  29.03600 49.23000 27.92700
C  27.93800 49.48200 23.21100
C  23.74400 51.62500 24.24400
N  26.86600 50.29600 28.28900
C  26.02700 50.70200 29.27100
C  26.62100 50.30200 30.64600
C  28.09100 49.88400 30.31600
C  28.03600 49.73300 28.77800
C  29.12800 51.02300 30.69600
C  25.78400 49.22200 31.43200
C  25.05400 49.63200 32.72900
H  25.88400 50.14900 33.92500
N  28.22500 49.50400 25.62100
C  29.17200 49.09900 26.56800
C  30.21200 48.25200 25.95300
C  29.87200 48.26200 24.54600
C  28.69600 49.18500 24.39600
C  31.31400 47.44700 26.65400
C  30.46000 47.45700 23.39600
O  29.96400 47.46400 22.29500
C  31.64800 46.55600 23.67500
N  25.87600 50.63700 24.04000
C  26.69400 50.09100 23.03800
C  26.07700 50.32300 21.69600
C  24.67600 50.92700 22.06700
C  24.76000 51.16100 23.53000
C  26.95200 51.10000 20.70900
C  23.45600 49.96600 21.65800
C  22.33300 50.65100 20.86800
N  24.59100 51.25100 26.39200
C  23.60600 51.67000 25.62900
C  22.58000 52.25800 26.41300
C  23.00500 52.13500 27.75800
C  24.21800 51.47400 27.66800
C  21.25600 52.91200 26.02100
C  22.66000 52.40700 29.12500
O  21.66400 52.94800 29.62200
C  23.77900 51.79200 30.00600
C  24.28400 52.87200 30.94500
O  25.38100 53.37300 30.82600
O  23.38400 53.02800 31.92500
C  24.01300 53.54500 33.15800
H  29.95600 48.94300 28.44200
H  28.51200 49.14600 22.34400
H  22.94500 52.03200 23.62100
H  26.65900 51.20200 31.25900
H  28.31000 48.89900 30.72700
H  28.68600 51.77700 31.34700
H  29.52800 51.53800 29.82200
H  29.97900 50.47300 31.09600
H  26.38300 48.34000 31.65600
H  25.01200 48.85900 30.75400
H  24.50700 48.74700 33.05400
H  24.44900 50.52600 32.58100
H  31.12300 46.38200 26.52600
H  31.34200 47.71000 27.71200
H  32.26200 47.78000 26.23100
H  31.48600 45.77600 24.41900
H  32.45500 47.21700 23.99300
H  32.02900 46.18700 22.72300
H  26.05400 49.30100 21.32000
H  24.40800 51.92300 21.71300
H  27.69300 51.63700 21.30000
H  26.48500 51.88800 20.11800
H  27.39500 50.36900 20.03200
H  22.95300 49.49200 22.50100
H  23.80900 49.11900 21.07100
H  21.44200 50.67000 21.49700
H  22.02500 50.16100 19.94400
H  22.47200 51.69700 20.59600
H  20.91500 52.63500 25.02400
H  21.35600 53.98800 26.16600
H  20.55300 52.51000 26.75000
H  23.19000 51.02000 30.50100
H  24.00200 54.63100 33.07500
H  24.99000 53.10800 33.37000
H  23.39300 53.23100 33.99800

