158

Mg 34.35500 2.84000 30.08700
C  31.99600 3.89800 32.51600
C  36.88700 3.09500 32.53300
C  36.73900 2.55100 27.55900
C  31.87800 2.92800 27.65700
N  34.34900 3.43400 32.22600
C  33.28300 3.71300 33.08800
C  33.72100 3.69900 34.57500
C  35.25700 3.85900 34.42200
C  35.51500 3.42800 32.97000
C  35.93000 5.24200 34.74700
C  33.06600 2.48000 35.38900
C  32.63800 2.56600 36.88600
H  33.22900 3.67000 37.78200
N  36.41900 2.72500 30.06500
C  37.21200 2.70200 31.20500
C  38.59200 2.38400 30.77400
C  38.61200 2.30200 29.34000
C  37.19700 2.56900 28.91200
C  39.79500 2.24800 31.66700
C  39.72800 1.95300 28.38800
O  39.54300 1.73200 27.17700
C  41.11300 1.60600 28.90900
N  34.28500 2.56700 27.99200
C  35.41200 2.56300 27.15600
C  34.99100 2.54600 25.65200
C  33.39900 2.45100 25.72500
C  33.14300 2.68100 27.23500
C  35.48900 3.78800 24.83000
C  32.78700 1.16800 25.11900
C  32.15700 0.09500 26.06500
N  32.35700 3.32800 30.00700
C  31.45500 3.30500 28.93000
C  30.12600 3.67600 29.45600
C  30.30700 3.88200 30.81100
C  31.64200 3.61500 31.14400
C  28.87200 3.70300 28.64800
C  29.61900 4.22900 32.10600
O  28.45500 4.46500 32.39200
C  30.76000 4.27600 33.26400
C  30.89100 5.62500 33.80700
O  31.23100 6.61200 33.17200
O  30.66100 5.61600 35.18400
C  30.86200 6.89800 35.93300
H  37.73000 3.16700 33.22200
H  37.45400 2.56400 26.73400
H  31.09600 2.80600 26.90500
H  33.29800 4.64300 34.91500
H  35.76500 3.16300 35.08900
H  36.62000 5.17900 35.58800
H  35.13300 5.96100 34.94000
H  36.51700 5.63900 33.91800
H  33.73300 1.64500 35.17200
H  32.16000 2.21700 34.84300
H  32.94900 1.62900 37.34800
H  31.55800 2.64900 37.00800
H  40.74300 2.66600 31.33000
H  39.96800 1.20100 31.91600
H  39.68500 2.83900 32.57700
H  41.68900 2.49400 29.17000
H  41.63400 1.17100 28.05700
H  41.01000 0.81100 29.64700
H  35.51400 1.78900 25.06800
H  32.85900 3.20400 25.15100
H  34.70700 4.47900 24.51600
H  36.11100 3.45400 23.99900
H  36.19500 4.32000 25.46800
H  33.63600 0.64600 24.67700
H  32.11100 1.47100 24.31900
H  32.34300 0.24700 27.12800
H  32.47100 -0.89100 25.72100
H  31.08900 0.25000 25.91700
H  29.04400 3.41400 27.61200
H  28.39700 4.67300 28.79000
H  28.20300 3.06000 29.22000
H  30.51500 3.55000 34.03900
H  30.27600 7.76000 35.61500
H  31.92100 7.15400 35.95800
H  30.52700 6.56000 36.91400
Mg 27.35100 51.29300 26.15200
C  25.52200 52.43400 28.94600
C  29.79300 50.28200 28.37000
C  29.30700 50.68900 23.53200
C  25.02300 52.83900 24.04700
N  27.60900 51.33500 28.43600
C  26.75800 51.83900 29.34100
C  27.23400 51.51600 30.73800
C  28.71800 51.18200 30.51900
C  28.75800 50.91600 29.03900
C  29.76800 52.12000 31.09700
C  26.43000 50.31300 31.41900
C  25.66000 50.76400 32.70000
H  25.55900 49.67000 33.71200
N  29.23700 50.41300 25.99200
C  29.99900 50.06200 26.98000
C  31.20100 49.39600 26.44900
C  31.04600 49.47900 25.04400
C  29.82500 50.26800 24.79300
C  32.44100 48.87000 27.26100
C  31.78200 48.86300 23.86100
O  31.40600 48.79800 22.68200
C  33.17000 48.26600 24.11800
N  27.28500 51.84200 24.02700
C  28.19000 51.40000 23.14400
C  27.71800 51.67700 21.71800
C  26.21900 52.19100 21.96500
C  26.17700 52.33200 23.43000
C  28.59600 52.69600 20.91000
C  25.12900 51.17100 21.46300
C  23.95600 51.68300 20.74300
N  25.58800 52.33800 26.36900
C  24.75600 52.96500 25.39800
C  23.63100 53.48900 26.08400
C  23.95000 53.35700 27.42800
C  25.13400 52.58200 27.55500
C  22.46800 54.19400 25.47900
C  23.46200 53.71300 28.74400
O  22.44600 54.30000 29.11300
C  24.38800 52.99200 29.77500
C  24.87000 54.03900 30.74900
O  25.44100 55.09900 30.42000
O  24.52500 53.57600 31.99500
C  24.89100 54.47000 33.09300
H  30.72500 49.97700 28.85200
H  29.91800 50.41000 22.67100
H  24.16500 53.08300 23.41600
H  27.07400 52.45500 31.26800
H  28.96900 50.20900 30.94200
H  30.40700 51.55400 31.77500
H  29.49400 53.03200 31.62900
H  30.45400 52.35400 30.28300
H  27.04100 49.43600 31.63100
H  25.62400 50.05800 30.73100
H  24.65700 51.14900 32.51700
H  26.17800 51.63400 33.10500
H  33.36200 48.94200 26.68300
H  32.31700 47.84600 27.61500
H  32.59800 49.41400 28.19200
H  33.10000 47.44600 24.83300
H  33.75000 49.02000 24.65100
H  33.77400 47.90700 23.28600
H  27.76800 50.76200 21.12900
H  26.10300 53.20200 21.57500
H  29.63900 52.77200 21.21700
H  28.19400 53.70100 20.78500
H  28.60000 52.29800 19.89600
H  24.89400 50.58200 22.35000
H  25.60600 50.53300 20.71900
H  23.00700 51.29200 21.11100
H  24.06900 51.30400 19.72700
H  24.05200 52.76800 20.70400
H  22.75700 54.59900 24.50900
H  22.22300 55.11200 26.01400
H  21.55200 53.62500 25.32100
H  23.80400 52.24600 30.31400
H  25.70100 53.97100 33.62400
H  24.08400 54.58400 33.81700
H  25.00400 55.49500 32.74000

