158

Mg 1.74400 -3.42000 44.39700
C  5.17500 -2.78500 44.13200
C  0.97700 -0.90100 42.27800
C  -1.42200 -4.67300 44.10900
C  2.74300 -6.41600 46.15700
N  2.98800 -2.08200 43.28700
C  4.36000 -1.91100 43.38700
C  4.76700 -0.70200 42.39900
C  3.38100 0.00900 42.24400
C  2.34900 -1.05900 42.58200
C  3.28900 1.40300 43.05200
C  5.46900 -1.32300 41.07000
C  7.03500 -1.08000 40.97300
H  7.53100 -0.58800 39.59900
N  -0.04000 -2.78400 43.48200
C  -0.15700 -1.71200 42.61900
C  -1.54700 -1.53200 42.14200
C  -2.30400 -2.54700 42.73600
C  -1.24600 -3.40300 43.51300
C  -1.93900 -0.47000 41.19900
C  -3.76200 -2.81500 42.52500
O  -4.40700 -2.05700 41.84800
C  -4.49000 -3.87800 43.17700
N  0.82600 -5.31700 44.94500
C  -0.54900 -5.41900 44.89800
C  -1.06100 -6.55200 45.74600
C  0.26300 -7.19600 46.37400
C  1.36200 -6.24000 45.81100
C  -2.14800 -6.32700 46.88200
C  0.58700 -8.67200 45.85900
C  0.99400 -9.69500 46.94100
N  3.62100 -4.49000 45.04500
C  3.82600 -5.57800 45.75900
C  5.22000 -5.78400 45.90200
C  5.79000 -4.60700 45.35400
C  4.75000 -3.89800 44.80200
C  5.87700 -6.94400 46.67300
C  7.03200 -3.96400 45.21000
O  8.16700 -4.15000 45.59800
C  6.71200 -2.71400 44.25500
C  7.12200 -1.51200 44.90300
O  8.19200 -0.92800 44.59800
O  6.24900 -0.95800 45.84900
C  6.77100 0.27200 46.46000
H  0.63400 0.02400 41.81100
H  -2.44000 -5.06900 44.10500
H  3.02600 -7.29900 46.73500
H  5.45400 0.05000 42.78600
H  3.32000 0.27500 41.18900
H  3.44900 2.19000 42.31500
H  4.05200 1.51300 43.82200
H  2.35600 1.36200 43.61300
H  4.92600 -0.98300 40.18700
H  5.21500 -2.38000 41.15500
H  7.52400 -2.04400 41.11400
H  7.46400 -0.44500 41.74800
H  -1.67200 -0.66900 40.16100
H  -1.46000 0.43300 41.57600
H  -2.97700 -0.14900 41.27900
H  -4.36600 -3.80400 44.25700
H  -4.09900 -4.82900 42.81300
H  -5.55600 -3.80900 42.96100
H  -1.53700 -7.20600 45.01500
H  0.28600 -7.13200 47.46100
H  -1.85200 -5.48900 47.51200
H  -2.50200 -7.11900 47.54100
H  -2.99500 -6.06800 46.24500
H  1.27900 -8.69700 45.01800
H  -0.36500 -8.96000 45.41400
H  0.71300 -9.33300 47.93000
H  2.05400 -9.93200 46.85700
H  0.58500 -10.69400 46.78700
H  6.91500 -6.90600 46.34400
H  5.37900 -7.87700 46.40900
H  5.71000 -6.58400 47.68800
H  7.17200 -2.71500 43.26700
H  6.20400 0.75000 47.25900
H  6.82700 1.08300 45.73300
H  7.81400 0.20000 46.76900
Mg -0.24600 7.01000 25.05500
C  0.71800 8.97900 27.89200
C  0.06300 4.23700 27.09000
C  -1.23400 5.12300 22.45500
C  0.34600 9.69400 23.03500
N  0.42000 6.68300 27.25800
C  0.63100 7.65300 28.25600
C  0.74300 7.06200 29.68100
C  0.55100 5.56300 29.31400
C  0.30600 5.47900 27.78300
C  1.69300 4.56400 29.80000
C  -0.34000 7.66300 30.61800
C  0.06600 7.92400 32.07100
H  1.11800 6.97800 32.72000
N  -0.52400 4.92700 24.79200
C  -0.29900 3.96000 25.72700
C  -0.66900 2.62300 25.16200
C  -1.03700 2.90400 23.79100
C  -0.96200 4.34600 23.62500
C  -0.47600 1.32400 25.98100
C  -1.42300 1.93400 22.68700
O  -1.79700 2.24500 21.57500
C  -1.29200 0.45600 23.09000
N  -0.49600 7.38500 23.12700
C  -0.99200 6.46500 22.23900
C  -1.20400 7.11300 20.79900
C  -0.96300 8.56100 21.20100
C  -0.22600 8.51800 22.51500
C  -0.14600 6.50900 19.84200
C  -2.31200 9.37200 21.32700
C  -2.44000 10.73100 20.57300
N  0.31700 8.97100 25.33000
C  0.56400 9.96100 24.41300
C  0.92200 11.20400 25.10000
C  0.90600 10.90100 26.52800
C  0.61700 9.50700 26.59800
C  1.13800 12.52700 24.48400
C  1.08500 11.49200 27.85600
O  1.41700 12.63100 28.16400
C  0.84100 10.26800 28.80600
C  2.02400 10.27600 29.69100
O  3.11700 9.84500 29.33000
O  1.72200 10.63100 30.96200
C  2.88400 10.87400 31.74900
H  0.06000 3.43100 27.82600
H  -1.67100 4.60700 21.59700
H  0.54200 10.52000 22.34900
H  1.78000 7.20800 29.98400
H  -0.28900 5.12300 29.85000
H  2.34000 5.02100 30.54900
H  2.30900 4.21300 28.97300
H  1.13800 3.70300 30.17200
H  -1.19600 6.98800 30.64100
H  -0.61800 8.60600 30.14800
H  -0.83900 7.92000 32.67900
H  0.48200 8.93200 32.06500
H  0.21000 0.60600 25.53100
H  -1.37600 0.71100 25.93600
H  -0.10100 1.46200 26.99500
H  -2.00300 0.24100 23.88700
H  -0.26700 0.34000 23.44400
H  -1.51400 -0.14900 22.21100
H  -2.16700 6.83600 20.37200
H  -0.26000 9.03100 20.51300
H  0.78800 7.07100 19.84900
H  -0.55600 6.43700 18.83500
H  0.23500 5.52700 20.12100
H  -2.56800 9.36700 22.38700
H  -3.04700 8.72700 20.84700
H  -1.47000 11.18100 20.36000
H  -3.14200 11.33400 21.14900
H  -2.78100 10.46500 19.57200
H  1.77700 13.14700 25.11300
H  0.19400 13.07100 24.48000
H  1.64700 12.48800 23.52100
H  -0.04200 10.48300 29.40700
H  2.57200 11.15100 32.75500
H  3.56200 11.59700 31.29500
H  3.39100 9.91900 31.88300

