158

Mg 25.03600 -7.14600 47.82800
C  27.55200 -5.01300 46.72400
C  23.01200 -6.19200 45.29400
C  23.25500 -9.93700 48.37300
C  27.73600 -8.85000 49.63100
N  25.39400 -5.84000 46.10400
C  26.45700 -5.05700 45.90900
C  26.20300 -4.10600 44.68400
C  24.64800 -4.41600 44.37900
C  24.30100 -5.60200 45.27700
C  23.61600 -3.31000 44.56600
C  27.26800 -4.40200 43.63700
C  27.96300 -3.20600 43.06500
H  27.60500 -2.86300 41.64200
N  23.21300 -7.83200 47.08500
C  22.56800 -7.31000 45.97200
C  21.32200 -7.97600 45.87000
C  21.29700 -9.10800 46.77300
C  22.64600 -9.04800 47.44300
C  20.37100 -7.58900 44.81500
C  20.18900 -10.15800 46.85700
O  19.27600 -10.09900 46.04500
C  20.13600 -11.17400 47.97400
N  25.43800 -9.13600 48.83600
C  24.45200 -10.09100 49.02500
C  24.87700 -11.31600 49.83100
C  26.44900 -10.96200 50.03100
C  26.53000 -9.57500 49.48500
C  24.17700 -11.55300 51.18200
C  27.44300 -11.89600 49.28900
C  27.82500 -11.76300 47.75900
N  27.11700 -6.90500 48.31700
C  28.02800 -7.61300 49.06300
C  29.35100 -6.84800 49.12500
C  29.14900 -5.77900 48.32200
C  27.86500 -5.96800 47.72100
C  30.58300 -7.21700 49.94800
C  29.75100 -4.62300 47.85200
O  30.76600 -4.02900 48.06700
C  28.71700 -4.01100 46.75200
C  28.36500 -2.62900 47.09500
O  28.20600 -2.19300 48.20400
O  28.34300 -1.84300 45.98700
C  27.93400 -0.44000 46.36400
H  22.23000 -5.88800 44.59600
H  22.72700 -10.86000 48.62100
H  28.54400 -9.38600 50.13200
H  26.22700 -3.13300 45.17500
H  24.56300 -4.94600 43.43100
H  24.18300 -2.38600 44.67600
H  23.04100 -3.47500 45.47700
H  22.97100 -3.22300 43.69100
H  26.73200 -4.99200 42.89300
H  28.05900 -5.02200 44.05800
H  29.03700 -3.31300 43.21800
H  27.70200 -2.29400 43.60200
H  19.82900 -6.64700 44.90500
H  19.59100 -8.30800 44.56800
H  20.93700 -7.54900 43.88300
H  20.52800 -10.82700 48.93000
H  20.61800 -12.11100 47.69500
H  19.10100 -11.44600 48.18100
H  24.76600 -12.26100 49.29900
H  26.64600 -10.84400 51.09700
H  24.79900 -11.45400 52.07100
H  23.76200 -12.56100 51.17000
H  23.35500 -10.83900 51.23800
H  27.16400 -12.94800 49.34500
H  28.31800 -11.89200 49.93900
H  27.73900 -12.75700 47.32000
H  28.78400 -11.24600 47.71900
H  27.13800 -11.07100 47.27200
H  30.73200 -8.28500 50.11000
H  30.58000 -6.78100 50.94700
H  31.55400 -7.01800 49.49400
H  29.24300 -4.00700 45.79800
H  26.96300 -0.39000 46.85800
H  27.77500 0.01800 45.38800
H  28.76900 -0.00200 46.91100
Mg 46.91800 35.46300 29.05800
C  45.44300 33.08200 31.13400
C  46.75000 37.79200 31.51200
C  47.78400 37.88200 26.82800
C  46.32800 33.26500 26.26300
N  46.33400 35.37800 31.13600
C  45.77800 34.28300 31.75900
C  45.78600 34.53200 33.26800
C  45.56200 36.13000 33.23600
C  46.33800 36.51000 31.91700
C  44.06200 36.57600 33.09900
C  47.19600 34.02800 33.68800
C  47.24800 33.75500 35.19400
H  46.21500 34.36700 36.18800
N  47.42500 37.44000 29.24400
C  47.35100 38.24500 30.27900
C  47.98400 39.49200 30.06900
C  48.42300 39.50900 28.71100
C  47.88100 38.25500 28.17800
C  48.07100 40.58200 31.14300
C  49.28900 40.48800 27.96200
O  49.52000 40.32400 26.75600
C  50.03100 41.65800 28.70700
N  46.97700 35.57500 26.85900
C  47.34600 36.69700 26.24100
C  47.20500 36.50900 24.68100
C  46.70600 35.01700 24.52300
C  46.68800 34.58400 25.94200
C  46.09300 37.37900 24.02400
C  47.59300 34.15300 23.64100
C  46.91000 33.32800 22.56000
N  46.21900 33.49300 28.69100
C  46.05200 32.73300 27.51100
C  45.46100 31.37800 27.88000
C  45.16100 31.55300 29.25600
C  45.62700 32.81000 29.69000
C  45.26700 30.17400 27.03000
C  44.52500 30.90500 30.42300
O  44.12400 29.76800 30.60200
C  44.41600 31.96000 31.52100
C  44.60500 31.51400 32.90900
O  45.63400 31.01700 33.36400
O  43.46800 31.70600 33.65400
C  43.28600 31.13900 34.92400
H  46.44700 38.59400 32.18700
H  48.05200 38.69200 26.14700
H  46.02600 32.70200 25.37700
H  44.91200 34.16400 33.80500
H  46.07100 36.59700 34.07900
H  43.84900 37.20200 32.23300
H  43.72800 37.10500 33.99100
H  43.47200 35.66900 32.96500
H  47.87600 34.86500 33.53400
H  47.50400 33.17800 33.08000
H  48.21300 34.05400 35.60300
H  47.12300 32.67500 35.11500
H  47.10900 40.61400 31.65300
H  48.11100 41.52900 30.60400
H  48.97900 40.45600 31.73300
H  50.71500 41.97100 27.91900
H  50.52500 41.33400 29.62300
H  49.33400 42.45500 28.96700
H  48.16900 36.83600 24.29300
H  45.70000 35.01600 24.10300
H  45.64800 38.11000 24.69900
H  45.30600 36.91000 23.43200
H  46.66900 37.91500 23.27000
H  48.03500 33.41100 24.30600
H  48.35000 34.79700 23.19200
H  47.16000 33.66400 21.55300
H  45.82800 33.45900 22.55200
H  47.08100 32.25700 22.66700
H  45.53500 30.46400 26.01400
H  44.22400 29.93300 27.23600
H  45.82700 29.29700 27.35300
H  43.41400 32.37700 31.41700
H  42.24500 31.33400 35.18200
H  43.96800 31.66400 35.59300
H  43.58500 30.09100 34.90300

