158

Mg 43.18000 41.80000 27.05300
C  42.36400 44.11800 29.62700
C  44.24900 39.68000 29.41200
C  44.00200 39.78900 24.61800
C  42.40300 44.31600 24.70300
N  43.23300 41.92300 29.30800
C  42.81900 42.89000 30.12800
C  42.76700 42.40600 31.60300
C  43.71500 41.11100 31.51600
C  43.73200 40.88400 29.96600
C  45.15400 41.23000 32.11500
C  41.31700 42.03600 32.13100
C  40.81600 42.63500 33.41400
H  41.88300 42.85500 34.53100
N  44.08400 39.90800 27.06100
C  44.43200 39.21900 28.12500
C  44.80400 37.81300 27.74900
C  44.57400 37.80200 26.34400
C  44.26700 39.22000 25.95500
C  45.28000 36.70900 28.71700
C  44.68100 36.64200 25.35700
O  44.57600 36.76000 24.17100
C  44.93800 35.22800 25.90700
N  43.33200 42.13600 24.86200
C  43.60200 41.04700 24.15900
C  43.44600 41.38600 22.62900
C  42.70000 42.69600 22.72400
C  42.84800 43.09500 24.14200
C  44.82400 41.44900 21.95200
C  41.27400 42.53200 22.13300
C  40.32800 41.56500 22.84100
N  42.49000 43.81500 27.07200
C  42.23800 44.71000 26.06600
C  41.58300 45.89100 26.62100
C  41.70900 45.70100 27.99000
C  42.23000 44.47300 28.26600
C  40.99100 47.00800 25.79300
C  41.40500 46.31500 29.30200
O  40.93300 47.39500 29.63600
C  41.78200 45.22800 30.37400
C  42.68300 45.91800 31.32600
O  43.89800 46.03700 31.35200
O  41.86700 46.47500 32.25300
C  42.60900 47.16300 33.31200
H  44.44200 38.87300 30.12100
H  44.02900 39.04900 23.81500
H  42.06600 44.96400 23.89100
H  43.31100 43.11500 32.22800
H  43.22000 40.22800 31.92100
H  45.91600 41.03900 31.36000
H  45.23800 40.59300 32.99600
H  45.40600 42.24900 32.40600
H  41.19400 40.95800 32.23100
H  40.58400 42.39800 31.41100
H  39.98100 42.03800 33.78200
H  40.50500 43.64600 33.15000
H  46.23600 36.29400 28.39900
H  44.52400 35.93000 28.61500
H  45.42700 36.94600 29.77000
H  44.85300 34.41500 25.18500
H  44.12300 35.01600 26.60000
H  45.88600 34.99700 26.39200
H  42.95900 40.54800 22.13000
H  43.19600 43.51300 22.20100
H  45.54900 41.50900 22.76400
H  44.87600 42.23000 21.19400
H  44.93000 40.52100 21.38900
H  41.39300 42.10500 21.13700
H  40.87800 43.54800 22.11900
H  40.80400 40.68300 23.27000
H  39.46000 41.20800 22.28600
H  39.93800 42.19500 23.64000
H  40.33800 47.54600 26.47900
H  40.37400 46.51000 25.04600
H  41.77300 47.59300 25.30700
H  40.80400 44.92600 30.75000
H  43.41100 47.83500 33.00600
H  43.06700 46.40200 33.94400
H  42.02500 47.72400 34.04200
Mg 9.72600 47.47100 26.37700
C  7.97700 47.57800 29.34600
C  12.42500 48.51200 28.06200
C  11.38900 47.50900 23.46900
C  6.72500 46.82300 24.55700
N  10.08300 48.18800 28.43200
C  9.23300 48.13600 29.51500
C  10.01100 48.46200 30.87500
C  11.16200 49.34200 30.21200
C  11.25600 48.65400 28.78000
C  10.86200 50.98800 30.18400
C  10.47500 47.29200 31.73300
C  10.03100 47.38600 33.24400
H  10.02700 46.21200 34.19700
N  11.64100 47.76100 25.90600
C  12.66000 48.00500 26.77800
C  13.90100 47.93200 26.06700
C  13.64500 47.63600 24.69800
C  12.14200 47.64800 24.60900
C  15.22700 48.02100 26.70200
C  14.58700 47.49300 23.53000
O  14.26400 47.49600 22.35900
C  16.02100 47.56800 23.74800
N  9.13500 47.14500 24.29600
C  10.00400 47.45800 23.30500
C  9.32700 47.29600 21.86200
C  7.86400 46.80900 22.30100
C  7.85000 46.99400 23.81800
C  9.29000 48.55900 21.01400
C  7.43200 45.40500 21.85400
C  8.31600 44.11900 22.16400
N  7.68400 47.38700 26.76700
C  6.60200 47.06600 25.97300
C  5.46200 46.94200 26.77800
C  6.00200 47.00200 28.11800
C  7.33900 47.34400 28.07700
C  4.10700 46.55200 26.36100
C  5.62400 46.88400 29.54000
O  4.56200 46.63500 30.05100
C  6.94700 47.17400 30.34800
C  7.29700 45.90700 31.01100
O  8.03600 45.02900 30.54500
O  6.65300 45.85600 32.17900
C  6.98400 44.66400 33.03600
H  13.28100 48.86400 28.64300
H  11.94100 47.37600 22.53600
H  5.76500 46.64300 24.06800
H  9.29500 49.07000 31.42800
H  12.09000 49.22600 30.77200
H  10.04300 51.21500 30.86700
H  10.72400 51.25800 29.13700
H  11.77100 51.46500 30.54900
H  11.56200 47.21900 31.77100
H  10.13100 46.35200 31.30100
H  9.03400 47.82400 33.21700
H  10.73800 48.07100 33.71100
H  15.21100 48.10900 27.78900
H  15.73000 48.91900 26.34300
H  15.82100 47.13700 26.47100
H  16.17100 48.62400 23.97400
H  16.57400 47.39300 22.82500
H  16.18000 46.79200 24.49700
H  9.77500 46.46600 21.31500
H  7.07700 47.50000 21.99900
H  10.05200 48.41400 20.24800
H  9.50500 49.46200 21.58600
H  8.31800 48.62100 20.52500
H  7.33800 45.42200 20.76800
H  6.38600 45.22800 22.10600
H  9.20000 44.40600 22.73500
H  8.57000 43.61000 21.23400
H  7.85000 43.41100 22.85000
H  3.52900 46.51100 27.28400
H  4.12700 45.66800 25.72400
H  3.72900 47.36100 25.73700
H  6.63000 47.85100 31.14200
H  7.87800 44.98600 33.57100
H  7.14600 43.69100 32.57200
H  6.19400 44.54200 33.77700

