158

Mg 9.44400 46.48100 26.53700
C  7.44900 46.15900 29.27000
C  12.11900 47.03400 28.58300
C  11.27300 46.90900 23.80300
C  6.47700 46.75000 24.52000
N  9.67300 46.57800 28.61800
C  8.76500 46.44600 29.56500
C  9.35200 46.80900 30.89400
C  10.70700 47.41400 30.59700
C  10.85800 46.90400 29.16300
C  10.87900 48.98600 30.69900
C  9.40500 45.65600 31.92400
C  8.86200 46.06300 33.38600
H  9.39800 45.28500 34.51000
N  11.43400 46.82300 26.22100
C  12.44900 47.02800 27.22800
C  13.68400 47.14200 26.46500
C  13.47400 47.13200 25.07000
C  12.02500 46.98600 24.99300
C  14.93600 47.49000 27.04700
C  14.30700 47.13800 23.86200
O  13.93600 46.89700 22.69100
C  15.76300 47.38500 24.03200
N  8.96300 46.87800 24.49100
C  9.94300 46.98100 23.55300
C  9.27700 47.06100 22.13100
C  7.72100 46.94100 22.44000
C  7.69000 46.85200 23.90700
C  9.68800 48.35900 21.23500
C  7.09900 45.72900 21.61900
C  6.11400 46.10400 20.58100
N  7.34800 46.30900 26.73400
C  6.28500 46.49200 25.84900
C  5.07700 46.18300 26.54700
C  5.44600 46.14300 27.90000
C  6.88000 46.11000 27.94600
C  3.81000 46.01700 25.87000
C  5.00300 45.94600 29.30600
O  3.87800 45.75300 29.73000
C  6.26700 46.09400 30.17700
C  6.16300 44.87600 31.08900
O  6.58000 43.76000 30.81700
O  5.36600 45.25000 32.16300
C  5.51500 44.50200 33.41800
H  12.99600 47.32700 29.16300
H  11.78200 46.76600 22.84700
H  5.61500 46.64200 23.85800
H  8.63500 47.49000 31.35300
H  11.42900 47.01200 31.30800
H  10.86100 49.39900 29.69100
H  11.71600 49.20000 31.36400
H  10.06700 49.54800 31.16100
H  10.44400 45.33600 32.00900
H  8.81500 44.82300 31.54100
H  7.78300 45.93000 33.30200
H  9.01500 47.12200 33.58900
H  15.78000 46.81000 26.92400
H  14.82900 47.69600 28.11200
H  15.33700 48.39100 26.58100
H  16.11900 46.54600 24.63100
H  15.83100 48.40300 24.41700
H  16.38700 47.40700 23.13800
H  9.63900 46.13400 21.68800
H  7.22500 47.86900 22.15800
H  8.77100 48.86300 20.93100
H  10.24000 47.87900 20.42700
H  10.28500 48.95000 21.93000
H  6.74600 44.84800 22.15600
H  7.85900 45.35400 20.93300
H  5.24000 45.45400 20.62800
H  6.53300 46.00500 19.58000
H  5.74800 47.13000 20.54800
H  3.82000 46.40000 24.85000
H  3.07600 46.50300 26.51200
H  3.41400 45.00200 25.84000
H  6.10100 46.98400 30.78300
H  5.70000 45.23200 34.20600
H  6.37800 43.83600 33.41600
H  4.61900 43.91100 33.60700
Mg -4.82400 24.85700 26.56700
C  -3.12400 26.41700 29.20400
C  -6.36500 22.79600 28.97900
C  -6.79700 23.50200 24.13400
C  -3.15200 26.64000 24.31200
N  -4.77600 24.67600 28.79900
C  -4.11100 25.52000 29.66100
C  -4.35200 25.15000 31.18300
C  -5.22300 23.82400 31.01700
C  -5.50000 23.75700 29.51800
C  -4.49400 22.56700 31.55200
C  -5.08300 26.45200 31.78700
C  -5.98000 26.17000 33.00500
H  -5.47000 25.08100 33.98700
N  -6.29400 23.24200 26.53600
C  -6.72800 22.48700 27.60500
C  -7.71200 21.51400 27.07300
C  -7.96500 21.89200 25.75700
C  -6.98500 22.85300 25.43300
C  -8.37000 20.43100 27.96500
C  -9.08800 21.36200 24.80400
O  -9.17500 21.73900 23.62400
C  -10.06900 20.31000 25.25700
N  -4.89300 24.91700 24.43200
C  -5.89600 24.40100 23.63000
C  -5.75100 24.77300 22.13000
C  -4.67600 25.86500 22.28000
C  -4.21100 25.82300 23.81100
C  -5.45200 23.57500 21.19600
C  -5.03500 27.26600 21.69200
C  -5.26200 27.41700 20.15200
N  -3.39400 26.21600 26.68400
C  -2.75700 26.81000 25.66100
C  -1.67300 27.61800 26.14000
C  -1.78300 27.50900 27.52900
C  -2.89800 26.71900 27.82500
C  -0.75500 28.38000 25.34700
C  -1.26300 27.94800 28.76800
O  -0.27400 28.69500 28.81300
C  -2.17000 27.30400 29.96300
C  -1.28900 26.53600 30.89900
O  -0.55300 25.60400 30.56300
O  -1.33700 26.94300 32.14600
C  -0.36200 26.47100 33.13900
H  -6.87200 22.25300 29.77900
H  -7.35200 23.15000 23.26200
H  -2.54600 27.19900 23.59600
H  -3.42600 24.90700 31.70300
H  -6.17600 23.79100 31.54300
H  -3.45800 22.48600 31.22400
H  -4.98300 21.62300 31.31400
H  -4.47400 22.64300 32.63900
H  -5.77700 26.89700 31.07500
H  -4.40800 27.27900 32.00800
H  -7.01000 25.97500 32.70600
H  -5.94400 27.03800 33.66300
H  -8.36800 19.50700 27.38700
H  -9.32700 20.79200 28.34100
H  -7.70700 20.23900 28.80800
H  -10.83100 20.11800 24.50300
H  -10.69700 20.50600 26.12600
H  -9.57900 19.35900 25.46900
H  -6.68300 25.27000 21.86100
H  -3.85100 25.55500 21.63900
H  -4.90300 22.79800 21.72800
H  -4.86300 23.93700 20.35300
H  -6.37400 23.17000 20.77800
H  -4.23700 27.97200 21.92200
H  -5.96700 27.57200 22.16800
H  -6.29200 27.71100 19.95000
H  -5.10100 26.44600 19.68500
H  -4.56000 28.20000 19.86700
H  -1.22300 29.09500 24.67100
H  -0.09900 27.87500 24.63800
H  -0.24800 29.00700 26.08100
H  -2.73300 28.01900 30.56200
H  0.59300 26.26500 32.65500
H  -0.72200 25.59100 33.67200
H  -0.18100 27.40000 33.67900

