158

Mg 41.32000 8.94900 29.96800
C  43.19300 10.12400 32.64800
C  38.88100 8.00800 32.32700
C  39.39500 7.77400 27.41900
C  43.90900 9.37500 27.81400
N  41.05100 9.07300 32.23600
C  41.93800 9.65600 33.07800
C  41.35100 9.64500 34.49300
C  40.20400 8.68400 34.38700
C  39.95700 8.69000 32.85500
C  40.42300 7.25800 35.05000
C  40.92300 11.06900 35.01100
C  40.41800 11.19800 36.48700
H  41.33600 11.76600 37.62100
N  39.39900 8.07500 29.94200
C  38.58200 7.74800 30.99200
C  37.36800 7.16400 30.50600
C  37.51900 7.05500 29.08200
C  38.76400 7.76100 28.74900
C  36.30500 6.64400 31.51400
C  36.53800 6.62900 28.16100
O  36.58600 6.85500 26.96000
C  35.28500 5.90100 28.68000
N  41.56000 8.51000 27.87100
C  40.65800 8.10200 27.01800
C  41.35800 7.81000 25.61700
C  42.73300 8.53400 25.81600
C  42.76200 8.74400 27.29000
C  41.52600 6.28100 25.15900
C  42.96300 9.75200 24.88700
C  42.31700 11.15900 25.23400
N  43.16700 9.68200 30.09100
C  44.10800 9.88500 29.11200
C  45.28200 10.62600 29.72100
C  44.97400 10.72600 31.09000
C  43.67900 10.11000 31.27600
C  46.47200 11.01200 28.97000
C  45.40800 11.18700 32.36300
O  46.42500 11.85500 32.59000
C  44.36600 10.91800 33.41900
C  44.95400 10.20900 34.57200
O  45.29700 9.04400 34.63300
O  44.96700 11.08200 35.65800
C  45.31600 10.60700 36.98200
H  38.27000 7.65100 33.15900
H  38.82400 7.39700 26.56700
H  44.69600 9.63600 27.10400
H  42.22700 9.36200 35.07700
H  39.33700 9.19500 34.80700
H  39.72200 7.26000 35.88500
H  41.41600 7.12900 35.48100
H  40.19600 6.46600 34.33600
H  40.19900 11.54200 34.34900
H  41.85000 11.63400 35.10400
H  40.04100 10.25300 36.88000
H  39.64400 11.94500 36.31000
H  35.32100 7.05100 31.28100
H  36.42600 6.83900 32.58000
H  36.31700 5.56300 31.37200
H  35.58700 5.07000 29.31800
H  34.63000 5.59100 27.86500
H  34.76600 6.64900 29.27800
H  40.80600 8.34300 24.84200
H  43.53900 7.81100 25.68600
H  40.99600 5.64200 25.86600
H  42.53700 5.87400 25.14400
H  41.11700 6.24700 24.15000
H  42.60800 9.39400 23.92100
H  44.05100 9.68700 24.85900
H  41.99600 11.22700 26.27300
H  41.59000 11.57600 24.53700
H  43.09700 11.92000 25.27200
H  46.89000 11.98700 29.22100
H  46.13000 11.02300 27.93500
H  47.27600 10.31200 29.19600
H  43.95200 11.86100 33.77500
H  44.79300 11.17400 37.75200
H  46.40600 10.63600 36.99800
H  45.02400 9.55900 37.05900
Mg -2.82900 34.81500 28.04100
C  -4.54700 32.80200 30.08900
C  -1.75700 36.55400 30.65400
C  -1.28600 36.86300 25.79700
C  -4.26100 33.19600 25.22600
N  -3.19200 34.70000 30.11500
C  -3.85400 33.73400 30.79500
C  -3.80100 33.84300 32.34100
C  -3.11700 35.24400 32.47800
C  -2.66000 35.56200 30.99700
C  -4.10500 36.32100 32.98500
C  -3.00800 32.61700 32.87000
C  -3.61000 32.12600 34.15600
H  -4.18500 33.21700 35.14800
N  -1.72800 36.48200 28.19500
C  -1.33300 37.01200 29.39900
C  -0.40600 38.17400 29.13400
C  -0.35100 38.31000 27.72700
C  -1.15200 37.22300 27.17200
C  0.18400 39.04100 30.26600
C  0.27900 39.45000 26.96200
O  0.00400 39.68100 25.79300
C  1.19300 40.39800 27.66500
N  -2.78900 34.99900 25.73100
C  -1.97100 35.85700 25.11000
C  -1.74100 35.52400 23.56600
C  -2.66400 34.24800 23.49000
C  -3.30700 34.11200 24.89200
C  -2.26600 36.52000 22.53700
C  -1.95100 32.89200 22.95700
C  -2.78800 32.08300 21.84800
N  -4.19200 33.30700 27.66800
C  -4.69900 32.76200 26.50500
C  -5.60900 31.71300 26.87800
C  -5.45200 31.54800 28.23700
C  -4.64000 32.60600 28.70500
C  -6.34500 30.67600 25.99700
C  -5.85000 30.79300 29.41600
O  -6.59100 29.81400 29.48800
C  -5.28700 31.58100 30.66800
C  -6.51200 32.00100 31.51500
O  -7.19800 33.00400 31.30000
O  -6.67800 31.03600 32.46900
C  -7.74100 31.29400 33.35800
H  -1.43100 36.95900 31.61400
H  -0.72600 37.56800 25.18000
H  -4.48400 32.44600 24.46400
H  -4.80500 33.81800 32.76500
H  -2.17300 35.05200 32.98900
H  -5.09800 35.88100 33.07700
H  -4.23400 37.17000 32.31400
H  -3.72600 36.62900 33.96000
H  -1.96100 32.83500 33.08200
H  -2.99400 31.73700 32.22800
H  -2.80400 31.58500 34.65200
H  -4.35400 31.37100 33.90400
H  1.27100 39.05900 30.18100
H  -0.11200 38.69200 31.25600
H  -0.26400 40.03300 30.31700
H  0.63200 41.09300 28.29000
H  1.72800 40.89200 26.85500
H  1.87500 39.83900 28.30600
H  -0.71700 35.20400 23.37600
H  -3.57000 34.42700 22.91100
H  -1.79500 37.49900 22.62400
H  -3.32700 36.65400 22.74700
H  -2.06000 36.06500 21.56700
H  -1.72600 32.28900 23.83700
H  -0.92800 32.95100 22.58500
H  -3.18700 31.28200 22.46900
H  -2.04800 31.62400 21.19200
H  -3.40400 32.69300 21.18700
H  -6.61100 31.13900 25.04700
H  -7.25000 30.32600 26.49300
H  -5.68900 29.82700 25.80200
H  -4.67800 30.83000 31.17400
H  -7.54100 32.26800 33.80400
H  -7.66300 30.51600 34.11700
H  -8.62600 31.19900 32.72800

