158

Mg 48.79900 35.65900 28.00500
C  46.81500 33.93900 30.41600
C  48.49100 38.49900 30.04200
C  50.36700 37.35800 25.65900
C  48.12400 33.06000 25.83200
N  47.85000 36.16900 30.00900
C  47.22900 35.22300 30.86000
C  47.12400 35.78700 32.26700
C  47.27800 37.28300 32.06400
C  47.95800 37.35400 30.62100
C  46.07200 38.18300 32.17100
C  48.10700 35.09500 33.25300
C  47.60600 34.82400 34.68400
H  48.00800 35.90200 35.65900
N  49.55300 37.69000 27.97500
C  49.17400 38.64700 28.80400
C  49.92600 39.80600 28.41300
C  50.44900 39.59000 27.06200
C  50.18700 38.15000 26.86100
C  49.96200 41.06700 29.20700
C  51.17100 40.53400 26.01700
O  51.57000 40.05400 24.96400
C  51.34500 41.94400 26.34000
N  49.13100 35.35900 26.06100
C  49.91200 36.11900 25.32400
C  50.24500 35.59000 23.89600
C  49.54600 34.16900 24.09000
C  48.96000 34.11800 25.45100
C  49.70800 36.40500 22.72200
C  50.35400 32.89800 23.78800
C  49.71500 31.96100 22.76900
N  47.72600 33.82100 28.05800
C  47.53700 32.86300 27.07200
C  46.72200 31.74600 27.55300
C  46.43500 32.15700 28.87200
C  47.01800 33.39100 29.13600
C  46.33500 30.46900 26.80000
C  45.68200 31.69000 30.06800
O  45.02100 30.72400 30.37000
C  45.94300 32.82500 31.12400
C  46.59800 32.21700 32.31500
O  47.74800 31.87800 32.25400
O  45.71600 32.07800 33.32600
C  46.30300 31.64000 34.61900
H  48.52400 39.42000 30.62700
H  50.93100 37.78900 24.82900
H  48.00100 32.35200 25.01000
H  46.10300 35.61500 32.60800
H  47.97600 37.64600 32.81900
H  46.15800 38.78100 33.07700
H  45.18500 37.58100 32.36700
H  45.85800 38.79800 31.29700
H  49.01000 35.70600 33.25100
H  48.41300 34.12200 32.86800
H  48.07700 33.86900 34.91500
H  46.52600 34.67500 34.68200
H  50.92400 41.25400 29.68500
H  49.25100 41.28100 30.00500
H  49.75000 41.83600 28.46400
H  50.35200 42.37700 26.21800
H  51.90700 42.24800 25.45700
H  51.84200 42.01000 27.30800
H  51.29200 35.47700 23.61200
H  48.69200 34.07700 23.41900
H  50.49800 36.39800 21.97100
H  49.51800 37.43500 23.02400
H  48.79300 36.01900 22.27400
H  50.43500 32.28300 24.68500
H  51.37900 33.20200 23.57600
H  49.71700 32.43600 21.78800
H  48.75900 31.56300 23.11100
H  50.26900 31.07200 22.46900
H  46.23900 29.61400 27.46900
H  47.04000 30.16100 26.02700
H  45.47000 30.68100 26.17200
H  44.98200 33.16600 31.51000
H  45.53200 30.89600 34.82000
H  46.18800 32.42700 35.36500
H  47.31800 31.24700 34.55600
Mg -4.89500 25.65200 25.92500
C  -3.27600 27.01500 28.77200
C  -6.92300 23.82300 27.99100
C  -5.93700 24.00800 23.15800
C  -2.54700 27.39600 23.96600
N  -4.96400 25.34400 27.99500
C  -4.29600 26.06300 29.00800
C  -4.84800 25.69800 30.40500
C  -5.84000 24.49800 30.13100
C  -5.97000 24.58200 28.60900
C  -5.35000 23.09600 30.65800
C  -5.43900 26.95900 31.15400
C  -4.95300 27.25100 32.58400
H  -4.67300 26.02100 33.55800
N  -6.29600 24.20100 25.60400
C  -7.06700 23.61000 26.58100
C  -7.98000 22.66800 25.94600
C  -7.68500 22.67800 24.52000
C  -6.60100 23.63400 24.36900
C  -8.98300 21.82200 26.72000
C  -8.24500 21.75700 23.44300
O  -7.96300 21.79700 22.23100
C  -9.26900 20.73700 23.83400
N  -4.17200 25.51100 23.91600
C  -4.84800 24.81200 22.95300
C  -4.44500 25.23400 21.53700
C  -3.29900 26.32500 21.78600
C  -3.41100 26.49200 23.34300
C  -4.13000 24.02200 20.57100
C  -3.43500 27.54600 20.82300
C  -2.50100 27.59600 19.60300
N  -3.20400 26.94800 26.27200
C  -2.32900 27.55800 25.39400
C  -1.46300 28.54600 26.02000
C  -1.67800 28.26100 27.42400
C  -2.75000 27.24900 27.48200
C  -0.42600 29.47100 25.41200
C  -1.29200 28.53700 28.84500
O  -0.46700 29.33800 29.29900
C  -2.35600 27.79300 29.73300
C  -1.68300 26.94600 30.81900
O  -1.63700 25.77200 30.85200
O  -1.11700 27.82400 31.75300
C  -0.75400 27.34200 33.03700
H  -7.62700 23.39900 28.71000
H  -6.35200 23.65400 22.21200
H  -1.89600 28.07500 23.41300
H  -4.11000 25.28400 31.09200
H  -6.84600 24.71300 30.49100
H  -6.13700 22.81600 31.35800
H  -4.39500 23.16400 31.17900
H  -5.33300 22.28700 29.92700
H  -6.52500 26.85900 31.15900
H  -5.36500 27.79300 30.45500
H  -5.71700 27.73100 33.19600
H  -3.99200 27.75700 32.48600
H  -8.72700 20.76700 26.61900
H  -10.00600 21.98000 26.38000
H  -8.86800 22.14200 27.75600
H  -9.74000 20.34500 22.93300
H  -10.10000 21.24000 24.32900
H  -8.79700 19.92400 24.38600
H  -5.28700 25.78700 21.12200
H  -2.29400 25.93600 21.61900
H  -4.13100 23.11800 21.18000
H  -3.15000 24.03100 20.09400
H  -4.98400 23.81100 19.92700
H  -3.43800 28.39800 21.50200
H  -4.42200 27.43400 20.37500
H  -3.22900 27.72800 18.80300
H  -2.03300 26.61600 19.51100
H  -1.87300 28.48700 19.58900
H  -0.87600 30.35300 24.95600
H  0.13700 29.08200 24.56400
H  0.32800 29.70800 26.16300
H  -2.96900 28.54800 30.22500
H  -1.38100 27.68600 33.86000
H  0.17400 27.83500 33.32500
H  -0.65800 26.25700 33.08000

