158

Mg 24.35700 -5.77800 45.52500
C  26.55700 -3.36700 44.27400
C  21.89300 -4.54300 43.44200
C  22.64000 -8.75800 45.97800
C  27.04600 -7.22200 47.22900
N  24.30900 -4.13700 44.06600
C  25.29600 -3.21200 43.72500
C  24.80700 -2.23700 42.66900
C  23.27500 -2.54600 42.68000
C  23.14500 -3.87300 43.40600
C  22.29500 -1.49200 43.23900
C  25.48000 -2.51700 41.29600
C  25.55800 -1.36200 40.34400
H  26.28300 -1.56100 38.97800
N  22.47400 -6.49100 44.94000
C  21.58700 -5.76600 44.18500
C  20.35000 -6.42800 44.19300
C  20.48100 -7.69700 44.84800
C  21.94000 -7.73100 45.31700
C  19.07000 -5.95100 43.42400
C  19.29000 -8.64500 45.06300
O  18.14100 -8.38400 44.71300
C  19.49600 -9.93000 45.86700
N  24.81500 -7.76100 46.29800
C  23.96500 -8.81100 46.39800
C  24.58300 -10.02800 47.07400
C  25.97800 -9.47500 47.52900
C  25.91900 -8.05100 47.03600
C  23.82700 -10.64400 48.27500
C  27.18000 -10.26900 46.94500
C  27.50600 -11.54700 47.69500
N  26.31600 -5.38900 45.90600
C  27.27400 -5.96700 46.67900
C  28.48300 -5.14400 46.71600
C  28.21900 -4.09600 45.78600
C  26.90500 -4.30700 45.29400
C  29.77500 -5.38500 47.49800
C  28.88000 -2.98700 45.13900
O  29.99100 -2.49500 45.14900
C  27.73400 -2.48400 44.14400
C  27.60600 -1.02100 44.28800
O  28.03700 -0.23600 43.49900
O  26.91700 -0.72900 45.48700
C  26.39500 0.62700 45.68500
H  20.95000 -4.14700 43.05800
H  21.99300 -9.63600 46.04000
H  27.71800 -7.60700 47.99900
H  25.00200 -1.19200 42.91000
H  22.91300 -2.57700 41.65200
H  21.49900 -1.93900 43.83400
H  21.82000 -0.91800 42.44300
H  22.88900 -0.89800 43.93300
H  24.99000 -3.34600 40.78500
H  26.49600 -2.86000 41.49400
H  25.82100 -0.43500 40.85300
H  24.50000 -1.16900 40.17000
H  19.28400 -5.18500 42.67900
H  18.49500 -5.32100 44.10300
H  18.62100 -6.71500 42.78900
H  19.90100 -10.69100 45.20000
H  18.56500 -10.28800 46.30600
H  20.08600 -9.61600 46.72800
H  24.73900 -10.86200 46.39000
H  26.01600 -9.39700 48.61600
H  24.46400 -10.70500 49.15700
H  23.49500 -11.67200 48.13300
H  22.91000 -10.09500 48.48900
H  28.07800 -9.65700 46.85200
H  26.88900 -10.68800 45.98200
H  28.55000 -11.57200 48.00700
H  27.30100 -12.30500 46.94000
H  26.89800 -11.82500 48.55600
H  30.19700 -4.38200 47.56700
H  30.33300 -6.15200 46.96000
H  29.55400 -5.70400 48.51600
H  28.27900 -2.60200 43.20800
H  26.36700 0.82200 46.75700
H  25.35900 0.61900 45.34300
H  26.96300 1.42700 45.21000
Mg 47.22100 34.08000 26.61500
C  45.06500 33.08200 29.13100
C  48.24600 36.70500 28.60000
C  48.72800 35.20200 23.86500
C  46.21100 31.23600 24.57500
N  46.66300 34.80000 28.61300
C  45.81800 34.26500 29.50700
C  45.99100 34.81900 30.86800
C  46.65400 36.14000 30.51100
C  47.26500 35.93000 29.17100
C  45.74700 37.41500 30.57800
C  46.89300 33.85300 31.80600
C  46.84300 33.93900 33.32300
H  46.12300 35.09600 33.95500
N  48.21400 35.79200 26.20300
C  48.59800 36.75000 27.17500
C  49.42700 37.69000 26.57000
C  49.55700 37.34800 25.16900
C  48.79700 36.03400 24.98800
C  50.16200 38.80000 27.36200
C  50.07600 38.13500 23.94800
O  50.19400 37.61900 22.76500
C  50.51400 39.53900 24.21200
N  47.56800 33.22300 24.66200
C  48.14100 33.94800 23.72800
C  48.18900 33.23900 22.28200
C  47.72500 31.80800 22.63500
C  47.18000 32.03000 24.05600
C  47.30400 33.92300 21.22000
C  48.82100 30.67300 22.58700
C  49.70500 30.40800 23.79900
N  45.89900 32.42300 26.77900
C  45.56800 31.40300 25.86900
C  44.69700 30.46800 26.59700
C  44.40900 31.16700 27.82700
C  45.11500 32.35800 27.85000
C  44.32700 29.01300 26.17300
C  43.74000 30.93800 29.10000
O  43.02500 30.07300 29.52900
C  44.00500 32.33300 29.87700
C  44.22600 31.87200 31.23300
O  45.11500 31.10000 31.59800
O  43.17900 32.27000 31.99000
C  43.38100 32.05500 33.41800
H  48.64300 37.48000 29.26000
H  49.11800 35.46200 22.87900
H  45.85800 30.36600 24.01700
H  44.99800 34.85900 31.31600
H  47.58400 36.38400 31.02500
H  45.92800 38.06900 31.43000
H  44.67500 37.22300 30.61700
H  45.92100 37.94700 29.64200
H  47.85400 34.27200 31.50600
H  46.87700 32.81000 31.49100
H  47.86000 33.94200 33.71500
H  46.36000 33.04900 33.72500
H  50.78300 38.39100 28.15900
H  49.40400 39.39900 27.86600
H  50.88200 39.34800 26.75400
H  50.53500 39.99900 23.22400
H  51.51500 39.63800 24.63300
H  49.84100 40.04600 24.90400
H  49.15500 33.06900 21.80800
H  46.91500 31.52500 21.96200
H  46.91900 34.91700 21.44500
H  46.45100 33.25300 21.11900
H  47.83800 33.94400 20.27000
H  49.51900 30.97500 21.80600
H  48.34200 29.73500 22.30600
H  49.30200 30.96300 24.64600
H  50.68300 30.77800 23.49000
H  49.67300 29.37200 24.13600
H  44.50300 28.27300 26.95400
H  44.95200 28.75400 25.31900
H  43.27000 29.09400 25.92000
H  43.12000 32.96700 29.93400
H  44.09900 32.74800 33.85700
H  43.52300 30.99600 33.63200
H  42.48800 32.33500 33.97700

