158

Mg 8.63300 47.59200 27.52100
C  7.06900 47.44900 30.60300
C  11.62000 48.12100 29.01500
C  10.08700 48.37000 24.44900
C  5.56200 47.83200 26.05600
N  9.21700 47.97400 29.61600
C  8.46900 47.67200 30.70700
C  9.30900 47.64900 32.02300
C  10.66600 48.10500 31.41200
C  10.54300 48.02600 29.90300
C  11.08700 49.52400 31.85300
C  9.43200 46.19700 32.70200
C  8.99500 45.96000 34.13100
H  10.01900 45.31500 35.07100
N  10.56900 48.01100 26.80800
C  11.68400 48.16800 27.61100
C  12.88900 48.42600 26.75700
C  12.45300 48.53200 25.45900
C  11.00200 48.25500 25.48800
C  14.24200 48.69400 27.35200
C  13.25000 48.96900 24.16500
O  12.76500 48.78900 23.04100
C  14.67000 49.45500 24.29000
N  7.94400 47.94600 25.50300
C  8.69300 48.26100 24.40600
C  7.85800 48.65600 23.15700
C  6.47600 48.29800 23.74900
C  6.63400 47.85100 25.17300
C  7.88100 50.18100 22.72000
C  5.82900 47.12500 22.90300
C  5.65000 47.45500 21.44300
N  6.64500 47.39400 28.10400
C  5.49000 47.56200 27.44000
C  4.25100 47.47000 28.24300
C  4.85500 47.41400 29.55700
C  6.27500 47.36500 29.42100
C  2.83700 47.45400 27.88800
C  4.59600 47.29200 30.98400
O  3.53900 47.18900 31.60600
C  6.02900 47.30100 31.77200
C  6.09700 46.06300 32.45900
O  6.40000 45.00900 31.95700
O  5.56700 46.09600 33.73400
C  5.15900 44.82000 34.31500
H  12.59500 48.10700 29.50700
H  10.48200 48.73500 23.49900
H  4.57100 47.95700 25.61500
H  8.89800 48.38900 32.71000
H  11.56900 47.57300 31.71200
H  10.79000 50.25300 31.09900
H  12.15600 49.60100 32.05100
H  10.59500 49.63100 32.82000
H  10.47300 45.88200 32.63600
H  8.90300 45.47200 32.08300
H  8.16500 45.25400 34.15600
H  8.77200 46.87700 34.67600
H  14.96400 47.97000 26.97600
H  14.37100 48.51000 28.41900
H  14.58600 49.70100 27.11600
H  14.61200 50.47600 24.66700
H  15.06200 49.54400 23.27700
H  15.35000 48.91000 24.94400
H  8.26400 47.96500 22.41800
H  5.83500 49.16600 23.59300
H  7.77300 50.41700 21.66100
H  8.88100 50.44500 23.06600
H  7.16600 50.83500 23.21700
H  4.85500 46.96100 23.36300
H  6.43000 46.22000 22.99500
H  5.94600 46.62200 20.80600
H  6.14700 48.39900 21.21700
H  4.58400 47.64500 21.32300
H  2.24400 47.27800 28.78600
H  2.60600 46.84500 27.01400
H  2.51700 48.48500 27.73900
H  6.09700 48.11900 32.49000
H  6.01400 44.15200 34.20600
H  4.32000 44.39100 33.76700
H  5.04000 44.95200 35.39000
Mg -9.50800 39.94900 41.81700
C  -8.58800 36.72800 40.94200
C  -6.48400 41.04100 40.52700
C  -10.57100 43.02500 42.21100
C  -12.65500 38.73100 42.71000
N  -7.77100 39.00500 40.94700
C  -7.65600 37.71700 40.58500
C  -6.32200 37.39700 39.93100
C  -5.57500 38.72700 40.15500
C  -6.66900 39.64400 40.59300
C  -4.33800 38.68300 41.14200
C  -6.32200 36.83700 38.46000
C  -5.16400 35.98300 38.02800
H  -4.29200 36.48600 36.85100
N  -8.66000 41.75900 41.42300
C  -7.41600 42.03900 40.97600
C  -7.18200 43.44300 40.80100
C  -8.30400 44.08200 41.39800
C  -9.25000 42.94100 41.72900
C  -5.93700 44.11400 40.24100
C  -8.49900 45.58800 41.64600
O  -7.56200 46.37900 41.43900
C  -9.91400 46.16300 41.85800
N  -11.42500 40.76800 42.24500
C  -11.58200 42.09800 42.47900
C  -13.06400 42.44800 42.91500
C  -13.67900 41.00000 43.10200
C  -12.54700 40.09600 42.59900
C  -13.07300 43.50400 44.07000
C  -15.01800 40.73200 42.28900
C  -16.24700 40.29800 43.14100
N  -10.42700 38.14100 41.97000
C  -11.68900 37.82100 42.33200
C  -11.76800 36.33200 42.43900
C  -10.58700 35.90400 41.93200
C  -9.82300 37.08400 41.56700
C  -12.96900 35.51400 42.71600
C  -9.75200 34.70800 41.54600
O  -9.99200 33.50700 41.73900
C  -8.38800 35.22400 40.94500
C  -7.27600 34.78100 41.84400
O  -7.07900 35.13500 42.99600
O  -6.48700 33.87400 41.19400
C  -5.38400 33.48000 42.07800
H  -5.49600 41.42500 40.26700
H  -10.92700 44.02600 42.46400
H  -13.67100 38.41500 42.95500
H  -5.94000 36.62300 40.59700
H  -5.04400 39.08100 39.27200
H  -4.16500 37.64000 41.40600
H  -4.45700 39.22100 42.08300
H  -3.44000 39.01100 40.61800
H  -6.39500 37.63900 37.72600
H  -7.29000 36.34400 38.37500
H  -5.55200 34.98000 37.84600
H  -4.41400 35.89600 38.81400
H  -5.36600 43.37900 39.67400
H  -5.32200 44.46100 41.07100
H  -6.19200 44.93500 39.57200
H  -10.54000 45.81200 41.03800
H  -9.83300 47.24900 41.79700
H  -10.30000 45.90400 42.84400
H  -13.62500 42.92000 42.10800
H  -13.89200 40.85800 44.16200
H  -12.14500 44.06300 44.18900
H  -13.41600 43.03900 44.99400
H  -13.80700 44.28400 43.86700
H  -14.94600 39.92600 41.55900
H  -15.14500 41.63100 41.68600
H  -17.19400 40.27300 42.60200
H  -16.33600 41.03300 43.94100
H  -16.04500 39.28400 43.48600
H  -13.58900 35.81700 43.55900
H  -12.80400 34.46300 42.95300
H  -13.68700 35.49100 41.89600
H  -8.24200 34.81900 39.94400
H  -4.88900 34.32600 42.55500
H  -4.70500 32.94900 41.41200
H  -5.71200 32.76300 42.83100

