158

Mg 26.33800 1.15100 29.57900
C  28.16100 1.05700 32.55500
C  23.43700 1.61900 31.52800
C  24.38100 1.14600 26.70900
C  28.93400 -0.08200 27.75800
N  25.85900 1.20400 31.81400
C  26.81400 1.25100 32.82700
C  26.13400 1.43000 34.19900
C  24.61100 1.55400 33.89000
C  24.58100 1.41700 32.28600
C  23.69600 0.60600 34.55200
C  26.66600 2.52200 35.09500
C  25.96400 2.78600 36.43300
H  26.78600 2.84200 37.71300
N  24.17300 1.35100 29.16500
C  23.19500 1.55100 30.09100
C  21.94200 1.73200 29.48600
C  22.16800 1.54700 28.10700
C  23.65200 1.31300 27.88900
C  20.65200 2.03100 30.18400
C  21.19000 1.55800 26.97900
O  21.49400 1.30800 25.81900
C  19.82200 2.05900 27.21900
N  26.56500 0.48400 27.57300
C  25.63200 0.64500 26.51500
C  26.22500 0.27300 25.13100
C  27.74700 -0.06800 25.44300
C  27.75500 0.10800 27.02700
C  25.31700 -0.65000 24.19600
C  28.77700 0.73100 24.60100
C  29.16700 2.12900 25.05000
N  28.18600 0.62200 29.96400
C  29.19600 0.17400 29.12600
C  30.37400 -0.00700 29.89800
C  30.07000 0.47300 31.20800
C  28.69300 0.72400 31.25300
C  31.73600 -0.46700 29.36700
C  30.59000 0.70800 32.53200
O  31.73200 0.55300 32.92600
C  29.32800 1.17100 33.47000
C  29.51000 0.28500 34.74400
O  29.24300 -0.88700 34.86700
O  29.86300 1.09000 35.84900
C  30.01400 0.49000 37.15700
H  22.63100 2.03600 32.13600
H  23.78000 1.30100 25.81100
H  29.81100 -0.44900 27.22100
H  26.35200 0.50200 34.72800
H  24.32700 2.53800 34.26200
H  23.45600 -0.19500 33.85300
H  22.80100 1.05900 34.97700
H  24.28700 0.13300 35.33700
H  26.55300 3.43100 34.50400
H  27.75100 2.47400 35.18500
H  25.41000 1.85800 36.57400
H  25.36800 3.69900 36.45100
H  20.09500 1.09700 30.26600
H  20.17200 2.95800 29.87100
H  20.82200 2.15800 31.25300
H  19.46900 1.35200 27.97000
H  19.09400 2.11400 26.41000
H  19.95600 3.05700 27.63500
H  26.23800 1.26200 24.67400
H  27.85900 -1.14000 25.28100
H  24.73400 -0.07400 23.47700
H  24.63400 -1.23500 24.81200
H  25.86300 -1.32600 23.53700
H  28.29500 0.76700 23.62400
H  29.67300 0.11200 24.56300
H  30.22700 2.16000 25.30300
H  28.50100 2.46500 25.84400
H  28.86900 2.78600 24.23300
H  31.81500 -0.51300 28.28100
H  32.01000 -1.46100 29.72100
H  32.40400 0.37000 29.57400
H  29.60500 2.16500 33.82000
H  30.96400 0.79500 37.59500
H  29.90200 -0.59200 37.08300
H  29.16300 0.94700 37.66300
Mg 40.66100 40.70900 26.41000
C  39.93800 42.91800 28.88800
C  42.09000 38.61800 28.72400
C  41.24300 38.42200 23.87500
C  39.89600 43.18300 23.98400
N  41.21000 40.84000 28.59900
C  40.54000 41.78300 29.39800
C  40.78500 41.39900 30.86000
C  41.78500 40.13200 30.76500
C  41.73700 39.82400 29.27300
C  43.19200 40.40100 31.34600
C  39.46800 41.09200 31.64300
C  39.21100 42.01100 32.88200
H  38.75900 41.33200 34.22700
N  41.45900 38.70300 26.34100
C  41.89600 38.03700 27.41100
C  42.32300 36.66900 26.99500
C  42.00500 36.62700 25.61200
C  41.51200 37.94200 25.20000
C  42.90300 35.64600 28.04000
C  42.20700 35.43000 24.59400
O  41.95900 35.44800 23.42000
C  42.96600 34.20000 25.10500
N  40.63000 40.75300 24.23800
C  40.95500 39.68400 23.42900
C  40.79500 40.04900 21.94500
C  40.31800 41.56600 21.96600
C  40.38300 41.89500 23.47800
C  41.98200 39.85800 21.01200
C  38.98000 41.78800 21.27400
C  37.73400 41.81200 22.18700
N  40.00400 42.58600 26.37200
C  39.71500 43.47100 25.36400
C  39.16300 44.68000 25.97700
C  39.25900 44.51700 27.33400
C  39.79800 43.20300 27.56200
C  38.70100 45.91500 25.22100
C  39.13500 45.15800 28.64900
O  38.62100 46.21600 29.02600
C  39.48000 44.10500 29.70500
C  40.54000 44.66300 30.58900
O  41.75500 44.77100 30.36800
O  39.86900 45.09900 31.72400
C  40.63900 46.05000 32.59700
H  42.60400 38.00800 29.47000
H  41.29800 37.63600 23.11900
H  39.51000 43.97100 23.33400
H  41.28600 42.29000 31.23700
H  41.51400 39.24700 31.34000
H  43.19100 41.32300 31.92700
H  43.92000 40.49200 30.54000
H  43.40500 39.53800 31.97600
H  39.49400 40.06600 32.00900
H  38.58700 41.20700 31.01100
H  38.37300 42.59900 32.50800
H  40.09000 42.61900 33.09700
H  42.24000 34.86500 28.41300
H  43.21600 36.16700 28.94500
H  43.77400 35.21300 27.54700
H  42.37300 33.79700 25.92600
H  44.00100 34.46100 25.32500
H  43.07000 33.52300 24.25600
H  39.98800 39.39500 21.61500
H  41.06000 42.17400 21.44900
H  42.92400 40.05200 21.52600
H  41.92600 40.54400 20.16700
H  42.05400 38.81600 20.70100
H  38.88000 41.08000 20.45200
H  39.03300 42.79000 20.84700
H  37.16300 42.73700 22.10400
H  37.86800 41.65500 23.25800
H  37.19000 40.94400 21.81800
H  37.61800 46.01100 25.30400
H  38.99100 45.94200 24.17100
H  39.07500 46.81800 25.70200
H  38.54300 43.92300 30.23300
H  41.12000 45.38900 33.31800
H  39.96200 46.74100 33.10000
H  41.40600 46.59100 32.04300

