158

Mg 25.38000 1.91800 29.45400
C  27.16800 1.38500 32.42900
C  22.48400 1.93700 31.36300
C  23.58400 1.97900 26.60400
C  28.24000 1.07300 27.64200
N  24.91300 1.64600 31.69600
C  25.78600 1.68600 32.75000
C  25.11100 1.98500 34.11300
C  23.62900 2.10900 33.68500
C  23.67200 1.96700 32.13000
C  22.64300 1.08100 34.32700
C  25.73900 3.21200 34.85600
C  25.99400 3.03400 36.44900
H  25.48700 4.00000 37.48300
N  23.38300 1.85700 29.08300
C  22.27600 1.85700 30.01000
C  21.06300 1.82300 29.25000
C  21.39300 1.68400 27.84700
C  22.85100 1.79800 27.79500
C  19.75600 1.70100 30.04000
C  20.42200 1.46800 26.69100
O  20.84100 1.39800 25.54000
C  18.92800 1.37000 26.85700
N  25.89300 1.58100 27.39600
C  24.96400 1.82400 26.45100
C  25.67200 1.82100 25.05800
C  27.18100 1.56100 25.43400
C  27.11900 1.48100 26.93300
C  25.11400 0.87500 24.00300
C  28.20200 2.78700 25.06000
C  29.64700 2.39000 24.44700
N  27.34500 1.42900 29.88400
C  28.38200 1.12100 29.06600
C  29.57800 0.81400 29.83200
C  29.17000 0.93600 31.16300
C  27.79600 1.30200 31.18000
C  30.85300 0.42600 29.20200
C  29.57100 0.69900 32.59900
O  30.60200 0.19500 33.04900
C  28.32000 1.16200 33.46900
C  27.96900 0.12500 34.46900
O  27.15200 -0.76400 34.35200
O  28.77400 0.30100 35.57400
C  28.38900 -0.60900 36.69500
H  21.59100 2.19100 31.93800
H  23.08500 2.13700 25.64500
H  29.12100 0.74800 27.08500
H  25.26000 1.17900 34.83100
H  23.14300 3.06000 33.90400
H  23.02300 0.44700 35.12900
H  22.38300 0.39200 33.52400
H  21.66900 1.50400 34.57300
H  25.04500 4.01900 34.61800
H  26.70600 3.42500 34.40100
H  27.07500 2.89500 36.43100
H  25.59700 2.04800 36.69000
H  18.92200 2.25900 29.61300
H  19.88300 2.05700 31.06200
H  19.38300 0.67900 30.10700
H  18.42700 1.04300 25.94600
H  18.52700 2.34200 27.14300
H  18.85100 0.59700 27.62100
H  25.50000 2.84900 24.73900
H  27.50800 0.61100 25.01200
H  24.24400 0.32700 24.36600
H  25.87500 0.12200 23.79900
H  24.80300 1.48800 23.15800
H  28.21800 3.41000 25.95400
H  27.80000 3.40900 24.26100
H  29.76900 1.31400 24.57300
H  30.45500 2.83100 25.03000
H  29.73500 2.68500 23.40100
H  31.21400 -0.48500 29.68100
H  31.49000 1.25600 29.50900
H  30.76200 0.25100 28.13000
H  28.48300 2.09000 34.01600
H  28.85000 -1.59100 36.59000
H  27.33300 -0.81100 36.87800
H  28.71500 -0.19200 37.64800
Mg 48.78800 35.08500 26.47200
C  46.84500 33.51100 28.96900
C  48.91100 37.85200 28.60200
C  50.12100 36.72800 23.95500
C  48.24200 32.30800 24.33700
N  48.06800 35.52200 28.62200
C  47.33000 34.72100 29.38300
C  47.34600 35.24200 30.79800
C  47.68900 36.68700 30.63800
C  48.31000 36.75000 29.22200
C  46.45900 37.69700 30.88800
C  48.44700 34.41800 31.62300
C  48.13600 33.94900 33.07100
H  47.72900 34.97000 34.11700
N  49.36400 37.02800 26.30500
C  49.31700 38.05700 27.24900
C  49.91200 39.29300 26.66100
C  50.27700 38.95700 25.31200
C  49.93300 37.54500 25.12700
C  50.07400 40.58400 27.45400
C  50.91900 39.79300 24.26600
O  51.29600 39.38400 23.16700
C  51.35900 41.16900 24.68000
N  48.99500 34.63100 24.32800
C  49.78800 35.42000 23.63700
C  50.16300 34.82700 22.26600
C  49.68700 33.29400 22.45200
C  48.94400 33.41600 23.78700
C  49.48400 35.47600 21.11300
C  50.71500 32.15700 22.61000
C  50.40200 30.75700 22.05500
N  47.78800 33.27700 26.55700
C  47.65100 32.22800 25.65700
C  46.82700 31.14300 26.20400
C  46.45100 31.63300 27.48900
C  47.08000 32.93300 27.69900
C  46.34700 29.87000 25.56600
C  45.70000 31.33800 28.65300
O  44.94600 30.42500 28.94600
C  45.72700 32.61700 29.47600
C  45.79600 32.34100 30.95200
O  46.52500 31.54500 31.45500
O  44.82700 32.98500 31.54500
C  44.64500 32.81900 32.99200
H  48.97800 38.79000 29.15600
H  50.61800 37.12700 23.06800
H  48.09400 31.41900 23.72000
H  46.41400 35.10200 31.34500
H  48.58300 36.92900 31.21200
H  46.34300 38.42300 30.08300
H  46.66700 38.39000 31.70300
H  45.50800 37.19700 31.07200
H  49.44000 34.86700 31.62000
H  48.63300 33.46700 31.12500
H  49.01500 33.64800 33.64100
H  47.44000 33.11500 33.16800
H  49.28900 40.46900 28.20100
H  49.84900 41.39400 26.75900
H  51.13400 40.72800 27.66600
H  50.62300 41.97200 24.73200
H  52.06300 41.58800 23.96000
H  51.84600 41.07800 25.65100
H  51.22000 34.87800 22.00700
H  48.90900 32.97600 21.75800
H  48.64600 36.07800 21.46600
H  49.15100 34.74500 20.37600
H  50.24300 36.10900 20.65200
H  50.91100 31.98000 23.66700
H  51.71000 32.47500 22.29800
H  50.42100 30.09500 22.92000
H  51.12500 30.42200 21.31100
H  49.37900 30.66900 21.68900
H  45.27000 29.92000 25.40400
H  46.60100 29.00800 26.18400
H  46.84800 29.89500 24.59900
H  44.82600 33.18000 29.23200
H  43.75500 32.25000 33.26200
H  44.58200 33.82100 33.41500
H  45.48500 32.24200 33.37900

