158

Mg 44.62600 5.16500 47.74800
C  42.68800 8.16500 47.15600
C  41.81300 3.33600 47.53300
C  46.59000 2.43000 47.85600
C  47.49300 7.23900 47.97700
N  42.53800 5.72700 47.32100
C  41.94600 6.93800 47.03100
C  40.49700 6.80100 46.66400
C  40.23600 5.45300 47.39000
C  41.60900 4.73900 47.36500
C  39.57600 5.53900 48.76800
C  40.31700 6.69400 45.12300
C  40.10200 8.04200 44.39700
H  39.08500 7.92800 43.21200
N  44.28800 3.12200 47.61900
C  43.03800 2.59700 47.55800
C  43.13100 1.09800 47.69700
C  44.50900 0.85300 47.71500
C  45.18400 2.18100 47.76700
C  41.98900 0.03100 47.53600
C  45.03400 -0.56000 47.75000
O  44.36200 -1.60700 47.70500
C  46.53700 -0.87700 47.80300
N  46.72400 4.91500 47.66600
C  47.22800 3.63700 47.86500
C  48.76300 3.65900 48.20800
C  49.05000 5.22200 48.24900
C  47.67100 5.82700 47.94500
C  49.26600 2.93600 49.39100
C  50.13900 5.64200 47.32300
C  51.04400 6.71900 47.97100
N  45.03100 7.29200 47.48600
C  46.23900 7.95400 47.76000
C  46.00700 9.35900 47.79800
C  44.56100 9.50300 47.69000
C  44.07800 8.19300 47.38100
C  47.09700 10.38500 48.03500
C  43.46600 10.46400 47.74300
O  43.37900 11.61600 48.15100
C  42.21900 9.58900 47.20600
C  41.17200 9.70900 48.30300
O  41.07000 9.15000 49.36700
O  40.20600 10.58500 47.85700
C  39.02800 10.76100 48.71200
H  40.85400 2.81900 47.59700
H  47.22300 1.57800 48.11700
H  48.40000 7.81600 48.16900
H  39.87800 7.63500 46.99600
H  39.59600 4.83000 46.76500
H  40.18400 5.04800 49.52700
H  38.64400 4.97300 48.77300
H  39.43700 6.56500 49.11000
H  39.65100 5.89400 44.79800
H  41.32000 6.43200 44.78600
H  41.06800 8.35200 43.99900
H  39.76700 8.79100 45.11300
H  41.99900 -0.70600 46.73400
H  41.08900 0.63100 47.40000
H  41.80800 -0.48900 48.47700
H  46.56600 -1.96500 47.87100
H  47.10700 -0.29600 48.52700
H  46.93900 -0.62800 46.82100
H  49.39600 3.25700 47.41700
H  49.20500 5.55300 49.27600
H  49.82600 2.04700 49.10100
H  48.43200 2.65400 50.03300
H  49.92400 3.52600 50.03000
H  49.76100 6.03700 46.38000
H  50.81800 4.82500 47.07700
H  52.08500 6.54400 47.70000
H  51.03500 6.73000 49.06100
H  50.82700 7.69800 47.54300
H  47.72600 9.93300 48.80200
H  46.62700 11.31600 48.35300
H  47.70400 10.59300 47.15400
H  41.93500 9.94500 46.21600
H  39.06600 11.73400 49.20200
H  38.84400 9.97900 49.44800
H  38.10800 10.70200 48.13000
Mg 49.03300 34.93400 27.33600
C  46.78200 33.47300 29.66900
C  49.57300 37.28700 29.37000
C  50.18600 36.58400 24.62600
C  48.21200 32.24600 25.14500
N  48.26900 35.27100 29.26600
C  47.43100 34.60500 30.08800
C  47.54600 35.12800 31.52300
C  48.09000 36.52600 31.39700
C  48.78500 36.34600 29.97800
C  47.08700 37.62700 31.37400
C  48.50000 34.24100 32.36600
C  48.19000 34.22400 33.87700
H  49.18500 34.89900 34.83200
N  49.80400 36.75200 27.06400
C  50.01300 37.59000 28.03000
C  50.60200 38.80400 27.51100
C  50.76800 38.65300 26.10400
C  50.22600 37.27900 25.86000
C  51.02400 39.91400 28.42600
C  51.34800 39.58700 25.03300
O  51.35900 39.35400 23.84500
C  51.91600 40.90600 25.46700
N  49.14700 34.47400 25.13800
C  49.70500 35.34700 24.27800
C  49.57900 34.68200 22.88600
C  49.37500 33.18800 23.15900
C  48.86400 33.26500 24.58200
C  48.44200 35.44900 22.08300
C  50.66800 32.29000 23.11900
C  50.62400 31.04600 22.22000
N  47.84500 33.10100 27.36800
C  47.68100 32.13400 26.41400
C  46.73800 31.16100 26.91800
C  46.36800 31.69000 28.23300
C  47.04100 32.87500 28.37000
C  46.40700 29.88700 26.16700
C  45.45900 31.43900 29.36500
O  44.82000 30.41800 29.61600
C  45.70100 32.63400 30.40600
C  46.00300 32.06800 31.73200
O  46.89200 31.28100 32.05900
O  45.09600 32.62500 32.57600
C  45.15400 32.26500 33.91400
H  49.78300 38.12600 30.03800
H  50.59200 37.11500 23.76300
H  47.98600 31.48400 24.39600
H  46.49800 35.09500 31.82300
H  48.73200 36.86000 32.21300
H  47.12300 38.20100 32.30000
H  46.04900 37.30200 31.30300
H  47.22500 38.22600 30.47400
H  49.48600 34.70600 32.35200
H  48.54800 33.27100 31.87200
H  48.30700 33.17700 34.15500
H  47.15500 34.51100 34.06400
H  50.33800 40.75800 28.50300
H  51.97400 40.31900 28.07500
H  51.27700 39.46700 29.38700
H  51.23000 41.61900 25.92500
H  52.25200 41.44300 24.58000
H  52.69100 40.74600 26.21700
H  50.52400 34.68800 22.34100
H  48.57600 32.88700 22.48100
H  47.55700 34.81400 22.03600
H  48.77900 35.53900 21.05100
H  48.30800 36.42800 22.54400
H  50.82700 31.86800 24.11200
H  51.59900 32.84800 23.01800
H  51.58500 30.79400 21.77100
H  49.82500 31.13900 21.48500
H  50.36800 30.21400 22.87500
H  46.26300 30.18900 25.12900
H  45.35500 29.65800 26.33800
H  47.18500 29.16400 26.41100
H  44.80900 33.25800 30.46700
H  45.06400 33.22800 34.41500
H  46.16100 31.96200 34.19800
H  44.48700 31.48700 34.28600

