158

Mg -2.55600 16.99200 27.10800
C  -3.19800 14.65900 29.73000
C  -2.71300 19.39600 29.45500
C  -2.27300 19.27000 24.64400
C  -2.53900 14.41900 24.80700
N  -3.04100 16.94200 29.39300
C  -3.23100 15.95000 30.29000
C  -3.27100 16.42100 31.75300
C  -3.26600 18.04400 31.48100
C  -2.98500 18.14500 30.00100
C  -4.35600 18.92800 32.14300
C  -2.18800 15.86900 32.77300
C  -2.09000 16.88500 33.93500
H  -1.63900 16.29000 35.26400
N  -2.50900 19.06300 27.10400
C  -2.45900 19.88100 28.18900
C  -2.25700 21.27400 27.70900
C  -2.05200 21.22900 26.32000
C  -2.29100 19.81200 25.97200
C  -2.23000 22.45700 28.73800
C  -1.56400 22.31100 25.46100
O  -1.72800 22.34400 24.25900
C  -1.04800 23.51100 26.00900
N  -2.62500 16.83600 25.03200
C  -2.36200 17.92800 24.25100
C  -2.22700 17.56600 22.79800
C  -2.12400 16.01200 22.87000
C  -2.44600 15.70400 24.30800
C  -3.35800 18.17900 21.91600
C  -0.80300 15.47100 22.31400
C  0.45600 15.58700 23.18800
N  -2.87000 15.03100 27.18600
C  -2.81600 14.13000 26.15300
C  -3.15400 12.82400 26.64600
C  -3.20000 12.96700 28.03400
C  -3.06700 14.35500 28.34200
C  -3.00900 11.49800 25.89900
C  -3.16500 12.17000 29.25900
O  -3.10400 11.00300 29.42100
C  -3.43300 13.28800 30.35800
C  -2.38900 13.04800 31.38900
O  -1.19000 13.27500 31.19900
O  -2.87200 12.53300 32.56900
C  -1.85700 12.32700 33.63600
H  -2.91700 20.21700 30.14600
H  -2.07800 19.98800 23.84500
H  -2.45200 13.58400 24.10900
H  -4.29900 16.21300 32.05100
H  -2.26800 18.42200 31.70100
H  -4.86500 19.48500 31.35600
H  -3.90500 19.54600 32.91900
H  -5.13800 18.35900 32.64500
H  -1.24000 15.96900 32.24500
H  -2.26200 14.86800 33.19800
H  -3.05900 17.32500 34.17400
H  -1.32900 17.59100 33.60400
H  -2.74200 23.28300 28.24500
H  -1.21000 22.82200 28.85400
H  -2.68700 22.10800 29.66500
H  -1.74900 24.14200 26.55500
H  -0.77100 24.13100 25.15700
H  -0.16800 23.34400 26.63100
H  -1.29700 18.00100 22.43100
H  -2.93300 15.60600 22.26300
H  -3.84400 18.97400 22.48000
H  -3.99100 17.39300 21.50100
H  -2.82500 18.54200 21.03700
H  -0.65600 15.93700 21.33900
H  -0.93900 14.41500 22.08100
H  0.34700 16.21100 24.07500
H  1.24000 16.05100 22.59000
H  0.89200 14.61900 23.43800
H  -2.75400 11.68900 24.85600
H  -3.91400 10.92100 26.08200
H  -2.18700 10.99400 26.40700
H  -4.43300 13.24200 30.78900
H  -2.29700 11.43900 34.09000
H  -1.85300 13.07000 34.43400
H  -0.84300 12.01700 33.38400
Mg 17.27300 52.19500 26.38800
C  19.11700 50.46900 28.87900
C  14.87500 52.80500 28.91900
C  15.30000 53.27100 24.00100
C  19.57500 50.99500 24.14300
N  16.97200 51.41400 28.60700
C  17.96800 51.01100 29.42300
C  17.65000 51.25200 30.87500
C  16.16700 51.70500 30.83300
C  16.03000 52.05500 29.33400
C  14.95700 50.73100 31.22000
C  18.50800 52.31700 31.49000
C  18.70600 52.22800 33.04900
H  17.68700 51.50600 33.96300
N  15.30400 52.91300 26.43500
C  14.53800 53.18400 27.54100
C  13.36100 53.96000 27.10200
C  13.46000 54.05700 25.63600
C  14.73400 53.35800 25.28300
C  12.38500 54.59100 28.13100
C  12.72900 55.09600 24.68700
O  13.12900 55.30000 23.50000
C  11.52900 55.89300 25.13600
N  17.41300 52.23300 24.39800
C  16.46800 52.68100 23.54700
C  16.75800 52.44400 22.05400
C  18.25900 52.00800 22.19200
C  18.48100 51.76800 23.66300
C  15.83100 51.25700 21.54900
C  19.29200 52.95600 21.51700
C  19.08800 54.46200 21.79200
N  18.99200 50.83300 26.38800
C  19.84400 50.50200 25.37300
C  20.96000 49.76100 25.83300
C  20.76000 49.73100 27.23400
C  19.47500 50.31600 27.49100
C  22.03500 49.17800 24.95000
C  21.23800 49.19200 28.49500
O  22.16300 48.46300 28.74700
C  20.26200 49.79300 29.60100
C  19.85500 48.69300 30.52800
O  19.12100 47.74900 30.32400
O  20.53500 48.82900 31.73300
C  20.07800 48.01400 32.88000
H  14.26800 53.08900 29.78100
H  14.58000 53.54600 23.22700
H  20.33400 50.78100 23.38700
H  17.65600 50.34700 31.48200
H  15.89400 52.60300 31.38700
H  14.33800 51.15800 32.00900
H  15.36400 49.76900 31.53300
H  14.21200 50.54000 30.44800
H  18.03500 53.25700 31.20500
H  19.54000 52.25500 31.14400
H  18.63900 53.29100 33.28200
H  19.73200 51.86300 33.08100
H  11.57200 53.86700 28.18400
H  12.06100 55.61100 27.92500
H  12.93300 54.55800 29.07300
H  10.82300 55.22600 25.63200
H  11.11000 56.31800 24.22400
H  11.76000 56.74900 25.77000
H  16.63100 53.27600 21.36200
H  18.44800 51.03000 21.75000
H  16.49600 50.44700 21.84800
H  15.70000 51.54000 20.50500
H  14.86000 51.05200 22.00000
H  19.36200 52.64300 20.47500
H  20.28800 52.64200 21.82700
H  18.92200 54.99200 20.85400
H  19.92500 54.94500 22.29700
H  18.26800 54.63000 22.49000
H  21.46000 48.76200 24.12300
H  22.39800 48.32300 25.52200
H  22.82800 49.78100 24.51000
H  20.87000 50.37200 30.29600
H  20.29900 46.95300 32.76400
H  18.99000 47.97700 32.93800
H  20.60500 48.38900 33.75700

