158

Mg 48.63600 24.52300 28.89400
C  49.59100 26.89500 31.49600
C  47.67100 22.38100 31.43400
C  48.01900 22.17500 26.46700
C  49.63400 26.80300 26.58000
N  48.67000 24.66700 31.19200
C  48.97800 25.72900 32.01200
C  48.56100 25.44600 33.46100
C  48.10000 23.85900 33.37200
C  48.10800 23.62600 31.85900
C  48.91200 22.79100 34.30400
C  47.65100 26.54800 34.06000
C  48.06600 27.28000 35.36400
H  47.10200 27.16900 36.54700
N  47.94800 22.55600 28.93400
C  47.61500 21.82300 30.05800
C  47.16200 20.48200 29.60400
C  47.32100 20.48300 28.17200
C  47.80000 21.79300 27.78300
C  46.68000 19.45000 30.53200
C  47.09400 19.30400 27.23400
O  47.54800 19.35200 26.09800
C  46.53000 18.01500 27.69000
N  49.05200 24.43700 26.85600
C  48.60100 23.37400 26.02600
C  48.71300 23.72300 24.48700
C  48.88500 25.24600 24.59800
C  49.29900 25.49000 26.11800
C  49.93800 23.16500 23.87800
C  47.64100 26.07000 24.15600
C  47.89300 27.27800 23.21700
N  49.53200 26.40200 28.92200
C  49.86500 27.23700 27.87100
C  50.32100 28.54900 28.38900
C  50.21400 28.44700 29.77300
C  49.76500 27.13300 30.10000
C  50.82300 29.74300 27.61400
C  50.50500 29.15400 31.05600
O  50.92500 30.32700 31.15800
C  50.03300 28.23400 32.21600
C  51.11600 28.04900 33.15800
O  51.84100 27.10500 33.25700
O  51.20100 29.09100 34.08600
C  52.21200 28.95900 35.16900
H  47.24400 21.66700 32.14100
H  47.69300 21.51000 25.66400
H  49.81500 27.46300 25.72900
H  49.50700 25.58300 33.98300
H  47.07100 23.79500 33.72600
H  49.46100 22.03900 33.73800
H  48.31900 22.34400 35.10200
H  49.68300 23.42700 34.73700
H  46.68300 26.05500 34.14600
H  47.53200 27.23500 33.22300
H  48.18100 28.33200 35.10100
H  48.94100 26.89700 35.88800
H  46.60700 19.84900 31.54400
H  47.30000 18.55500 30.47300
H  45.65000 19.18300 30.29500
H  45.62400 18.16500 28.27800
H  47.22000 17.44300 28.31000
H  46.28600 17.31800 26.88800
H  47.90300 23.28600 23.90400
H  49.77500 25.51700 24.03000
H  49.81100 22.08300 23.91400
H  50.85900 23.52400 24.33900
H  50.10300 23.47300 22.84500
H  47.18700 26.50200 25.04800
H  46.96400 25.38700 23.64200
H  47.75300 26.95500 22.18500
H  48.94300 27.53300 23.35800
H  47.29700 28.10600 23.60000
H  50.36400 30.66800 27.96400
H  50.41400 29.59300 26.61400
H  51.87800 29.73500 27.34100
H  49.25200 28.83500 32.68200
H  53.16900 28.64300 34.75300
H  51.90700 28.20800 35.89700
H  52.39600 29.98300 35.49600
Mg 35.66100 48.22100 25.29500
C  36.22400 46.44900 28.33900
C  34.43500 50.86300 27.26100
C  35.08400 49.96400 22.48100
C  36.70900 45.36600 23.55800
N  35.22800 48.49200 27.47800
C  35.60600 47.69500 28.58000
C  35.26300 48.36900 29.89100
C  34.44300 49.63400 29.44600
C  34.71800 49.67600 27.95000
C  32.92500 49.61200 29.86700
C  36.55100 48.71400 30.72400
C  36.53500 48.24600 32.18000
H  35.15600 48.14700 32.92500
N  34.92700 50.10200 24.95100
C  34.59700 51.07700 25.87100
C  34.29700 52.29800 25.18800
C  34.45100 52.10000 23.77800
C  34.86500 50.64500 23.68600
C  34.03200 53.52000 25.98800
C  34.37000 53.06500 22.71600
O  34.70200 52.85300 21.56400
C  33.78700 54.51100 22.90000
N  35.89600 47.73100 23.38300
C  35.53100 48.62800 22.39000
C  35.44200 47.87100 21.01100
C  35.93200 46.42300 21.33000
C  36.21300 46.53600 22.79800
C  33.95000 47.93500 20.34400
C  37.12700 45.82600 20.47600
C  36.66600 44.96600 19.29200
N  36.46500 46.39400 25.80100
C  36.83000 45.34300 24.96000
C  37.22400 44.17400 25.80900
C  36.95500 44.61500 27.11400
C  36.56700 45.93400 27.05700
C  37.81500 42.88200 25.33200
C  36.84100 44.12600 28.47300
O  37.10500 43.05400 29.03500
C  36.42000 45.35500 29.27500
C  35.26200 44.96500 30.09500
O  34.08200 44.97800 29.77400
O  35.71300 44.43300 31.30400
C  34.76700 43.77500 32.22500
H  34.04900 51.61400 27.95400
H  34.67900 50.44600 21.58900
H  36.99000 44.46700 23.00500
H  34.59500 47.64200 30.35300
H  34.95200 50.49200 29.88400
H  32.24800 49.68000 29.01500
H  32.82300 50.38400 30.62900
H  32.68500 48.66700 30.35500
H  36.70600 49.79000 30.64800
H  37.44500 48.28600 30.27100
H  37.25100 48.92300 32.64600
H  37.02700 47.27400 32.21600
H  34.95500 53.95400 26.37300
H  33.41500 53.18500 26.82200
H  33.46300 54.27600 25.44600
H  33.66900 55.15400 22.02800
H  34.48500 54.99800 23.58200
H  32.90200 54.52100 23.53600
H  36.19400 48.27900 20.33500
H  35.10700 45.71700 21.24600
H  33.71500 46.87900 20.21000
H  33.95400 48.59600 19.47800
H  33.41400 48.41200 21.16500
H  37.72300 45.21600 21.15500
H  37.75800 46.57600 19.99800
H  35.58700 45.01500 19.14300
H  36.88500 43.90800 19.43600
H  37.05000 45.44000 18.38900
H  37.91700 42.99200 24.25300
H  37.13000 42.09300 25.64300
H  38.66500 42.70800 25.99100
H  37.29500 45.65800 29.85000
H  33.93700 44.42000 32.51300
H  35.28600 43.38600 33.10100
H  34.42900 42.88800 31.69000

