158

Mg 7.92800 3.05500 27.49100
C  9.60300 2.00600 30.32900
C  6.51100 5.60400 29.44000
C  6.30800 4.17800 24.73500
C  9.34200 0.55600 25.60900
N  8.10600 3.76000 29.61500
C  8.70900 3.03800 30.57800
C  8.53800 3.76100 32.00700
C  7.51700 4.84400 31.60500
C  7.33200 4.68700 30.11200
C  6.03600 4.74400 32.31500
C  9.88200 4.42400 32.46500
C  9.76700 5.22800 33.80100
H  10.77000 4.82000 34.97000
N  6.63800 4.64000 27.14500
C  6.14500 5.57200 28.08900
C  5.27700 6.52800 27.39300
C  5.08800 6.00600 26.00100
C  5.99800 4.86000 25.90700
C  4.54000 7.76700 28.09800
C  4.25400 6.55400 24.84900
O  4.26600 6.06600 23.70000
C  3.56500 7.87200 25.05600
N  7.72400 2.30400 25.44000
C  7.02000 3.00200 24.49900
C  7.12300 2.34400 23.07900
C  8.20700 1.21400 23.38800
C  8.48600 1.34800 24.88700
C  5.83100 1.67900 22.49800
C  9.49900 1.03900 22.53600
C  10.75600 1.89900 22.87100
N  9.11600 1.53300 27.86900
C  9.71800 0.61100 26.97900
C  10.59500 -0.22200 27.74000
C  10.64100 0.30500 29.05800
C  9.64400 1.34700 29.09900
C  11.44100 -1.38000 27.16300
C  11.17100 0.07900 30.34300
O  11.96000 -0.74000 30.78500
C  10.47900 1.24400 31.27700
C  9.81600 0.62700 32.49200
O  8.84700 -0.04500 32.55500
O  10.67900 0.89300 33.53900
C  10.33600 0.36900 34.90000
H  6.23900 6.41200 30.12200
H  5.85100 4.56300 23.82200
H  9.63500 -0.26800 24.95500
H  8.12100 3.10900 32.77500
H  7.81700 5.88000 31.76800
H  5.16200 4.96600 31.70300
H  5.93300 5.45000 33.13900
H  5.80300 3.81400 32.83500
H  10.20900 5.07200 31.65100
H  10.65000 3.68700 32.69900
H  8.76900 5.18100 34.23700
H  9.95300 6.25700 33.49400
H  4.96500 8.75200 27.90200
H  4.55400 7.64900 29.18100
H  3.46200 7.73400 27.93900
H  2.68100 7.68000 25.66400
H  3.09200 8.23800 24.14400
H  4.24900 8.59000 25.50800
H  7.57500 3.06000 22.39400
H  7.62300 0.29400 23.38200
H  5.05100 1.60200 23.25500
H  6.04200 0.66000 22.17500
H  5.46300 2.23900 21.63800
H  9.34600 1.34900 21.50200
H  9.76000 -0.01400 22.63600
H  10.44000 2.70800 23.52900
H  11.16500 2.39700 21.99200
H  11.56400 1.26300 23.23300
H  11.05800 -1.85300 26.25900
H  11.41900 -2.18100 27.90100
H  12.47300 -1.08000 26.97800
H  11.32100 1.91300 31.45600
H  9.33800 0.68000 35.20900
H  11.08600 0.75600 35.59000
H  10.42800 -0.71200 34.79200
Mg 24.93000 1.75500 29.38100
C  26.97800 1.60500 32.21200
C  22.14200 2.09400 31.57500
C  22.97500 1.80800 26.65000
C  27.78700 1.16500 27.37600
N  24.59700 1.67900 31.64200
C  25.63000 1.81400 32.57000
C  25.04500 2.04300 33.98900
C  23.52700 2.25700 33.72200
C  23.37800 2.01200 32.21500
C  22.60600 1.35000 34.58700
C  25.77700 3.11200 34.89800
C  25.92300 2.71000 36.39700
H  25.82600 3.91100 37.40100
N  22.80500 1.72900 29.17000
C  21.86000 1.89100 30.15200
C  20.54600 1.81900 29.51700
C  20.82200 1.76200 28.07400
C  22.24800 1.71800 27.91100
C  19.27100 1.77600 30.30700
C  19.87500 1.60500 26.91200
O  20.15700 1.70800 25.70700
C  18.42900 1.34900 27.23700
N  25.24500 1.43300 27.35400
C  24.31100 1.79500 26.38000
C  24.96400 1.76700 24.93700
C  26.48900 1.66900 25.31200
C  26.52900 1.41400 26.76700
C  24.51800 0.60500 24.04700
C  27.33000 2.95500 24.82600
C  27.23600 4.19200 25.62500
N  26.95600 1.39000 29.67100
C  28.00500 1.12700 28.78300
C  29.17800 0.86700 29.54300
C  28.79700 1.01400 30.91400
C  27.46000 1.27900 30.92000
C  30.51300 0.62000 29.02600
C  29.39100 0.96400 32.23500
O  30.53300 0.81900 32.62000
C  28.20100 1.42900 33.12100
C  27.96700 0.41000 34.19600
O  27.12900 -0.48300 34.08400
O  28.72600 0.66500 35.30200
C  28.50400 -0.25900 36.42500
H  21.24600 2.15300 32.19700
H  22.43200 1.95900 25.71500
H  28.59200 0.94600 26.67200
H  25.16000 1.12100 34.55900
H  23.32400 3.29900 33.96800
H  22.17900 0.53400 34.00300
H  21.81900 1.93900 35.05800
H  23.21100 0.97000 35.41000
H  25.25000 4.06500 34.87000
H  26.72500 3.30200 34.39400
H  26.95900 2.45200 36.61900
H  25.16200 1.97000 36.64100
H  18.69700 2.67900 30.09600
H  19.26500 1.83200 31.39600
H  18.82900 0.83500 29.98000
H  18.34600 0.49100 27.90500
H  17.84500 1.02500 26.37600
H  17.91300 2.21900 27.64200
H  24.80100 2.76000 24.51700
H  26.92600 0.77700 24.86200
H  25.23300 -0.19500 23.85300
H  24.27600 1.03200 23.07400
H  23.55500 0.21300 24.37600
H  26.99500 3.12100 23.80200
H  28.38900 2.72800 24.70100
H  26.98000 4.01100 26.66900
H  26.49100 4.82700 25.14700
H  28.18800 4.71900 25.54900
H  30.89400 1.41300 28.38200
H  30.48400 -0.26000 28.38400
H  31.15700 0.53300 29.90100
H  28.42200 2.42000 33.51800
H  29.04800 -1.16800 36.17200
H  27.45300 -0.54500 36.46600
H  28.78600 0.19800 37.37400

