158

Mg -2.58600 35.25300 26.61400
C  -4.31700 33.84700 29.33500
C  -1.25300 37.57900 28.85400
C  -1.20800 36.81800 24.02500
C  -3.98900 32.93900 24.55000
N  -2.71000 35.61900 28.93400
C  -3.50900 34.98700 29.77200
C  -3.26300 35.47600 31.27000
C  -2.32000 36.73800 31.07600
C  -2.12100 36.70300 29.51300
C  -2.60600 38.10200 31.68300
C  -2.79800 34.31000 32.19800
C  -2.30600 34.71800 33.63700
H  -3.31600 34.41400 34.74000
N  -1.33700 36.93600 26.43700
C  -0.92400 37.73700 27.49600
C  -0.05700 38.78300 26.89800
C  -0.09500 38.59100 25.43800
C  -0.95000 37.41000 25.20100
C  0.69500 39.77200 27.68200
C  0.55500 39.30800 24.32200
O  0.51700 39.01100 23.15800
C  1.48000 40.47000 24.60000
N  -2.78600 35.07100 24.64100
C  -2.05200 35.78300 23.67800
C  -2.12300 35.16900 22.34400
C  -2.59200 33.73400 22.61500
C  -3.20100 33.91600 24.02200
C  -3.11400 35.95700 21.34900
C  -1.39700 32.75700 22.69500
C  -1.71400 31.37400 22.11100
N  -3.93000 33.67000 26.82400
C  -4.38100 32.80900 25.89300
C  -5.22800 31.85000 26.52300
C  -5.25700 32.17700 27.89700
C  -4.38800 33.32800 28.01700
C  -6.02000 30.77200 25.76600
C  -5.71100 31.80600 29.20700
O  -6.53900 31.00800 29.56600
C  -5.15300 32.87100 30.18400
C  -6.15000 33.53700 31.10300
O  -6.59000 34.70600 31.02400
O  -6.40500 32.71200 32.07200
C  -7.36400 33.16700 33.05200
H  -0.77300 38.33500 29.47900
H  -0.69800 37.16500 23.12400
H  -4.35400 32.23900 23.79600
H  -4.21100 35.81600 31.68800
H  -1.33100 36.57300 31.50400
H  -3.52300 38.02300 32.26600
H  -2.68100 38.92800 30.97500
H  -1.70700 38.36600 32.24000
H  -2.04900 33.71300 31.67700
H  -3.67200 33.68200 32.37200
H  -2.09500 35.78400 33.72200
H  -1.38900 34.18600 33.89300
H  1.71100 39.41000 27.84000
H  0.35100 39.98000 28.69500
H  0.76300 40.77700 27.26500
H  0.94400 41.33800 24.98300
H  1.95300 40.74300 23.65600
H  2.24000 40.19700 25.33200
H  -1.15500 35.15800 21.84200
H  -3.30000 33.39600 21.85800
H  -3.15900 37.03200 21.52300
H  -4.11800 35.56400 21.50800
H  -2.91000 35.74400 20.30000
H  -1.09600 32.55000 23.72200
H  -0.52000 33.13100 22.16700
H  -0.89400 31.23100 21.40600
H  -2.63900 31.18000 21.56800
H  -1.59900 30.59600 22.86600
H  -6.66200 30.31400 26.51900
H  -5.39100 29.96000 25.40000
H  -6.61300 31.30000 25.02000
H  -4.48800 32.30300 30.83500
H  -8.29400 33.24700 32.48800
H  -7.18500 34.15900 33.46600
H  -7.50200 32.47900 33.88600
Mg -12.28700 15.50200 42.14200
C  -9.04700 14.35900 41.49600
C  -11.50600 18.51800 40.44600
C  -15.61600 16.28500 41.93700
C  -13.19300 12.26800 43.11000
N  -10.60900 16.22700 40.96700
C  -9.33100 15.63100 40.97500
C  -8.26500 16.49600 40.27200
C  -9.00100 17.90500 40.32400
C  -10.49300 17.53600 40.58200
C  -8.37100 19.00300 41.29200
C  -7.77700 16.01400 38.86800
C  -6.24400 15.92500 38.73200
H  -5.58100 16.58700 37.55300
N  -13.42500 17.23600 41.36300
C  -12.92800 18.36200 40.71900
C  -13.97600 19.29900 40.44400
C  -15.23500 18.69600 40.92300
C  -14.78600 17.39100 41.48900
C  -13.72900 20.64600 39.82700
C  -16.58000 19.33600 40.86900
O  -16.75300 20.34900 40.15800
C  -17.71100 18.89500 41.66400
N  -14.11900 14.48500 42.63000
C  -15.31600 15.03100 42.39800
C  -16.46500 14.06000 42.68000
C  -15.71500 12.70100 43.14000
C  -14.22100 13.13400 42.94500
C  -17.61200 14.48500 43.67900
C  -16.12500 11.42900 42.42100
C  -16.72800 10.31900 43.26400
N  -11.42300 13.69100 42.27800
C  -11.85700 12.51100 42.86200
C  -10.75100 11.56800 43.01600
C  -9.63900 12.28300 42.42400
C  -10.07000 13.52600 42.01100
C  -10.76600 10.10400 43.55300
C  -8.20000 12.20900 42.12200
O  -7.42700 11.38600 42.50800
C  -7.77100 13.58900 41.47400
C  -6.62400 14.15300 42.22500
O  -6.70700 14.54800 43.36700
O  -5.43700 14.13800 41.51900
C  -4.25500 14.41200 42.36000
H  -11.13300 19.48300 40.09600
H  -16.66300 16.56900 41.81100
H  -13.34700 11.30400 43.60000
H  -7.42500 16.55500 40.96400
H  -8.85500 18.40200 39.36500
H  -8.30300 19.94700 40.75200
H  -7.35300 18.70700 41.54300
H  -8.97000 19.08400 42.19900
H  -8.23100 16.76800 38.22400
H  -8.22300 15.04100 38.65800
H  -6.13200 14.84000 38.72600
H  -5.82300 16.37300 39.63200
H  -12.72100 21.06100 39.85300
H  -14.34700 21.37300 40.35400
H  -14.07800 20.66100 38.79400
H  -18.30400 18.31500 40.95700
H  -18.30000 19.77700 41.91500
H  -17.45200 18.29900 42.54000
H  -17.03300 14.00000 41.75100
H  -15.74900 12.59700 44.22400
H  -17.62900 13.82100 44.54200
H  -18.51900 14.32600 43.09500
H  -17.55600 15.53300 43.97600
H  -15.23200 11.09700 41.89200
H  -16.80200 11.71800 41.61700
H  -16.29500 9.39500 42.88200
H  -17.81400 10.22800 43.24900
H  -16.41400 10.37400 44.30700
H  -9.80300 9.59400 43.58600
H  -11.36200 9.45900 42.90700
H  -11.21500 9.95500 44.53500
H  -7.42300 13.53200 40.44300
H  -4.14500 15.43200 42.72800
H  -3.43900 14.12600 41.69600
H  -4.21200 13.70700 43.19000

