158

Mg -8.56500 40.38400 43.43300
C  -7.39700 37.26300 42.26000
C  -5.96400 41.91300 41.85300
C  -10.05600 43.36100 43.92300
C  -11.38600 38.64600 44.69400
N  -6.86200 39.61400 42.26600
C  -6.48400 38.33800 41.93600
C  -5.22700 38.31800 41.05100
C  -4.79400 39.75800 41.16000
C  -5.93300 40.49000 41.86000
C  -3.45500 39.89300 41.86900
C  -5.43400 37.64600 39.62800
C  -4.63800 36.47300 39.23900
H  -3.69000 36.59400 38.03300
N  -8.03900 42.40100 43.01600
C  -6.94800 42.81700 42.33000
C  -6.99700 44.29700 42.19600
C  -8.20700 44.70700 42.83700
C  -8.79500 43.46100 43.29500
C  -5.95300 45.06100 41.41200
C  -8.71800 46.20900 42.88700
O  -8.26200 47.11800 42.18900
C  -9.79300 46.55800 43.86100
N  -10.55100 40.95600 43.99900
C  -10.84200 42.27200 44.25500
C  -12.25800 42.36500 44.85400
C  -12.62300 40.84000 45.25500
C  -11.55000 40.04200 44.44300
C  -12.40600 43.28100 46.09600
C  -14.08500 40.43800 44.88200
C  -14.72200 39.48500 45.98800
N  -9.25100 38.36900 43.59700
C  -10.39400 37.81900 44.15400
C  -10.31900 36.40200 44.21300
C  -9.19300 36.11100 43.42900
C  -8.54800 37.37600 43.07900
C  -11.36900 35.46100 44.79100
C  -8.51800 35.07500 42.76800
O  -8.67400 33.83800 42.72800
C  -7.28800 35.73600 41.93900
C  -6.08000 35.06000 42.33000
O  -5.45100 35.28700 43.33900
O  -5.68100 34.15200 41.36900
C  -4.46500 33.40500 41.60400
H  -5.11600 42.43200 41.39900
H  -10.64800 44.25600 44.12900
H  -12.24300 38.28500 45.26600
H  -4.50400 37.74600 41.63100
H  -4.77900 40.17600 40.15400
H  -2.66900 39.46200 41.24800
H  -3.50500 39.29700 42.78000
H  -3.02300 40.87100 42.08300
H  -5.14300 38.32600 38.82700
H  -6.48800 37.43200 39.45200
H  -5.29500 35.63200 39.01300
H  -4.04100 36.11000 40.07500
H  -6.40300 45.89100 40.86700
H  -5.43600 44.40300 40.71300
H  -5.18600 45.49800 42.05100
H  -9.82400 47.63100 44.04600
H  -9.69000 46.06400 44.82700
H  -10.75500 46.28400 43.42800
H  -12.91400 42.78900 44.09400
H  -12.39000 40.59200 46.29100
H  -13.10300 44.11400 46.00400
H  -11.43900 43.75300 46.27000
H  -12.82800 42.75500 46.95200
H  -13.99500 39.84400 43.97300
H  -14.78700 41.24200 44.66000
H  -14.21300 39.58400 46.94700
H  -14.55500 38.45000 45.68800
H  -15.81000 39.55200 45.96900
H  -11.94300 35.10300 43.93700
H  -11.96700 35.79800 45.63800
H  -10.67600 34.72900 45.20600
H  -7.51900 35.62000 40.88000
H  -4.78200 32.42900 41.97200
H  -3.89600 33.73600 42.47300
H  -3.90400 33.05800 40.73600
Mg -1.67000 34.45700 26.88600
C  -3.18100 32.72300 29.53000
C  -0.18200 36.48500 28.85500
C  -1.29600 36.60700 24.22100
C  -4.03200 32.60200 24.62000
N  -1.97800 34.77900 28.91900
C  -2.34700 33.83200 29.87700
C  -1.84800 34.13600 31.25300
C  -0.96200 35.37000 30.96100
C  -1.05200 35.60100 29.45800
C  -1.19800 36.59300 31.87000
C  -1.20400 32.94200 32.07600
C  -1.51400 32.99100 33.62700
H  -0.43300 32.69800 34.65500
N  -0.65300 36.20700 26.49800
C  0.00700 36.84800 27.50200
C  0.68900 37.95300 26.95100
C  0.37600 37.97200 25.53500
C  -0.54100 36.92300 25.35300
C  1.43800 39.04200 27.73100
C  0.90200 38.89600 24.46800
O  0.44600 38.90100 23.36100
C  1.87800 39.89000 24.76600
N  -2.58300 34.58600 24.75800
C  -2.31900 35.61700 23.97200
C  -3.02000 35.59800 22.52400
C  -3.81100 34.23500 22.61200
C  -3.43200 33.75600 24.05800
C  -4.01600 36.79200 22.41000
C  -3.27900 33.21200 21.49000
C  -1.68900 32.97300 21.42900
N  -3.13800 32.94100 26.97500
C  -3.93800 32.28200 26.03300
C  -4.72300 31.25000 26.66100
C  -4.39300 31.35100 28.05500
C  -3.54000 32.44600 28.16700
C  -5.64900 30.27300 25.99900
C  -4.73000 30.80800 29.38900
O  -5.48200 29.92400 29.74100
C  -3.86500 31.64700 30.42100
C  -4.73100 32.28300 31.37400
O  -5.60700 33.06900 31.06300
O  -4.55600 31.82300 32.63800
C  -5.45700 32.42600 33.62500
H  0.38500 37.05800 29.59100
H  -1.17900 37.21200 23.31900
H  -4.66300 32.03000 23.93700
H  -2.71400 34.49800 31.80700
H  0.01500 34.92400 31.15100
H  -1.99100 36.37500 32.58500
H  -1.48200 37.42500 31.22500
H  -0.28500 36.76800 32.43800
H  -0.11500 32.96400 32.11500
H  -1.47900 31.95300 31.70700
H  -2.25000 32.20400 33.78900
H  -1.83700 34.01000 33.83700
H  1.68100 38.73900 28.75000
H  0.93700 40.00600 27.64100
H  2.42600 39.12000 27.27800
H  2.37500 40.16700 23.83600
H  2.69800 39.42700 25.31400
H  1.47500 40.75900 25.28600
H  -2.31000 35.66300 21.70000
H  -4.89600 34.31700 22.67900
H  -5.04500 36.51900 22.17800
H  -3.60100 37.34800 21.56900
H  -3.98300 37.44700 23.28100
H  -3.75100 33.42400 20.53000
H  -3.59800 32.18600 21.67600
H  -1.46500 33.16900 20.38100
H  -1.22400 32.02700 21.70400
H  -1.18200 33.75300 21.99800
H  -5.46600 29.27700 26.40200
H  -5.61500 30.24200 24.91000
H  -6.64000 30.58100 26.33300
H  -3.29700 30.89900 30.97400
H  -5.96200 33.34400 33.32800
H  -4.75100 32.71600 34.40400
H  -6.15400 31.78600 34.16700

