158

Mg 0.59900 6.81400 26.05300
C  1.18200 8.72700 28.99600
C  0.51800 4.02200 28.09200
C  -0.00000 4.96900 23.36800
C  1.10800 9.67700 24.20100
N  0.96800 6.50700 28.29200
C  0.94100 7.43100 29.29200
C  0.77500 6.81700 30.65300
C  0.84500 5.28600 30.30600
C  0.71000 5.23400 28.79600
C  2.10300 4.45600 30.70000
C  -0.57600 7.27300 31.42100
C  -0.48600 7.76100 32.85200
H  0.72800 7.39500 33.71700
N  0.44600 4.71100 25.74800
C  0.34500 3.75100 26.70700
C  0.09600 2.47800 26.04100
C  0.00500 2.74400 24.64700
C  0.17300 4.16800 24.53000
C  0.15400 1.11200 26.71800
C  -0.14000 1.74600 23.46900
O  -0.11300 2.10600 22.28500
C  -0.12600 0.20800 23.70100
N  0.49900 7.27600 24.12400
C  0.18700 6.36800 23.20800
C  -0.05600 6.99300 21.83100
C  0.39600 8.45700 22.06000
C  0.77000 8.42500 23.57300
C  0.62800 6.26800 20.55600
C  -0.63800 9.54500 21.63400
C  -1.86200 9.64100 22.63000
N  0.96500 8.79800 26.49600
C  1.29700 9.81200 25.60000
C  1.58300 11.06900 26.26200
C  1.53400 10.63500 27.65100
C  1.20000 9.27800 27.70000
C  2.06600 12.38800 25.59300
C  1.84700 11.10300 28.93300
O  2.26200 12.24000 29.26700
C  1.44800 9.90900 29.93400
C  2.53800 9.83800 30.89100
O  3.60300 9.30400 30.71900
O  2.27100 10.56400 32.00500
C  3.43900 10.75900 32.85100
H  0.35400 3.14800 28.72600
H  -0.28500 4.47900 22.43400
H  1.16800 10.51900 23.50800
H  1.59600 7.07000 31.32300
H  0.01800 4.70100 30.70900
H  2.81800 4.95800 31.35100
H  2.65000 4.10600 29.82500
H  1.68700 3.54300 31.12700
H  -1.36700 6.56700 31.16800
H  -0.87800 8.15500 30.85500
H  -1.39500 7.44000 33.36100
H  -0.47200 8.83800 32.68700
H  0.56100 1.12800 27.72900
H  0.79300 0.46100 26.12100
H  -0.87700 0.76600 26.64900
H  0.84800 -0.26700 23.81700
H  -0.49800 -0.22400 22.77200
H  -0.80300 0.01000 24.53200
H  -1.13600 7.01000 21.68300
H  1.23200 8.73500 21.41900
H  1.04000 5.31400 20.88400
H  1.34000 6.96600 20.11500
H  -0.07700 6.03500 19.75800
H  -1.04800 9.29600 20.65600
H  -0.26000 10.54200 21.40600
H  -2.82900 9.70800 22.13300
H  -1.71200 10.54600 23.21800
H  -1.90500 8.76000 23.27100
H  2.86100 12.16200 24.88200
H  2.50100 13.03800 26.35300
H  1.24100 12.88600 25.08200
H  0.52700 10.15200 30.46400
H  3.99200 11.64400 32.53500
H  4.11100 9.90100 32.86500
H  3.07300 10.98300 33.85300
Mg 40.40900 9.74600 29.40500
C  42.41500 10.79400 32.08600
C  38.29300 8.33000 31.76100
C  38.75800 8.55600 26.87800
C  42.94300 10.92400 27.24400
N  40.46900 9.47400 31.67700
C  41.26300 10.24000 32.54400
C  40.76100 10.20100 33.98300
C  39.47300 9.23500 33.89800
C  39.42000 8.99000 32.38000
C  39.53300 7.92900 34.65100
C  40.65500 11.52600 34.64600
C  39.62500 11.74300 35.69600
H  40.07700 12.21900 37.07300
N  38.85300 8.57400 29.30900
C  38.01500 8.16800 30.39800
C  36.87000 7.46300 29.90700
C  36.95700 7.57500 28.52500
C  38.27100 8.13500 28.13800
C  35.80400 6.78600 30.69900
C  35.89900 7.32800 27.51000
O  36.05300 7.44000 26.27900
C  34.43400 7.04600 27.92600
N  40.72800 9.83600 27.38600
C  39.87800 9.29600 26.51700
C  40.27600 9.41100 25.09800
C  41.74200 9.96800 25.25500
C  41.78400 10.36600 26.75200
C  40.14900 8.11900 24.11900
C  42.12300 11.29500 24.44300
C  43.60600 11.37200 23.94700
N  42.33500 10.56100 29.58200
C  43.21000 11.07000 28.60300
C  44.36700 11.67900 29.20400
C  44.03600 11.55200 30.57600
C  42.83000 10.89900 30.79700
C  45.55300 12.32800 28.54300
C  44.51700 11.90000 31.95200
O  45.50500 12.56300 32.24700
C  43.47100 11.38100 32.98700
C  44.05600 10.43300 34.03400
O  44.51900 9.31500 33.80600
O  44.31600 11.14500 35.19900
C  45.16200 10.50200 36.30600
H  37.55400 7.88100 32.42800
H  38.09200 8.46000 26.01800
H  43.72100 11.14900 26.51100
H  41.55800 9.63500 34.46500
H  38.59100 9.73000 34.30300
H  39.09800 7.06600 34.14600
H  38.73100 8.02900 35.38300
H  40.39700 7.60500 35.23100
H  40.73400 12.27400 33.85700
H  41.54800 11.68200 35.25100
H  39.11600 10.79900 35.88800
H  38.78800 12.30600 35.28300
H  36.15800 6.25100 31.58100
H  35.45200 5.94800 30.09800
H  34.89800 7.39000 30.66900
H  34.36500 6.01300 28.26700
H  33.80600 7.12500 27.03800
H  34.03400 7.73200 28.67300
H  39.57500 10.16600 24.74100
H  42.31100 9.05100 25.10800
H  40.96200 8.14700 23.39400
H  39.16600 8.32800 23.69700
H  40.17600 7.18000 24.67200
H  41.81000 12.05700 25.15700
H  41.42200 11.47500 23.62800
H  43.46900 11.69100 22.91400
H  44.10000 10.40000 23.93400
H  44.25300 12.06500 24.48300
H  45.36800 12.37000 27.46900
H  46.49600 11.81000 28.72000
H  45.75400 13.36600 28.80800
H  43.12600 12.28200 33.49500
H  46.12500 11.01000 36.25700
H  45.19200 9.43700 36.07900
H  44.68800 10.82500 37.23400

