158

Mg 0.31600 8.27700 25.65100
C  1.17100 10.05000 28.67400
C  0.27600 5.40900 27.50400
C  0.42400 6.42100 22.81300
C  1.15700 11.08300 23.87700
N  0.94700 7.75600 27.85600
C  0.98200 8.68200 28.88200
C  0.86800 7.91000 30.24300
C  0.61600 6.37900 29.87100
C  0.58900 6.54600 28.29500
C  1.76000 5.39900 30.29400
C  -0.17600 8.56900 31.15500
C  0.09400 8.61600 32.70400
H  1.28500 7.95300 33.35300
N  0.18100 6.16900 25.23900
C  0.22700 5.15400 26.11900
C  0.01400 3.88200 25.46400
C  0.01000 4.19100 24.03000
C  0.23600 5.66200 23.96000
C  -0.00900 2.57500 26.26400
C  -0.04300 3.21100 22.79200
O  0.09500 3.57800 21.61000
C  -0.29800 1.71600 23.12500
N  0.73300 8.76400 23.62800
C  0.66700 7.82400 22.62600
C  0.74500 8.50100 21.25400
C  0.74900 9.94700 21.62800
C  0.78600 9.97100 23.13800
C  1.84500 8.00200 20.27700
C  -0.30900 10.82700 20.97200
C  -1.67500 10.98300 21.68300
N  0.84900 10.24900 26.20800
C  1.22500 11.20700 25.30700
C  1.70300 12.36800 26.05300
C  1.64100 11.95500 27.39000
C  1.21000 10.62500 27.39500
C  2.11200 13.65100 25.33900
C  1.98300 12.36600 28.72400
O  2.38400 13.39400 29.16900
C  1.60500 11.08600 29.63200
C  2.81100 10.77400 30.53500
O  3.69100 9.99300 30.32400
O  2.80100 11.62900 31.68000
C  3.87100 11.48700 32.62500
H  -0.05200 4.57100 28.12300
H  0.24400 5.78900 21.94000
H  1.39800 11.91900 23.21700
H  1.83500 8.02100 30.73200
H  -0.38000 6.00600 30.11200
H  2.49900 5.90500 30.91500
H  2.18600 4.88500 29.43200
H  1.33300 4.64500 30.95500
H  -1.04500 7.95200 30.92600
H  -0.36800 9.57500 30.78100
H  -0.83500 8.22600 33.12100
H  0.16500 9.67400 32.95300
H  -1.03600 2.31800 26.52800
H  0.50000 2.76500 27.20900
H  0.44800 1.72100 25.76400
H  0.62800 1.34400 23.56300
H  -0.35100 1.15400 22.19200
H  -1.20600 1.50400 23.69000
H  -0.21700 8.28700 20.79000
H  1.67600 10.46500 21.38100
H  2.60600 7.51500 20.88700
H  2.31100 8.87400 19.81700
H  1.67500 7.30700 19.45500
H  -0.44700 10.50100 19.94100
H  0.19500 11.78100 20.81500
H  -1.73200 10.22600 22.46600
H  -2.52000 11.09300 21.00400
H  -1.55100 11.98600 22.09200
H  3.18500 13.79400 25.21700
H  1.85100 14.44200 26.04100
H  1.51100 13.72300 24.43300
H  0.74900 11.49600 30.16800
H  4.77500 11.24300 32.06600
H  3.68400 10.62000 33.25800
H  4.10500 12.39800 33.17500
Mg 29.65500 58.02700 40.63300
C  26.91200 56.34500 39.26300
C  31.71600 55.59200 39.21900
C  32.32600 60.16600 40.71800
C  27.51400 60.85200 41.54900
N  29.31200 56.22600 39.27700
C  28.13800 55.70400 38.82300
C  28.32300 54.34600 38.13300
C  29.83600 54.15700 38.25000
C  30.36200 55.37300 38.99900
C  30.38800 52.84900 38.87500
C  27.67700 54.01900 36.68400
C  27.50400 55.23000 35.65700
H  28.02300 55.15700 34.20400
N  31.74400 57.80000 40.32700
C  32.41600 56.68800 39.79000
C  33.77400 56.90100 39.87200
C  34.00500 58.28500 40.17100
C  32.64100 58.84400 40.38600
C  34.90500 55.91200 39.53700
C  35.39700 59.05000 40.09600
O  36.43700 58.44000 39.76200
C  35.52100 60.49300 40.23300
N  29.93000 60.17900 41.27500
C  31.14500 60.77800 41.14600
C  31.06600 62.29400 41.54400
C  29.52000 62.49400 41.77500
C  28.90100 61.05100 41.60400
C  32.05600 62.82600 42.67700
C  28.79600 63.63600 40.98300
C  28.18200 64.80600 41.72200
N  27.64300 58.47300 40.59500
C  26.93800 59.58000 41.10400
C  25.51300 59.32200 40.87900
C  25.46200 58.09000 40.21100
C  26.79100 57.63400 40.01200
C  24.35500 60.20400 41.22800
C  24.63300 57.07200 39.54400
O  23.41900 57.14200 39.36500
C  25.46300 55.94200 38.88100
C  25.10900 54.63400 39.46800
O  25.53500 54.20400 40.53700
O  24.15600 53.96100 38.73900
C  23.35500 52.82900 39.34100
H  32.29400 54.69600 38.98300
H  33.13900 60.87900 40.56400
H  26.86500 61.67300 41.86200
H  27.85400 53.56100 38.72600
H  30.16100 54.26300 37.21500
H  29.52100 52.21300 39.05500
H  30.94000 52.96900 39.80800
H  31.04300 52.44900 38.10200
H  26.67800 53.59500 36.78200
H  28.32400 53.24800 36.26600
H  27.91000 56.10200 36.16900
H  26.43100 55.42300 35.66400
H  35.49600 56.36500 38.74100
H  34.49400 55.01700 39.06900
H  35.45000 55.53100 40.40000
H  36.56700 60.76400 40.37100
H  34.95200 60.77600 41.11900
H  35.08400 61.00800 39.37700
H  31.34700 62.85300 40.65100
H  29.30300 62.75100 42.81200
H  32.53500 61.88800 42.95800
H  31.60200 63.11000 43.62700
H  32.82700 63.53600 42.37800
H  28.10200 63.20700 40.26000
H  29.56900 64.14200 40.40600
H  28.48200 65.83100 41.50400
H  28.45700 64.76100 42.77600
H  27.10300 64.86100 41.57400
H  24.26000 60.59100 42.24300
H  23.40300 59.68200 41.13200
H  24.38600 61.11900 40.63700
H  25.40600 56.02600 37.79500
H  23.73700 52.56600 40.32700
H  23.50900 51.93900 38.73000
H  22.30400 53.09100 39.46400

