158

Mg -2.20500 17.33600 25.98900
C  -2.61400 15.11200 28.58300
C  -2.77300 19.90900 28.09700
C  -2.02800 19.50100 23.29900
C  -1.84800 14.63600 23.80500
N  -2.64000 17.50900 28.08100
C  -2.77600 16.47900 28.96400
C  -3.27900 16.94100 30.35000
C  -3.21500 18.50700 30.16300
C  -2.89000 18.67300 28.68100
C  -4.46900 19.37900 30.61300
C  -2.47500 16.51900 31.58500
C  -2.60100 17.40700 32.85300
H  -2.70200 16.50800 34.10700
N  -2.34100 19.44900 25.75500
C  -2.64700 20.31000 26.74800
C  -2.55400 21.68900 26.28700
C  -2.09300 21.52800 24.92600
C  -2.18200 20.14600 24.64300
C  -2.87800 22.86500 27.19500
C  -1.67400 22.62300 24.00000
O  -1.32800 22.53000 22.82600
C  -1.58400 24.03600 24.49100
N  -2.16800 17.07300 23.80200
C  -2.00500 18.14600 22.94100
C  -1.86400 17.73400 21.50600
C  -1.59900 16.13300 21.69500
C  -1.83200 15.92600 23.22900
C  -3.05800 18.04200 20.59200
C  -0.20000 15.68700 21.23200
C  0.93400 15.75800 22.24200
N  -2.31200 15.27500 26.08900
C  -2.13200 14.28800 25.14400
C  -2.08600 13.02500 25.74300
C  -2.28800 13.25500 27.10800
C  -2.44300 14.65800 27.27800
C  -1.68900 11.69900 25.06700
C  -2.40500 12.62000 28.47100
O  -2.33300 11.45800 28.81000
C  -2.55200 13.84600 29.45300
C  -1.30600 13.85600 30.21800
O  -0.44300 14.72200 30.04600
O  -1.24400 12.81600 31.10100
C  -0.16700 12.89200 32.10800
H  -2.95100 20.66000 28.86900
H  -1.88100 20.21800 22.48800
H  -1.53800 13.86400 23.09700
H  -4.25500 16.53700 30.61900
H  -2.36300 18.91400 30.70700
H  -5.09600 19.59500 29.74800
H  -4.01300 20.27800 31.02600
H  -5.04800 18.85100 31.37000
H  -1.40800 16.43100 31.38100
H  -2.81200 15.49000 31.71200
H  -3.59600 17.85200 32.88600
H  -1.81700 18.16100 32.77200
H  -3.42000 23.61000 26.61200
H  -1.91500 23.20700 27.57600
H  -3.43900 22.63100 28.09900
H  -2.52100 24.59000 24.55400
H  -1.02300 24.62900 23.76900
H  -1.08800 23.93100 25.45600
H  -0.95000 18.21000 21.15100
H  -2.34500 15.46800 21.25900
H  -3.38600 17.11700 20.11800
H  -2.68300 18.67200 19.78400
H  -3.88400 18.50400 21.13300
H  0.15900 16.44200 20.53300
H  -0.25000 14.73900 20.69600
H  0.65200 16.20800 23.19400
H  1.87800 16.09400 21.81200
H  1.13400 14.72100 22.51300
H  -1.20100 11.80300 24.09800
H  -2.51100 11.04400 24.77800
H  -0.97600 11.27500 25.77500
H  -3.33700 13.79900 30.20900
H  -0.30900 13.71800 32.80500
H  0.74900 13.08800 31.55000
H  0.06800 12.00100 32.69000
Mg 8.48100 47.46600 28.01000
C  6.95500 46.72900 30.99700
C  11.42300 47.72100 29.83100
C  9.86800 48.82000 25.28100
C  5.29400 47.71200 26.41200
N  9.05600 47.43500 30.22300
C  8.31300 46.93400 31.19900
C  8.99800 47.00800 32.57300
C  10.44900 47.52100 32.15700
C  10.30000 47.57300 30.64400
C  11.07000 48.78300 32.75200
C  8.85200 45.70200 33.41900
C  9.92800 45.51800 34.50000
H  9.80200 44.44100 35.59100
N  10.47100 48.06100 27.55600
C  11.49800 48.11800 28.46000
C  12.71500 48.29200 27.66600
C  12.31300 48.61400 26.34000
C  10.82100 48.54200 26.29600
C  14.15900 48.33400 28.26900
C  13.09900 48.94900 25.13300
O  12.50200 49.20700 24.05100
C  14.51900 48.94300 25.17800
N  7.74300 47.93700 26.05900
C  8.50900 48.66200 25.21900
C  7.65400 49.32200 24.10700
C  6.32500 48.49300 24.27400
C  6.43500 47.97400 25.61400
C  7.44600 50.86100 24.26900
C  5.99000 47.49300 23.20700
C  7.02000 46.38500 22.93400
N  6.58100 47.20900 28.51600
C  5.31300 47.33500 27.82400
C  4.21000 47.00300 28.70300
C  4.83700 46.79900 29.88700
C  6.23500 46.87900 29.73300
C  2.78700 47.13200 28.39600
C  4.54100 46.60100 31.30300
O  3.46200 46.52000 31.88200
C  5.85100 46.47900 32.07300
C  5.85900 45.11400 32.71800
O  6.25300 44.06700 32.27200
O  5.52000 45.37200 34.00300
C  5.54800 44.20500 34.84800
H  12.41200 47.63000 30.28500
H  10.14700 49.43400 24.42200
H  4.29600 47.68700 25.96800
H  8.38100 47.77400 33.04300
H  11.13800 46.73900 32.47500
H  12.01900 48.33900 33.05500
H  10.46900 49.07200 33.61400
H  11.29800 49.62900 32.10400
H  8.73400 44.83000 32.77700
H  7.92900 45.83600 33.98300
H  10.15100 46.49600 34.92700
H  10.81800 45.14000 33.99700
H  14.89600 49.07100 27.95000
H  14.62700 47.38800 27.99600
H  14.18100 48.38700 29.35700
H  14.98200 49.59200 25.92100
H  14.91700 49.18200 24.19200
H  14.82700 47.95100 25.50600
H  8.04600 49.16800 23.10100
H  5.46000 49.15200 24.35100
H  6.46500 51.17200 24.62900
H  7.68500 51.33300 23.31600
H  8.06800 51.33600 25.02700
H  5.89800 48.01300 22.25400
H  5.11000 46.91300 23.48500
H  7.39700 46.43900 21.91300
H  6.63000 45.37200 23.03500
H  7.83600 46.55100 23.63700
H  2.33600 47.84700 29.08400
H  2.26600 46.17500 28.42400
H  2.64400 47.42700 27.35600
H  5.90400 47.34000 32.74000
H  4.90900 44.39000 35.71100
H  6.55200 43.98400 35.20900
H  5.04900 43.31600 34.46200

