158

Mg 47.08000 34.82500 28.28400
C  45.70700 32.61800 30.51400
C  47.51600 37.12300 30.87400
C  47.80200 37.24800 25.96600
C  46.31800 32.56700 25.73800
N  46.72800 34.85400 30.43200
C  46.18300 33.78600 31.17900
C  46.25000 34.19200 32.72900
C  46.28300 35.74500 32.69100
C  46.95600 35.88600 31.26800
C  44.89800 36.49700 32.94000
C  47.44800 33.54300 33.45800
C  47.33000 33.21300 34.87900
H  46.51400 34.18700 35.78600
N  47.85800 36.82500 28.42600
C  47.98900 37.55500 29.55300
C  48.65200 38.75400 29.22500
C  48.61000 38.85500 27.78100
C  48.01400 37.61700 27.34100
C  49.11900 39.77700 30.28500
C  49.11700 39.92700 26.85700
O  48.97000 39.93100 25.65200
C  49.72300 41.19400 27.43300
N  47.01200 34.92600 26.17000
C  47.44800 35.98300 25.47000
C  47.22600 35.83000 24.02300
C  46.74500 34.35200 23.93200
C  46.66700 33.84300 25.37400
C  46.17400 36.81400 23.38900
C  47.80900 33.45200 23.23000
C  49.11100 33.06500 24.01800
N  46.26400 32.91600 28.10500
C  46.11000 32.08900 27.01900
C  45.37900 30.89900 27.45200
C  45.13700 31.12000 28.79600
C  45.83900 32.29300 29.16700
C  44.99000 29.68600 26.59700
C  44.58100 30.51900 29.99100
O  44.12400 29.40200 30.10800
C  44.77200 31.56800 31.04700
C  45.08500 30.90500 32.28000
O  46.20100 30.58400 32.68800
O  43.87800 30.70500 32.94100
C  44.00900 30.21600 34.29100
H  47.60700 37.89000 31.64500
H  47.99400 37.92400 25.13000
H  46.20200 31.89100 24.88800
H  45.35200 33.95100 33.29700
H  47.00100 36.16500 33.39600
H  45.11100 37.11600 33.81100
H  44.10300 35.80700 33.22100
H  44.62100 37.05400 32.04500
H  48.34200 34.13500 33.26600
H  47.60700 32.55800 33.02000
H  48.27900 33.22000 35.41500
H  46.90000 32.22000 35.01300
H  50.11600 40.12600 30.01700
H  49.12300 39.11000 31.14800
H  48.46000 40.63000 30.44500
H  49.12600 41.48900 28.29700
H  49.72100 41.85200 26.56400
H  50.72800 41.06700 27.83600
H  48.17700 35.87700 23.49200
H  45.79100 34.20700 23.42400
H  45.28200 36.29300 23.04300
H  46.67600 37.33200 22.57100
H  45.97600 37.55300 24.16500
H  48.02400 33.82400 22.22800
H  47.32900 32.48800 23.06500
H  49.11100 32.04100 24.39000
H  49.28400 33.80400 24.80000
H  49.98500 33.08300 23.36600
H  45.61200 28.79100 26.56300
H  44.87400 30.05300 25.57700
H  44.01500 29.44500 27.02100
H  43.78900 32.03900 31.03200
H  43.08900 30.03400 34.84700
H  44.57200 31.02800 34.75100
H  44.67100 29.35500 34.38900
Mg 0.11100 43.21500 27.01500
C  2.51400 42.86300 29.42600
C  -2.34200 42.20900 29.41800
C  -2.35000 43.45900 24.66700
C  2.50900 43.53500 24.52400
N  0.09200 42.61800 29.15000
C  1.18400 42.67000 29.96700
C  0.81900 42.56300 31.45100
C  -0.59100 41.89000 31.37000
C  -0.98900 42.30900 29.87100
C  -0.59100 40.39300 31.57100
C  0.92800 43.86200 32.14200
C  0.90100 43.80300 33.65900
H  0.26800 42.63300 34.41500
N  -2.03500 42.91300 27.04600
C  -2.77500 42.57900 28.13500
C  -4.19100 42.63600 27.80900
C  -4.24200 43.07000 26.43100
C  -2.88700 43.24600 25.97000
C  -5.30900 42.27000 28.78000
C  -5.49500 43.31000 25.40100
O  -5.40100 43.72800 24.25300
C  -6.84300 42.86200 25.89100
N  0.05700 43.25900 24.86700
C  -1.05700 43.47800 24.17600
C  -0.73000 43.72500 22.64500
C  0.77600 43.76800 22.56600
C  1.16200 43.58500 24.07600
C  -1.35500 42.67000 21.71500
C  1.41500 44.91800 21.82900
C  1.92600 46.09000 22.73900
N  2.09600 43.19700 26.92000
C  2.94900 43.32500 25.84200
C  4.35200 43.32200 26.32100
C  4.20000 43.05500 27.68300
C  2.77100 43.01300 28.04700
C  5.71900 43.43700 25.55500
C  5.00600 42.86200 28.89100
O  6.19000 42.57900 29.18600
C  3.95800 42.84400 30.09600
C  4.25200 41.71900 31.03300
O  4.33000 40.52300 30.75000
O  4.39200 42.19400 32.24800
C  4.47500 41.19100 33.30500
H  -3.07300 41.87600 30.15800
H  -3.07200 43.68000 23.87800
H  3.33500 43.66000 23.82100
H  1.47900 41.86200 31.96200
H  -1.27900 42.31400 32.10200
H  0.36500 39.93300 31.82100
H  -0.80600 39.97000 30.59000
H  -1.36400 40.20800 32.31700
H  0.21700 44.58300 31.73900
H  1.90100 44.29600 31.90900
H  0.50600 44.76800 33.97800
H  1.90500 43.88000 34.07700
H  -6.13900 42.91300 28.48800
H  -5.13600 42.60600 29.80300
H  -5.58200 41.21500 28.74600
H  -6.78900 41.83000 26.23800
H  -7.63100 43.08400 25.17200
H  -7.09800 43.47300 26.75700
H  -1.14700 44.70000 22.39400
H  1.16000 42.84100 22.13900
H  -0.56800 42.31500 21.05000
H  -2.25300 43.11800 21.29000
H  -1.59300 41.80000 22.32600
H  0.90000 45.26800 20.93500
H  2.36900 44.48400 21.53000
H  1.22600 46.25500 23.55900
H  2.04300 46.98600 22.12900
H  2.93800 46.00200 23.13300
H  6.51300 43.15100 26.24500
H  5.83900 44.43200 25.12600
H  5.79500 42.73200 24.72800
H  4.12500 43.82600 30.53800
H  5.49500 41.23900 33.68600
H  4.04400 40.19800 33.17800
H  3.85500 41.62400 34.09100

