158

Mg 44.66400 3.84400 46.59300
C  42.49800 6.75200 46.63800
C  41.85900 1.91100 46.03200
C  46.81700 1.37500 45.62000
C  47.31100 6.17500 46.59300
N  42.39800 4.38000 46.15500
C  41.75300 5.58300 46.37000
C  40.25400 5.35600 46.23500
C  40.07300 3.74700 46.40700
C  41.52900 3.27800 46.28200
C  39.47100 3.25500 47.81100
C  39.44700 6.00100 45.08900
C  39.98300 5.70500 43.68700
H  39.86600 6.79100 42.56000
N  44.35900 1.86000 45.94400
C  43.12400 1.25900 45.85700
C  43.37000 -0.14400 45.55800
C  44.81700 -0.33000 45.27900
C  45.43900 0.97600 45.60200
C  42.21000 -1.10300 45.35800
C  45.43800 -1.64200 44.65000
O  44.77600 -2.66000 44.34200
C  46.91200 -1.74300 44.39200
N  46.63300 3.82500 46.05600
C  47.31300 2.61700 45.86800
C  48.81500 2.93200 45.80000
C  48.94200 4.45100 45.97000
C  47.49700 4.84400 46.24800
C  49.63800 1.99500 46.73600
C  49.81100 5.16500 44.82100
C  51.22100 5.51000 45.30500
N  44.93300 6.05800 46.81200
C  46.09500 6.84800 46.73800
C  45.76600 8.26600 46.86500
C  44.34700 8.29000 46.75700
C  43.91600 6.94200 46.71900
C  46.83000 9.32500 46.90800
C  43.18500 9.20800 46.65000
O  43.14900 10.42200 46.58900
C  41.94500 8.21300 46.67500
C  41.16300 8.45200 47.94500
O  41.60700 8.09500 49.02700
O  39.91000 9.02800 47.77600
C  39.11300 8.91300 48.99000
H  41.07900 1.14800 46.08100
H  47.62100 0.65200 45.46600
H  48.15400 6.86500 46.66200
H  39.82900 5.74100 47.16200
H  39.46700 3.42300 45.56100
H  38.73000 3.94500 48.21400
H  40.21800 2.99600 48.56100
H  38.86900 2.37900 47.56900
H  39.48600 7.07600 45.26300
H  38.43500 5.61700 45.21800
H  39.23900 4.94600 43.44400
H  40.95500 5.21100 43.67300
H  42.53200 -2.14200 45.43200
H  41.93300 -0.79900 44.34900
H  41.45300 -0.95800 46.12900
H  47.51700 -1.63600 45.29200
H  47.22200 -0.98800 43.66900
H  47.11800 -2.70400 43.92000
H  49.08600 2.67300 44.77700
H  49.43100 4.66400 46.92000
H  49.95000 1.19000 46.07100
H  49.05500 1.60300 47.56900
H  50.41500 2.66500 47.10300
H  49.21700 6.05500 44.61100
H  49.94200 4.45100 44.00800
H  51.39900 6.57400 45.14700
H  51.92900 4.91100 44.73300
H  51.30500 5.19700 46.34500
H  46.60800 9.82000 47.85400
H  46.65300 10.12100 46.18500
H  47.86600 8.98900 46.92000
H  41.31200 8.41200 45.81100
H  38.94200 7.91800 49.40100
H  38.10300 9.10200 48.62600
H  39.20600 9.57400 49.85200
Mg 17.13000 51.69800 26.36100
C  18.68200 50.02300 28.94900
C  14.73700 52.85200 28.60900
C  15.39100 52.91700 23.70700
C  19.55200 50.44300 24.08800
N  16.74800 51.40500 28.57100
C  17.51100 50.69200 29.37600
C  17.09100 50.76900 30.87700
C  15.58600 51.34100 30.55400
C  15.74800 52.04600 29.18900
C  14.37100 50.35600 30.63200
C  18.00500 51.67600 31.74100
C  18.08600 51.28700 33.19700
H  16.97200 51.88400 34.03700
N  15.35300 52.75500 26.17200
C  14.55200 53.17300 27.22600
C  13.42600 53.91600 26.67700
C  13.51500 53.92900 25.26600
C  14.71800 53.07700 24.93900
C  12.48900 54.57300 27.55300
C  12.57400 54.51100 24.27700
O  12.71600 54.41400 23.03500
C  11.34700 55.12800 24.70700
N  17.32400 51.61100 24.21700
C  16.47600 52.13300 23.37200
C  17.04400 52.02700 21.96500
C  18.44700 51.43100 22.09000
C  18.48500 51.22900 23.56000
C  16.03300 51.40000 20.98700
C  19.64000 52.26300 21.53200
C  20.83400 51.53100 20.93800
N  18.69500 50.44600 26.42400
C  19.66500 50.08400 25.46300
C  20.72000 49.30100 26.08700
C  20.37500 49.30100 27.42000
C  19.18200 50.04000 27.60900
C  21.92900 48.68000 25.39400
C  20.75300 48.77600 28.77600
O  21.71100 48.06300 29.10000
C  19.73700 49.30400 29.78600
C  19.24300 48.10700 30.64500
O  18.46300 47.25500 30.25800
O  19.91300 48.11100 31.85900
C  19.59100 47.16000 32.89500
H  14.08600 53.29800 29.36300
H  14.96700 53.48500 22.87600
H  20.35500 50.14800 23.40900
H  16.97500 49.79400 31.34900
H  15.33400 52.07700 31.31800
H  14.14000 50.17800 31.68200
H  14.56200 49.34900 30.26100
H  13.46400 50.81200 30.23500
H  17.51800 52.64700 31.83800
H  19.00400 51.79500 31.32300
H  19.07400 51.46800 33.62200
H  18.04400 50.20300 33.30300
H  11.49100 54.21800 27.29500
H  12.60100 55.60300 27.21200
H  12.73100 54.52500 28.61500
H  10.83700 54.46200 25.40400
H  10.65200 55.24400 23.87500
H  11.65100 56.05200 25.20000
H  17.15400 53.06200 21.64200
H  18.45100 50.45100 21.61200
H  15.76200 52.16900 20.26300
H  15.10000 51.18400 21.50800
H  16.35000 50.43500 20.59200
H  20.09300 52.97000 22.22600
H  19.24600 52.83200 20.69000
H  20.93700 51.85100 19.90100
H  20.69900 50.45100 20.87400
H  21.76900 51.66300 21.48200
H  21.63500 48.77000 24.34800
H  22.03300 47.61200 25.58000
H  22.90900 49.12300 25.57400
H  20.22500 49.98200 30.48600
H  19.10400 46.25900 32.52400
H  18.90800 47.74100 33.51500
H  20.54500 46.94700 33.37800

