158

Mg 36.31400 49.49300 24.61900
C  36.26100 47.61200 27.65900
C  35.41200 52.28000 26.40300
C  36.20400 51.16500 21.65400
C  36.92000 46.53200 22.97000
N  35.78700 49.88200 26.82300
C  35.96800 48.99700 27.86900
C  35.67300 49.67900 29.21100
C  35.26900 51.12600 28.71800
C  35.47600 51.12000 27.17100
C  33.85500 51.68300 29.14300
C  36.96300 49.67300 30.10000
C  36.61500 49.38400 31.63600
H  35.19800 49.57100 32.22000
N  35.97000 51.45900 24.13300
C  35.68700 52.44600 25.01400
C  35.46400 53.64900 24.27800
C  35.76800 53.40300 22.89300
C  35.96300 51.91200 22.86600
C  35.08900 55.00700 24.86100
C  35.85300 54.39300 21.71000
O  36.13200 53.99900 20.58100
C  35.57500 55.88500 21.83800
N  36.44700 48.91200 22.67300
C  36.39800 49.79200 21.60700
C  36.64100 49.01900 20.20100
C  37.19100 47.69900 20.75000
C  36.79600 47.69300 22.20600
C  35.46800 48.99900 19.25800
C  38.73000 47.45200 20.46100
C  39.70600 48.34300 21.30400
N  36.49300 47.47200 25.18900
C  36.72500 46.35500 24.41100
C  36.75800 45.14400 25.21400
C  36.64700 45.62800 26.50900
C  36.45000 47.01300 26.48500
C  36.84600 43.69800 24.56700
C  36.51400 45.19300 27.91000
O  36.50900 44.07800 28.36500
C  36.36000 46.47900 28.73600
C  35.09800 46.36400 29.65900
O  33.92900 46.51400 29.40000
O  35.57800 45.78700 30.78100
C  34.45300 45.24800 31.64700
H  34.95100 53.18800 26.79800
H  36.13800 51.71800 20.71400
H  37.06200 45.66300 22.32500
H  34.83400 49.22800 29.74200
H  36.04900 51.84800 28.96300
H  33.38400 51.32200 30.05800
H  33.11300 51.73100 28.34600
H  33.99100 52.74000 29.37300
H  37.41600 50.65700 29.98400
H  37.68200 48.94700 29.71900
H  37.33300 50.05900 32.10300
H  36.89500 48.34200 31.78900
H  35.82300 55.70400 24.45700
H  35.28700 54.97900 25.93300
H  34.07600 55.32600 24.61400
H  36.12700 56.43400 22.60100
H  34.49400 56.01200 21.78500
H  36.01000 56.32900 20.94300
H  37.51600 49.47800 19.74100
H  36.61900 46.86300 20.34700
H  36.03400 48.93100 18.32900
H  34.91700 49.93400 19.36100
H  34.79600 48.16800 19.47300
H  38.88400 47.74700 19.42300
H  39.01100 46.40200 20.54100
H  40.45600 48.81300 20.66600
H  40.26000 47.93600 22.14900
H  39.17100 49.11700 21.85300
H  37.43100 43.64900 23.64800
H  35.83600 43.38700 24.30100
H  37.29400 43.03300 25.30600
H  37.21100 46.72400 29.37200
H  34.87500 44.56100 32.38000
H  33.74700 44.69200 31.03000
H  34.00200 46.14400 32.07500
Mg 6.65300 54.22200 41.36000
C  6.04100 50.75800 41.39700
C  9.63900 53.52200 39.62800
C  6.89200 57.46800 40.44400
C  3.47300 54.73800 42.64300
N  7.75900 52.34900 40.56600
C  7.27600 51.04600 40.72400
C  8.22100 50.05700 40.09600
C  9.55200 50.89300 40.00100
C  8.92200 52.32800 39.95900
C  10.58000 50.79500 41.13800
C  7.64200 49.40300 38.76100
C  6.82600 50.27400 37.80900
H  6.09400 49.58400 36.70600
N  8.08400 55.27700 40.38300
C  9.20000 54.83500 39.77200
C  10.00600 55.91000 39.28500
C  9.37900 57.11500 39.68900
C  8.05200 56.69600 40.17400
C  11.29700 55.76500 38.59500
C  10.05800 58.48900 39.56600
O  11.24500 58.60000 39.18500
C  9.40200 59.70100 40.11600
N  5.26900 55.87800 41.32400
C  5.70500 57.14500 41.07800
C  4.67800 58.16400 41.49400
C  3.55800 57.32100 42.17000
C  4.17000 55.87300 42.16300
C  5.26200 59.30900 42.47400
C  2.09500 57.28400 41.44300
C  1.05900 58.20700 42.22300
N  5.09400 53.01400 41.94500
C  3.92800 53.45100 42.57800
C  3.27900 52.24200 42.91500
C  4.01100 51.13800 42.51500
C  5.09900 51.69400 41.86800
C  1.95400 52.14400 43.62700
C  4.12500 49.70200 42.49800
O  3.42300 48.85200 42.97100
C  5.41700 49.39800 41.70500
C  5.04800 48.53800 40.56500
O  4.57300 48.89900 39.48300
O  5.38000 47.23300 40.81800
C  5.13200 46.27100 39.74400
H  10.56800 53.36800 39.07500
H  7.05800 58.51500 40.18500
H  2.52100 54.87400 43.16000
H  8.42700 49.23200 40.77800
H  9.97900 50.73700 39.01000
H  10.52200 49.74700 41.43000
H  10.28200 51.40600 41.99000
H  11.58900 51.08300 40.84500
H  7.09800 48.47000 38.90900
H  8.56900 49.10900 38.26900
H  7.38000 51.00900 37.22500
H  6.22800 50.99900 38.36100
H  11.35300 56.58100 37.87500
H  11.39200 54.82700 38.04700
H  12.15300 55.77800 39.26900
H  9.04700 59.33700 41.08000
H  8.51400 59.99800 39.55800
H  10.08300 60.55100 40.16200
H  4.26700 58.52600 40.55200
H  3.30500 57.55300 43.20500
H  5.28400 60.30700 42.03600
H  6.28700 58.99100 42.66600
H  4.76000 59.35700 43.44000
H  1.86300 56.22800 41.30600
H  2.13500 57.51000 40.37700
H  1.54100 59.17600 42.34800
H  0.80700 57.70700 43.15800
H  0.09100 58.31600 41.73200
H  1.68900 51.09300 43.51100
H  1.28000 52.87600 43.18200
H  2.03600 52.42000 44.67800
H  6.06100 48.87400 42.41200
H  4.14000 45.91300 40.02000
H  5.81100 45.43200 39.89100
H  5.16600 46.63500 38.71700

