158

Mg -2.16000 17.44400 27.21800
C  -2.40600 15.41800 30.09000
C  -2.56200 20.14500 29.14400
C  -1.75700 19.17400 24.35800
C  -1.76500 14.44500 25.15700
N  -2.36900 17.73300 29.42200
C  -2.52200 16.77700 30.39700
C  -2.73100 17.37400 31.83000
C  -2.90200 18.93200 31.44900
C  -2.65400 18.97700 29.91200
C  -4.22900 19.57800 31.92400
C  -1.54200 16.99700 32.73200
C  -1.09600 18.05400 33.72900
H  -0.32000 17.51800 34.94500
N  -2.20600 19.43300 26.78000
C  -2.31200 20.44000 27.73700
C  -2.23300 21.75200 27.06600
C  -2.04500 21.47800 25.67800
C  -1.88500 19.96100 25.55400
C  -2.35700 23.10700 27.84800
C  -1.91700 22.42700 24.48000
O  -1.79100 22.08800 23.29500
C  -1.94100 23.96700 24.69400
N  -1.96900 16.93500 24.94800
C  -1.82100 17.88300 24.07100
C  -1.86000 17.31200 22.63400
C  -1.53200 15.78600 23.01600
C  -1.79500 15.61500 24.45200
C  -3.18800 17.45700 21.85000
C  -0.15900 15.43600 22.46400
C  0.95300 16.15800 23.24700
N  -2.06400 15.37800 27.50400
C  -2.00100 14.24300 26.57300
C  -2.29200 13.04800 27.34100
C  -2.41200 13.37100 28.64400
C  -2.29200 14.83900 28.75900
C  -2.36600 11.68200 26.69900
C  -2.56400 12.90100 29.94600
O  -2.82300 11.71700 30.27500
C  -2.51700 14.17700 30.93200
C  -1.25200 14.05600 31.73900
O  -0.14300 14.32800 31.40200
O  -1.60600 13.61300 33.01500
C  -0.51000 13.77500 34.02700
H  -2.54000 21.11200 29.65100
H  -1.65900 19.75300 23.43700
H  -1.43900 13.61500 24.52700
H  -3.65800 17.04300 32.29900
H  -2.14300 19.57700 31.89300
H  -4.88100 19.67900 31.05600
H  -3.97600 20.54900 32.35200
H  -4.74600 18.96100 32.65900
H  -0.71700 16.75700 32.06000
H  -1.87800 16.13800 33.31300
H  -1.97500 18.61000 34.05300
H  -0.51400 18.83600 33.24100
H  -1.53900 23.76200 27.54900
H  -2.22000 22.99300 28.92300
H  -3.22000 23.68100 27.51000
H  -1.70100 24.35200 23.70300
H  -1.17100 24.16700 25.44000
H  -2.98000 24.22100 24.90400
H  -1.11500 17.75400 21.97400
H  -2.29900 15.17000 22.54600
H  -3.78200 18.04100 22.55200
H  -3.71000 16.55200 21.54000
H  -2.99900 18.07600 20.97200
H  -0.21100 15.70600 21.41000
H  -0.04500 14.35300 22.44400
H  0.62600 16.19200 24.28600
H  1.09600 17.16800 22.86300
H  1.84200 15.54900 23.07900
H  -3.12100 11.77700 25.91900
H  -2.70500 10.93300 27.41500
H  -1.41000 11.36700 26.28000
H  -3.38500 14.12400 31.58900
H  -0.45800 14.72200 34.56400
H  0.49100 13.59400 33.63500
H  -0.62100 13.08200 34.86100
Mg 16.82800 -1.65200 27.48700
C  15.67600 0.51100 29.94000
C  18.67800 -3.19100 29.98400
C  18.48100 -3.27100 25.20800
C  15.33300 0.24700 25.10800
N  17.23200 -1.27200 29.70900
C  16.52200 -0.39800 30.49000
C  16.88300 -0.54400 31.97800
C  17.99400 -1.64600 31.93400
C  18.02700 -2.05700 30.45800
C  19.47400 -1.15100 32.37600
C  15.65300 -0.94200 32.88200
C  15.64500 -0.29400 34.31500
H  16.93600 0.34400 34.91300
N  18.13700 -3.26900 27.58600
C  18.69400 -3.82000 28.70900
C  19.24600 -5.09700 28.43600
C  19.48700 -4.95300 27.00700
C  18.74700 -3.77800 26.50700
C  19.59200 -6.10400 29.47600
C  20.32400 -5.95500 26.14900
O  20.58500 -5.83200 24.94300
C  20.96200 -7.09300 26.76600
N  16.83400 -1.53300 25.45500
C  17.59500 -2.36200 24.63500
C  17.53100 -1.99800 23.15300
C  16.40800 -0.95300 23.17100
C  16.15200 -0.75900 24.64700
C  18.93000 -1.53900 22.61800
C  15.17700 -1.14300 22.28200
C  14.80000 0.14200 21.48500
N  15.58700 0.01000 27.53100
C  15.04300 0.61900 26.45300
C  14.18300 1.69900 26.86400
C  14.33000 1.67600 28.26000
C  15.26000 0.67300 28.61000
C  13.40600 2.65300 26.01000
C  13.90400 2.34800 29.51300
O  13.18900 3.37400 29.64600
C  14.71800 1.56100 30.61500
C  15.43600 2.50900 31.49000
O  16.52400 2.98500 31.24300
O  14.62800 2.80000 32.59100
C  15.16200 3.88600 33.40800
H  19.04400 -3.85800 30.76800
H  19.18700 -3.78800 24.55500
H  14.79900 0.78900 24.32500
H  17.25900 0.44400 32.24400
H  17.75600 -2.50800 32.55700
H  19.52100 -0.33800 33.10000
H  20.02200 -0.74500 31.52600
H  19.94900 -2.00800 32.85300
H  15.63700 -2.02700 32.98200
H  14.85200 -0.57000 32.24300
H  15.26800 -1.06200 34.99000
H  14.96200 0.55200 34.24200
H  19.19200 -7.05200 29.11700
H  19.12600 -5.89600 30.43900
H  20.65600 -6.03600 29.70000
H  21.42900 -6.80300 27.70800
H  21.79400 -7.30400 26.09400
H  20.36700 -8.00400 26.82400
H  17.21400 -2.81300 22.50300
H  16.92800 -0.05400 22.83800
H  19.57700 -1.46100 23.49200
H  18.89200 -0.57100 22.11800
H  19.32900 -2.25500 21.90000
H  14.31800 -1.32000 22.92900
H  15.26500 -2.04200 21.67100
H  15.75100 0.54100 21.13300
H  14.32700 0.79300 22.22000
H  14.17200 0.04800 20.59900
H  13.96200 3.58400 25.90000
H  12.44200 2.85600 26.47600
H  13.34900 2.13100 25.05500
H  13.93300 0.98400 31.10500
H  16.24100 3.85800 33.56100
H  14.73300 3.88500 34.41000
H  15.05000 4.88500 32.98800

