158

Mg 1.19800 -1.73500 43.67900
C  4.35400 -0.09900 43.12800
C  -0.31100 0.95400 42.27800
C  -1.65200 -3.42100 43.65600
C  3.04500 -4.54100 44.83000
N  1.99800 0.16100 42.83800
C  3.29800 0.59400 42.64000
C  3.33700 1.95000 41.93300
C  1.80400 2.37400 41.99000
C  1.09900 1.10200 42.46200
C  1.45400 3.61100 42.91800
C  3.82800 1.77100 40.46000
C  5.15500 2.62900 40.08300
H  6.15200 1.93200 39.03600
N  -0.81100 -1.30700 42.99600
C  -1.21400 -0.10300 42.44500
C  -2.60900 -0.17500 42.16400
C  -3.05300 -1.48300 42.50500
C  -1.83700 -2.16200 43.12500
C  -3.40000 1.00400 41.60200
C  -4.44900 -2.05400 42.18000
O  -5.28700 -1.24400 41.76900
C  -4.64800 -3.58900 42.35300
N  0.80100 -3.83500 43.97600
C  -0.52500 -4.21000 44.03400
C  -0.57300 -5.71800 44.61900
C  0.96200 -6.06300 44.81400
C  1.66700 -4.72100 44.51800
C  -1.28900 -5.74100 46.02200
C  1.54900 -7.15000 43.92000
C  1.91500 -8.51900 44.62400
N  3.27000 -2.27100 44.04500
C  3.85700 -3.43000 44.51700
C  5.23200 -3.24600 44.60600
C  5.54000 -1.91900 44.12600
C  4.28100 -1.37600 43.79700
C  6.22400 -4.30100 45.16000
C  6.57300 -0.90200 43.82500
O  7.77000 -1.00900 43.99200
C  5.85800 0.35200 43.12100
C  6.01700 1.54200 44.00600
O  5.20000 1.94000 44.85100
O  7.16200 2.19000 43.65300
C  7.51500 3.49400 44.33200
H  -0.69800 1.94700 42.04200
H  -2.64100 -3.81700 43.89600
H  3.50500 -5.44500 45.23600
H  4.04400 2.54500 42.51100
H  1.44900 2.77600 41.04100
H  2.39500 3.87200 43.40100
H  0.70000 3.21900 43.60100
H  1.03700 4.48000 42.40900
H  3.17000 2.15300 39.67900
H  4.06300 0.72400 40.26900
H  5.71400 2.97700 40.95200
H  4.75100 3.50600 39.57800
H  -3.54300 0.93000 40.52400
H  -2.84000 1.93100 41.73400
H  -4.38700 1.19900 42.02000
H  -3.76800 -3.96100 41.82900
H  -5.59600 -3.83100 41.87200
H  -4.69100 -3.92300 43.39000
H  -1.06800 -6.45500 43.98700
H  1.12900 -6.29300 45.86700
H  -0.65000 -6.14100 46.81000
H  -2.24100 -6.27100 45.98600
H  -1.49900 -4.69200 46.22900
H  2.42900 -6.81900 43.36800
H  0.83500 -7.42600 43.14300
H  1.42800 -9.33200 44.08500
H  1.56100 -8.46100 45.65300
H  2.99400 -8.56000 44.47800
H  7.12100 -4.42100 44.55300
H  5.80800 -5.30100 45.28400
H  6.52300 -3.96200 46.15200
H  6.20800 0.43100 42.09100
H  6.57300 3.99600 44.55400
H  7.95200 4.21100 43.63700
H  8.12000 3.35400 45.22800
Mg 16.41800 -2.27300 27.54200
C  15.45500 -0.26600 30.21900
C  18.39400 -4.06900 29.66400
C  17.44900 -4.20700 24.89500
C  14.47800 -0.29300 25.40800
N  16.96500 -2.05400 29.73400
C  16.27300 -1.28700 30.67800
C  16.93000 -1.47900 32.04400
C  17.90600 -2.72400 31.84900
C  17.83400 -2.93400 30.28900
C  19.29200 -2.66100 32.51100
C  15.76600 -1.84600 33.06200
C  15.81700 -1.02500 34.43400
H  17.08800 -0.29000 34.86200
N  17.73100 -3.87800 27.36300
C  18.45700 -4.46000 28.33800
C  19.14200 -5.62300 27.87500
C  18.85000 -5.73900 26.49500
C  17.93900 -4.61900 26.18400
C  19.70400 -6.54000 28.78800
C  19.38900 -6.69500 25.47500
O  19.03300 -6.74500 24.31200
C  20.33000 -7.83200 25.96800
N  16.17700 -2.19800 25.43800
C  16.64200 -3.16400 24.58000
C  16.03900 -2.95100 23.09400
C  14.88800 -1.95400 23.41600
C  15.18800 -1.41100 24.81900
C  17.13700 -2.26500 22.21500
C  13.44500 -2.55200 23.35100
C  13.00300 -3.14100 21.98700
N  15.23800 -0.69600 27.67800
C  14.56900 0.02200 26.72600
C  13.84200 1.08400 27.27700
C  14.13600 1.02400 28.65300
C  15.02300 -0.05300 28.86400
C  12.85000 1.93500 26.67400
C  13.78800 1.52600 29.94700
O  12.91100 2.40100 30.21000
C  14.56700 0.66500 31.00800
C  15.35200 1.68700 31.79900
O  16.50300 1.97800 31.60800
O  14.64200 2.02500 32.91100
C  15.28000 3.12800 33.67900
H  19.03300 -4.60100 30.37200
H  17.73600 -4.80100 24.02500
H  13.75800 0.18800 24.74300
H  17.39300 -0.51400 32.25100
H  17.54300 -3.70300 32.16000
H  19.34400 -1.83200 33.21700
H  20.15200 -2.63500 31.84100
H  19.50700 -3.58000 33.05500
H  15.72500 -2.91300 33.28100
H  14.80000 -1.68300 32.58400
H  15.61700 -1.72900 35.24200
H  14.99200 -0.31300 34.45500
H  20.03900 -7.52100 28.45000
H  19.05400 -6.71100 29.64700
H  20.59700 -6.09900 29.23000
H  21.22500 -7.42400 26.43700
H  20.69900 -8.40800 25.11900
H  19.93000 -8.53500 26.69900
H  15.70200 -3.93600 22.77000
H  15.04700 -1.03700 22.84800
H  17.96000 -2.20900 22.92700
H  16.85500 -1.32900 21.73300
H  17.30100 -2.89500 21.34100
H  12.75100 -1.82700 23.77700
H  13.48900 -3.36000 24.08100
H  12.91500 -4.22200 22.09500
H  13.76800 -3.00300 21.22300
H  12.02600 -2.75100 21.69900
H  12.92300 2.20300 25.62000
H  13.00800 2.89400 27.16800
H  11.83500 1.63200 26.93000
H  13.73500 0.19000 31.52800
H  14.65300 4.01600 33.60200
H  16.30800 3.38900 33.42500
H  15.33000 2.82900 34.72600

