158

Mg 40.80400 41.48400 27.15800
C  39.93800 43.96600 29.51800
C  41.67100 39.43500 29.59200
C  42.41200 39.59100 24.81200
C  40.80000 44.20800 24.65700
N  40.84000 41.74700 29.31900
C  40.23400 42.70800 30.04600
C  40.11400 42.23500 31.50800
C  40.62500 40.83000 31.52200
C  41.12800 40.63200 30.06000
C  41.62900 40.55000 32.71400
C  38.74000 42.40700 32.23800
C  38.20000 41.35400 33.29800
H  37.58800 41.87900 34.60500
N  41.67300 39.62800 27.19200
C  41.94100 38.92200 28.34300
C  42.50600 37.66000 27.95800
C  42.79100 37.65600 26.53700
C  42.34000 39.00600 26.13300
C  42.84100 36.69600 29.02300
C  43.34600 36.53900 25.61900
O  43.54900 36.75600 24.47000
C  43.39500 35.12400 26.09600
N  41.54800 41.90500 25.04000
C  42.04300 40.86300 24.33500
C  42.34300 41.24800 22.85100
C  41.79900 42.70700 22.76800
C  41.36100 43.00200 24.22400
C  43.78600 41.15300 22.43200
C  40.63300 43.00600 21.76200
C  39.24100 42.61000 22.12200
N  40.45200 43.63600 26.97900
C  40.44000 44.51600 25.93500
C  39.94600 45.79200 26.39200
C  39.72700 45.66500 27.78900
C  40.09700 44.34100 28.10100
C  39.86300 47.06500 25.62600
C  39.33400 46.33800 28.99400
O  38.92600 47.46900 29.23200
C  39.40400 45.25700 30.16400
C  40.16300 45.75100 31.38400
O  41.33900 46.00900 31.38400
O  39.30000 45.80400 32.46700
C  39.93400 46.30500 33.68700
H  41.79100 38.62500 30.31500
H  42.89000 38.90600 24.10900
H  40.69600 44.98800 23.90000
H  40.78700 42.96300 31.96100
H  39.78000 40.17800 31.74500
H  41.64600 41.41100 33.38200
H  42.57700 40.23500 32.27800
H  41.25100 39.76900 33.37400
H  37.98000 42.45900 31.45800
H  38.66600 43.37100 32.74200
H  39.06500 40.72800 33.51800
H  37.46000 40.71500 32.81600
H  43.75800 36.20700 28.69500
H  42.05100 35.94600 29.03300
H  42.98100 37.00500 30.05900
H  44.39900 35.05700 26.51300
H  43.13900 34.46100 25.26900
H  42.74200 34.89700 26.93900
H  41.71500 40.69400 22.15300
H  42.49200 43.53200 22.60600
H  44.38600 40.63600 23.18200
H  44.24800 42.13400 22.31800
H  43.78100 40.59500 21.49600
H  40.84900 42.53700 20.80200
H  40.70100 44.05800 21.48400
H  39.26600 41.80800 22.86000
H  38.56300 42.19300 21.37700
H  38.76600 43.53300 22.45600
H  40.81300 47.42600 25.23300
H  39.70300 47.84000 26.37600
H  39.09100 47.02600 24.85700
H  38.36800 45.04000 30.42500
H  39.84500 45.31900 34.14200
H  39.21300 47.03100 34.06200
H  40.94500 46.67900 33.52400
Mg -2.33100 34.27800 27.06700
C  -3.29300 32.73500 29.99200
C  -0.77900 36.82100 29.04000
C  -1.68900 35.99300 24.34500
C  -4.00500 31.86100 25.19100
N  -2.10600 34.64700 29.26400
C  -2.54800 33.87100 30.25800
C  -2.04400 34.45500 31.61800
C  -1.35700 35.84600 31.23800
C  -1.46000 35.80800 29.70100
C  -2.07400 37.11000 31.67200
C  -1.16200 33.50400 32.44100
C  -1.65900 33.38600 33.87200
H  -0.69900 33.03500 35.01800
N  -1.29600 36.10900 26.75300
C  -0.70200 36.96400 27.63600
C  -0.06500 38.02800 26.99800
C  -0.40300 37.90700 25.60500
C  -1.15900 36.61100 25.50300
C  0.74500 39.09500 27.72000
C  -0.12100 38.87200 24.46500
O  -0.65300 38.65500 23.35900
C  0.65800 40.10800 24.66200
N  -2.76200 33.93100 25.11000
C  -2.33900 34.76200 24.09300
C  -2.78500 34.31300 22.65200
C  -3.27700 32.84000 22.98500
C  -3.37800 32.87200 24.52100
C  -3.86900 35.12000 21.83400
C  -2.50400 31.61000 22.32400
C  -1.18700 31.25300 22.96100
N  -3.52800 32.72900 27.43000
C  -4.16000 31.81100 26.61300
C  -4.85300 30.83200 27.34600
C  -4.49800 31.15000 28.66200
C  -3.68000 32.31700 28.68800
C  -5.57400 29.72900 26.69600
C  -4.80700 30.73800 29.97700
O  -5.59800 29.85900 30.32500
C  -4.00900 31.74000 30.96400
C  -4.95800 32.38400 31.85500
O  -5.73200 33.27000 31.57300
O  -4.95600 31.78800 33.04100
C  -5.91200 32.19500 34.02600
H  -0.35300 37.61900 29.65100
H  -1.55300 36.44800 23.36200
H  -4.51800 31.12700 24.56600
H  -2.99900 34.65700 32.10200
H  -0.41300 35.85600 31.78400
H  -2.94800 36.94200 32.30200
H  -2.45800 37.64200 30.80200
H  -1.35600 37.81800 32.08700
H  -0.10200 33.75800 32.45800
H  -1.18900 32.52900 31.95500
H  -2.34600 32.53900 33.87800
H  -2.14000 34.33700 34.10000
H  0.94800 38.81600 28.75400
H  0.13200 39.99100 27.82000
H  1.62000 39.38400 27.13900
H  0.44000 40.83300 23.87700
H  1.70900 39.83900 24.55200
H  0.43200 40.54800 25.63300
H  -1.93500 34.12600 21.99500
H  -4.26000 32.69700 22.53800
H  -4.17100 35.97400 22.43900
H  -4.79700 34.54700 21.82100
H  -3.62200 35.43900 20.82100
H  -2.25200 31.92600 21.31200
H  -3.11500 30.71700 22.19800
H  -1.06000 30.17800 22.83800
H  -0.96900 31.52500 23.99300
H  -0.42200 31.79500 22.40500
H  -5.20900 29.35700 25.73900
H  -6.66000 29.81200 26.67700
H  -5.43800 28.93700 27.43200
H  -3.30800 31.14200 31.54600
H  -5.54400 33.01100 34.64900
H  -6.05600 31.34600 34.69400
H  -6.83100 32.52000 33.53800

