158

Mg 40.51100 9.08700 29.27000
C  42.61400 10.51000 31.81800
C  38.69000 7.58300 31.57100
C  39.13600 7.33300 26.72400
C  43.08200 10.11300 26.96300
N  40.77400 8.95400 31.37000
C  41.52200 9.78300 32.23800
C  41.14000 9.45000 33.73700
C  39.86800 8.54300 33.58700
C  39.74500 8.35900 32.04500
C  39.85300 7.14400 34.32300
C  40.84300 10.70500 34.64100
C  40.10000 10.50400 35.98400
H  40.87300 10.86800 37.28500
N  38.95300 7.81400 29.18200
C  38.34000 7.28200 30.25600
C  37.16600 6.50600 29.80200
C  37.35100 6.40700 28.36400
C  38.56400 7.19400 28.02600
C  36.35900 5.74800 30.82400
C  36.60900 5.65100 27.36300
O  36.84400 5.58900 26.14900
C  35.34500 4.86900 27.70000
N  41.01000 8.78500 27.18600
C  40.21700 8.13600 26.35600
C  40.61600 8.22700 24.86900
C  41.99700 8.94600 24.97400
C  42.01300 9.34300 26.46000
C  40.72200 6.84300 24.10100
C  42.21900 10.14300 24.00800
C  41.38600 11.44100 24.23800
N  42.39800 10.22400 29.30500
C  43.31100 10.52100 28.30100
C  44.48800 11.20600 28.86000
C  44.22600 11.28700 30.23200
C  42.95000 10.64100 30.48200
C  45.66300 11.63500 28.06500
C  44.72100 11.79200 31.47900
O  45.76800 12.38600 31.72800
C  43.67900 11.24800 32.53100
C  44.36900 10.48300 33.55000
O  44.99700 9.48300 33.47500
O  44.32000 11.15800 34.73800
C  44.75800 10.48700 36.02200
H  38.09300 7.12000 32.36000
H  38.72700 6.81600 25.85300
H  43.80600 10.36700 26.18600
H  42.03000 8.90800 34.05800
H  39.01000 9.16900 33.83200
H  40.64500 7.01500 35.06100
H  39.79100 6.28100 33.65900
H  38.81300 7.13900 34.64700
H  40.48000 11.57400 34.09200
H  41.69700 11.26100 35.02700
H  39.77400 9.46600 36.04200
H  39.17100 11.04600 35.80700
H  36.75000 5.81900 31.83900
H  36.29700 4.68000 30.61300
H  35.29000 5.96000 30.84400
H  34.58100 5.45100 28.21500
H  35.68400 4.06200 28.35000
H  34.86400 4.55900 26.77200
H  39.86500 8.81700 24.34300
H  42.75300 8.16200 24.91800
H  40.05600 6.80400 23.23800
H  40.56000 6.02500 24.80300
H  41.71000 6.64800 23.68500
H  41.91000 9.75500 23.03700
H  43.26600 10.44700 23.99100
H  41.95000 12.16700 24.82500
H  40.44600 11.31600 24.77500
H  41.11700 11.92500 23.29900
H  45.75100 11.07800 27.13300
H  46.47100 11.43300 28.76900
H  45.66400 12.68700 27.77900
H  43.21200 12.09500 33.03300
H  44.95800 9.43900 35.80100
H  44.04900 10.66200 36.83100
H  45.72200 10.92000 36.28800
Mg 29.95500 57.37600 39.73700
C  27.23300 55.18400 38.91900
C  32.10900 54.79300 38.89700
C  32.40400 59.58600 40.07000
C  27.62500 59.90900 40.21100
N  29.69300 55.30200 38.95500
C  28.49800 54.55600 38.74700
C  28.75700 53.08000 38.47400
C  30.27600 52.97900 38.70300
C  30.77000 54.43400 38.84600
C  30.73000 52.12800 39.94600
C  28.19900 52.73000 37.01900
C  28.73000 53.38700 35.68400
H  27.73500 54.27900 34.83500
N  31.99400 57.19800 39.43800
C  32.67700 56.07400 39.05900
C  34.05800 56.44300 39.06500
C  34.24800 57.81700 39.39800
C  32.86800 58.24700 39.68700
C  35.01200 55.44800 38.54900
C  35.62200 58.58400 39.27400
O  36.62900 57.97500 38.92700
C  35.74200 60.11900 39.65600
N  29.96300 59.52800 40.18700
C  31.11400 60.17800 40.21900
C  30.86200 61.66600 40.59200
C  29.30600 61.69800 40.78900
C  28.91200 60.32100 40.38200
C  31.66300 62.11900 41.86300
C  28.60800 62.88200 40.01100
C  27.86700 63.96100 40.66900
N  27.87300 57.50300 39.73600
C  27.09500 58.63800 39.87100
C  25.76000 58.27700 39.73000
C  25.80500 56.96000 39.45400
C  27.10200 56.49600 39.32000
C  24.54700 59.16200 39.84900
C  24.92900 55.81600 39.25400
O  23.71800 55.75500 39.41800
C  25.80800 54.61800 38.79800
C  25.47600 53.43400 39.71800
O  25.98000 53.12600 40.76200
O  24.56500 52.67500 39.09400
C  23.97500 51.49200 39.73700
H  32.80100 53.97300 38.70000
H  33.21000 60.31900 40.14300
H  26.84300 60.66000 40.34300
H  28.28500 52.51200 39.27500
H  30.87900 52.63900 37.86100
H  31.71600 51.68500 39.80700
H  29.99700 51.32100 39.96200
H  30.67500 52.67300 40.88800
H  27.11400 52.72900 37.13000
H  28.49700 51.68200 36.99200
H  29.14100 52.57300 35.08700
H  29.60800 54.01900 35.81800
H  34.58400 54.97000 37.66800
H  35.14000 54.61900 39.24400
H  35.96800 55.83000 38.19200
H  35.43300 60.22600 40.69600
H  35.23700 60.74000 38.91700
H  36.80600 60.33500 39.75700
H  31.17700 62.34900 39.80400
H  29.03600 61.60800 41.84100
H  32.00200 63.13100 41.64500
H  32.43900 61.36400 41.98900
H  30.99000 62.12400 42.72000
H  27.96800 62.57600 39.18300
H  29.35500 63.40600 39.41400
H  26.83900 63.86700 40.31700
H  28.23700 64.93700 40.35300
H  27.91400 63.88200 41.75500
H  24.82500 60.18500 39.59400
H  24.21300 59.08600 40.88300
H  23.71800 58.71400 39.30100
H  25.68000 54.27700 37.77100
H  24.54500 50.79200 39.12600
H  22.90400 51.54400 39.53800
H  24.08300 51.47600 40.82100

