158

Mg -1.74800 17.51400 26.96000
C  -2.53300 15.43400 29.84500
C  -2.21800 20.12000 29.06000
C  -1.18900 19.36100 24.36800
C  -2.19700 14.70200 25.00200
N  -2.11300 17.65000 29.30100
C  -2.45000 16.73100 30.26400
C  -2.65700 17.35000 31.63200
C  -2.79400 18.88600 31.21000
C  -2.35900 18.92100 29.74000
C  -4.15800 19.49500 31.63200
C  -1.56000 17.15900 32.70800
C  -2.02700 16.75100 34.15400
H  -1.29900 17.25700 35.40000
N  -1.68300 19.52400 26.75400
C  -1.90400 20.51300 27.71000
C  -1.66100 21.78200 27.18600
C  -1.24800 21.56000 25.81300
C  -1.35900 20.13000 25.57500
C  -1.82600 23.02600 27.99300
C  -0.77300 22.52100 24.75700
O  -0.33300 22.20300 23.61200
C  -0.74200 24.04700 24.98100
N  -1.68200 17.09900 24.98900
C  -1.45000 18.01800 24.06400
C  -1.48200 17.46600 22.60000
C  -1.84900 15.98100 22.83000
C  -1.86600 15.88700 24.39400
C  -2.46000 18.12800 21.71700
C  -0.81800 15.10600 22.15800
C  0.63800 15.25500 22.68800
N  -2.17100 15.46400 27.28300
C  -2.33700 14.45400 26.35700
C  -2.54100 13.20500 27.03800
C  -2.69800 13.58600 28.40800
C  -2.46900 14.94000 28.49600
C  -2.73000 11.86100 26.35100
C  -2.96900 13.01300 29.71800
O  -3.31200 11.89400 30.01600
C  -2.72800 14.19000 30.67600
C  -1.49300 13.84400 31.47600
O  -0.35600 14.03800 31.14000
O  -1.81000 13.22000 32.66400
C  -0.64100 12.57200 33.38000
H  -2.52800 20.99500 29.63600
H  -1.07400 20.00100 23.49100
H  -2.39800 13.77900 24.45400
H  -3.58400 17.00200 32.08700
H  -2.10100 19.59000 31.67100
H  -4.53400 20.12700 30.82700
H  -4.05500 20.20600 32.45200
H  -4.79300 18.66900 31.95300
H  -0.87000 18.00300 32.73200
H  -0.86300 16.39500 32.36400
H  -2.00700 15.66200 34.20800
H  -3.06600 17.08000 34.14500
H  -0.99500 23.27500 28.65300
H  -2.69900 22.98600 28.64500
H  -1.98500 23.96000 27.45400
H  -0.33600 24.16600 25.98600
H  -1.78200 24.26800 24.74200
H  -0.03000 24.61300 24.38200
H  -0.48400 17.46100 22.16300
H  -2.81000 15.61500 22.47100
H  -3.30700 18.31700 22.37700
H  -2.64400 17.57900 20.79400
H  -1.97900 19.06200 21.42600
H  -0.80800 15.26800 21.08100
H  -1.18200 14.08100 22.23600
H  0.65000 16.01300 23.47200
H  1.20400 15.71800 21.87800
H  1.02800 14.35000 23.15400
H  -3.04300 11.10200 27.06800
H  -1.80700 11.49400 25.90100
H  -3.54900 11.93500 25.63500
H  -3.49100 14.27500 31.45000
H  -0.67600 12.78900 34.44800
H  0.38900 12.82900 33.13100
H  -0.74400 11.48900 33.30600
Mg 51.15000 47.15100 43.22400
C  47.88400 47.94900 42.49700
C  50.50800 44.15600 41.43000
C  54.29400 46.33200 43.68100
C  51.76400 50.43800 44.36700
N  49.46200 46.18600 42.02000
C  48.20300 46.70800 41.95400
C  47.36400 45.87400 40.94400
C  48.05900 44.47600 41.09900
C  49.44800 44.97100 41.46700
C  47.34300 43.51000 42.10900
C  47.41300 46.45400 39.50700
C  46.29300 46.17300 38.55100
H  46.30900 44.83600 37.67700
N  52.29200 45.50600 42.58700
C  51.83000 44.39600 41.93900
C  52.95600 43.47500 41.74800
C  54.09600 44.08200 42.28400
C  53.62200 45.32600 42.89500
C  52.90900 42.06900 41.17400
C  55.49200 43.51000 42.38100
O  55.82400 42.44700 41.83900
C  56.66100 44.36600 42.82100
N  52.87200 48.25200 43.93700
C  54.01200 47.61900 44.10000
C  55.03600 48.44800 44.84800
C  54.25100 49.85300 45.06600
C  52.85900 49.50800 44.47500
C  55.70200 47.86800 46.13800
C  54.91000 51.07100 44.45200
C  55.26200 52.33500 45.27900
N  50.09900 48.87600 43.45500
C  50.44400 50.10700 43.97100
C  49.20400 50.96400 43.95600
C  48.21300 50.16500 43.32600
C  48.80600 48.95400 43.03700
C  49.09900 52.42900 44.08900
C  46.75300 50.12600 43.03900
O  45.87700 51.00200 43.14300
C  46.59100 48.73000 42.24500
C  45.33800 47.99500 42.72200
O  45.27700 47.55600 43.84800
O  44.36700 47.86100 41.73100
C  43.29300 46.95100 42.15500
H  50.30400 43.23900 40.87300
H  55.35800 46.15800 43.85500
H  52.03800 51.45600 44.65000
H  46.33600 45.69700 41.26000
H  48.10200 43.96500 40.13700
H  46.49200 43.95500 42.62400
H  48.04700 43.33700 42.92300
H  46.92600 42.67100 41.55100
H  48.38300 46.31500 39.03000
H  47.40500 47.53200 39.67200
H  46.17700 46.97600 37.82300
H  45.32400 46.22100 39.04600
H  53.48100 41.99700 40.24900
H  51.88400 41.88600 40.85300
H  53.19400 41.34100 41.93400
H  57.57300 43.78800 42.66700
H  56.60900 44.64000 43.87500
H  56.78300 45.26500 42.21600
H  55.77900 48.60600 44.06600
H  54.14200 50.04700 46.13300
H  55.24600 46.88500 46.26000
H  55.48800 48.46400 47.02500
H  56.74400 47.56000 46.04400
H  54.18200 51.25500 43.66100
H  55.80800 50.84500 43.87700
H  56.34000 52.47900 45.20600
H  54.94400 52.15100 46.30500
H  54.72900 53.21900 44.92900
H  50.00800 52.72400 44.61300
H  48.25200 52.79500 44.66900
H  49.16400 52.80400 43.06700
H  46.46200 48.92900 41.18100
H  43.62700 46.15200 42.81600
H  43.03800 46.35900 41.27600
H  42.43800 47.51800 42.52200

