158

Mg 25.45400 1.47600 29.14300
C  27.37800 1.03700 32.14600
C  22.64500 2.03700 31.07600
C  23.73100 1.83600 26.32700
C  28.26000 0.61800 27.25900
N  25.05500 1.50000 31.37800
C  26.04600 1.39600 32.38900
C  25.33300 1.68300 33.72800
C  23.87300 1.80700 33.31400
C  23.88600 1.83900 31.79500
C  22.74200 0.92700 34.03700
C  25.89500 2.88100 34.53700
C  26.58800 2.65700 35.86600
H  26.39500 3.73800 37.00200
N  23.47900 1.90600 28.75200
C  22.48000 1.96500 29.65800
C  21.24300 2.13500 29.03000
C  21.49100 1.92100 27.59300
C  22.93700 1.86000 27.49800
C  19.95500 2.39800 29.81300
C  20.47900 1.74800 26.46400
O  20.87800 1.63500 25.33000
C  19.00800 1.75200 26.70900
N  26.02100 1.42000 27.02500
C  25.11400 1.66000 26.08100
C  25.79000 1.59800 24.66800
C  27.23200 0.99400 24.95300
C  27.19200 0.99600 26.50600
C  25.16500 0.66000 23.59300
C  28.45100 1.68400 24.36200
C  28.58900 3.22800 24.64800
N  27.41500 0.89100 29.53200
C  28.43900 0.58300 28.66800
C  29.62400 0.33900 29.48700
C  29.28400 0.57400 30.80600
C  27.87500 0.85000 30.79200
C  30.89800 -0.23000 28.87100
C  29.81300 0.68700 32.14500
O  30.92900 0.40900 32.58500
C  28.58500 1.06300 32.98200
C  28.40300 0.03400 34.09400
O  27.57800 -0.86900 34.19200
O  29.23000 0.46900 35.13000
C  29.23800 -0.41200 36.33600
H  21.78900 2.30600 31.69800
H  23.09700 2.04100 25.46200
H  29.06400 0.35900 26.56600
H  25.47800 0.78400 34.32700
H  23.52800 2.80500 33.58500
H  22.24100 0.24800 33.34800
H  22.02500 1.53700 34.58500
H  23.27500 0.26100 34.71500
H  25.10300 3.59300 34.77000
H  26.60300 3.35600 33.85800
H  27.65100 2.46500 35.72600
H  26.16000 1.70200 36.17100
H  20.02200 3.44600 30.10500
H  19.81700 1.77800 30.69900
H  19.02700 2.33600 29.24500
H  18.51200 2.69500 26.93700
H  18.73200 0.97000 27.41700
H  18.55500 1.45500 25.76300
H  25.75800 2.63500 24.33400
H  27.37100 -0.04600 24.65700
H  24.80900 1.31300 22.79600
H  24.37000 0.14100 24.12800
H  25.84700 -0.00400 23.06200
H  28.25500 1.65000 23.29100
H  29.39000 1.14100 24.46600
H  28.30200 3.57200 25.64200
H  27.86600 3.76000 24.03100
H  29.60100 3.62500 24.57400
H  30.68000 -0.91100 28.04800
H  31.40900 -0.64800 29.73800
H  31.55800 0.57100 28.53800
H  28.70200 2.04800 33.43400
H  29.10200 -1.44500 36.01600
H  28.67100 -0.15200 37.23000
H  30.25700 -0.40900 36.72300
Mg -11.12100 16.50600 42.06500
C  -8.23600 14.54100 41.69900
C  -9.46900 18.89800 40.33300
C  -14.09900 18.03400 41.70800
C  -12.74400 13.53300 43.17400
N  -9.15300 16.63600 41.01300
C  -8.14000 15.74700 41.03700
C  -6.94600 16.20200 40.22200
C  -7.26900 17.69700 40.01700
C  -8.71800 17.78100 40.50800
C  -6.28100 18.69500 40.62400
C  -6.73600 15.36400 38.94200
C  -5.43500 14.54300 38.90900
H  -4.54900 14.78500 37.64500
N  -11.60800 18.30700 41.27900
C  -10.76600 19.22100 40.66200
C  -11.49400 20.51700 40.38000
C  -12.83000 20.23700 40.69800
C  -12.92900 18.82200 41.22700
C  -10.83100 21.62900 39.68400
C  -14.00600 21.13300 40.39000
O  -13.85600 22.29300 39.92400
C  -15.40800 20.65600 40.60500
N  -13.15200 15.79000 42.34800
C  -14.17600 16.66100 42.11800
C  -15.57400 15.94400 42.34500
C  -15.18700 14.69700 43.22000
C  -13.59100 14.62500 42.91200
C  -16.67400 16.88400 42.91600
C  -16.04800 13.44000 43.06900
C  -16.69400 12.88700 44.31900
N  -10.64600 14.41900 42.47100
C  -11.40000 13.39100 42.88600
C  -10.48400 12.25700 43.14800
C  -9.23000 12.71300 42.66100
C  -9.40500 14.00200 42.28300
C  -10.87900 10.93800 43.76100
C  -7.91400 12.22600 42.43100
O  -7.43300 11.10500 42.56800
C  -7.19400 13.40400 41.74600
C  -6.08100 13.83600 42.71600
O  -6.21600 14.17800 43.89800
O  -4.87400 13.76200 42.07300
C  -3.73200 14.12100 42.92800
H  -8.89600 19.67600 39.82500
H  -15.08100 18.51000 41.66600
H  -13.05800 12.60000 43.64600
H  -6.15300 16.11500 40.96400
H  -7.28900 17.92400 38.95100
H  -5.49600 18.15100 41.14900
H  -6.70700 19.41900 41.31900
H  -5.81900 19.23100 39.79500
H  -6.73800 16.09600 38.13400
H  -7.57300 14.68500 38.78100
H  -5.73700 13.49800 38.84300
H  -4.81000 14.82200 39.75700
H  -9.79000 21.66600 40.00500
H  -11.16200 22.65000 39.87600
H  -10.85600 21.53800 38.59800
H  -16.16800 21.30700 40.17500
H  -15.62200 20.60400 41.67300
H  -15.50300 19.69700 40.09600
H  -15.84700 15.58000 41.35500
H  -15.25600 15.01300 44.26100
H  -16.37100 17.48300 43.77500
H  -17.53600 16.40400 43.38000
H  -16.98800 17.54900 42.11200
H  -15.52600 12.56400 42.68200
H  -16.88000 13.59700 42.38400
H  -16.42100 11.83700 44.41700
H  -17.77300 13.02300 44.25300
H  -16.35100 13.41100 45.21200
H  -10.43400 11.08200 44.74500
H  -10.31100 10.25000 43.13400
H  -11.94600 10.72200 43.70100
H  -6.85500 13.06800 40.76600
H  -2.87400 14.25400 42.26900
H  -3.46500 13.37700 43.67800
H  -4.05500 15.06100 43.37600

