158

Mg 0.61300 7.63600 25.67700
C  1.32300 9.70600 28.62100
C  1.03300 5.03700 27.89800
C  0.20800 5.72700 23.12600
C  0.61000 10.57700 23.84100
N  1.17400 7.40500 28.04900
C  1.22400 8.39000 29.02600
C  1.49000 7.74300 30.37100
C  1.64600 6.21600 30.07100
C  1.16600 6.18300 28.61600
C  3.00100 5.57500 30.36800
C  0.39000 8.12400 31.30100
C  0.71600 7.98400 32.81200
H  1.76300 6.96700 33.33900
N  0.62900 5.63900 25.53600
C  0.79200 4.72900 26.53500
C  0.67200 3.38800 25.99500
C  0.41900 3.52900 24.55400
C  0.37500 5.00400 24.36600
C  0.71700 2.16200 26.77200
C  0.27700 2.52900 23.46400
O  -0.07900 2.85700 22.33300
C  0.46800 1.08400 23.72100
N  0.63600 8.14900 23.75400
C  0.36100 7.13400 22.80400
C  0.11300 7.79900 21.39800
C  -0.17300 9.29200 21.75600
C  0.40000 9.35000 23.21600
C  1.30600 7.46900 20.43100
C  -1.73600 9.59600 21.77700
C  -2.19100 10.93000 21.21900
N  0.98700 9.74800 26.09500
C  0.92000 10.81700 25.18300
C  1.38600 12.04100 25.87400
C  1.50100 11.70000 27.25000
C  1.28800 10.30100 27.31500
C  1.41200 13.48000 25.25200
C  1.70200 12.20600 28.55800
O  1.95200 13.34900 28.92300
C  1.63400 10.97700 29.49700
C  2.84800 10.81300 30.35300
O  3.87300 10.17300 30.08000
O  2.62400 11.43700 31.52000
C  3.67200 11.37400 32.54200
H  1.04800 4.15500 28.54100
H  0.04100 5.17700 22.19700
H  0.41300 11.40300 23.15500
H  2.42600 8.15600 30.74600
H  0.86100 5.70800 30.63200
H  3.40800 5.36200 29.37900
H  2.90000 4.64200 30.92300
H  3.46300 6.31300 31.02300
H  -0.48800 7.48300 31.22500
H  0.13600 9.15600 31.05800
H  -0.19300 7.71200 33.34900
H  1.04100 8.97900 33.11600
H  -0.00400 1.42400 26.42000
H  0.36900 2.40900 27.77500
H  1.71200 1.72300 26.85500
H  1.35600 0.92800 24.33300
H  0.48800 0.46400 22.82400
H  -0.37000 0.78700 24.35100
H  -0.78700 7.38000 20.94900
H  0.27600 9.92200 20.98900
H  1.95600 6.80500 21.00200
H  1.84800 8.38800 20.20600
H  0.87300 7.04300 19.52600
H  -1.96000 9.66600 22.84100
H  -2.38100 8.80900 21.38600
H  -1.31900 11.44400 20.81400
H  -2.72500 11.54000 21.94800
H  -2.87800 10.76200 20.38900
H  0.62700 14.13600 25.62900
H  1.22800 13.54200 24.18000
H  2.34200 13.98900 25.50300
H  0.82900 11.20200 30.19700
H  4.27500 12.27800 32.44800
H  4.33100 10.51800 32.39600
H  3.11400 11.41600 33.47700
Mg 27.28000 50.99900 26.87800
C  25.31400 51.95800 29.65300
C  29.80600 50.16700 29.19900
C  29.43200 50.73700 24.37800
C  24.80000 52.34300 24.77600
N  27.53100 51.01700 29.13100
C  26.55300 51.42800 30.02300
C  26.95800 51.11100 31.41500
C  28.47700 50.66200 31.29200
C  28.62200 50.61100 29.76200
C  29.48900 51.67000 31.93400
C  25.97500 50.03000 32.09800
C  25.07600 50.36500 33.21000
H  25.31400 49.66500 34.58300
N  29.29800 50.27600 26.75300
C  30.12300 50.03700 27.79200
C  31.39400 49.49100 27.23200
C  31.29300 49.66700 25.80400
C  29.94900 50.23700 25.59100
C  32.46900 48.97800 28.01700
C  32.24800 49.41300 24.79200
O  32.07900 49.62100 23.58200
C  33.52400 48.76200 25.07600
N  27.27900 51.86900 24.83800
C  28.18300 51.34700 23.98600
C  27.70700 51.41300 22.55600
C  26.16200 51.69800 22.80100
C  26.08000 52.00900 24.28600
C  28.53300 52.48300 21.65400
C  25.17300 50.60400 22.32500
C  24.05700 50.94600 21.33700
N  25.37100 51.93100 27.04600
C  24.46200 52.31100 26.12100
C  23.30600 52.85800 26.84900
C  23.56600 52.72400 28.19300
C  24.84800 52.13000 28.28900
C  22.12700 53.48600 26.17800
C  22.99500 52.83200 29.42500
O  21.88900 53.24100 29.77200
C  24.05800 52.24400 30.46500
C  24.23700 53.18900 31.53200
O  25.18200 54.00100 31.63900
O  23.28300 52.98100 32.53200
C  23.20800 53.99300 33.66300
H  30.61300 49.73700 29.79500
H  29.94500 50.54900 23.43300
H  23.94200 52.50200 24.12000
H  27.01300 52.06000 31.94800
H  28.56400 49.72200 31.83600
H  29.70200 52.47200 31.22600
H  30.35800 51.09900 32.26300
H  29.01400 52.19600 32.76200
H  26.64200 49.23700 32.43500
H  25.42500 49.57900 31.27200
H  24.03300 50.29700 32.90000
H  25.27600 51.38300 33.54300
H  32.41800 49.26900 29.06600
H  33.42900 49.43400 27.77700
H  32.51600 47.91300 27.79200
H  34.26700 48.56700 24.30200
H  33.44200 47.84000 25.65200
H  34.05300 49.50600 25.67100
H  27.85800 50.38900 22.21400
H  25.92800 52.53900 22.14900
H  28.71000 51.90900 20.74400
H  29.49500 52.83600 22.02400
H  27.94000 53.37500 21.45200
H  24.59500 50.24900 23.17700
H  25.69200 49.69100 22.03200
H  24.13500 51.98500 21.01700
H  23.10400 50.80800 21.84700
H  24.05600 50.43200 20.37600
H  22.58600 54.09000 25.39500
H  21.59700 54.05900 26.94000
H  21.40500 52.88600 25.62500
H  23.69700 51.29600 30.86200
H  23.49600 55.03600 33.52600
H  23.81700 53.58800 34.47200
H  22.18700 53.97000 34.04300

