158

Mg 16.76600 -0.79000 27.43300
C  15.79900 1.23600 30.13300
C  19.03600 -2.36500 29.55300
C  18.04000 -2.31300 24.74500
C  14.86700 1.38100 25.35300
N  17.31800 -0.57300 29.60900
C  16.69300 0.23500 30.48800
C  17.28400 0.01500 31.82300
C  18.43600 -1.00200 31.59400
C  18.30900 -1.29100 30.13000
C  19.90900 -0.66000 32.06600
C  16.20200 -0.51700 32.84500
C  16.29000 0.17600 34.26500
H  17.74500 0.48300 34.72000
N  18.22700 -2.27100 27.18800
C  18.95500 -2.88400 28.17700
C  19.80400 -3.82600 27.58500
C  19.56700 -3.89100 26.19900
C  18.55800 -2.84500 25.96700
C  20.82600 -4.67800 28.53000
C  20.17700 -4.72900 25.15900
O  19.85500 -4.59400 23.98700
C  21.14200 -5.88600 25.52700
N  16.58000 -0.44500 25.34300
C  17.17500 -1.18100 24.44900
C  16.80800 -0.77800 22.97200
C  15.79400 0.35900 23.23500
C  15.69200 0.43100 24.73500
C  18.09500 -0.33300 22.21600
C  14.45900 0.21300 22.46500
C  13.45500 -0.66400 23.21900
N  15.44400 0.86200 27.64100
C  14.72500 1.62900 26.71200
C  14.02700 2.63600 27.39100
C  14.35500 2.46400 28.73300
C  15.31900 1.46500 28.80500
C  13.14200 3.73400 26.79400
C  14.09200 2.99900 30.00700
O  13.30900 3.82900 30.48500
C  15.09500 2.22200 31.02300
C  16.03700 3.08300 31.82100
O  17.19400 3.30000 31.53700
O  15.42300 3.51700 32.95100
C  16.27000 4.29800 33.96100
H  19.63200 -2.94600 30.25900
H  18.38900 -2.89300 23.88800
H  14.22900 1.92800 24.65700
H  17.82500 0.89400 32.17300
H  18.23400 -1.93500 32.11900
H  20.14500 -1.49400 32.72500
H  19.82000 0.31900 32.53700
H  20.60600 -0.62300 31.22800
H  16.10100 -1.59100 33.00100
H  15.26900 -0.09900 32.46600
H  15.79900 -0.33000 35.09600
H  15.70500 1.09200 34.17400
H  20.91200 -4.34100 29.56300
H  21.80800 -4.69700 28.05900
H  20.31000 -5.63800 28.54700
H  22.03100 -5.41300 25.94400
H  21.38800 -6.55300 24.70200
H  20.56200 -6.45100 26.25700
H  16.32200 -1.63600 22.50800
H  16.28500 1.25300 22.85100
H  18.30600 -1.03400 21.40900
H  18.99400 -0.21800 22.82200
H  18.06400 0.58000 21.62200
H  14.81200 -0.25600 21.54700
H  14.01300 1.14900 22.13000
H  13.69300 -1.01600 24.22300
H  13.19300 -1.49900 22.57000
H  12.56300 -0.05100 23.34600
H  12.30600 3.17200 26.37800
H  13.72800 4.16600 25.98300
H  12.83100 4.43600 27.56800
H  14.49800 1.71600 31.78200
H  15.67500 5.17400 34.22000
H  17.20400 4.63500 33.51100
H  16.38400 3.76100 34.90300
Mg 26.16400 50.62100 27.03600
C  24.15900 51.74000 29.56200
C  28.35500 49.40500 29.42200
C  28.05400 49.30500 24.68100
C  24.08000 51.98900 24.64100
N  26.24000 50.66500 29.19100
C  25.32300 51.11800 30.04600
C  25.72700 50.99400 31.49600
C  27.19500 50.52900 31.37600
C  27.23800 50.22400 29.87300
C  28.17500 51.52800 31.93100
C  24.85600 50.02600 32.24200
C  24.45700 50.34200 33.63500
H  25.48900 50.83200 34.65300
N  27.91600 49.38100 27.06400
C  28.61600 49.02100 28.12400
C  29.78900 48.21300 27.68500
C  29.85700 48.24800 26.26700
C  28.58100 48.98600 25.94100
C  30.84500 47.63900 28.70500
C  30.89800 47.71700 25.29200
O  30.72200 47.85500 24.10400
C  32.07900 47.06000 25.76500
N  26.14200 50.77600 25.05100
C  26.96900 50.01700 24.31200
C  26.66500 50.10500 22.76500
C  25.20100 50.59400 22.79900
C  25.09200 51.14500 24.25900
C  27.68200 51.13200 22.00100
C  24.20900 49.58300 22.41700
C  22.91800 50.10300 21.66800
N  24.55100 51.86300 27.03600
C  23.74600 52.26500 26.01600
C  22.51400 52.76700 26.58500
C  22.63800 52.67100 27.96800
C  23.90100 52.06000 28.19200
C  21.36600 53.29800 25.81000
C  22.02200 52.87900 29.22800
O  20.90600 53.40400 29.53900
C  22.95000 52.24600 30.32600
C  23.37700 53.25900 31.29800
O  24.23900 54.08600 31.10100
O  22.62800 53.09600 32.46100
C  22.85400 54.13700 33.44800
H  29.07000 49.06000 30.17100
H  28.61700 48.90500 23.83500
H  23.38800 52.37600 23.89000
H  25.71300 51.95500 32.01000
H  27.39800 49.65000 31.98700
H  28.53700 51.28100 32.92900
H  27.87300 52.57500 31.90000
H  29.06900 51.53500 31.30700
H  25.38200 49.09100 32.43500
H  23.94600 49.86200 31.66500
H  24.11300 49.36500 33.97400
H  23.69000 51.10700 33.51800
H  30.69400 47.86300 29.76100
H  31.78700 48.01800 28.31100
H  30.90500 46.55400 28.61500
H  32.60900 46.49900 24.99500
H  31.88600 46.23400 26.45000
H  32.80300 47.77000 26.16500
H  26.76400 49.12800 22.29100
H  25.16200 51.48100 22.16600
H  28.24500 51.58200 22.81900
H  27.30300 51.98700 21.44200
H  28.20300 50.53100 21.25700
H  23.83200 49.22100 23.37400
H  24.61900 48.77100 21.81600
H  22.06800 49.90800 22.32200
H  22.78000 49.61900 20.70100
H  22.93300 51.19000 21.58000
H  20.38300 53.22200 26.27500
H  21.30700 52.95300 24.77800
H  21.53100 54.37200 25.73100
H  22.42300 51.45100 30.85400
H  21.92200 54.27700 33.99500
H  23.18000 55.11600 33.09800
H  23.59200 53.84200 34.19300

