158

Mg 8.08200 47.76400 24.69400
C  5.76900 48.20800 27.19600
C  10.55000 48.90400 26.70300
C  10.22000 47.54100 21.95100
C  5.42200 47.29900 22.39600
N  8.14200 48.33200 26.72700
C  7.11000 48.45600 27.57600
C  7.61300 48.79800 29.02000
C  9.05400 49.32600 28.82700
C  9.27800 48.84500 27.34600
C  9.34300 50.79800 29.23700
C  7.41600 47.73500 30.11400
C  8.29800 47.83400 31.41400
H  7.73400 47.12100 32.65900
N  10.02700 48.14400 24.42900
C  10.90500 48.59100 25.37400
C  12.29300 48.55700 24.90100
C  12.23100 48.17800 23.46800
C  10.82000 47.92700 23.22100
C  13.48500 48.88900 25.71800
C  13.34700 47.94100 22.56300
O  13.19100 47.69400 21.36600
C  14.75700 48.07600 23.00200
N  7.86900 47.38900 22.48400
C  8.85400 47.28700 21.62200
C  8.36600 47.29200 20.13500
C  6.85400 47.14700 20.28200
C  6.70000 47.29600 21.81200
C  8.87500 48.61800 19.46200
C  6.18800 45.95500 19.60300
C  6.39700 45.73600 18.06200
N  6.00000 47.91100 24.69600
C  5.07900 47.54800 23.73600
C  3.78700 47.46500 24.38200
C  4.00100 47.80400 25.74700
C  5.37400 48.00600 25.86100
C  2.47500 47.26500 23.67900
C  3.36500 47.98800 27.04500
O  2.15000 47.87500 27.34600
C  4.48500 48.16600 28.01300
C  4.41400 46.88900 28.81200
O  5.00100 45.84100 28.57600
O  3.91800 47.21900 30.04900
C  3.93600 46.20000 31.08800
H  11.32300 49.28400 27.37400
H  10.86400 47.37600 21.08400
H  4.63600 47.17000 21.64900
H  7.05500 49.69500 29.29000
H  9.75800 48.72500 29.40100
H  9.36600 51.57800 28.47600
H  10.32100 50.84700 29.71500
H  8.56000 51.09800 29.93400
H  7.59200 46.78000 29.61800
H  6.38500 47.71000 30.46700
H  8.42900 48.89800 31.61100
H  9.26400 47.41900 31.12600
H  13.16300 49.19400 26.71400
H  14.05800 49.71400 25.29400
H  14.16200 48.05800 25.91800
H  14.97800 47.28000 23.71300
H  15.04300 49.10000 23.24100
H  15.34000 47.81800 22.11800
H  8.78800 46.41000 19.65400
H  6.30700 48.03000 19.95200
H  9.29700 49.26300 20.23300
H  8.02300 49.13300 19.01900
H  9.63500 48.33900 18.73200
H  5.10500 45.88300 19.71200
H  6.64100 45.11700 20.13300
H  6.47400 46.67900 17.52100
H  5.59100 45.11100 17.67900
H  7.31900 45.18200 17.88300
H  1.99300 48.23000 23.52000
H  1.93200 46.71400 24.44800
H  2.65700 46.67200 22.78400
H  4.25500 49.05200 28.60600
H  3.97100 46.71600 32.04700
H  4.86900 45.63500 31.06200
H  3.11100 45.50400 30.93800
Mg -3.28400 34.32500 26.83200
C  -3.90600 32.36700 29.68800
C  -1.80800 36.73000 28.86400
C  -3.31000 36.54600 24.34100
C  -5.04300 32.07800 24.89500
N  -2.90800 34.45600 28.95900
C  -3.16300 33.50400 29.91500
C  -2.67800 33.93200 31.41100
C  -2.07300 35.32100 31.01600
C  -2.27400 35.55800 29.52500
C  -2.37600 36.54100 31.98700
C  -1.82100 32.91800 32.25500
C  -2.26000 32.54000 33.65200
H  -1.21300 32.56100 34.75300
N  -2.49200 36.30200 26.57200
C  -1.93300 37.12000 27.51700
C  -1.50700 38.40400 26.91700
C  -1.96100 38.35400 25.55500
C  -2.63800 37.01300 25.42500
C  -0.84100 39.44100 27.70300
C  -1.86100 39.41900 24.48100
O  -2.32600 39.27200 23.37300
C  -1.21400 40.77200 24.76600
N  -4.32500 34.37100 24.98300
C  -4.06200 35.38000 24.10800
C  -4.49100 35.06300 22.65100
C  -4.89800 33.56200 22.84000
C  -4.67500 33.26500 24.33900
C  -5.58500 35.96200 21.96300
C  -4.12200 32.63700 21.85100
C  -2.73800 32.03800 22.32100
N  -4.31900 32.58800 27.11400
C  -5.02600 31.76700 26.20600
C  -5.47300 30.65400 26.97200
C  -5.08100 30.87900 28.34300
C  -4.39300 32.08900 28.37200
C  -6.29800 29.53900 26.38600
C  -5.13100 30.36400 29.69500
O  -5.68300 29.34300 30.17100
C  -4.34200 31.32900 30.63600
C  -5.33100 31.89900 31.55900
O  -6.11600 32.74600 31.27500
O  -5.12900 31.49900 32.89300
C  -6.21300 31.81700 33.85700
H  -1.51500 37.45900 29.62300
H  -3.03200 37.17200 23.49100
H  -5.50400 31.36400 24.20900
H  -3.59400 34.06700 31.98500
H  -0.99300 35.18000 30.97000
H  -2.73400 36.26400 32.97800
H  -3.30800 37.01200 31.67700
H  -1.62800 37.32500 32.11200
H  -0.82000 33.34100 32.33300
H  -1.77600 32.03400 31.62000
H  -2.48100 31.47500 33.57900
H  -3.09800 33.18900 33.90700
H  -0.23300 39.00400 28.49500
H  -1.59700 40.03500 28.21600
H  -0.14200 39.97900 27.06100
H  -2.01200 41.32000 25.26800
H  -1.09000 41.30100 23.82100
H  -0.22100 40.77600 25.21600
H  -3.63200 35.18600 21.99100
H  -5.96600 33.44200 22.65600
H  -5.89300 36.68000 22.72400
H  -6.49700 35.48600 21.60400
H  -5.15000 36.54700 21.15400
H  -4.01500 33.08800 20.86400
H  -4.72700 31.76000 21.62000
H  -2.56500 32.12100 23.39400
H  -1.91500 32.46800 21.75000
H  -2.72400 30.96800 22.11500
H  -5.82000 29.15200 25.48600
H  -7.27000 29.97600 26.15600
H  -6.36000 28.79800 27.18300
H  -3.53600 30.80000 31.14400
H  -7.10400 32.10100 33.29700
H  -5.96100 32.53000 34.64200
H  -6.55600 30.90100 34.33800

