158

Mg 0.79000 7.61200 26.26400
C  1.53900 9.56000 29.17300
C  0.25900 4.99900 28.35600
C  0.60200 5.90200 23.58600
C  1.22700 10.59500 24.46400
N  0.87400 7.30700 28.53200
C  1.22000 8.23900 29.46600
C  0.99700 7.62600 30.84300
C  0.80900 6.13400 30.57500
C  0.60000 6.12700 29.06600
C  1.99100 5.23100 31.08000
C  -0.16400 8.19800 31.61900
C  0.02400 8.55500 33.10200
H  1.28700 7.98800 33.77600
N  0.46900 5.69100 25.94500
C  0.22400 4.72000 26.90500
C  0.14700 3.44100 26.21200
C  0.16600 3.70600 24.81200
C  0.42700 5.09600 24.71300
C  -0.10600 2.19100 27.01400
C  -0.07400 2.73400 23.68200
O  -0.25600 2.98700 22.48900
C  -0.20200 1.32300 24.09800
N  0.95200 8.22100 24.24800
C  0.71100 7.28100 23.30700
C  1.00100 7.91200 21.92700
C  0.89700 9.46100 22.23100
C  0.95700 9.45900 23.75800
C  2.52900 7.59500 21.50500
C  -0.53700 10.04900 21.76000
C  -0.50200 11.55500 21.52200
N  1.23500 9.71400 26.68900
C  1.35800 10.77700 25.85800
C  1.78400 11.97800 26.52900
C  1.96900 11.55700 27.86600
C  1.52200 10.17000 27.91600
C  2.02400 13.36100 25.87100
C  2.28500 11.93700 29.23400
O  2.67400 13.05500 29.59400
C  1.91500 10.64200 30.15900
C  3.09800 10.35800 30.97700
O  3.97600 9.57600 30.64400
O  3.16500 11.23000 32.10600
C  4.41500 11.14100 32.93800
H  0.09600 4.15700 29.03200
H  0.67000 5.33700 22.65300
H  1.28500 11.50900 23.86900
H  1.89400 7.84400 31.42300
H  -0.10600 5.77600 31.04700
H  1.59100 4.46800 31.74900
H  2.87900 5.74300 31.45000
H  2.32500 4.78800 30.14200
H  -1.01100 7.51100 31.62500
H  -0.49200 9.11000 31.11900
H  -0.91500 8.21700 33.53900
H  0.18200 9.62000 33.27500
H  0.68300 1.57000 26.58700
H  -1.09600 1.78400 26.81000
H  0.15000 2.33700 28.06400
H  -0.25300 0.69600 23.20800
H  -1.14900 1.29600 24.63800
H  0.62300 0.97900 24.72200
H  0.37900 7.58300 21.09400
H  1.58600 10.16400 21.76300
H  2.66300 6.56600 21.16900
H  3.10900 7.90800 22.37200
H  2.90000 8.14200 20.63800
H  -1.19800 9.82000 22.59500
H  -1.01400 9.50000 20.94800
H  -0.98300 11.91300 22.43200
H  -1.07600 11.76900 20.62000
H  0.48200 12.01900 21.45900
H  2.72000 13.83800 26.56100
H  1.04600 13.82800 25.75100
H  2.36100 13.18700 24.84900
H  1.15000 10.83700 30.91000
H  4.53100 12.11100 33.42200
H  5.26500 11.05700 32.26100
H  4.34000 10.30400 33.63200
Mg 47.55800 16.39800 28.62100
C  45.68500 16.26100 31.52100
C  49.87800 18.40600 30.28500
C  49.06600 17.14600 25.62500
C  44.76700 15.23900 26.82800
N  47.67100 17.48100 30.60800
C  46.83700 17.10900 31.67300
C  47.45700 17.55900 33.02000
C  48.72500 18.45700 32.57700
C  48.77500 18.17500 31.05400
C  48.60900 19.99600 32.92500
C  47.82900 16.32600 33.97500
C  47.12800 16.28500 35.33400
H  47.20300 17.62800 36.11000
N  49.31000 17.49200 28.03400
C  50.18700 18.12400 28.88200
C  51.33300 18.70600 28.14000
C  51.14700 18.26300 26.79000
C  49.81500 17.61600 26.76500
C  52.49800 19.37700 28.76600
C  52.06700 18.32000 25.61600
O  51.84300 17.98700 24.45300
C  53.44100 18.65100 25.80000
N  47.12600 16.00600 26.48100
C  47.79100 16.56400 25.48300
C  47.07400 16.40200 24.21200
C  45.88200 15.47100 24.51700
C  45.88700 15.58300 26.04300
C  46.57200 17.64400 23.37600
C  46.02000 13.97900 24.00500
C  44.96700 13.60600 22.90200
N  45.74600 15.68200 29.08100
C  44.65300 15.22600 28.21200
C  43.53600 14.85200 29.00700
C  43.95200 15.10200 30.34800
C  45.22500 15.76400 30.30400
C  42.30600 14.16100 28.58300
C  43.51500 15.09200 31.68200
O  42.41200 14.77300 32.12800
C  44.67700 15.73900 32.53100
C  43.93800 16.89000 33.20800
O  43.95500 18.05000 32.72000
O  43.30200 16.43200 34.40200
C  42.22700 17.34600 34.76600
H  50.65300 18.98800 30.78800
H  49.53800 17.28100 24.64900
H  43.84900 14.99900 26.28800
H  46.65000 18.15800 33.44300
H  49.64600 18.10300 33.04100
H  48.44800 20.46000 31.95200
H  49.48200 20.39200 33.44400
H  47.71100 20.27500 33.47600
H  48.91200 16.36300 34.09200
H  47.60500 15.39600 33.45300
H  47.62500 15.53700 35.95200
H  46.09300 15.95300 35.25200
H  53.19500 18.54300 28.85700
H  52.22000 19.80200 29.73100
H  52.91400 20.19400 28.17800
H  54.08900 18.45200 24.94600
H  53.73100 18.01000 26.63200
H  53.49700 19.72900 25.95200
H  47.79500 15.96900 23.51900
H  44.88700 15.78700 24.20300
H  45.48300 17.68600 23.36000
H  46.92600 17.56600 22.34800
H  46.93700 18.57800 23.80200
H  45.83500 13.30700 24.84300
H  47.03700 13.83200 23.64000
H  45.13200 12.62700 22.45400
H  44.95000 14.36800 22.12200
H  43.99900 13.54300 23.39900
H  41.47800 14.41400 29.24600
H  42.36600 13.08000 28.46200
H  42.07500 14.47100 27.56400
H  45.10700 14.99000 33.19600
H  41.38900 17.11200 34.10800
H  42.41600 18.41400 34.87300
H  41.76300 17.12900 35.72800

