158

Mg 53.75600 24.07000 45.12800
C  51.11400 26.08000 43.76100
C  52.72600 21.41000 43.30400
C  56.69800 22.73200 45.70900
C  54.94600 27.23000 46.49700
N  52.28600 23.84700 43.49400
C  51.27300 24.76000 43.26500
C  50.19500 24.13400 42.43100
C  50.44800 22.54000 42.63300
C  51.90900 22.56800 43.18500
C  49.43500 21.97600 43.68700
C  50.28900 24.54600 40.93900
C  48.89600 24.80400 40.26800
H  48.51100 23.80100 39.20700
N  54.58000 22.26900 44.60800
C  53.99700 21.29200 43.87300
C  54.86600 20.16700 43.86900
C  56.03700 20.49400 44.67800
C  55.78900 21.85800 45.07600
C  54.58200 18.88700 43.11800
C  57.26300 19.58000 44.96400
O  57.21500 18.40800 44.61100
C  58.52100 20.12700 45.67300
N  55.50300 24.88500 45.93500
C  56.57800 24.05000 46.06500
C  57.72600 24.85400 46.73100
C  57.21200 26.26900 46.63900
C  55.77000 26.14000 46.34900
C  58.18000 24.30700 48.08400
C  57.94900 27.20700 45.56700
C  58.55000 28.44300 46.26300
N  53.05200 26.21000 45.40100
C  53.62700 27.25800 46.02800
C  52.71100 28.32900 46.02000
C  51.72700 27.97100 45.08100
C  52.06100 26.65000 44.68900
C  52.84700 29.54800 46.77200
C  50.40900 28.34100 44.47900
O  49.75100 29.36200 44.57200
C  49.96600 27.04900 43.62000
C  49.66200 27.45400 42.22200
O  50.37100 27.89600 41.31800
O  48.34800 27.45000 42.18800
C  47.63800 28.08400 41.01100
H  52.28900 20.47600 42.94400
H  57.68400 22.36000 45.99300
H  55.22600 28.14500 47.02400
H  49.22800 24.42400 42.84300
H  50.35400 21.96200 41.71400
H  49.08900 22.82000 44.28300
H  50.03200 21.35100 44.35100
H  48.59000 21.41800 43.28300
H  50.80100 23.73000 40.42900
H  50.98600 25.37400 40.80800
H  48.95200 25.81300 39.85900
H  48.09000 24.66600 40.98900
H  53.82400 19.15800 42.38300
H  54.21300 18.13900 43.82000
H  55.43300 18.42400 42.61700
H  58.99300 21.02300 45.27200
H  59.27200 19.33800 45.61900
H  58.33200 20.19600 46.74400
H  58.57900 24.70200 46.07000
H  57.26400 26.70200 47.63800
H  58.44500 25.09600 48.78800
H  59.12800 23.79000 47.93600
H  57.46200 23.64900 48.57400
H  57.11700 27.55300 44.95300
H  58.73000 26.69200 45.00800
H  57.90000 29.27200 45.98200
H  59.48300 28.70000 45.76200
H  58.73600 28.30500 47.32800
H  51.90200 29.98400 47.09600
H  53.39100 30.24200 46.13100
H  53.46800 29.46500 47.66400
H  49.02100 26.74600 44.07300
H  47.97800 29.10400 40.83000
H  46.57100 28.10900 41.23200
H  47.78200 27.57400 40.05900
Mg 26.01000 51.43000 26.26100
C  23.76500 52.55400 28.57100
C  28.09000 50.41300 28.97100
C  28.43100 50.86700 24.10900
C  24.04100 52.83300 23.72600
N  26.03800 51.74300 28.54600
C  24.91200 52.10500 29.26400
C  25.18900 52.01500 30.81300
C  26.63200 51.57000 30.80000
C  27.01100 51.21600 29.35100
C  27.59700 52.67700 31.34500
C  24.18400 50.97700 31.55300
C  23.47300 51.51500 32.75600
H  24.27300 51.94300 34.04300
N  27.93200 50.64100 26.48000
C  28.52700 50.23800 27.60100
C  29.90500 49.91300 27.30800
C  30.10300 50.08500 25.89800
C  28.76300 50.58200 25.41700
C  30.87600 49.31300 28.44100
C  31.24200 49.83100 24.94600
O  31.22900 50.04100 23.72500
C  32.47400 49.36200 25.56900
N  26.23100 51.94800 24.17800
C  27.30300 51.44800 23.48700
C  27.14400 51.79700 22.03200
C  25.64200 52.25100 21.85500
C  25.28000 52.36300 23.32500
C  28.28700 52.61300 21.32600
C  24.83600 51.13700 21.12400
C  23.61400 51.60600 20.41200
N  24.16200 52.38100 26.15200
C  23.46900 52.78700 25.04000
C  22.09600 53.24700 25.49100
C  22.20900 53.12400 26.88000
C  23.45900 52.58300 27.19700
C  20.95600 53.83300 24.63100
C  21.47600 53.41800 28.14600
O  20.36400 53.86300 28.40100
C  22.51600 53.07000 29.29000
C  22.73800 54.29700 30.13100
O  23.83200 54.93900 30.16400
O  21.77900 54.37200 31.13700
C  22.11800 55.27900 32.23600
H  28.68300 50.12300 29.84000
H  29.19600 50.66500 23.35700
H  23.49200 53.18700 22.85100
H  25.03900 53.01000 31.23000
H  26.77100 50.69300 31.43300
H  27.08400 53.28600 32.09000
H  27.92200 53.29500 30.50900
H  28.56600 52.27500 31.64100
H  24.86800 50.22900 31.95300
H  23.44200 50.57700 30.86200
H  22.77200 50.70200 32.94300
H  23.01800 52.43800 32.39700
H  30.29600 48.95500 29.29200
H  31.50300 50.11000 28.84100
H  31.48400 48.48400 28.07800
H  32.32100 48.33000 25.88300
H  32.70600 49.90100 26.48800
H  33.30000 49.52600 24.87800
H  27.35100 50.80600 21.62800
H  25.59300 53.24400 21.40800
H  29.05700 52.73900 22.08800
H  28.00500 53.57900 20.90900
H  28.77500 51.95500 20.60600
H  24.45900 50.44100 21.87300
H  25.44900 50.64700 20.36900
H  23.94000 51.99900 19.44800
H  23.06800 52.29900 21.05200
H  23.00900 50.73200 20.17100
H  20.85900 53.23700 23.72400
H  21.24300 54.80500 24.23000
H  20.00700 53.89800 25.16400
H  22.07400 52.24800 29.85300
H  23.12700 54.93100 32.45500
H  21.37800 55.41300 33.02500
H  22.26800 56.30600 31.90300

