158

Mg 9.38800 3.85900 27.38100
C  10.57000 2.17200 30.08900
C  7.67700 5.98800 29.53800
C  7.73400 5.14600 24.69400
C  10.33700 1.12900 25.26500
N  9.06200 3.95800 29.53800
C  9.78300 3.28700 30.43700
C  9.56400 3.88400 31.85300
C  8.48200 4.97700 31.68400
C  8.35900 4.96600 30.15400
C  7.14700 4.70000 32.42000
C  10.84200 4.39300 32.61100
C  10.67400 5.13300 33.97100
H  11.22400 4.53600 35.28500
N  8.01100 5.47400 27.16000
C  7.48700 6.23200 28.15100
C  6.63900 7.20700 27.53800
C  6.75000 7.08200 26.11000
C  7.55800 5.88100 25.91400
C  5.90600 8.27200 28.31800
C  6.13000 7.87100 24.94800
O  6.37000 7.61400 23.79000
C  5.14400 9.00400 25.30900
N  9.27500 3.31100 25.17800
C  8.46900 4.00100 24.39800
C  8.47900 3.40400 22.98600
C  9.43800 2.23500 23.10900
C  9.63200 2.13300 24.58500
C  7.14000 3.05100 22.29700
C  10.84900 2.51200 22.47300
C  11.76600 1.34800 22.08500
N  10.33700 2.03000 27.56400
C  10.75300 1.14000 26.58800
C  11.60300 0.11700 27.34300
C  11.52100 0.46300 28.68000
C  10.73600 1.59900 28.78500
C  12.48200 -0.93800 26.75800
C  11.92100 0.16800 30.02600
O  12.51500 -0.79600 30.43900
C  11.34700 1.23200 31.01300
C  10.61300 0.59000 32.13500
O  9.78700 -0.30400 32.04300
O  11.09300 1.14200 33.28900
C  10.75900 0.31900 34.48300
H  7.34400 6.68400 30.31100
H  7.10900 5.38900 23.83300
H  10.77200 0.39000 24.59000
H  9.16900 3.13600 32.54000
H  8.92000 5.93800 31.95400
H  6.34400 4.72900 31.68300
H  6.94000 5.39500 33.23300
H  7.07600 3.84300 33.09000
H  11.29300 5.22900 32.07500
H  11.70000 3.72300 32.56000
H  9.59200 5.24800 34.03900
H  10.89300 6.19600 33.87200
H  4.85100 8.36200 28.06100
H  6.42400 9.20000 28.07600
H  5.86200 8.12900 29.39800
H  5.52100 9.66300 26.09000
H  4.26200 8.44700 25.62700
H  4.92300 9.57700 24.40800
H  9.07600 4.13900 22.44500
H  9.08300 1.23700 22.85100
H  6.84400 3.51900 21.35800
H  6.24000 3.22100 22.88700
H  7.11100 1.96900 22.17000
H  11.55300 3.14100 23.01800
H  10.58100 2.97100 21.52200
H  12.15100 1.46800 21.07300
H  11.29600 0.38000 21.90800
H  12.62100 1.24700 22.75400
H  12.86200 -0.62600 25.78600
H  11.96400 -1.88700 26.62100
H  13.36800 -0.95700 27.39300
H  12.14700 1.77600 31.51600
H  11.23800 0.69900 35.38600
H  11.22500 -0.66600 34.46200
H  9.68400 0.29100 34.66000
Mg 23.93300 -8.33000 47.48100
C  26.81700 -6.25100 46.39400
C  22.38400 -7.16100 44.65800
C  21.75100 -10.64400 47.93900
C  26.12200 -9.79600 49.70000
N  24.56200 -6.81300 45.78000
C  25.68200 -6.05200 45.60000
C  25.58400 -5.06900 44.42500
C  24.09100 -5.37900 43.98300
C  23.62600 -6.45900 44.88500
C  23.22600 -4.17700 43.93800
C  26.58000 -5.47100 43.19300
C  27.41100 -4.25800 42.61200
H  27.16800 -3.89300 41.22100
N  22.23800 -8.69400 46.59700
C  21.77800 -8.13400 45.43800
C  20.44500 -8.57400 45.21700
C  20.19800 -9.61800 46.11800
C  21.45900 -9.72600 46.93500
C  19.49000 -8.04900 44.12000
C  18.88600 -10.42800 46.32900
O  17.99100 -10.19900 45.60000
C  18.62800 -11.30300 47.48700
N  23.92400 -9.93500 48.82000
C  22.85000 -10.80800 48.78500
C  23.02200 -11.88800 49.79900
C  24.52100 -11.66400 50.28500
C  24.86200 -10.40900 49.51700
C  21.92700 -11.94400 50.90200
C  25.53400 -12.77800 49.84400
C  26.38200 -13.48900 50.87600
N  26.03000 -8.19300 47.91100
C  26.69500 -8.80000 48.93000
C  27.98100 -8.27000 49.10300
C  28.04000 -7.18900 48.21000
C  26.85000 -7.24700 47.41600
C  29.13100 -8.81100 50.01400
C  28.82000 -6.05000 47.73100
O  29.92500 -5.70400 48.16800
C  28.14200 -5.47600 46.42600
C  27.90100 -3.99600 46.56600
O  26.93200 -3.43700 47.15500
O  28.73300 -3.26700 45.79300
C  28.41300 -1.87400 45.59800
H  21.85600 -6.77400 43.78400
H  20.89800 -11.30300 48.11600
H  26.73900 -10.33500 50.42200
H  25.72500 -4.00300 44.60100
H  24.11100 -5.86900 43.01000
H  22.33100 -4.33100 44.54100
H  22.79800 -3.98600 42.95400
H  23.75700 -3.29600 44.29900
H  26.00800 -5.89900 42.37000
H  27.31900 -6.22200 43.47100
H  28.44300 -4.58900 42.72500
H  27.46100 -3.40500 43.28800
H  19.78400 -7.09000 43.69300
H  18.45900 -8.02900 44.47500
H  19.67400 -8.71600 43.27900
H  18.87100 -10.87900 48.46100
H  19.23200 -12.20900 47.44000
H  17.59400 -11.63500 47.58000
H  22.93400 -12.84700 49.28900
H  24.53600 -11.60700 51.37300
H  22.29900 -11.52000 51.83500
H  21.67500 -13.00300 50.96600
H  21.01700 -11.37400 50.71900
H  26.21300 -12.51500 49.03300
H  24.90800 -13.49800 49.31700
H  25.89200 -14.38300 51.26100
H  26.67700 -12.85200 51.71000
H  27.37600 -13.67500 50.46800
H  29.23000 -9.89400 49.94700
H  29.16300 -8.35800 51.00600
H  30.05400 -8.43400 49.57400
H  28.77900 -5.80200 45.60300
H  28.56200 -1.68900 44.53400
H  28.88700 -1.11100 46.21400
H  27.34500 -1.74900 45.77300

