158

Mg 8.65900 3.01300 27.92500
C  10.08700 1.45600 30.85700
C  6.69800 4.85200 30.01900
C  7.02900 4.13000 25.14600
C  10.32300 0.49300 26.01900
N  8.40200 3.08600 30.15700
C  9.15700 2.51400 31.15100
C  8.78700 3.02400 32.61800
C  7.74900 4.14800 32.25100
C  7.59000 4.00400 30.71800
C  6.35400 4.06100 33.01400
C  10.08700 3.61800 33.29800
C  10.64100 2.99400 34.54600
H  10.98000 4.00000 35.65100
N  7.12700 4.37900 27.62600
C  6.40300 4.95300 28.63400
C  5.43300 5.79700 27.96300
C  5.71200 5.80200 26.56300
C  6.66600 4.70800 26.37600
C  4.39800 6.66700 28.72200
C  5.10800 6.75200 25.49400
O  5.47200 6.54000 24.37100
C  4.10500 7.83600 25.78400
N  8.70300 2.45500 25.96000
C  7.98100 3.07800 24.96000
C  8.40800 2.60900 23.58500
C  9.66400 1.70400 23.91700
C  9.56700 1.53300 25.38400
C  7.37400 1.82400 22.73700
C  11.10000 2.17300 23.35300
C  12.08000 3.03200 24.20200
N  10.05000 1.33800 28.29200
C  10.51000 0.40400 27.42300
C  11.20500 -0.53200 28.15000
C  11.07200 -0.12600 29.51500
C  10.38100 1.01800 29.54100
C  11.87600 -1.73600 27.54400
C  11.43400 -0.55000 30.84200
O  12.09100 -1.50000 31.20100
C  10.74500 0.45700 31.81300
C  9.81100 -0.29100 32.77700
O  8.84600 -0.99400 32.43400
O  10.06400 -0.05200 34.06200
C  9.24500 -0.68300 35.11400
H  6.20400 5.55500 30.69300
H  6.47200 4.38000 24.24100
H  10.87600 -0.13700 25.32000
H  8.18000 2.25900 33.10100
H  8.10700 5.15700 32.45900
H  6.60100 3.84700 34.05400
H  5.71900 3.24400 32.67300
H  5.79300 4.98700 32.89000
H  9.78400 4.63700 33.53700
H  10.89000 3.72600 32.56900
H  11.45500 2.34000 34.23400
H  9.93600 2.26700 34.95000
H  4.26900 6.36900 29.76200
H  3.47800 6.58900 28.14200
H  4.65600 7.72600 28.68700
H  3.19700 7.25500 25.94700
H  4.03900 8.57100 24.98200
H  4.28300 8.33100 26.73900
H  8.67100 3.50600 23.02500
H  9.58900 0.67800 23.55700
H  6.53700 1.59700 23.39700
H  7.66700 0.83100 22.39600
H  7.02400 2.42100 21.89400
H  10.92600 2.63600 22.38200
H  11.78100 1.33400 23.20500
H  11.72400 3.03400 25.23300
H  12.24600 4.04800 23.84400
H  13.07100 2.58100 24.16600
H  11.58600 -2.04500 26.54000
H  11.49600 -2.47900 28.24500
H  12.96000 -1.78400 27.64700
H  11.53700 1.02700 32.30000
H  9.22500 -1.77100 35.04900
H  8.18800 -0.43500 35.02100
H  9.51600 -0.39300 36.12900
Mg 36.93900 49.14600 24.69600
C  36.70200 47.45400 27.74400
C  35.21000 51.84900 25.97500
C  36.61500 50.36300 21.50600
C  38.03600 46.13000 23.24700
N  35.91000 49.54200 26.61800
C  36.14500 48.78200 27.75200
C  35.56400 49.53000 28.97600
C  35.27000 50.98800 28.42300
C  35.41400 50.80000 26.91100
C  33.94500 51.61600 28.82600
C  36.58100 49.60700 30.18500
C  36.08900 49.08500 31.54500
H  36.02800 50.20100 32.61400
N  36.11400 50.91400 23.86800
C  35.58500 51.91500 24.60300
C  35.23900 53.02500 23.65100
C  35.69000 52.66500 22.34300
C  36.17300 51.29200 22.51100
C  34.60100 54.30800 24.15200
C  35.68400 53.45200 21.07400
O  36.29100 53.03800 20.15500
C  34.88400 54.79400 20.89500
N  37.30600 48.36000 22.68200
C  37.05600 49.05300 21.52500
C  37.19400 48.13400 20.37300
C  38.13500 47.00500 20.99200
C  37.74700 47.14900 22.40700
C  35.91400 47.60400 19.66100
C  39.67300 47.25900 20.56500
C  40.40400 46.06500 20.16600
N  37.35700 47.21900 25.31000
C  37.81600 46.13000 24.59300
C  37.95700 44.97300 25.47600
C  37.56600 45.44000 26.74400
C  37.17100 46.79000 26.58300
C  38.39800 43.58900 25.10700
C  37.34100 45.11800 28.14800
O  37.57100 44.08300 28.78000
C  36.84600 46.43200 28.79700
C  35.51200 46.12400 29.40600
O  34.42500 45.91500 28.89800
O  35.72300 46.01600 30.72500
C  34.68900 45.39200 31.48000
H  34.87600 52.76700 26.46400
H  36.49200 50.66600 20.46400
H  38.53100 45.21800 22.90800
H  34.63800 49.07700 29.33100
H  36.10800 51.66600 28.58200
H  34.14700 52.68400 28.90200
H  33.51600 51.31200 29.78100
H  33.24100 51.36400 28.03300
H  37.03300 50.59200 30.29800
H  37.45500 49.00300 29.94000
H  36.69200 48.25700 31.91800
H  35.02700 48.86200 31.43900
H  33.86000 54.67900 23.44500
H  35.33200 55.07400 24.41100
H  34.06600 53.96400 25.03700
H  35.46700 55.49200 21.49500
H  33.85000 54.61200 21.18800
H  35.04200 55.19700 19.89500
H  37.68400 48.70700 19.58600
H  37.91900 45.95900 20.77600
H  35.81100 46.52300 19.75600
H  36.00400 47.88000 18.61000
H  35.04600 48.04700 20.14900
H  40.23900 47.66600 21.40300
H  39.57500 47.92600 19.70800
H  39.90700 45.19700 20.59900
H  41.46400 46.06700 20.42200
H  40.50300 45.94600 19.08700
H  39.29100 43.56500 24.48200
H  37.66000 43.02000 24.54200
H  38.59600 43.06400 26.04200
H  37.58200 46.72500 29.54500
H  34.55700 44.42600 30.99300
H  33.88000 46.12300 31.48300
H  35.03900 45.15400 32.48500

