158

Mg 23.95800 -4.52500 45.78200
C  26.14200 -2.13900 44.26800
C  21.64600 -3.61700 43.58400
C  22.32800 -7.40300 46.53300
C  26.78800 -5.73300 47.58600
N  23.90300 -2.98300 44.13000
C  24.87200 -2.15100 43.65000
C  24.41100 -1.38100 42.40400
C  22.84900 -1.67100 42.45100
C  22.74900 -2.76600 43.50700
C  22.04600 -0.38300 42.93900
C  25.08600 -1.95200 41.11400
C  25.69400 -0.94000 40.16700
H  25.20500 -0.96300 38.72100
N  22.20900 -5.41900 45.12900
C  21.39400 -4.89800 44.21500
C  20.30500 -5.78500 43.95900
C  20.42400 -6.85200 44.93600
C  21.64300 -6.57100 45.63600
C  19.20100 -5.44100 43.03000
C  19.41900 -7.95200 45.08400
O  18.50400 -8.04300 44.24200
C  19.43700 -8.90400 46.29200
N  24.55500 -6.38900 46.88400
C  23.63400 -7.35700 47.09800
C  24.26800 -8.49500 47.86000
C  25.65200 -7.91600 48.35500
C  25.68600 -6.63800 47.52300
C  23.44100 -9.01200 49.11200
C  26.91000 -8.83200 48.10200
C  27.90400 -8.98700 49.31700
N  26.01900 -4.00200 45.98900
C  26.99900 -4.56000 46.82600
C  28.22400 -3.83700 46.60100
C  27.92700 -2.82800 45.64500
C  26.61600 -3.01700 45.23200
C  29.51400 -4.21800 47.27300
C  28.44500 -1.65600 44.97300
O  29.58500 -1.16300 45.05400
C  27.33700 -1.23400 44.01000
C  27.14200 0.20500 44.16000
O  26.36800 0.72100 44.95300
O  27.85800 0.92400 43.30400
C  27.43300 2.37700 43.23300
H  20.86400 -3.24700 42.91700
H  21.81400 -8.30900 46.85800
H  27.60400 -6.11800 48.20100
H  24.53800 -0.33000 42.66200
H  22.39700 -1.95600 41.50100
H  22.63700 0.52700 43.03800
H  21.54300 -0.57000 43.88800
H  21.38600 -0.24700 42.08200
H  24.40000 -2.55100 40.51500
H  25.94700 -2.55500 41.40300
H  26.77700 -1.06000 40.13200
H  25.46400 0.05800 40.54100
H  18.26700 -5.65800 43.55000
H  19.38200 -5.99400 42.10900
H  19.12600 -4.37400 42.82300
H  19.73300 -8.38600 47.20400
H  20.02700 -9.79600 46.07700
H  18.38400 -9.18200 46.34000
H  24.47200 -9.27900 47.13100
H  25.62300 -7.64000 49.40900
H  22.89000 -9.92800 48.89900
H  22.75000 -8.24400 49.45900
H  24.09600 -9.19600 49.96400
H  27.50600 -8.50900 47.24800
H  26.54300 -9.80900 47.78800
H  28.78200 -8.44700 48.96300
H  28.15200 -10.03400 49.49600
H  27.51700 -8.51100 50.21900
H  29.23100 -4.49600 48.28800
H  30.30300 -3.47200 47.18400
H  29.73100 -5.11400 46.69200
H  27.59200 -1.37900 42.96000
H  28.32300 3.00500 43.26900
H  26.73500 2.80800 43.95000
H  27.14500 2.35500 42.18200
Mg 26.80800 50.21100 26.18000
C  24.66700 51.47000 28.59800
C  29.15400 49.72100 28.66600
C  28.94500 49.30000 23.80000
C  24.50800 51.17300 23.72600
N  26.92300 50.60500 28.40900
C  25.83800 50.97000 29.21500
C  26.16500 50.98000 30.70800
C  27.68700 50.53900 30.57700
C  27.89100 50.20800 29.13100
C  28.84800 51.48900 31.16100
C  25.21600 50.03900 31.62000
C  25.06500 50.62300 33.06600
H  24.72100 49.57700 34.09300
N  28.83200 49.64000 26.22300
C  29.62500 49.41900 27.35000
C  30.81000 48.69800 26.97000
C  30.76700 48.65000 25.53800
C  29.45500 49.15300 25.10500
C  31.83900 48.14700 27.94800
C  31.75400 48.01200 24.67500
O  31.65800 47.82000 23.45700
C  33.07000 47.50100 25.29400
N  26.71100 50.19900 23.97300
C  27.73500 49.80100 23.23200
C  27.24100 49.65500 21.77500
C  25.78300 50.05500 21.84400
C  25.59100 50.33400 23.31000
C  28.12300 50.51100 20.69500
C  24.68000 48.99200 21.27200
C  24.74500 47.60500 22.00000
N  25.06700 51.20700 26.07000
C  24.22800 51.68900 25.03300
C  23.08900 52.35100 25.48300
C  23.19100 52.28500 26.87600
C  24.42100 51.64700 27.19200
C  22.08900 53.11500 24.58900
C  22.63600 52.76400 28.10000
O  21.68600 53.49600 28.31700
C  23.46300 52.10100 29.29600
C  23.85000 53.20900 30.24300
O  24.69100 54.01600 30.07700
O  22.94300 53.10900 31.34400
C  23.14100 54.01400 32.49200
H  29.82900 49.44800 29.48000
H  29.58600 48.87300 23.02600
H  23.83000 51.57200 22.96900
H  26.28900 52.00900 31.04400
H  27.83200 49.61600 31.14000
H  29.71700 51.59300 30.51100
H  29.20800 51.01100 32.07200
H  28.44100 52.44200 31.49800
H  25.79800 49.11900 31.57100
H  24.25500 49.85700 31.14000
H  24.34200 51.43900 33.08100
H  25.95800 51.17800 33.35500
H  32.83700 48.53800 27.74800
H  31.83700 47.06000 27.86700
H  31.50300 48.31900 28.97000
H  33.49500 48.35100 25.82800
H  33.81600 47.33800 24.51600
H  32.84000 46.62700 25.90300
H  27.34300 48.59300 21.55100
H  25.62500 51.00000 21.32400
H  27.57200 51.26800 20.13600
H  28.50000 49.81100 19.95000
H  28.98000 51.05900 21.08600
H  24.90800 48.85000 20.21500
H  23.66400 49.35500 21.42800
H  25.55800 47.71200 22.71800
H  24.98100 46.82300 21.27800
H  23.88000 47.38000 22.62400
H  21.66600 52.51900 23.78000
H  22.53500 53.94400 24.03900
H  21.31000 53.42200 25.28600
H  22.85500 51.31000 29.73600
H  23.03900 55.02000 32.08400
H  24.12700 53.86500 32.93300
H  22.26300 53.85700 33.11800

