158

Mg 3.47600 1.06200 44.35200
C  6.22600 3.25800 43.84700
C  1.53200 3.50200 42.71100
C  1.15700 -1.22200 43.80600
C  5.84900 -1.39100 45.26100
N  3.88500 3.03000 43.26000
C  5.00100 3.71500 43.36900
C  4.81500 5.11200 42.74300
C  3.31700 5.26900 42.80600
C  2.85800 3.86100 42.85700
C  2.74800 6.11300 43.97300
C  5.35500 5.25500 41.34200
C  5.42400 3.96700 40.51300
H  5.67000 4.10400 39.01400
N  1.59200 1.16000 43.52700
C  0.94400 2.25000 42.99900
C  -0.44700 1.93100 42.85600
C  -0.58400 0.54400 43.17200
C  0.75600 0.07400 43.57300
C  -1.43600 2.91800 42.29900
C  -1.90300 -0.26500 43.15100
O  -2.94900 0.22000 42.77400
C  -1.95900 -1.67600 43.41600
N  3.59100 -1.03100 44.38900
C  2.44600 -1.78500 44.16600
C  2.57600 -3.30900 44.57400
C  3.99400 -3.26300 45.23700
C  4.60300 -1.87600 44.90300
C  1.44100 -3.80100 45.50500
C  4.82400 -4.50300 44.86100
C  5.43200 -5.25100 45.99800
N  5.66100 0.95000 44.56500
C  6.44300 -0.13000 44.99300
C  7.82300 0.32900 44.94500
C  7.72100 1.69400 44.58200
C  6.43400 2.00900 44.30700
C  9.08400 -0.43800 45.44800
C  8.52600 2.87100 44.39800
O  9.76200 3.02400 44.44900
C  7.57600 3.92100 43.83800
C  7.63300 5.21900 44.58600
O  8.12200 6.27600 44.25600
O  6.94000 4.95300 45.79000
C  6.57500 6.20700 46.52500
H  0.85600 4.28000 42.34800
H  0.45700 -2.04000 43.62300
H  6.52100 -2.16900 45.62900
H  5.33200 5.90900 43.27700
H  2.81000 5.69300 41.93900
H  2.54900 7.15100 43.70700
H  3.38500 6.29400 44.83900
H  1.82100 5.76100 44.42500
H  6.31300 5.75500 41.48900
H  4.75100 5.94200 40.74900
H  4.45600 3.46700 40.55600
H  6.24600 3.31700 40.81200
H  -1.43100 2.98800 41.21100
H  -1.19100 3.91800 42.65700
H  -2.47900 2.70500 42.53400
H  -1.74100 -2.10700 44.39300
H  -1.40600 -2.11200 42.58300
H  -2.96400 -2.08900 43.32300
H  2.63400 -3.91000 43.66600
H  3.87100 -3.09100 46.30700
H  0.54200 -4.09400 44.96300
H  1.16000 -2.99200 46.18000
H  1.70000 -4.66700 46.11400
H  5.65300 -4.15300 44.24600
H  4.25600 -5.16200 44.20500
H  5.30300 -6.26600 45.62200
H  4.96800 -5.10100 46.97300
H  6.51900 -5.18800 46.04400
H  9.76100 -0.74400 44.65000
H  8.80100 -1.31800 46.02600
H  9.59900 0.12700 46.22500
H  8.06600 4.11200 42.88400
H  5.69400 5.92800 47.10300
H  6.43100 7.00700 45.79900
H  7.34200 6.40500 47.27400
Mg 25.70500 51.11000 26.27700
C  23.57500 52.00000 28.97300
C  27.82600 49.84700 28.54800
C  27.71800 50.31500 23.70000
C  23.41400 52.38000 24.07500
N  25.56100 50.74200 28.53800
C  24.69200 51.30100 29.43600
C  25.14700 51.02600 30.88200
C  26.56100 50.37700 30.70900
C  26.64800 50.29100 29.13800
C  27.81200 51.07400 31.51600
C  24.06500 50.17200 31.70200
C  23.36600 50.81300 32.92800
H  24.16800 51.59100 33.98400
N  27.48600 50.29500 26.15000
C  28.23800 49.86600 27.17200
C  29.50600 49.38000 26.62500
C  29.49000 49.66000 25.28200
C  28.18600 50.12900 24.97500
C  30.64800 48.84500 27.51900
C  30.65100 49.48700 24.35000
O  30.58100 49.89100 23.18900
C  31.94600 48.83700 24.77100
N  25.61300 51.36500 24.20100
C  26.53500 50.91000 23.30800
C  26.04200 51.09900 21.87200
C  24.54500 51.34800 22.10200
C  24.53300 51.73500 23.58500
C  26.79400 52.33100 21.06400
C  23.63300 50.10600 21.80500
C  22.42100 50.34600 20.92900
N  23.91600 52.10800 26.46200
C  23.07700 52.51900 25.42200
C  21.88200 53.12800 26.11400
C  22.06300 52.89900 27.48000
C  23.27300 52.25700 27.62100
C  20.71200 53.77200 25.41100
C  21.50600 53.18000 28.72500
O  20.53100 53.83400 28.99900
C  22.45300 52.54900 29.82800
C  22.86400 53.66500 30.63900
O  23.64900 54.52500 30.31600
O  22.06100 53.60100 31.71900
C  21.91500 54.76500 32.65700
H  28.54300 49.42700 29.25600
H  28.34300 49.95300 22.88000
H  22.79200 52.67000 23.22600
H  25.20200 52.02700 31.31100
H  26.54400 49.33300 31.02300
H  28.38300 51.75000 30.87900
H  28.47500 50.27200 31.84100
H  27.50600 51.56400 32.44000
H  24.49400 49.20100 31.95000
H  23.32300 50.00600 30.92100
H  22.77000 50.02600 33.39100
H  22.59500 51.52000 32.62300
H  31.54800 49.45000 27.40000
H  30.79300 47.78500 27.30900
H  30.38800 49.00600 28.56500
H  32.57300 49.46600 25.40300
H  32.44200 48.65100 23.81900
H  31.60900 47.96600 25.33300
H  26.21800 50.16900 21.33100
H  24.31300 52.23200 21.50800
H  27.77600 52.67700 21.38700
H  26.23700 53.26500 20.99200
H  26.97600 51.92800 20.06800
H  23.22700 49.68400 22.72400
H  24.13700 49.27500 21.31200
H  22.53100 49.77800 20.00500
H  22.28300 51.42500 20.85500
H  21.61700 49.74800 21.35800
H  21.01300 54.34200 24.53200
H  20.11100 54.38000 26.08700
H  20.00900 53.02800 25.03900
H  21.95400 51.75600 30.38500
H  22.63800 54.69700 33.47000
H  20.88900 54.83000 33.01600
H  22.17000 55.71900 32.19500

