158

Mg 40.47700 9.67600 29.68600
C  42.29600 10.62600 32.41100
C  38.05200 8.37400 31.80300
C  38.68800 8.40400 26.99000
C  43.17300 10.54300 27.58200
N  40.24900 9.52900 31.79900
C  41.08600 10.09400 32.72600
C  40.37300 10.10800 34.05300
C  39.01500 9.27600 33.94100
C  39.09400 9.01800 32.42800
C  38.88500 8.00300 34.73100
C  40.29300 11.60400 34.64900
C  39.56600 11.77100 35.92700
H  40.17200 12.62100 37.09600
N  38.55200 8.64300 29.43700
C  37.71600 8.22900 30.40900
C  36.51000 7.59200 29.83600
C  36.64200 7.68000 28.40000
C  38.01300 8.25200 28.22400
C  35.45300 6.91000 30.69000
C  35.64000 7.32700 27.36100
O  35.82400 7.38700 26.12300
C  34.18000 6.96900 27.75700
N  40.82900 9.45900 27.72600
C  39.94900 8.95600 26.73900
C  40.55200 9.12100 25.35300
C  41.84000 9.89500 25.57400
C  41.99100 9.97300 27.06000
C  40.56900 7.82000 24.50800
C  42.11500 11.21100 24.77200
C  41.46500 12.48900 25.33000
N  42.37400 10.45600 29.89500
C  43.34700 10.72800 28.97700
C  44.53500 11.20900 29.66800
C  44.11700 11.31600 31.02300
C  42.85200 10.71200 31.13200
C  45.84700 11.74200 29.09400
C  44.43100 11.72300 32.34000
O  45.49400 12.23300 32.69500
C  43.34600 11.38000 33.30200
C  43.77900 10.54000 34.42500
O  44.21700 9.42100 34.29200
O  43.97700 11.28500 35.57800
C  44.67600 10.65400 36.69200
H  37.24900 8.01500 32.45000
H  38.11600 7.97100 26.16600
H  43.96900 10.84600 26.89900
H  41.08300 9.69700 34.77000
H  38.14700 9.91000 34.11800
H  39.02800 7.16000 34.05500
H  37.93400 7.94800 35.26100
H  39.72200 7.90200 35.42200
H  39.67100 12.25500 34.03400
H  41.25300 12.03600 34.93000
H  39.36000 10.75800 36.27200
H  38.59200 12.22000 35.73400
H  35.27600 5.87000 30.41400
H  34.58800 7.57300 30.69900
H  35.71100 6.87600 31.74900
H  34.23500 5.99300 28.24000
H  33.68100 6.94000 26.78800
H  33.84000 7.79400 28.38200
H  39.93000 9.90900 24.92800
H  42.59000 9.19500 25.20600
H  40.11500 7.03500 25.11300
H  41.58300 7.49700 24.27200
H  40.06800 7.83800 23.54000
H  41.90200 11.02500 23.71900
H  43.17600 11.41300 24.91300
H  40.76800 12.32200 26.15100
H  41.00000 13.14900 24.59700
H  42.24800 13.07500 25.81200
H  46.67000 11.59300 29.79400
H  45.81200 12.75800 28.70200
H  46.06100 11.11100 28.23100
H  42.95100 12.29900 33.73400
H  44.93700 9.60900 36.52700
H  43.98800 10.92200 37.49400
H  45.52800 11.28000 36.95900
Mg 47.24800 16.42100 28.80800
C  45.33400 15.89900 31.58500
C  49.38400 18.51300 30.55400
C  48.79100 17.22600 26.00500
C  44.79200 14.78100 26.83500
N  47.26300 17.24800 30.82900
C  46.42600 16.76600 31.83400
C  46.97400 17.26900 33.21000
C  48.11800 18.35800 32.79500
C  48.30500 18.02800 31.26000
C  47.75300 19.82100 33.03000
C  47.59300 16.09900 34.04200
C  47.41800 16.25700 35.52000
H  47.20700 17.68900 36.12100
N  48.94100 17.58400 28.36200
C  49.78200 18.23400 29.21400
C  50.89000 18.78200 28.51200
C  50.67900 18.50600 27.13300
C  49.40900 17.71800 27.12800
C  52.06800 19.38900 29.22500
C  51.45600 18.89900 25.92500
O  51.13300 18.61000 24.76000
C  52.61600 19.78800 26.07100
N  46.86600 15.98100 26.64300
C  47.69700 16.39600 25.75000
C  47.23100 16.05400 24.35900
C  45.96900 15.09500 24.63400
C  45.93600 15.19300 26.13800
C  47.03400 17.25100 23.45600
C  46.02900 13.57400 24.17000
C  45.25000 13.34900 22.89100
N  45.44200 15.56600 29.08800
C  44.51900 15.00000 28.19400
C  43.28700 14.65100 28.96600
C  43.62200 14.90500 30.28600
C  44.92600 15.48400 30.28300
C  42.03800 14.17700 28.44600
C  43.15600 14.86800 31.66800
O  42.13600 14.43900 32.13800
C  44.26700 15.53600 32.53700
C  43.71700 16.76000 33.10000
O  43.59700 17.82900 32.50800
O  43.34600 16.66900 34.44100
C  42.75500 17.91400 35.09400
H  49.96500 19.15500 31.22000
H  49.22300 17.49900 25.04000
H  43.92400 14.41000 26.28600
H  46.11800 17.73000 33.70200
H  49.00100 18.06200 33.36100
H  46.68300 20.00900 33.11100
H  48.19200 20.47000 32.27200
H  48.16000 20.04200 34.01700
H  48.64200 16.02100 33.75600
H  47.01500 15.20900 33.79100
H  48.14900 15.71600 36.12100
H  46.52400 15.69300 35.78800
H  52.91900 18.75000 28.99200
H  52.00100 19.34400 30.31200
H  52.27800 20.35100 28.75600
H  52.26500 20.72800 26.49700
H  53.14100 19.96800 25.13300
H  53.39400 19.44700 26.75300
H  48.04400 15.43800 23.97600
H  45.05700 15.54800 24.24500
H  47.15900 18.17000 24.02900
H  46.01800 17.19000 23.06700
H  47.67700 17.20100 22.57700
H  45.71400 12.96600 25.01800
H  47.01600 13.18300 23.92300
H  45.83500 12.69100 22.24800
H  44.80500 14.24900 22.46700
H  44.48300 12.61000 23.12300
H  41.17900 14.61300 28.95400
H  42.06200 13.08900 28.37800
H  41.84000 14.48900 27.42100
H  44.45400 14.83700 33.35200
H  41.99100 18.47900 34.55900
H  43.62300 18.54100 35.29900
H  42.34400 17.69000 36.07800

