158

Mg 26.31400 -0.01300 29.46700
C  27.86800 0.10200 32.53600
C  23.18800 0.21500 31.33300
C  24.42800 -0.29200 26.64600
C  29.15400 -0.91100 27.84200
N  25.53300 0.13600 31.68200
C  26.44800 0.29600 32.73900
C  25.74900 0.55500 34.12500
C  24.28400 0.50000 33.68500
C  24.32500 0.24600 32.17000
C  23.43100 -0.54900 34.37500
C  26.07800 1.85500 34.99800
C  26.61000 1.51500 36.39500
H  26.43100 2.45500 37.54000
N  24.12600 0.04900 29.03800
C  23.10200 0.11500 29.90700
C  21.85500 0.17700 29.18200
C  22.18900 0.00400 27.80900
C  23.64100 -0.00700 27.75100
C  20.53900 0.54900 29.84800
C  21.22000 -0.02100 26.63600
O  21.62000 -0.11600 25.47300
C  19.72700 0.15700 26.80000
N  26.66800 -0.70800 27.58300
C  25.76600 -0.65400 26.55700
C  26.42200 -0.91700 25.17800
C  27.96200 -1.07600 25.54400
C  27.90900 -0.93800 27.10200
C  25.78200 -2.07500 24.37000
C  28.82100 0.07700 24.92900
C  28.85000 1.46600 25.55000
N  28.13900 -0.45100 30.01700
C  29.25100 -0.73000 29.24400
C  30.39200 -0.76000 30.06800
C  29.98500 -0.39800 31.35300
C  28.51100 -0.27300 31.34100
C  31.85500 -1.00100 29.69200
C  30.36700 -0.08500 32.70500
O  31.48600 0.13600 33.21200
C  29.08100 0.17100 33.54000
C  29.00300 -0.87200 34.64900
O  28.64900 -2.01600 34.47600
O  29.45900 -0.31600 35.78500
C  29.26400 -1.19700 36.89400
H  22.28800 0.30800 31.94300
H  23.89400 -0.34900 25.69500
H  30.03400 -1.11400 27.22700
H  26.10200 -0.39100 34.53600
H  23.84100 1.49500 33.72200
H  22.59900 -0.00200 34.81800
H  23.97900 -1.04100 35.17800
H  23.14800 -1.38900 33.74100
H  25.26100 2.56800 35.11300
H  26.75600 2.51300 34.45400
H  27.68600 1.35900 36.31900
H  26.10300 0.59500 36.68700
H  20.08200 1.35800 29.27800
H  20.73500 0.96600 30.83600
H  19.88900 -0.31300 30.00300
H  19.23200 -0.00200 25.84200
H  19.54000 1.16500 27.17100
H  19.32300 -0.56200 27.51300
H  26.20900 -0.02100 24.59500
H  28.35000 -2.06400 25.29500
H  24.74700 -2.25500 24.66100
H  26.33300 -3.01500 24.40600
H  25.68700 -1.67400 23.36100
H  28.48300 0.25900 23.90800
H  29.82000 -0.35400 24.86400
H  28.34500 1.56600 26.51000
H  28.41100 2.16400 24.83700
H  29.86900 1.72500 25.83800
H  32.15600 -1.98700 30.04600
H  32.48200 -0.33000 30.27900
H  31.95800 -0.78000 28.63000
H  29.08500 1.16300 33.99100
H  29.77200 -2.12500 36.63300
H  28.19000 -1.28600 37.05800
H  29.69100 -0.66700 37.74600
Mg 43.61300 4.14400 47.03700
C  41.06900 6.56500 46.99000
C  41.10300 1.79500 47.16800
C  45.91000 1.69300 47.01600
C  46.04700 6.56800 46.57300
N  41.39400 4.24200 47.11100
C  40.50900 5.29200 47.25000
C  39.02500 4.90400 47.16300
C  39.06700 3.31900 47.35300
C  40.63300 3.09400 47.28500
C  38.39100 2.91200 48.63100
C  38.38800 5.30500 45.83800
C  39.04700 4.92100 44.47900
H  39.29700 5.97700 43.41400
N  43.50900 2.05000 47.03100
C  42.40800 1.30700 47.05200
C  42.67400 -0.08300 46.90100
C  44.10200 -0.22800 46.88900
C  44.60500 1.20200 47.02800
C  41.65200 -1.20200 46.86400
C  44.89000 -1.48400 46.62400
O  44.28500 -2.58600 46.59700
C  46.36700 -1.56800 46.51200
N  45.65900 4.13900 46.62000
C  46.40200 3.02300 46.91900
C  47.91200 3.30400 46.83100
C  47.91800 4.87400 46.88100
C  46.47300 5.24900 46.68200
C  48.90000 2.60800 47.83000
C  48.97300 5.65000 46.05600
C  49.62800 6.82200 46.71400
N  43.64300 6.21000 46.78900
C  44.69800 7.02100 46.54000
C  44.13700 8.40500 46.50100
C  42.75300 8.26200 46.75700
C  42.47400 6.92900 46.85700
C  44.93500 9.67900 46.28100
C  41.55200 9.02100 46.88900
O  41.28400 10.20600 46.78100
C  40.34100 7.92900 47.06500
C  39.69300 8.09900 48.37200
O  40.17200 7.82000 49.49500
O  38.38700 8.30100 48.21100
C  37.64600 7.90400 49.47700
H  40.36400 0.99800 47.26900
H  46.71300 1.01600 47.31700
H  46.81300 7.34400 46.51900
H  38.54700 5.46900 47.96300
H  38.65900 2.74400 46.52100
H  38.01300 3.72600 49.24900
H  39.13000 2.58600 49.36300
H  37.76400 2.03300 48.48500
H  38.24400 6.38500 45.80800
H  37.42300 4.80200 45.88500
H  38.40100 4.13800 44.08000
H  40.05400 4.51500 44.56800
H  41.79100 -2.05800 47.52500
H  41.71900 -1.60900 45.85500
H  40.61700 -0.86300 46.91400
H  46.89600 -1.10700 47.34600
H  46.63100 -1.22600 45.51100
H  46.73300 -2.59100 46.61000
H  48.33300 2.97200 45.88200
H  48.17100 5.06100 47.92400
H  49.52600 1.82500 47.40300
H  48.30400 2.16600 48.62900
H  49.56400 3.32500 48.31300
H  48.43500 6.09400 45.21800
H  49.68600 5.01000 45.53700
H  50.70200 6.75700 46.54000
H  49.43800 6.96900 47.77800
H  49.27700 7.75200 46.26700
H  45.49000 9.77100 47.21400
H  44.31900 10.56100 46.10700
H  45.60500 9.44500 45.45400
H  39.65400 8.11200 46.23900
H  37.81400 8.78800 50.09300
H  38.04800 7.02600 49.98100
H  36.62200 7.62800 49.22800

