158

Mg 48.60700 16.19300 29.22800
C  46.37700 15.63400 31.94800
C  50.58100 17.93500 31.22800
C  50.35900 16.83800 26.50000
C  46.09900 14.57000 27.17300
N  48.44500 16.70900 31.37400
C  47.55300 16.32900 32.32400
C  47.95200 16.76900 33.73100
C  49.04900 17.77200 33.31500
C  49.39100 17.49400 31.89800
C  48.54100 19.25800 33.48800
C  48.50300 15.52600 34.58900
C  48.23700 15.72700 36.10200
H  48.28100 17.12800 36.72700
N  50.28700 17.10400 28.94500
C  50.98100 17.77100 29.88000
C  52.26500 18.19600 29.28600
C  52.27800 17.80700 27.91000
C  50.90400 17.26600 27.74000
C  53.44100 18.75900 30.05500
C  53.30600 17.93500 26.87800
O  53.18900 17.65400 25.68900
C  54.66000 18.47800 27.21400
N  48.38100 15.61500 27.12000
C  49.16200 16.16300 26.21600
C  48.72300 15.81400 24.75300
C  47.38600 14.98700 25.02600
C  47.23500 15.07000 26.54200
C  48.64700 17.03200 23.76700
C  47.29000 13.66200 24.31000
C  47.69900 12.39200 25.12300
N  46.58500 15.41100 29.40400
C  45.77200 14.76700 28.53300
C  44.55700 14.39800 29.20900
C  44.71200 14.72600 30.58500
C  46.04200 15.28400 30.67700
C  43.47000 13.53700 28.54100
C  44.16100 14.59300 31.91700
O  43.04500 14.22300 32.28100
C  45.23100 15.22100 32.87200
C  44.57900 16.50500 33.46200
O  44.04100 17.36300 32.82500
O  44.54500 16.42100 34.81600
C  43.68200 17.39200 35.40200
H  51.25200 18.37900 31.96600
H  50.85000 17.10000 25.56000
H  45.40500 14.01500 26.53800
H  47.03800 17.15500 34.18200
H  50.01500 17.67800 33.81300
H  47.54500 19.31500 33.92600
H  48.48000 19.79300 32.54000
H  49.17500 19.76200 34.21700
H  49.55400 15.28300 34.43600
H  47.85500 14.68000 34.36000
H  48.95100 15.17200 36.71000
H  47.29600 15.20400 36.27200
H  53.95200 19.59600 29.57900
H  54.02000 17.83700 30.09400
H  53.21300 19.22900 31.01200
H  54.48300 19.53000 27.44000
H  55.22200 18.50800 26.28100
H  55.15400 17.86400 27.96800
H  49.33500 15.03300 24.30300
H  46.53600 15.47100 24.54600
H  48.00500 16.96300 22.88900
H  49.65800 17.20800 23.40000
H  48.52400 17.95100 24.33900
H  47.93600 13.66200 23.43200
H  46.27200 13.60400 23.92600
H  48.17500 11.58800 24.56200
H  46.89000 11.90100 25.66400
H  48.42100 12.69600 25.88000
H  42.72700 14.20000 28.09700
H  42.85000 12.96000 29.22800
H  43.88500 12.90800 27.75400
H  45.46900 14.53600 33.68700
H  44.13700 18.37200 35.26200
H  43.50600 17.15700 36.45200
H  42.72400 17.40200 34.88300
Mg -5.40200 25.56800 25.99800
C  -4.06800 27.04500 28.93100
C  -7.28900 23.69800 28.03500
C  -6.32600 23.97100 23.21400
C  -3.21300 27.68300 24.11300
N  -5.49500 25.31600 28.23200
C  -4.92600 25.97700 29.24800
C  -5.56300 25.58500 30.62500
C  -6.43600 24.36400 30.24000
C  -6.49200 24.51700 28.75700
C  -6.03700 22.98500 30.80500
C  -6.39600 26.72400 31.25200
C  -7.06700 26.54600 32.65800
H  -6.39700 25.48100 33.58900
N  -6.70700 24.04500 25.68100
C  -7.45700 23.48300 26.66100
C  -8.40500 22.47400 26.02900
C  -8.08100 22.52300 24.64100
C  -6.93300 23.48300 24.46400
C  -9.44600 21.60800 26.88200
C  -8.62600 21.69300 23.57600
O  -8.26300 21.82800 22.44800
C  -9.64200 20.60300 23.88600
N  -4.85400 25.80800 23.98000
C  -5.36700 24.99800 22.98800
C  -4.66100 25.30300 21.67200
C  -3.87100 26.60400 21.96500
C  -4.08200 26.76500 23.45900
C  -3.76600 24.13600 21.26500
C  -4.16900 27.88800 21.13600
C  -3.15400 28.27400 20.04200
N  -3.99100 27.03700 26.36300
C  -3.22900 27.83800 25.50200
C  -2.47000 28.80600 26.33000
C  -2.76000 28.52500 27.64200
C  -3.66700 27.41900 27.64100
C  -1.57100 29.90600 25.78400
C  -2.52900 28.95500 28.94700
O  -1.90900 29.93100 29.34400
C  -3.36100 28.01800 29.82700
C  -2.57500 27.43800 30.92000
O  -1.56700 26.72600 30.81000
O  -3.12700 27.71900 32.16000
C  -2.31700 27.45300 33.35900
H  -7.89100 23.02500 28.65000
H  -6.49200 23.34800 22.33300
H  -2.46800 28.17400 23.48300
H  -4.74700 25.32700 31.30000
H  -7.41400 24.54800 30.68400
H  -6.68200 22.73100 31.64600
H  -5.01900 22.95700 31.19300
H  -6.13600 22.21500 30.04000
H  -7.15700 26.86200 30.48400
H  -5.81700 27.64200 31.35200
H  -8.13400 26.34800 32.56100
H  -7.00900 27.54200 33.09700
H  -9.47200 22.01200 27.89400
H  -9.39500 20.52500 26.77800
H  -10.46000 21.82200 26.54300
H  -10.62200 20.91000 24.25200
H  -9.06200 20.02100 24.60200
H  -9.68600 19.86500 23.08500
H  -5.45100 25.53300 20.95600
H  -2.79400 26.44500 21.91300
H  -3.89700 23.36400 22.02400
H  -2.68800 24.27600 21.19400
H  -4.13100 23.71500 20.32800
H  -4.36600 28.70600 21.82900
H  -5.14900 27.90000 20.65900
H  -2.83500 29.27200 20.34400
H  -3.59600 28.40700 19.05500
H  -2.31900 27.57300 20.04300
H  -2.25400 30.52900 25.20700
H  -0.78300 29.46400 25.17400
H  -1.10700 30.39900 26.63900
H  -4.09000 28.70900 30.25000
H  -1.64800 28.30000 33.51200
H  -1.77800 26.50600 33.31700
H  -3.06900 27.43300 34.14800

