158

Mg 1.46600 7.99100 25.68800
C  2.23800 10.14700 28.35300
C  1.30500 5.41100 27.92200
C  0.52900 6.13900 23.22000
C  1.67600 10.67600 23.47600
N  1.77200 7.86200 27.91500
C  2.04400 8.84300 28.84700
C  1.97000 8.26600 30.23500
C  1.99600 6.64900 30.01000
C  1.69000 6.65400 28.53500
C  3.28600 5.88700 30.46400
C  0.70500 8.62500 30.96700
C  0.87100 8.92300 32.44700
H  2.10700 8.53000 33.28000
N  1.00200 5.99800 25.58900
C  0.86100 5.13800 26.67600
C  0.38700 3.88500 26.09300
C  0.23000 4.04300 24.67200
C  0.55200 5.46600 24.40300
C  0.17600 2.68100 26.94500
C  -0.15000 3.02400 23.59500
O  -0.06600 3.33500 22.39100
C  -0.69700 1.68300 24.03100
N  1.39900 8.28700 23.56600
C  0.90200 7.37900 22.78700
C  0.95800 7.79700 21.30900
C  1.12800 9.35400 21.35400
C  1.39000 9.46300 22.89500
C  2.25300 7.17700 20.65500
C  -0.16400 10.13600 20.96400
C  0.03900 11.52900 20.26100
N  1.81800 10.00600 25.84700
C  1.91300 10.99300 24.85600
C  2.20100 12.31000 25.47600
C  2.34900 12.00400 26.86900
C  2.15600 10.59200 26.98000
C  2.24600 13.66400 24.79400
C  2.55300 12.52700 28.17800
O  2.80300 13.65000 28.48300
C  2.38300 11.39200 29.16900
C  3.49800 11.36100 30.16000
O  4.58100 10.91600 29.90200
O  3.16900 11.92400 31.39800
C  4.23800 12.06600 32.41700
H  1.41100 4.57400 28.61600
H  0.21200 5.52400 22.37500
H  1.68500 11.58900 22.87600
H  2.89600 8.42500 30.78800
H  1.22300 6.11300 30.56200
H  3.91400 5.52900 29.64800
H  3.07500 4.95300 30.98500
H  3.89300 6.47900 31.14900
H  -0.14600 7.97100 30.77800
H  0.31700 9.56400 30.57200
H  0.07300 8.28100 32.81900
H  0.61400 9.95300 32.69700
H  0.18000 2.80400 28.02800
H  0.87400 1.87600 26.71400
H  -0.79100 2.23100 26.72500
H  0.15600 1.31900 24.60400
H  -0.92200 1.03800 23.18200
H  -1.54800 1.86700 24.68600
H  -0.00900 7.47200 20.92500
H  1.93500 9.69300 20.70400
H  1.81700 6.23200 20.33000
H  2.97200 7.05500 21.46500
H  2.63900 7.67600 19.76600
H  -0.69600 10.38200 21.88300
H  -0.77000 9.48700 20.33200
H  -0.50000 11.64400 19.32100
H  1.09500 11.77700 20.15200
H  -0.52000 12.25800 20.84800
H  2.48600 13.49300 23.74500
H  2.90500 14.28400 25.40300
H  1.23700 14.07600 24.82600
H  1.42800 11.56100 29.66600
H  4.38500 13.10900 32.69900
H  5.21200 11.64600 32.16500
H  3.83400 11.49900 33.25600
Mg -2.27500 34.75400 26.70300
C  -3.36700 32.91900 29.41800
C  -0.63400 36.88200 28.85600
C  -1.48100 36.58700 24.03200
C  -3.58700 32.34200 24.57000
N  -2.08100 34.85500 28.88500
C  -2.53500 33.95800 29.81700
C  -2.06600 34.34100 31.16900
C  -1.29800 35.58800 31.01700
C  -1.33100 35.80900 29.45600
C  -1.82700 36.81800 31.91100
C  -1.18600 33.18400 31.83700
C  -1.63700 32.57500 33.18900
H  -0.68900 32.41000 34.46100
N  -1.23500 36.52000 26.44300
C  -0.66100 37.23400 27.44900
C  -0.03400 38.36800 26.84600
C  -0.30500 38.34900 25.49200
C  -1.01000 37.10500 25.21400
C  0.81300 39.37600 27.66400
C  0.15200 39.39100 24.45800
O  0.01000 39.20200 23.29400
C  0.84200 40.64900 24.84500
N  -2.37200 34.48500 24.60300
C  -2.05300 35.39500 23.68800
C  -2.58000 35.12800 22.32500
C  -2.94400 33.58300 22.47000
C  -2.89800 33.41000 23.98400
C  -3.77400 35.95200 21.87100
C  -2.08200 32.58000 21.71900
C  -0.71300 32.11700 22.41200
N  -3.41700 32.91800 26.90100
C  -3.86100 32.02000 25.92600
C  -4.60400 30.98000 26.58700
C  -4.52300 31.33200 27.98500
C  -3.74800 32.56300 28.08700
C  -5.07400 29.74600 25.85600
C  -4.84600 30.92100 29.29200
O  -5.46100 29.94300 29.68100
C  -4.11100 31.91500 30.27600
C  -5.13800 32.53100 31.14100
O  -5.92600 33.37400 30.76400
O  -5.13300 31.93300 32.43600
C  -6.27600 32.39700 33.22000
H  -0.12400 37.55700 29.54600
H  -1.37700 37.18000 23.12100
H  -4.03600 31.66700 23.83800
H  -2.96000 34.60900 31.73200
H  -0.26000 35.41100 31.29800
H  -0.94100 37.15600 32.44600
H  -2.57500 36.41100 32.59200
H  -2.25400 37.61900 31.30800
H  -0.14000 33.45400 31.97900
H  -1.07900 32.37900 31.11000
H  -1.69800 31.52100 32.92000
H  -2.63700 32.91400 33.45800
H  1.85600 39.50900 27.38000
H  0.98700 39.05900 28.69200
H  0.27800 40.31300 27.82300
H  0.16000 41.27100 25.42600
H  1.24300 41.11400 23.94400
H  1.74300 40.40400 25.40700
H  -1.68300 35.18200 21.70800
H  -3.96500 33.34900 22.16800
H  -3.96100 36.59100 22.73400
H  -4.67500 35.37200 21.67300
H  -3.42700 36.57300 21.04500
H  -1.81300 33.06000 20.77700
H  -2.56900 31.63000 21.50300
H  0.08900 32.80400 22.14200
H  -0.35600 31.12900 22.12000
H  -0.70200 32.04700 23.50000
H  -4.38900 29.52700 25.03700
H  -6.02000 29.89200 25.33500
H  -5.10200 28.89800 26.54000
H  -3.41500 31.39300 30.93200
H  -7.19500 32.60500 32.67200
H  -6.06700 33.32800 33.74800
H  -6.48100 31.60100 33.93500

