158

Mg 40.36000 10.69600 30.28600
C  42.29400 12.08900 32.80700
C  38.29300 9.35400 32.71000
C  38.90000 8.94400 27.84500
C  43.19800 11.05300 28.10900
N  40.27900 10.72100 32.48700
C  41.10700 11.50400 33.31700
C  40.56500 11.39500 34.77200
C  39.26700 10.52100 34.68300
C  39.31900 10.08400 33.22200
C  39.19700 9.24900 35.60800
C  40.26400 12.80200 35.32800
C  40.61200 12.92900 36.83700
H  39.61700 13.83700 37.71400
N  38.76100 9.44200 30.31600
C  37.96800 9.05500 31.34600
C  36.84100 8.35500 30.86100
C  37.02300 8.17200 29.44700
C  38.27300 8.89700 29.09400
C  35.79300 7.82300 31.82300
C  36.17300 7.28500 28.46300
O  36.54300 7.02800 27.33500
C  35.01900 6.58400 28.95600
N  41.01700 10.07500 28.29100
C  40.15300 9.36100 27.43900
C  40.59600 9.24400 26.01400
C  41.97000 10.05800 26.08400
C  42.06400 10.41900 27.56400
C  40.73900 7.74800 25.44000
C  42.07400 11.27500 25.11100
C  41.90600 12.69100 25.74300
N  42.23800 11.64100 30.29000
C  43.30600 11.55100 29.41800
C  44.43500 12.28500 29.96300
C  44.06000 12.49800 31.33200
C  42.76000 12.07100 31.47800
C  45.79500 12.44400 29.34900
C  44.53300 13.04800 32.55600
O  45.46800 13.70200 32.96100
C  43.40800 12.68300 33.62800
C  44.00400 11.70500 34.58500
O  44.33100 10.54400 34.49100
O  44.13700 12.41900 35.79400
C  44.69500 11.69600 36.96700
H  37.66200 8.94400 33.50100
H  38.44400 8.44100 26.99000
H  44.09200 11.06300 27.48100
H  41.26800 10.82900 35.38400
H  38.33100 11.04700 34.87000
H  38.23500 8.76100 35.76000
H  39.51500 9.65500 36.56800
H  39.82300 8.38100 35.40200
H  39.18100 12.90000 35.39600
H  40.50800 13.58900 34.61400
H  41.55500 13.47000 36.91500
H  40.71500 11.95800 37.32200
H  35.96400 6.74700 31.77800
H  34.73700 7.96500 31.59200
H  36.03700 8.07600 32.85500
H  35.55600 5.96000 29.67100
H  34.57100 5.98100 28.16500
H  34.38100 7.39000 29.31800
H  39.93900 9.73600 25.29600
H  42.82300 9.44600 25.79100
H  41.73100 7.32300 25.59300
H  40.47700 7.70900 24.38200
H  40.08900 7.03800 25.95100
H  41.35500 11.06200 24.32000
H  43.04400 11.19200 24.62100
H  42.13300 12.76600 26.80600
H  40.86300 12.96700 25.58900
H  42.55600 13.42600 25.26800
H  46.07400 11.63400 28.67600
H  46.49600 12.56600 30.17400
H  45.79500 13.25100 28.61600
H  43.11500 13.57600 34.18100
H  43.96400 11.14800 37.56200
H  45.22600 12.44500 37.55400
H  45.32600 10.87100 36.63800
Mg -11.35400 37.65100 42.73300
C  -9.01900 35.05700 42.00400
C  -9.06700 39.83300 41.64000
C  -13.71200 40.00600 43.00500
C  -13.64800 35.17400 43.75000
N  -9.31400 37.40000 41.78300
C  -8.51300 36.31000 41.63500
C  -7.15100 36.64600 40.98600
C  -7.18600 38.23100 41.02000
C  -8.63500 38.53400 41.47200
C  -6.06400 38.99600 41.71200
C  -6.76400 35.95200 39.65900
C  -5.29900 35.63800 39.48700
H  -4.96300 34.72100 38.32800
N  -11.30200 39.62200 42.57800
C  -10.26100 40.35800 42.14400
C  -10.54600 41.74500 42.34400
C  -11.90500 41.91600 42.69500
C  -12.40200 40.49300 42.71500
C  -9.58500 42.79200 42.27000
C  -12.56300 43.26800 43.05900
O  -11.94800 44.30200 43.06900
C  -13.97600 43.24600 43.52800
N  -13.42000 37.54100 43.13400
C  -14.12400 38.68800 43.27100
C  -15.62600 38.37600 43.69000
C  -15.64700 36.79400 43.93600
C  -14.15900 36.44100 43.59600
C  -16.23400 39.16200 44.94900
C  -16.68900 36.01100 43.11500
C  -16.40600 35.62100 41.62400
N  -11.43300 35.51300 42.78400
C  -12.36100 34.68300 43.38500
C  -11.77800 33.31200 43.51600
C  -10.46800 33.44200 42.96300
C  -10.27500 34.75000 42.60700
C  -12.46900 32.19500 44.27300
C  -9.25300 32.78700 42.65400
O  -8.96900 31.66000 42.92700
C  -8.30700 33.73600 41.89600
C  -7.08600 33.68800 42.73200
O  -6.06800 33.06900 42.46700
O  -7.19700 34.39200 43.89800
C  -6.08700 34.18800 44.89500
H  -8.30400 40.55000 41.32700
H  -14.50500 40.72900 43.20900
H  -14.37700 34.45300 44.12700
H  -6.32600 36.36100 41.63900
H  -7.19000 38.60300 39.99500
H  -5.78300 39.68100 40.91300
H  -5.24700 38.30200 41.90800
H  -6.30000 39.41800 42.68900
H  -6.93100 36.70800 38.89200
H  -7.46800 35.14200 39.47000
H  -5.02500 35.01600 40.33900
H  -4.67000 36.52600 39.41800
H  -9.93400 43.40300 41.43700
H  -8.58100 42.36900 42.24500
H  -9.54100 43.24600 43.26000
H  -14.33200 44.24000 43.80100
H  -14.06300 42.66800 44.44800
H  -14.50400 42.85200 42.66000
H  -16.22100 38.55000 42.79300
H  -15.70600 36.53000 44.99100
H  -17.12600 39.62000 44.52300
H  -15.56400 39.90800 45.37700
H  -16.58500 38.52900 45.76400
H  -17.52800 36.70700 43.14600
H  -16.90800 35.12000 43.70300
H  -17.00900 34.73600 41.42100
H  -15.37100 35.29800 41.52100
H  -16.59500 36.49700 41.00300
H  -13.17300 32.59300 45.00400
H  -11.65800 31.63100 44.73500
H  -13.06500 31.53900 43.63900
H  -8.02400 33.39900 40.89800
H  -5.11200 34.54300 44.56100
H  -6.12400 33.24000 45.43200
H  -6.34000 34.88700 45.69200

