158

Mg 1.74600 -2.84000 44.17700
C  5.06500 -1.83200 43.42400
C  0.67700 -0.42100 42.11300
C  -1.27600 -4.15700 44.58200
C  3.17600 -5.69500 45.76900
N  2.85300 -1.40700 42.77900
C  4.15500 -1.13800 42.63800
C  4.42200 0.00600 41.65400
C  3.02400 0.71400 41.72500
C  2.09500 -0.40800 42.23500
C  2.99900 1.98300 42.64800
C  4.76300 -0.52800 40.23000
C  6.04500 0.02300 39.56900
H  5.71500 0.83700 38.28800
N  -0.12600 -2.37700 43.51800
C  -0.37100 -1.29900 42.64000
C  -1.78800 -1.09000 42.45500
C  -2.36000 -2.20800 43.13400
C  -1.22800 -2.96200 43.84400
C  -2.42900 0.06900 41.68400
C  -3.84900 -2.54800 42.99500
O  -4.57600 -1.75400 42.39000
C  -4.41100 -3.73200 43.72700
N  1.03800 -4.62000 45.12900
C  -0.31600 -4.92800 45.18300
C  -0.55000 -6.29200 45.86400
C  0.87400 -6.77200 46.18300
C  1.79200 -5.68000 45.62800
C  -1.50200 -6.16800 47.06700
C  1.27000 -8.16000 45.55500
C  0.90600 -9.34800 46.45600
N  3.62500 -3.56400 44.71200
C  4.07100 -4.74700 45.35500
C  5.56600 -4.79200 45.36000
C  5.94300 -3.62700 44.67400
C  4.75600 -2.92000 44.31200
C  6.47200 -5.82100 45.94000
C  7.11900 -2.92400 44.22000
O  8.30200 -3.08500 44.45500
C  6.57400 -1.76700 43.28600
C  7.11400 -0.44500 43.77900
O  7.64500 0.41100 43.14500
O  6.90500 -0.44900 45.15300
C  7.46400 0.78500 45.80500
H  0.29000 0.40000 41.50600
H  -2.26200 -4.59700 44.73900
H  3.74800 -6.52900 46.18000
H  5.30300 0.54400 42.00400
H  2.74400 0.99000 40.70800
H  4.00700 2.04000 43.05900
H  2.25300 1.78600 43.41800
H  2.77800 2.82500 41.99300
H  3.97400 -0.28500 39.51700
H  4.74900 -1.60800 40.37200
H  6.59500 -0.83500 39.18300
H  6.75100 0.45700 40.27700
H  -2.21400 -0.07700 40.62500
H  -1.85200 0.94900 41.96700
H  -3.47900 0.28300 41.87900
H  -4.20100 -3.58100 44.78600
H  -3.88000 -4.65700 43.50100
H  -5.49800 -3.78000 43.66000
H  -0.98600 -7.01700 45.17600
H  0.98400 -6.87900 47.26200
H  -2.11300 -5.27500 46.93500
H  -0.92900 -6.14400 47.99500
H  -2.07900 -7.08900 46.98700
H  2.34500 -8.28400 45.43000
H  0.78700 -8.22800 44.58000
H  1.82700 -9.91100 46.60200
H  0.18400 -9.97500 45.93200
H  0.46100 -8.94000 47.36400
H  5.95100 -6.52100 46.59300
H  7.31000 -5.36400 46.46500
H  6.85000 -6.39900 45.09600
H  6.90100 -1.89600 42.25400
H  7.85800 0.44800 46.76400
H  6.74200 1.54800 46.09400
H  8.20400 1.31400 45.20500
Mg 47.62900 35.61800 27.68200
C  45.99900 33.87700 30.26100
C  48.08000 38.21600 29.87000
C  49.15400 37.37600 25.28100
C  47.45300 32.78200 25.70500
N  47.20200 35.88700 29.78500
C  46.51800 35.11500 30.68500
C  46.55100 35.64300 32.09500
C  46.68200 37.18300 31.73500
C  47.36300 37.14500 30.34900
C  45.47100 38.15100 31.88100
C  47.74900 35.11600 33.10100
C  49.20100 35.77100 33.06800
H  49.56700 36.61200 34.29500
N  48.59400 37.48700 27.62400
C  48.71600 38.33700 28.65800
C  49.51900 39.45400 28.23400
C  49.71600 39.32900 26.78800
C  49.07900 38.06600 26.47600
C  49.96700 40.55800 29.28400
C  50.40900 40.27400 25.88300
O  50.45500 40.05300 24.70600
C  51.33200 41.43700 26.41600
N  48.18100 35.15100 25.73300
C  48.75700 36.06200 24.93100
C  48.81100 35.44600 23.45300
C  48.72000 33.89800 23.72700
C  48.08200 33.94300 25.12200
C  47.64900 35.99300 22.51400
C  50.03800 33.01300 23.80400
C  50.00600 31.80700 22.76600
N  46.82700 33.66600 27.87800
C  46.79500 32.67100 26.98800
C  46.24400 31.56400 27.58400
C  45.82100 31.98700 28.88400
C  46.25600 33.28700 29.04100
C  45.94900 30.12300 27.06100
C  45.12000 31.65600 30.12500
O  44.58100 30.64700 30.49100
C  45.10900 32.94900 30.95700
C  45.40200 32.68800 32.36800
O  46.38900 32.10400 32.80800
O  44.37800 33.11400 33.15500
C  44.38500 32.77000 34.54500
H  48.15300 39.05700 30.56200
H  49.52900 37.98400 24.45500
H  47.49100 31.79500 25.24000
H  45.60200 35.50400 32.61400
H  47.50600 37.48400 32.38200
H  45.19500 38.13600 32.93500
H  44.63500 37.84500 31.25200
H  45.80600 39.18600 31.81500
H  47.94200 34.07100 32.85700
H  47.20200 35.28900 34.02800
H  49.43100 36.23700 32.11000
H  49.82100 34.87400 33.09000
H  49.47200 41.48500 28.99500
H  51.04600 40.58800 29.13000
H  49.79800 40.35800 30.34200
H  51.80300 41.75800 25.48600
H  52.14500 41.21600 27.10700
H  50.75700 42.33300 26.64900
H  49.75200 35.79700 23.03100
H  47.87500 33.49600 23.16900
H  46.99200 36.59500 23.14100
H  46.95800 35.24600 22.12300
H  48.03200 36.55900 21.66500
H  50.21100 32.55600 24.77800
H  50.85000 33.61600 23.39700
H  49.21400 31.91300 22.02400
H  49.92000 30.86000 23.29800
H  50.93200 31.74700 22.19500
H  45.16000 30.14000 26.31000
H  45.56100 29.47700 27.84800
H  46.81900 29.67500 26.58000
H  44.09800 33.34200 31.06100
H  44.79900 33.59000 35.13200
H  44.89800 31.81700 34.67100
H  43.35100 32.53100 34.79300

