158

Mg 23.50300 -6.57700 46.17000
C  25.93000 -4.40800 44.97800
C  21.20500 -4.92900 44.06700
C  21.19400 -8.84700 46.99800
C  25.89700 -8.38200 47.86300
N  23.69800 -5.07900 44.41400
C  24.75900 -4.21100 44.30700
C  24.42000 -3.11600 43.23400
C  22.83100 -3.14700 43.32600
C  22.56400 -4.47900 43.97600
C  22.16400 -1.88100 44.11200
C  25.15800 -3.33700 41.88300
C  26.01400 -2.16100 41.30900
H  25.41800 -1.37600 40.24200
N  21.44800 -6.84300 45.68800
C  20.74300 -6.00800 44.86200
C  19.37700 -6.46800 44.79900
C  19.28400 -7.63100 45.58900
C  20.64200 -7.87600 46.16400
C  18.28500 -5.92600 43.80800
C  18.04000 -8.56500 45.77400
O  16.96500 -8.27600 45.36400
C  18.14800 -9.97600 46.43300
N  23.59400 -8.39600 47.21700
C  22.45900 -9.13700 47.47200
C  22.84000 -10.44900 48.19600
C  24.45500 -10.32400 48.48100
C  24.64400 -8.93300 47.95000
C  22.03500 -10.97200 49.46100
C  25.29500 -11.39800 47.87400
C  26.57700 -11.81700 48.59100
N  25.43000 -6.47900 46.46400
C  26.32200 -7.25000 47.17400
C  27.66000 -6.72600 47.01400
C  27.53400 -5.54100 46.26200
C  26.17400 -5.45000 45.85800
C  28.86200 -7.27400 47.53700
C  28.32700 -4.37800 45.82800
O  29.47400 -3.98900 45.97000
C  27.27500 -3.60000 44.94000
C  27.24300 -2.24100 45.49100
O  26.51400 -1.80700 46.37900
O  28.19900 -1.51600 44.85000
C  28.20800 -0.02400 45.16200
H  20.49100 -4.24100 43.60900
H  20.63000 -9.71600 47.34500
H  26.69400 -8.91500 48.38500
H  24.77600 -2.12100 43.50200
H  22.35600 -3.15400 42.34500
H  22.83600 -1.07200 43.82600
H  22.11900 -2.00300 45.19400
H  21.20100 -1.59900 43.68600
H  24.46500 -3.69600 41.12200
H  25.79500 -4.21000 42.03000
H  26.86900 -2.73100 40.94600
H  26.46000 -1.49700 42.04900
H  18.24800 -6.32700 42.79500
H  18.40600 -4.85100 43.67200
H  17.27200 -6.04500 44.19300
H  17.24900 -10.58700 46.35800
H  18.43000 -9.79900 47.47000
H  18.95600 -10.47500 45.89800
H  22.75000 -11.17600 47.38900
H  24.58800 -10.40000 49.56000
H  22.69700 -11.11400 50.31400
H  21.55400 -11.93200 49.27800
H  21.26700 -10.26600 49.77700
H  25.51100 -11.00800 46.88000
H  24.71600 -12.31500 47.76100
H  27.34200 -11.21300 48.10400
H  26.71100 -12.89900 48.56000
H  26.56300 -11.47100 49.62400
H  28.80200 -7.54500 48.59100
H  29.69000 -6.58700 47.36300
H  29.08900 -8.16100 46.94600
H  27.65700 -3.51100 43.92300
H  28.91700 0.42200 44.46500
H  28.53300 0.20100 46.17700
H  27.23100 0.45300 45.07300
Mg -11.79000 37.28400 41.79200
C  -9.72100 34.70600 40.76900
C  -9.54400 39.55100 40.60800
C  -14.25200 39.56800 42.03200
C  -14.14200 34.84600 42.95600
N  -9.98200 37.10500 40.58900
C  -9.24100 35.96600 40.38100
C  -7.91800 36.19900 39.57100
C  -7.82400 37.76200 39.84800
C  -9.18200 38.23500 40.38600
C  -6.62000 38.40600 40.68500
C  -7.99700 35.75100 38.04400
C  -6.82500 34.92300 37.41300
H  -6.24600 35.53600 36.17800
N  -11.83400 39.34100 41.34500
C  -10.73900 40.06900 40.95700
C  -11.21800 41.51100 40.93300
C  -12.66100 41.49600 41.25700
C  -12.97000 40.09400 41.60200
C  -10.33400 42.66800 40.60500
C  -13.56300 42.72300 41.35400
O  -13.11800 43.82100 41.06800
C  -15.01900 42.75400 41.85000
N  -13.93800 37.14100 42.29600
C  -14.70200 38.33800 42.31800
C  -16.23300 37.98800 42.65800
C  -16.12800 36.52400 43.13000
C  -14.64700 36.11600 42.80400
C  -16.94400 38.84200 43.69200
C  -17.23800 35.56200 42.43600
C  -18.22400 34.96400 43.48400
N  -11.95800 35.20100 41.84200
C  -12.88500 34.33400 42.48600
C  -12.30900 33.03000 42.52800
C  -11.00100 33.10600 41.94500
C  -10.90400 34.39800 41.42100
C  -12.97700 31.74100 43.07600
C  -9.75000 32.38000 41.70100
O  -9.38800 31.28700 42.06300
C  -8.90400 33.38000 40.74400
C  -7.59900 33.60500 41.25300
O  -7.29300 34.00300 42.32900
O  -6.70900 33.29200 40.29000
C  -5.33100 33.39700 40.80100
H  -8.74700 40.21800 40.27300
H  -15.03800 40.32600 42.04300
H  -14.89800 34.22500 43.44100
H  -7.08800 35.74500 40.11100
H  -7.65300 38.24300 38.88500
H  -6.08100 39.08600 40.02600
H  -5.86100 37.64000 40.84400
H  -6.99100 38.97600 41.53700
H  -8.16900 36.62300 37.41300
H  -8.90000 35.16300 37.87800
H  -7.26800 33.93900 37.26100
H  -6.04700 34.77700 38.16200
H  -10.67300 43.34400 39.82000
H  -9.35800 42.21600 40.42900
H  -10.13900 43.22200 41.52300
H  -15.70700 42.43000 41.06900
H  -15.18200 43.79900 42.11200
H  -15.17500 42.17900 42.76200
H  -16.82900 38.14600 41.75900
H  -16.24700 36.49800 44.21300
H  -17.65200 39.49300 43.17800
H  -16.29200 39.53200 44.22700
H  -17.57500 38.24900 44.35400
H  -16.72700 34.82900 41.81200
H  -17.77000 36.11400 41.66200
H  -17.86500 33.96400 43.72600
H  -19.24200 34.96800 43.09400
H  -18.29000 35.66300 44.31800
H  -12.29200 31.23300 43.75500
H  -13.04900 31.07500 42.21700
H  -13.89700 31.95900 43.61900
H  -8.85400 33.13400 39.68300
H  -4.99800 34.43400 40.78200
H  -4.66900 32.84800 40.13100
H  -5.05300 33.09200 41.81000

