158

Mg 26.98500 49.39100 25.26500
C  24.81000 50.50600 28.05100
C  29.08100 48.28500 27.73600
C  28.94800 48.63300 22.77200
C  24.68200 50.90900 23.07600
N  26.80200 49.35000 27.70300
C  25.94600 49.86500 28.56800
C  26.27500 49.55400 29.95600
C  27.83800 49.12500 29.89400
C  27.92500 48.85400 28.34800
C  28.88800 50.05300 30.49300
C  25.42200 48.39600 30.60700
C  24.85500 48.64100 31.97400
H  25.88000 49.20500 32.99700
N  28.73600 48.57800 25.28100
C  29.44900 48.05700 26.36000
C  30.74800 47.55800 25.86000
C  30.79100 47.79200 24.45000
C  29.46500 48.40200 24.07900
C  31.71200 46.95400 26.82700
C  32.05300 47.63800 23.59500
O  32.17300 48.21300 22.52400
C  33.26000 46.93000 24.11100
N  26.81900 49.65100 23.20900
C  27.76300 49.18800 22.31900
C  27.25500 49.27400 20.90800
C  25.93300 50.03100 21.00900
C  25.77600 50.23100 22.50800
C  28.21700 49.71100 19.83800
C  24.76500 49.29100 20.33500
C  23.96400 50.07600 19.31600
N  25.12300 50.45200 25.51100
C  24.29200 50.95300 24.50600
C  23.20400 51.68900 25.10900
C  23.37100 51.55500 26.46600
C  24.54800 50.78000 26.69700
C  22.16400 52.46700 24.34500
C  22.79100 51.92000 27.74600
O  21.81700 52.52900 28.04200
C  23.71000 51.17900 28.83800
C  24.12900 52.15500 29.86600
O  24.97600 53.00100 29.79100
O  23.43100 51.92100 31.04100
C  23.95800 52.71900 32.11400
H  29.80300 47.98800 28.50000
H  29.53200 48.25400 21.93000
H  23.90500 51.32900 22.43500
H  26.16000 50.43600 30.58500
H  27.93900 48.24400 30.52800
H  29.43500 49.37500 31.14900
H  28.39300 50.89500 30.97700
H  29.60100 50.38500 29.73800
H  25.99800 47.48400 30.76100
H  24.62500 48.11200 29.91900
H  24.44800 47.71600 32.38200
H  24.03400 49.35700 31.93400
H  31.33900 46.60300 27.79000
H  32.48200 47.71300 26.96100
H  32.21400 46.11200 26.35200
H  33.16900 45.86300 24.31500
H  33.55000 47.30900 25.09200
H  34.12600 47.02600 23.45600
H  26.97300 48.25700 20.63600
H  25.99300 51.01200 20.53700
H  28.57000 48.77900 19.39700
H  29.09000 50.16000 20.31300
H  27.78700 50.32400 19.04600
H  24.17800 48.91300 21.17200
H  25.17100 48.37700 19.90100
H  22.91600 49.78200 19.24900
H  24.30400 49.76900 18.32700
H  24.00900 51.16100 19.41700
H  21.16800 52.19100 24.69300
H  22.29500 52.28400 23.27800
H  22.44400 53.43600 24.75900
H  23.09100 50.46900 29.38700
H  23.57100 52.26700 33.02800
H  23.62600 53.75800 32.10100
H  25.04700 52.77100 32.11200
Mg -5.88200 24.84600 26.86300
C  -4.27900 25.93300 29.75100
C  -8.01200 22.93600 28.78400
C  -7.20800 23.59800 24.02500
C  -3.58500 26.70900 25.01400
N  -6.11900 24.50700 28.98800
C  -5.33400 25.00800 30.00600
C  -5.85800 24.57600 31.32800
C  -6.77000 23.36700 31.02500
C  -7.05400 23.67700 29.51300
C  -6.14400 21.97400 31.24700
C  -6.57800 25.73600 32.17400
C  -6.07400 25.98200 33.62100
H  -5.15600 24.98600 34.37100
N  -7.46400 23.51700 26.44400
C  -8.19300 22.83700 27.38700
C  -9.28500 22.15500 26.74500
C  -9.07300 22.36800 25.35500
C  -7.90400 23.19700 25.18700
C  -10.36600 21.33200 27.51200
C  -9.93300 21.90600 24.11700
O  -9.64800 22.12200 22.96400
C  -11.20200 21.02200 24.30500
N  -5.44500 25.12300 24.74000
C  -6.09100 24.41200 23.80500
C  -5.56500 24.64200 22.47000
C  -4.37700 25.68900 22.72600
C  -4.50000 25.91600 24.25800
C  -4.99300 23.46300 21.75200
C  -4.34300 27.04900 21.84500
C  -3.13200 27.17800 20.89500
N  -4.34200 26.16800 27.20900
C  -3.51200 26.95700 26.38300
C  -2.57400 27.62100 27.13400
C  -2.85500 27.31200 28.46600
C  -3.90900 26.39500 28.46500
C  -1.53900 28.51000 26.51900
C  -2.40600 27.56800 29.86800
O  -1.43800 28.21200 30.25500
C  -3.34400 26.58600 30.83600
C  -2.36800 25.71300 31.53100
O  -1.97300 24.65800 31.08000
O  -1.97000 26.26500 32.75000
C  -0.96500 25.57700 33.45700
H  -8.64000 22.40100 29.49900
H  -7.56400 23.11700 23.11100
H  -2.85100 27.26800 24.42900
H  -4.94900 24.33900 31.88200
H  -7.67100 23.32500 31.63700
H  -5.08200 22.18400 31.37700
H  -6.09000 21.36700 30.34400
H  -6.60300 21.41300 32.06100
H  -7.56300 25.29900 32.33800
H  -6.66500 26.61400 31.53500
H  -6.95600 26.16400 34.23500
H  -5.49900 26.90600 33.55600
H  -11.32200 21.83000 27.66900
H  -9.94100 21.11700 28.49300
H  -10.57200 20.41600 26.95800
H  -11.81600 21.50400 25.06600
H  -10.79700 20.08400 24.68200
H  -11.60100 20.90200 23.29700
H  -6.26600 25.04000 21.73700
H  -3.41400 25.18000 22.71100
H  -3.98400 23.39100 21.34600
H  -5.48800 23.41700 20.78200
H  -5.20300 22.53800 22.28900
H  -4.24000 27.83800 22.59000
H  -5.31000 27.17800 21.35800
H  -2.50700 26.30400 21.07900
H  -2.59100 28.04500 21.27400
H  -3.38300 27.30900 19.84200
H  -0.92100 27.78400 25.98900
H  -1.04200 28.95300 27.38100
H  -1.89100 29.27600 25.82800
H  -3.94000 27.13600 31.56500
H  -0.09300 26.20500 33.63900
H  -0.63800 24.67600 32.93700
H  -1.30800 25.22000 34.42800

