158

Mg 0.85500 7.78900 26.19900
C  1.17700 9.25400 29.35800
C  0.47300 4.79100 27.64400
C  1.13700 6.39700 23.13500
C  1.64900 10.87300 24.82500
N  0.93600 7.06900 28.25000
C  0.77400 7.84200 29.39900
C  0.52800 7.00000 30.66300
C  0.48400 5.54500 30.06900
C  0.57500 5.85400 28.57000
C  1.57600 4.61000 30.67000
C  -0.81400 7.47700 31.40400
C  -0.77700 7.81000 32.91400
H  0.24500 7.23700 33.79100
N  0.72700 5.84400 25.50400
C  0.53500 4.76700 26.26100
C  0.54000 3.59800 25.42800
C  0.73500 4.00800 24.11300
C  0.86400 5.45700 24.19500
C  0.28000 2.15900 25.99500
C  0.77100 3.03800 22.81500
O  0.94300 3.52400 21.71200
C  0.61600 1.57700 22.79400
N  1.12600 8.58900 24.20800
C  1.29800 7.80700 23.14600
C  1.66600 8.62100 21.87400
C  1.80700 10.08500 22.45400
C  1.57200 9.81600 23.90900
C  2.98200 8.12100 21.14100
C  0.84100 11.13500 21.90400
C  -0.71000 11.02300 22.13500
N  1.32300 9.69600 26.89700
C  1.55100 10.82800 26.22800
C  1.66000 11.93300 27.10800
C  1.53200 11.39000 28.38000
C  1.34200 10.05200 28.19800
C  2.09300 13.31100 26.74100
C  1.74000 11.59300 29.78200
O  2.08500 12.55900 30.38700
C  1.17700 10.30300 30.49700
C  2.10500 10.08200 31.66500
O  3.29600 9.68600 31.71200
O  1.53300 10.71500 32.71900
C  2.30500 11.10300 33.92800
H  0.41000 3.88400 28.24900
H  1.27000 5.99100 22.13000
H  1.90900 11.88500 24.50800
H  1.44700 7.25400 31.19200
H  -0.48400 5.13500 30.35500
H  2.48600 4.36500 30.12200
H  1.03800 3.75700 31.08400
H  1.87700 4.93900 31.66500
H  -1.57100 6.69100 31.41300
H  -1.18500 8.32300 30.82600
H  -1.77000 7.52600 33.26400
H  -0.56000 8.87800 32.92500
H  0.94900 1.56000 25.37800
H  -0.77000 1.93200 25.81300
H  0.62300 2.15800 27.03000
H  1.39100 0.97400 23.26800
H  0.58900 1.37300 21.72400
H  -0.35400 1.37500 23.24800
H  0.83500 8.56700 21.17100
H  2.78200 10.56700 22.37900
H  3.61100 7.71700 21.93400
H  3.57000 8.90800 20.66800
H  2.73800 7.42300 20.34100
H  0.99700 11.26900 20.83300
H  1.17400 12.11200 22.25400
H  -0.88500 10.08800 22.66700
H  -1.18400 10.96500 21.15500
H  -1.15400 11.87800 22.64400
H  2.80100 13.59200 27.52100
H  1.11200 13.75000 26.56100
H  2.67300 13.48400 25.83500
H  0.12200 10.43900 30.73300
H  2.22200 12.13600 34.26500
H  3.37700 10.91200 33.89400
H  1.86000 10.47500 34.70000
Mg 47.19000 24.61200 27.84000
C  48.37000 26.65700 30.53800
C  46.58500 22.04300 30.14000
C  46.85500 22.56800 25.26200
C  48.81500 26.85100 25.73600
N  47.54100 24.35400 30.17000
C  47.72300 25.44900 31.00400
C  47.32900 25.10600 32.46600
C  46.86600 23.55600 32.30800
C  47.06200 23.27400 30.82000
C  47.43900 22.49500 33.26600
C  46.29100 25.98500 33.16600
C  46.66500 26.58000 34.49700
H  45.61400 26.93500 35.54800
N  46.62900 22.56900 27.73100
C  46.44700 21.71900 28.77200
C  46.09900 20.47900 28.21700
C  46.15100 20.54200 26.79800
C  46.52800 21.96800 26.54600
C  45.78500 19.26200 29.09300
C  45.85200 19.52500 25.64800
O  45.87700 19.79300 24.46800
C  45.52200 18.15900 26.02800
N  47.91100 24.61200 25.80000
C  47.48000 23.72800 24.91800
C  47.79100 24.10200 23.46400
C  48.16600 25.60400 23.60300
C  48.33500 25.73400 25.10300
C  48.85000 23.15100 22.73200
C  47.08300 26.62900 23.00800
C  47.70000 27.70400 22.05800
N  48.21200 26.48500 27.99300
C  48.80900 27.21500 27.10500
C  49.43500 28.36200 27.71300
C  49.10500 28.25600 29.04600
C  48.46100 27.05800 29.16100
C  50.09800 29.46100 27.00900
C  49.37300 28.82600 30.30000
O  49.98100 29.82100 30.54400
C  48.67600 27.89200 31.34500
C  49.62100 27.59700 32.47400
O  50.42200 26.72300 32.51600
O  49.48400 28.51500 33.45700
C  50.29400 28.29200 34.70500
H  46.16600 21.30500 30.82700
H  46.57200 21.97600 24.38900
H  49.32800 27.55100 25.07200
H  48.25300 25.13800 33.04200
H  45.80300 23.59400 32.54100
H  48.04600 22.90300 34.07500
H  48.14100 21.87500 32.70900
H  46.73200 21.80900 33.73300
H  45.36300 25.46300 33.40000
H  45.87300 26.80300 32.58000
H  47.12300 27.53700 34.24500
H  47.33900 25.99500 35.12200
H  46.26300 19.35000 30.06800
H  46.16400 18.31700 28.70500
H  44.71300 19.13200 29.23900
H  46.24900 17.74400 26.72600
H  45.47700 17.52400 25.14400
H  44.59100 18.09800 26.59200
H  46.83400 24.02700 22.94800
H  49.16600 25.85200 23.24600
H  48.47700 22.84200 21.75600
H  48.91100 22.22600 23.30500
H  49.83900 23.58900 22.59700
H  46.55400 27.11100 23.83100
H  46.34400 26.10500 22.40200
H  47.40100 27.57100 21.01800
H  48.78500 27.59800 22.04600
H  47.38400 28.71300 22.32200
H  49.49200 30.14300 26.41200
H  50.91000 29.09000 26.38400
H  50.60300 29.99300 27.81500
H  47.81700 28.53100 31.55200
H  51.18500 28.87600 34.47400
H  50.59800 27.28200 34.98000
H  49.93500 28.68600 35.65600

