158

Mg 8.14500 3.46300 28.76800
C  9.74000 2.12600 31.60800
C  6.35300 5.57700 30.97200
C  6.40600 4.46600 26.19400
C  9.72900 0.88100 26.96700
N  7.99000 3.66300 31.05600
C  8.80900 3.14100 31.99200
C  8.81200 3.84200 33.37400
C  7.55300 4.75800 33.12700
C  7.31700 4.75000 31.59900
C  6.24900 4.46100 34.00900
C  10.08400 4.74700 33.55800
C  10.89200 4.40800 34.83500
H  10.26900 5.07100 36.04800
N  6.58100 4.85000 28.57100
C  6.07200 5.67200 29.54200
C  5.05400 6.60700 28.93100
C  5.24000 6.43000 27.52700
C  6.11200 5.23400 27.38100
C  4.28700 7.69200 29.62100
C  4.67100 7.20000 26.37600
O  4.91900 6.87600 25.23200
C  3.71800 8.30300 26.52000
N  8.13100 2.74900 26.93200
C  7.28400 3.37400 26.02400
C  7.58800 2.77300 24.61100
C  8.57300 1.57400 24.83700
C  8.83700 1.68700 26.35800
C  6.29100 2.52000 23.90400
C  9.80200 1.45700 23.83200
C  10.00600 0.06600 23.19900
N  9.44500 1.90900 29.17200
C  9.93600 0.90800 28.32100
C  10.83200 -0.01500 29.01700
C  10.83800 0.55400 30.26900
C  9.93600 1.62600 30.36100
C  11.61100 -1.19300 28.43800
C  11.34200 0.35600 31.66000
O  12.26700 -0.32200 32.00000
C  10.68000 1.39200 32.60700
C  9.82200 0.57300 33.56800
O  8.85700 -0.04300 33.19400
O  10.16700 0.76200 34.91100
C  9.20000 0.28300 35.89900
H  5.93600 6.33700 31.63600
H  5.99000 4.88700 25.27600
H  10.23700 0.19900 26.28200
H  8.57000 3.10300 34.13800
H  7.65300 5.82500 33.32300
H  5.81000 5.34500 34.47200
H  6.50800 3.62100 34.65300
H  5.60700 4.13700 33.19000
H  9.87400 5.80600 33.70700
H  10.81900 4.72100 32.75300
H  11.90900 4.79900 34.86500
H  10.86800 3.33600 35.03300
H  4.43600 7.78200 30.69700
H  3.23100 7.46300 29.47800
H  4.60000 8.60800 29.11900
H  4.29100 9.19100 26.78400
H  3.10400 8.15500 27.40800
H  3.06300 8.49200 25.66900
H  8.10800 3.58300 24.09900
H  8.02700 0.63000 24.83900
H  5.51000 2.41300 24.65800
H  6.30800 1.62000 23.29000
H  6.07900 3.22000 23.09700
H  10.66400 1.82100 24.39100
H  9.62600 2.18000 23.03500
H  10.13800 0.11400 22.11800
H  9.40500 -0.80000 23.47800
H  10.95500 -0.43100 23.40000
H  11.67000 -1.03900 27.36000
H  11.06700 -2.10400 28.68800
H  12.59500 -1.21700 28.90700
H  11.49400 1.96400 33.05300
H  9.58400 -0.62600 36.36300
H  8.26700 0.03100 35.39500
H  9.01400 1.09100 36.60500
Mg 17.24000 50.92400 25.90400
C  18.95000 49.78300 28.64000
C  14.95500 52.48600 28.02100
C  15.74300 52.11000 23.18100
C  19.71600 49.53400 23.80900
N  17.13400 51.30600 28.11600
C  17.87500 50.60200 29.04000
C  17.37400 50.82300 30.44700
C  16.04300 51.62000 30.23200
C  16.03800 51.83900 28.72400
C  14.83500 50.89600 30.80500
C  18.47300 51.50400 31.35500
C  18.20400 51.58600 32.87600
H  17.21600 50.64000 33.56900
N  15.51100 52.08500 25.58600
C  14.71300 52.59900 26.57600
C  13.66900 53.30700 25.93700
C  14.05300 53.47800 24.51200
C  15.09800 52.48100 24.37500
C  12.67700 54.06600 26.69700
C  13.58500 54.49000 23.44200
O  14.06000 54.55300 22.30800
C  12.58700 55.53400 23.93800
N  17.64000 50.90000 23.86000
C  16.92300 51.38700 22.86800
C  17.16100 50.85800 21.45900
C  18.59600 50.39700 21.69900
C  18.69500 50.30900 23.17500
C  16.15500 49.70000 21.19600
C  19.67100 51.36200 21.09900
C  20.56100 50.90000 19.94600
N  18.97300 49.94000 26.11300
C  19.81200 49.34600 25.19000
C  20.85200 48.62100 25.85700
C  20.50100 48.65800 27.21700
C  19.35400 49.51200 27.32700
C  22.03200 47.98500 25.30100
C  20.95000 48.31200 28.59200
O  22.00600 47.69400 28.93800
C  19.91500 48.99400 29.55400
C  19.35900 47.96000 30.41500
O  18.51000 47.16900 30.00300
O  19.99100 47.97600 31.65700
C  19.57600 46.94600 32.60300
H  14.20600 52.89100 28.70500
H  15.21300 52.47600 22.30000
H  20.41400 48.98300 23.17500
H  17.12600 49.91000 30.98800
H  16.03900 52.62500 30.65300
H  14.03500 50.74200 30.08100
H  14.48400 51.52800 31.62100
H  15.05400 49.93300 31.26600
H  18.44500 52.55100 31.05500
H  19.46100 51.10400 31.12600
H  17.89000 52.62600 32.96300
H  19.16900 51.41700 33.35300
H  12.99100 55.08800 26.91000
H  12.49600 53.53300 27.63100
H  11.72300 54.05200 26.16900
H  13.01200 56.17000 24.71400
H  11.59400 55.19500 24.23100
H  12.57700 56.27900 23.14200
H  17.15200 51.62200 20.68200
H  18.88100 49.42500 21.29800
H  15.87300 49.93200 20.17000
H  15.25500 49.60100 21.80300
H  16.54800 48.68400 21.16000
H  20.37100 51.42600 21.93100
H  19.36600 52.39600 20.93600
H  20.21600 49.90400 19.66900
H  21.59500 50.80700 20.27800
H  20.49300 51.54100 19.06700
H  22.31800 48.55600 24.41800
H  21.70900 47.03600 24.87200
H  22.82200 47.76000 26.01800
H  20.56900 49.69400 30.07200
H  20.15400 47.06600 33.51900
H  19.69300 45.94300 32.19400
H  18.56600 47.12200 32.97400

