158

Mg 2.63000 -1.50900 44.06200
C  5.98700 -0.77600 43.69100
C  1.91000 1.57400 42.54500
C  -0.65500 -2.42300 43.77100
C  3.39400 -4.65000 45.29200
N  3.77500 0.18500 43.24700
C  5.11100 0.25800 43.20500
C  5.72500 1.40900 42.41600
C  4.43800 2.33200 42.30400
C  3.28200 1.31800 42.72000
C  4.58900 3.55300 43.32000
C  6.45300 1.12500 41.08000
C  7.58900 2.13700 40.76700
H  7.33300 3.09400 39.59600
N  0.85700 -0.54000 43.37100
C  0.80000 0.73900 42.76300
C  -0.52400 1.07700 42.55700
C  -1.39000 -0.02800 42.92000
C  -0.42100 -1.09000 43.40000
C  -0.94400 2.47200 42.13500
C  -2.97900 -0.04100 42.82400
O  -3.56700 0.91100 42.32300
C  -3.73300 -1.22400 43.17700
N  1.45100 -3.28900 44.56400
C  0.19500 -3.48800 44.20600
C  -0.26900 -4.92100 44.39700
C  1.07100 -5.59600 44.91600
C  2.05500 -4.43800 44.98600
C  -1.49400 -5.18200 45.32000
C  1.46200 -6.70600 43.76100
C  0.60700 -7.95200 43.86300
N  4.37200 -2.57500 44.44400
C  4.52600 -3.82800 44.97700
C  5.99900 -4.07900 45.09600
C  6.60300 -2.89500 44.61800
C  5.59000 -2.03200 44.24200
C  6.62000 -5.22300 45.69700
C  7.87700 -2.25000 44.44400
O  9.02800 -2.60900 44.68200
C  7.48600 -0.83900 43.75700
C  8.05900 0.17100 44.68800
O  7.96600 0.21300 45.88700
O  8.66100 1.16000 43.94600
C  9.02400 2.45800 44.60600
H  1.60700 2.56300 42.19600
H  -1.66800 -2.75900 43.53800
H  3.66700 -5.64700 45.64500
H  6.42800 1.91400 43.07900
H  4.05100 2.67200 41.34300
H  3.62600 3.98000 43.60200
H  5.15000 4.39200 42.91100
H  5.05100 3.21300 44.24700
H  5.69600 1.17900 40.29800
H  6.89400 0.13600 40.95100
H  8.44900 1.52100 40.50500
H  7.80500 2.77300 41.62600
H  -1.97200 2.69700 42.41900
H  -0.80200 2.56700 41.05900
H  -0.38900 3.24100 42.67200
H  -4.81800 -1.15800 43.10200
H  -3.32600 -1.77100 44.02700
H  -3.49800 -1.92500 42.37500
H  -0.56900 -5.30400 43.42200
H  0.99800 -5.92200 45.95300
H  -2.13400 -5.98800 44.96200
H  -1.98400 -4.21000 45.25600
H  -1.22500 -5.43700 46.34500
H  2.38500 -7.16800 44.11000
H  1.46700 -6.32000 42.74100
H  0.41800 -8.19900 42.81800
H  -0.35000 -7.74500 44.34300
H  1.17800 -8.75700 44.32600
H  7.07800 -5.88600 44.96300
H  5.98800 -5.86000 46.31600
H  7.51100 -4.90200 46.23600
H  7.94000 -0.84500 42.76700
H  8.89300 2.50400 45.68700
H  8.39400 3.21000 44.13100
H  10.01100 2.59400 44.16300
Mg 26.49000 50.04300 26.93000
C  24.44900 51.49100 29.46300
C  28.46200 48.82300 29.39700
C  28.74200 49.24300 24.54900
C  24.59700 51.84600 24.58600
N  26.41700 50.14600 29.21200
C  25.47100 50.75000 30.01500
C  25.64100 50.30400 31.55500
C  27.07000 49.56700 31.40900
C  27.35600 49.49900 29.94300
C  28.18300 50.17700 32.27000
C  24.43200 49.48700 32.15500
C  24.00600 49.93200 33.62900
H  25.04300 50.55700 34.52200
N  28.27600 49.09000 26.97500
C  28.93200 48.65900 28.09300
C  30.06400 47.93300 27.66300
C  30.15600 47.95000 26.25500
C  29.07200 48.78700 25.78800
C  31.05500 47.33000 28.59100
C  31.14300 47.28700 25.31300
O  31.02300 47.31900 24.13100
C  32.30600 46.54200 25.81800
N  26.60300 50.47500 24.86100
C  27.67000 49.99600 24.09500
C  27.47800 50.23000 22.58100
C  26.14300 51.15100 22.61600
C  25.72300 51.12900 24.09700
C  28.62700 50.92400 21.93600
C  25.02800 50.43500 21.74100
C  23.96400 49.52400 22.38700
N  24.84100 51.30900 26.93800
C  24.09100 51.88800 25.88400
C  22.88000 52.54300 26.41500
C  23.02500 52.40200 27.75200
C  24.23400 51.74600 28.06600
C  21.74100 53.25400 25.71300
C  22.38800 52.75400 29.00500
O  21.31500 53.33100 29.23700
C  23.29600 52.15300 30.16700
C  23.55900 53.26900 31.09900
O  24.23600 54.25100 30.81300
O  22.84700 53.08200 32.20800
C  22.78700 54.05900 33.24800
H  29.11500 48.33900 30.12600
H  29.37000 49.01900 23.68400
H  23.92800 52.37200 23.90100
H  25.79900 51.22700 32.11200
H  27.03400 48.54100 31.77500
H  28.88300 50.80400 31.71800
H  28.81800 49.34900 32.58400
H  27.66800 50.75400 33.03900
H  24.64900 48.42200 32.23000
H  23.57300 49.60300 31.49500
H  23.44300 49.15300 34.14200
H  23.29500 50.73900 33.45200
H  31.32900 46.30300 28.34800
H  30.77300 47.41400 29.64000
H  31.92000 47.97700 28.44300
H  33.05300 46.39400 25.03800
H  31.89800 45.59500 26.17300
H  32.70100 47.21000 26.58300
H  27.37400 49.26500 22.08500
H  26.28900 52.15800 22.22700
H  29.35100 50.23200 21.50700
H  29.14200 51.60800 22.61100
H  28.20000 51.50000 21.11500
H  25.49400 49.84700 20.95000
H  24.50200 51.20900 21.18300
H  24.28900 49.02600 23.30100
H  23.71700 48.76700 21.64300
H  23.03900 50.02600 22.67100
H  20.82000 53.11500 26.27900
H  21.51100 53.03900 24.67000
H  21.94700 54.31700 25.58100
H  22.64200 51.46100 30.69800
H  23.54500 53.66200 33.92300
H  21.80900 54.11200 33.72500
H  23.20500 55.04200 33.03100

