158

Mg -1.55500 17.28900 26.35100
C  -2.59900 15.25100 29.02700
C  -2.78400 20.04600 28.02000
C  -1.09700 19.01200 23.50000
C  -1.20500 14.30300 24.32800
N  -2.50600 17.61300 28.33800
C  -2.85800 16.61600 29.21800
C  -3.32500 17.31400 30.48500
C  -3.88700 18.64900 29.85900
C  -2.96800 18.85800 28.69000
C  -5.38000 18.65300 29.48100
C  -2.13300 17.53000 31.39300
C  -2.36600 17.09600 32.88700
H  -1.21400 16.67000 33.74100
N  -1.71700 19.25300 25.88300
C  -2.15100 20.23900 26.75300
C  -1.95100 21.48000 26.04700
C  -1.45100 21.20200 24.74100
C  -1.39500 19.79800 24.66600
C  -2.42700 22.81500 26.68800
C  -1.12900 22.12600 23.59300
O  -0.78800 21.75100 22.47500
C  -1.19400 23.53000 23.82500
N  -1.42100 16.66400 24.20000
C  -1.09400 17.65100 23.34500
C  -0.98500 17.07200 21.87400
C  -0.61800 15.54500 22.24100
C  -1.16600 15.46900 23.67900
C  -2.18000 17.32800 21.00400
C  0.89600 15.08100 22.20600
C  1.90700 15.86200 23.01300
N  -1.76700 15.25300 26.57900
C  -1.53500 14.14400 25.75800
C  -1.90800 12.97300 26.47000
C  -2.19500 13.32200 27.78300
C  -2.12900 14.71800 27.76000
C  -1.76300 11.59500 25.87200
C  -2.47400 12.78900 29.10900
O  -2.52400 11.63100 29.46400
C  -2.89800 14.01300 29.93800
C  -2.18000 13.94300 31.23800
O  -1.03300 14.18800 31.39700
O  -3.06700 13.55500 32.20400
C  -2.46800 12.99400 33.42600
H  -3.21100 20.94800 28.46200
H  -1.15700 19.48200 22.51700
H  -1.17300 13.47500 23.61700
H  -4.08200 16.65300 30.90800
H  -3.71800 19.48700 30.53600
H  -5.78200 17.64700 29.35600
H  -5.40700 19.17100 28.52300
H  -5.98100 19.03800 30.30600
H  -1.75200 18.55000 31.33500
H  -1.18500 17.12600 31.03800
H  -3.02800 16.23500 32.79600
H  -2.92400 17.90300 33.36100
H  -2.87800 22.80700 27.68000
H  -3.19300 23.20100 26.01600
H  -1.47800 23.34900 26.74400
H  -2.21600 23.76300 24.12500
H  -0.84000 24.09800 22.96500
H  -0.60200 23.73600 24.71700
H  -0.09300 17.50000 21.41700
H  -1.25200 14.89500 21.63700
H  -2.79800 18.05700 21.52900
H  -2.75700 16.40300 21.01400
H  -1.84200 17.58400 20.00000
H  1.03100 15.30300 21.14800
H  0.86000 14.00100 22.35400
H  1.45200 16.64900 23.61300
H  2.64000 16.28600 22.32700
H  2.36300 15.04900 23.57900
H  -2.12900 11.63800 24.84600
H  -2.19700 10.78400 26.45700
H  -0.71000 11.42900 25.64600
H  -3.95700 13.83900 30.13000
H  -1.72800 13.73200 33.73500
H  -1.90000 12.07600 33.27900
H  -3.16000 12.84700 34.25600
Mg -1.78300 34.51900 26.27500
C  -3.14600 32.56100 28.92700
C  -0.65700 36.73400 28.45100
C  -0.88600 36.19100 23.56100
C  -3.41800 32.07700 24.07700
N  -2.00500 34.59300 28.43500
C  -2.43800 33.71300 29.27900
C  -2.10500 34.24900 30.73100
C  -1.45500 35.60100 30.59000
C  -1.39500 35.70200 29.08400
C  -2.03800 36.80100 31.35900
C  -1.30300 33.10400 31.46800
C  -1.90400 32.50500 32.74500
H  -1.03500 32.43700 34.05200
N  -0.84100 36.20000 26.02800
C  -0.35300 36.95700 27.06000
C  0.49000 37.99200 26.54800
C  0.37900 37.89700 25.12900
C  -0.44300 36.67200 24.80400
C  1.25800 38.96500 27.52700
C  0.98400 38.75200 24.06000
O  0.70800 38.56700 22.86500
C  1.93600 39.83000 24.42900
N  -2.36000 34.23000 24.08300
C  -1.67600 35.05000 23.21600
C  -1.78400 34.60300 21.78600
C  -2.32300 33.08400 22.06700
C  -2.64000 33.09900 23.51600
C  -2.83600 35.35000 20.94200
C  -1.41100 31.86400 21.63100
C  -0.04900 31.87300 22.36200
N  -3.17000 32.75600 26.42500
C  -3.67300 31.84900 25.46100
C  -4.38800 30.77000 26.10400
C  -4.27200 31.04700 27.49100
C  -3.51600 32.23500 27.61700
C  -4.80900 29.53700 25.42600
C  -4.59200 30.49300 28.82100
O  -5.14200 29.46100 29.18300
C  -3.86600 31.52100 29.79400
C  -4.85700 32.13900 30.78300
O  -5.54800 33.07800 30.48100
O  -4.88300 31.50800 31.99800
C  -5.90200 31.98400 32.85500
H  -0.40700 37.52900 29.15600
H  -0.51600 36.69000 22.66300
H  -3.74300 31.38900 23.29400
H  -3.09800 34.36600 31.16500
H  -0.40500 35.60300 30.88200
H  -2.56300 37.45000 30.65700
H  -1.32300 37.39600 31.92800
H  -2.79300 36.54100 32.10100
H  -0.40200 33.51100 31.92800
H  -1.03600 32.33600 30.74100
H  -1.92400 31.43500 32.53400
H  -2.87900 32.96200 32.90900
H  0.92000 39.99600 27.42400
H  2.29700 38.80000 27.24200
H  1.30100 38.70100 28.58400
H  2.33400 40.40200 23.59000
H  2.72800 39.36300 25.01500
H  1.41700 40.50700 25.10700
H  -0.81800 34.62600 21.28000
H  -3.29300 32.88300 21.61200
H  -3.25900 36.16800 21.52500
H  -3.59500 34.68800 20.52400
H  -2.30100 35.70400 20.06100
H  -1.29600 31.94400 20.55000
H  -1.97400 30.95800 21.86000
H  -0.00100 32.66200 23.11300
H  0.78800 32.02100 21.68000
H  0.23000 30.94800 22.86700
H  -4.17400 29.37400 24.55600
H  -5.86400 29.60700 25.16300
H  -4.67600 28.66300 26.06500
H  -3.19300 31.01900 30.48800
H  -5.46400 32.61200 33.63100
H  -6.33900 31.06900 33.25600
H  -6.75600 32.48300 32.39700

