158

Mg 36.37800 49.89800 25.72400
C  36.23500 47.98600 28.74300
C  35.12500 52.51000 27.40700
C  35.98500 51.37000 22.81800
C  37.32400 46.73800 24.09200
N  35.77300 50.22700 27.90300
C  35.95700 49.38500 28.91600
C  35.56800 50.09600 30.22900
C  35.24300 51.50300 29.82200
C  35.35500 51.42100 28.25800
C  33.88000 52.02800 30.39100
C  36.64300 49.90700 31.32500
C  36.12300 49.41000 32.68800
H  34.70300 49.65300 33.11400
N  35.77300 51.68500 25.27200
C  35.31700 52.61700 26.04500
C  34.91300 53.76700 25.22300
C  35.38300 53.54900 23.93100
C  35.74100 52.13700 23.95000
C  34.06700 54.81600 25.77000
C  35.19100 54.32800 22.62400
O  35.51100 53.99500 21.48100
C  34.50300 55.71800 22.62900
N  36.32900 48.98600 23.70700
C  36.24000 49.96000 22.67900
C  36.71300 49.24500 21.33100
C  37.12100 47.78100 21.80600
C  36.99700 47.84900 23.32000
C  35.72200 49.35300 20.23100
C  38.49900 47.31600 21.28000
C  39.76700 47.84300 21.97600
N  36.67600 47.75400 26.26000
C  37.08600 46.63700 25.48100
C  37.20600 45.49800 26.30800
C  36.86200 45.98500 27.64100
C  36.55700 47.33500 27.50000
C  37.63800 44.08300 25.87700
C  36.71100 45.61700 29.01500
O  36.75400 44.51400 29.51100
C  36.25600 46.85900 29.81200
C  34.91300 46.60400 30.47500
O  33.76600 46.66500 30.01800
O  35.19500 45.94500 31.68600
C  34.01900 45.47400 32.56300
H  34.75900 53.33600 28.02000
H  36.11700 51.89800 21.87200
H  37.68200 45.84500 23.57400
H  34.65500 49.56000 30.49000
H  36.07300 52.10800 30.18800
H  33.97600 52.83100 31.12100
H  33.30300 51.24200 30.87800
H  33.29400 52.55300 29.63600
H  37.15600 50.86100 31.44600
H  37.34600 49.13300 31.01700
H  36.75700 49.86000 33.45200
H  36.32300 48.33900 32.69800
H  34.71000 55.69400 25.69700
H  33.83600 54.77200 26.83500
H  33.14100 54.89000 25.20000
H  33.45100 55.57300 22.87500
H  34.55500 56.07100 21.59900
H  35.00300 56.32400 23.38500
H  37.61600 49.76200 21.00700
H  36.38100 47.07600 21.42700
H  34.76600 49.73200 20.59300
H  35.51500 48.42000 19.70700
H  35.98800 49.95400 19.36100
H  38.58800 47.42400 20.19900
H  38.63400 46.24700 21.44700
H  39.45000 48.77000 22.45400
H  40.60400 48.13200 21.34200
H  40.25500 47.28800 22.77800
H  36.87600 43.55700 25.30100
H  37.68100 43.39800 26.72300
H  38.61400 44.05000 25.39300
H  37.06100 46.97100 30.53800
H  33.84000 45.97100 33.51600
H  34.12500 44.39200 32.65400
H  33.01900 45.56200 32.14000
Mg 15.82900 51.06300 25.74300
C  17.80100 50.03600 28.41900
C  13.36900 51.80800 28.00600
C  13.78900 51.84600 23.16400
C  18.21100 49.85900 23.55700
N  15.54800 50.82400 28.00500
C  16.55300 50.54400 28.89800
C  16.18300 50.82000 30.35500
C  14.58000 51.06400 30.18800
C  14.46300 51.21200 28.63400
C  13.66700 49.90200 30.80400
C  16.94100 52.08300 30.94300
C  16.85500 52.39400 32.42500
H  16.07300 51.39200 33.26400
N  13.81800 51.73100 25.61900
C  13.02400 52.03400 26.66000
C  11.83600 52.62800 26.19300
C  11.95700 52.72500 24.75000
C  13.19300 52.07400 24.41100
C  10.77000 53.15300 27.16500
C  11.07900 53.39100 23.78600
O  11.31900 53.44300 22.56500
C  9.85000 54.08100 24.21400
N  15.93100 50.67100 23.68500
C  14.96700 51.19900 22.82700
C  15.48400 50.93200 21.30700
C  16.90300 50.37900 21.41000
C  17.03400 50.31100 22.97700
C  14.47300 50.08800 20.53400
C  17.99100 51.25600 20.81900
C  18.97600 50.48900 19.95900
N  17.67700 50.17200 25.89600
C  18.47800 49.70300 24.91400
C  19.64000 49.16400 25.58200
C  19.47400 49.30500 26.94900
C  18.19100 49.82400 27.09600
C  20.85400 48.49600 24.84700
C  20.06800 48.96300 28.21900
O  21.09900 48.46300 28.49100
C  19.02000 49.59000 29.23800
C  18.62600 48.51100 30.12400
O  17.84100 47.59500 29.92400
O  19.35100 48.65200 31.33800
C  18.98900 47.61800 32.37400
H  12.72600 52.18900 28.80200
H  13.23400 52.13600 22.26900
H  18.98800 49.50200 22.87800
H  16.35700 49.88600 30.88900
H  14.37400 52.02300 30.66300
H  13.07300 50.52800 31.47000
H  14.30800 49.28700 31.43500
H  13.09300 49.26400 30.13200
H  16.69400 52.94300 30.32000
H  17.96800 51.83200 30.67700
H  16.44600 53.39100 32.58800
H  17.87400 52.33400 32.80800
H  10.25500 52.27800 27.56200
H  10.05900 53.87400 26.76200
H  11.24800 53.59200 28.04100
H  9.40200 54.67600 23.41900
H  10.05600 54.79900 25.00800
H  9.12100 53.30700 24.45600
H  15.42100 51.96000 20.95000
H  16.97800 49.34600 21.07000
H  15.07100 49.35600 19.99100
H  13.98600 50.81900 19.88800
H  13.79500 49.53500 21.18400
H  18.55800 51.71100 21.63100
H  17.46600 52.09600 20.36500
H  19.35400 51.19500 19.22000
H  18.70500 49.46800 19.68900
H  19.83900 50.38000 20.61600
H  21.72600 48.76900 25.44100
H  20.91600 48.86600 23.82400
H  20.57100 47.44400 24.83100
H  19.54100 50.35100 29.82100
H  19.35300 47.83400 33.37800
H  19.30900 46.64800 31.99300
H  17.90200 47.69500 32.40400

