158

Mg 54.14200 24.48300 44.85300
C  51.63900 26.78300 44.03100
C  51.91400 21.90800 44.07200
C  56.72000 22.44400 44.61100
C  56.26100 27.17000 45.41100
N  52.09600 24.44200 43.98200
C  51.23000 25.50300 43.87900
C  49.83000 25.04700 43.50300
C  49.89800 23.53900 44.01400
C  51.38600 23.24700 44.08800
C  49.15000 23.28800 45.34300
C  49.59200 25.15700 41.92400
C  48.09700 25.46800 41.60400
H  47.69300 25.40800 40.10800
N  54.27900 22.43400 44.38700
C  53.24000 21.51400 44.14500
C  53.83600 20.21100 43.89400
C  55.24800 20.35800 43.94500
C  55.48800 21.81000 44.28400
C  53.10800 18.93600 43.75400
C  56.26000 19.18000 43.69200
O  55.88800 18.04600 43.36200
C  57.69500 19.34000 43.90000
N  56.14800 24.76600 44.91000
C  57.02400 23.73900 44.97600
C  58.44500 24.16600 45.21800
C  58.31200 25.70200 45.47400
C  56.83900 25.88600 45.33300
C  59.27700 23.41000 46.33500
C  59.22700 26.59400 44.60000
C  60.05700 27.66100 45.31300
N  53.99100 26.62300 44.96500
C  54.90700 27.58100 45.35800
C  54.22600 28.84700 45.47100
C  52.94100 28.61700 44.86100
C  52.88600 27.20100 44.57100
C  54.68400 30.22200 45.91600
C  51.68300 29.25200 44.39400
O  51.38400 30.45800 44.43400
C  50.78800 28.12300 43.79800
C  50.50300 28.42600 42.35200
O  51.24600 28.11300 41.40700
O  49.23400 28.95600 42.21600
C  48.57200 29.02000 40.86700
H  51.27300 21.02500 44.02800
H  57.57600 21.78800 44.78300
H  56.86000 28.03700 45.69700
H  49.14100 25.55300 44.18100
H  49.39700 22.91900 43.27100
H  48.75900 22.27100 45.35900
H  48.29700 23.94000 45.53400
H  49.87200 23.41300 46.15000
H  49.84500 24.19100 41.48500
H  50.23800 25.90100 41.45800
H  48.03000 26.52100 41.87600
H  47.36300 24.92400 42.19900
H  53.48900 18.08400 43.19200
H  52.21400 19.18500 43.18200
H  52.57900 18.64500 44.66100
H  58.22300 18.48700 43.47300
H  57.87900 19.42600 44.97100
H  58.03100 20.19100 43.30800
H  59.04800 23.92700 44.34300
H  58.54700 25.97500 46.50300
H  58.71400 22.52200 46.62300
H  59.43100 24.09000 47.17200
H  60.22500 22.98900 45.99800
H  58.64500 27.23800 43.94100
H  59.90400 25.96600 44.02100
H  60.53300 28.18600 44.48500
H  60.78100 27.19500 45.98100
H  59.35400 28.25200 45.90200
H  55.24600 30.18600 46.84900
H  53.96200 31.02800 46.05100
H  55.39700 30.55800 45.16300
H  49.86200 27.86100 44.31000
H  47.80500 28.24900 40.93700
H  49.20800 28.66700 40.05500
H  48.17200 30.00400 40.62100
Mg 42.69700 41.80000 25.99200
C  41.56000 44.18700 28.19000
C  43.61500 39.74400 28.61400
C  43.53100 39.47800 23.75600
C  42.13000 44.11300 23.26600
N  42.66100 41.97800 28.12300
C  42.10600 43.05300 28.78800
C  42.04100 42.70600 30.24100
C  42.93200 41.41100 30.46700
C  43.13700 40.99000 28.97500
C  44.07600 41.37600 31.45500
C  40.59900 42.54800 30.79300
C  40.42900 43.29800 32.16700
H  39.81200 42.61800 33.32900
N  43.45300 39.86000 26.16900
C  43.74400 39.17200 27.34900
C  44.16400 37.79300 27.04500
C  44.16300 37.69100 25.58900
C  43.72300 39.03900 25.10000
C  44.51700 36.81800 28.12100
C  44.50400 36.56000 24.66900
O  44.63700 36.56500 23.42800
C  44.87100 35.22400 25.23600
N  42.94500 41.84400 23.81700
C  43.25200 40.72000 23.16700
C  43.12700 40.81600 21.63300
C  42.54800 42.29500 21.52200
C  42.63800 42.82100 22.97000
C  44.42000 40.56300 20.82900
C  41.22300 42.29400 20.87500
C  40.14500 41.32300 21.37900
N  42.13800 43.79700 25.70900
C  42.05200 44.63100 24.55400
C  41.66100 45.98500 25.05000
C  41.32000 45.81100 26.44300
C  41.69300 44.48600 26.79500
C  41.38000 47.21800 24.30100
C  40.88500 46.49300 27.67400
O  40.60700 47.63800 27.82600
C  41.00500 45.41000 28.78600
C  41.93300 45.98000 29.84600
O  43.14100 45.88600 29.86200
O  41.10300 46.59600 30.80500
C  41.76100 46.86800 32.13700
H  43.78200 39.06300 29.45100
H  43.78500 38.70200 23.03000
H  41.87600 44.81000 22.46500
H  42.40800 43.56900 30.79700
H  42.25800 40.68700 30.92300
H  44.29700 42.35700 31.87700
H  44.95400 41.00400 30.92500
H  43.93500 40.65900 32.26400
H  40.27300 41.51300 30.90200
H  39.86500 42.91700 30.07700
H  39.73700 44.11500 31.96400
H  41.38700 43.70600 32.49000
H  43.76400 36.03900 28.23800
H  44.59300 37.29200 29.10000
H  45.37100 36.20300 27.84000
H  44.86100 34.34200 24.59500
H  44.13800 34.97500 26.00300
H  45.86000 35.24600 25.69300
H  42.34600 40.13200 21.30300
H  43.21700 42.73600 20.78300
H  44.40500 41.25400 19.98700
H  44.44900 39.58100 20.35600
H  45.31000 40.57400 21.45800
H  41.48600 42.15800 19.82600
H  40.68100 43.24000 20.88900
H  39.20700 41.87700 21.40100
H  40.46300 41.00900 22.37300
H  40.03700 40.44500 20.74100
H  40.56200 47.05200 23.59900
H  42.23400 47.59200 23.73700
H  40.86500 47.94800 24.92600
H  40.02700 45.07300 29.13000
H  40.97900 47.29700 32.76400
H  42.60000 47.54900 31.99500
H  42.03900 45.91100 32.57800

