158

Mg 36.48900 50.03400 24.67100
C  36.61600 48.21100 27.75900
C  34.55600 52.44900 26.45500
C  35.62300 51.45900 21.77900
C  37.87400 47.27500 23.05600
N  35.64500 50.21400 26.91700
C  35.89100 49.43800 27.97200
C  35.44300 49.92100 29.30500
C  34.56900 51.23200 28.87800
C  34.89900 51.31200 27.30800
C  33.07700 51.46000 29.16100
C  36.59500 50.28600 30.33400
C  36.65100 49.65600 31.70900
H  35.25500 49.45100 32.26900
N  35.37400 51.77500 24.21400
C  34.67200 52.63300 25.07300
C  34.23900 53.75900 24.26400
C  34.52900 53.52900 22.86800
C  35.14500 52.16500 22.87400
C  33.65600 54.90800 24.94800
C  34.25800 54.38300 21.62300
O  34.59400 54.06900 20.46600
C  33.60500 55.81800 21.74800
N  36.76200 49.46000 22.68300
C  36.44100 50.31100 21.67200
C  36.98400 49.66900 20.34200
C  37.93200 48.49200 20.79500
C  37.56800 48.36800 22.26500
C  35.73800 49.32200 19.44300
C  39.47200 48.58600 20.28200
C  40.50800 49.03300 21.38000
N  37.18100 48.12400 25.24100
C  37.70400 47.14200 24.46600
C  38.10000 46.03600 25.23000
C  37.72000 46.38800 26.54900
C  37.13000 47.69200 26.50200
C  38.67700 44.71600 24.78700
C  37.72000 45.85700 27.91200
O  38.09700 44.76200 28.40000
C  37.05300 47.08200 28.78900
C  36.02100 46.65800 29.73900
O  34.83000 46.72300 29.56000
O  36.63400 45.92500 30.74500
C  35.75300 45.31900 31.80000
H  34.13200 53.25900 27.05300
H  35.42200 51.91300 20.80600
H  38.40700 46.43100 22.61400
H  34.70700 49.22800 29.71200
H  35.03200 52.04700 29.43500
H  32.79300 50.54300 29.67600
H  32.50200 51.54200 28.23900
H  32.91300 52.29600 29.84100
H  36.60000 51.35900 30.52600
H  37.56000 50.09800 29.86400
H  37.28800 50.14200 32.44800
H  37.12500 48.67400 31.68200
H  34.09300 55.86500 24.66300
H  33.98800 54.92800 25.98600
H  32.57200 54.84800 24.85700
H  34.26400 56.42700 22.36700
H  32.61600 55.74600 22.19900
H  33.49900 56.28200 20.76700
H  37.62900 50.37100 19.81400
H  37.43100 47.57600 20.48200
H  34.78000 49.38000 19.96100
H  35.80800 48.26700 19.18000
H  35.66600 49.87700 18.50800
H  39.57400 49.38700 19.54900
H  39.80100 47.65600 19.81900
H  41.40000 48.47000 21.10300
H  40.20100 48.86600 22.41200
H  40.73500 50.09100 21.24800
H  38.41200 43.88400 25.44000
H  39.74300 44.86500 24.61600
H  38.31900 44.32700 23.83400
H  37.88700 47.37300 29.42700
H  35.46700 44.33000 31.44200
H  34.87700 45.92400 32.03600
H  36.41300 45.33200 32.66800
Mg -6.40700 24.71200 26.19000
C  -4.85100 25.80000 29.24500
C  -8.50800 22.78500 28.03000
C  -7.45500 23.35500 23.25800
C  -4.16900 26.70700 24.48800
N  -6.74200 24.44100 28.37500
C  -6.00000 24.93700 29.45500
C  -6.66500 24.57900 30.79600
C  -7.74900 23.51200 30.41200
C  -7.76300 23.66700 28.85500
C  -7.48800 22.08600 30.99000
C  -7.06200 25.84300 31.65800
C  -6.53000 26.01300 33.04700
H  -5.87000 24.85500 33.85100
N  -7.82100 23.22600 25.73400
C  -8.58300 22.55700 26.63900
C  -9.44800 21.66100 25.90500
C  -9.18700 21.83900 24.48800
C  -8.09300 22.79500 24.45000
C  -10.45500 20.80000 26.59100
C  -9.94000 21.29000 23.28700
O  -9.51700 21.37600 22.13400
C  -11.13400 20.37500 23.56600
N  -5.82600 24.90400 24.23200
C  -6.38800 24.25300 23.17200
C  -5.78200 24.65800 21.81800
C  -4.71100 25.71700 22.26900
C  -4.86800 25.82300 23.74500
C  -5.17000 23.43400 21.01700
C  -4.81300 27.00200 21.51900
C  -4.11900 27.00900 20.12900
N  -4.86400 25.94400 26.70800
C  -4.06100 26.76000 25.85300
C  -3.10800 27.51600 26.66100
C  -3.42500 27.17000 27.94700
C  -4.45000 26.23700 27.95800
C  -2.06000 28.38700 26.10200
C  -3.02000 27.41700 29.31900
O  -2.15200 28.09200 29.74700
C  -3.92000 26.48800 30.20700
C  -3.06500 25.55900 30.93500
O  -2.67100 24.45000 30.52000
O  -2.65900 26.10500 32.12400
C  -1.58800 25.49100 32.83300
H  -9.04300 22.05900 28.64500
H  -7.88400 22.95900 22.33500
H  -3.40200 27.29800 23.98300
H  -5.93800 24.12400 31.46900
H  -8.75500 23.79400 30.72500
H  -7.31300 21.26900 30.29100
H  -8.30800 21.79400 31.64700
H  -6.58000 22.15300 31.58800
H  -8.15100 25.84700 31.71200
H  -6.76700 26.73000 31.09800
H  -7.32600 26.44200 33.65500
H  -5.73500 26.74400 32.90000
H  -11.44500 21.23900 26.46900
H  -10.30500 20.77400 27.67000
H  -10.49700 19.75900 26.27200
H  -11.45400 19.97100 22.60500
H  -11.92400 21.01500 23.96000
H  -11.01900 19.50300 24.21000
H  -6.60600 25.12600 21.28000
H  -3.69900 25.31300 22.23000
H  -5.19900 22.47600 21.53700
H  -4.09000 23.53300 20.91000
H  -5.58700 23.36000 20.01300
H  -4.51300 27.85100 22.13300
H  -5.88300 27.17300 21.39800
H  -3.54700 27.92900 20.00700
H  -4.89600 26.85400 19.38000
H  -3.45200 26.15700 20.00100
H  -1.57100 29.01300 26.84700
H  -2.35100 29.08000 25.31200
H  -1.24900 27.80100 25.67000
H  -4.44200 27.21100 30.83400
H  -1.33100 24.49500 32.47100
H  -1.95700 25.40200 33.85500
H  -0.59300 25.93500 32.84400

