158

Mg 1.74500 -1.77100 44.51400
C  5.13800 -1.19800 43.69000
C  0.91300 0.61700 42.30800
C  -1.42300 -2.88600 44.75000
C  2.91300 -4.50800 46.35200
N  2.90800 -0.53300 42.94000
C  4.28100 -0.46600 42.88300
C  4.60200 0.65900 41.88300
C  3.28900 1.41200 41.68100
C  2.29500 0.46200 42.29900
C  3.11000 2.82500 42.28500
C  5.38200 0.20700 40.63600
C  6.48300 1.11800 40.16200
H  7.04400 0.90900 38.72000
N  -0.00700 -1.22500 43.62800
C  -0.18600 -0.10300 42.82700
C  -1.59000 0.13200 42.64300
C  -2.24500 -0.90800 43.29600
C  -1.19000 -1.73800 43.91200
C  -2.21100 1.25800 41.88100
C  -3.69200 -0.96300 43.40800
O  -4.43500 -0.13100 42.86800
C  -4.47500 -1.96200 44.24900
N  0.91900 -3.49900 45.29300
C  -0.46800 -3.71300 45.30400
C  -0.77500 -4.83400 46.33400
C  0.61400 -5.49800 46.53200
C  1.58600 -4.42900 46.03000
C  -1.53300 -4.37700 47.63200
C  0.88700 -6.88000 45.84300
C  1.35500 -8.01100 46.71800
N  3.62000 -2.54000 45.16200
C  3.93900 -3.57500 45.96400
C  5.42000 -3.79200 46.06900
C  5.92800 -2.86200 45.24700
C  4.79000 -2.11500 44.64800
C  6.11500 -4.87000 46.72600
C  7.17200 -2.31000 44.67400
O  8.31600 -2.61100 44.89100
C  6.67600 -1.11600 43.73900
C  7.15100 0.16900 44.41000
O  6.61200 0.78500 45.28800
O  8.35100 0.52500 43.85400
C  8.96800 1.78400 44.31900
H  0.58600 1.50500 41.76300
H  -2.45200 -3.17000 44.98400
H  3.12200 -5.39700 46.95100
H  5.20000 1.44500 42.34500
H  3.08500 1.56400 40.62100
H  3.65700 3.68700 41.90500
H  3.35800 2.68100 43.33700
H  2.07700 3.07800 42.04700
H  4.68700 0.25700 39.79800
H  5.77800 -0.80400 40.72700
H  7.28900 1.01400 40.88800
H  6.11100 2.12800 40.33800
H  -2.76600 1.96600 42.49500
H  -2.92600 0.76600 41.22200
H  -1.41900 1.77800 41.34100
H  -5.51300 -1.89800 43.92200
H  -4.37300 -1.96300 45.33400
H  -4.31600 -2.98900 43.92100
H  -1.47800 -5.50500 45.83900
H  0.90900 -5.63300 47.57300
H  -1.09200 -4.72900 48.56500
H  -2.51100 -4.85400 47.57900
H  -1.59400 -3.31900 47.38000
H  1.58400 -6.81100 45.00800
H  -0.03700 -7.24400 45.39600
H  1.30500 -7.84500 47.79400
H  2.42600 -8.01500 46.51900
H  0.84000 -8.93200 46.44300
H  6.21600 -4.71500 47.80000
H  7.09100 -5.03200 46.26800
H  5.56300 -5.77900 46.48500
H  7.17500 -1.12700 42.76900
H  8.34000 2.58500 43.92900
H  9.88400 1.96100 43.75500
H  9.10700 1.98500 45.38200
Mg 41.56600 7.87900 30.02100
C  43.18700 9.52700 32.57400
C  39.25600 6.75500 32.22200
C  40.25300 6.33300 27.44200
C  44.45800 8.61000 28.01400
N  41.40000 8.05100 32.17000
C  42.12300 8.81400 33.02000
C  41.49600 8.78000 34.43700
C  40.27100 7.85400 34.26100
C  40.31600 7.48100 32.82900
C  40.34200 6.66400 35.18600
C  41.30000 10.09900 35.08300
C  40.28000 10.11900 36.27200
H  40.64200 11.15600 37.33700
N  39.89600 6.74700 29.85800
C  39.07800 6.33700 30.85800
C  37.99600 5.56500 30.28100
C  38.23600 5.54000 28.88800
C  39.52000 6.20900 28.64300
C  37.00000 4.75200 31.07600
C  37.35900 4.89400 27.78700
O  37.56100 4.94900 26.57900
C  36.12000 4.16900 28.17300
N  42.33100 7.39700 27.95000
C  41.49100 6.87300 27.10200
C  42.05700 6.83600 25.69500
C  43.44900 7.67600 25.83700
C  43.45200 7.90900 27.34300
C  42.15700 5.40200 25.05500
C  43.62800 8.96700 24.97800
C  42.72900 10.18000 25.43700
N  43.38600 8.90300 30.16100
C  44.48800 9.08500 29.32000
C  45.52300 9.93700 29.97100
C  44.91000 10.21500 31.18400
C  43.75200 9.49900 31.29100
C  46.75400 10.52400 29.31100
C  45.14300 10.92000 32.42500
O  46.16900 11.59100 32.70600
C  43.95800 10.48400 33.44400
C  44.64200 9.71400 34.52600
O  45.02300 8.51300 34.46100
O  44.74800 10.60200 35.56300
C  45.28600 9.95500 36.79300
H  38.37700 6.57400 32.84500
H  39.67300 5.91400 26.61700
H  45.26800 8.99500 27.39200
H  42.14800 8.22900 35.11600
H  39.40000 8.49100 34.40900
H  40.27100 5.77300 34.56300
H  39.46000 6.65400 35.82600
H  41.17600 6.52200 35.87400
H  41.10300 10.82600 34.29600
H  42.25700 10.46000 35.46100
H  40.16900 9.16100 36.78000
H  39.24500 10.31700 35.99200
H  36.00000 5.12800 30.85800
H  37.09900 5.09800 32.10500
H  36.95900 3.66900 30.95800
H  35.29400 4.08200 27.46700
H  35.61100 4.76300 28.93300
H  36.51100 3.19900 28.47800
H  41.38500 7.42300 25.06900
H  44.29700 7.00900 25.68900
H  41.50200 4.69900 25.57000
H  43.16700 4.99800 24.97800
H  41.73800 5.51600 24.05500
H  43.27900 8.65900 23.99300
H  44.62200 9.33300 24.72100
H  41.89600 10.17100 26.14000
H  42.36300 10.82300 24.63700
H  43.47600 10.82300 25.90500
H  47.48100 10.68700 30.10600
H  46.61000 11.43300 28.72700
H  47.18200 9.71200 28.72400
H  43.45300 11.36500 33.84100
H  46.32700 9.70600 36.58800
H  44.80700 9.00000 37.00700
H  45.30100 10.53900 37.71300

