158

Mg 30.52100 59.17900 39.53000
C  27.67800 57.32400 38.67500
C  32.49900 56.48900 38.80300
C  33.13600 61.23800 39.08800
C  28.50700 61.96200 39.90500
N  30.08700 57.21900 38.59800
C  28.90500 56.61500 38.40200
C  29.07000 55.23300 37.82600
C  30.53900 54.92900 38.35100
C  31.11100 56.31900 38.64300
C  30.52800 54.08800 39.59700
C  28.94600 55.28000 36.27500
C  28.07100 54.10300 35.74000
H  27.07400 54.45300 34.59900
N  32.56700 58.87200 39.08000
C  33.19300 57.69400 38.90200
C  34.59700 57.88900 38.76400
C  34.78900 59.30300 38.76900
C  33.43500 59.86000 38.87400
C  35.55000 56.73200 38.80600
C  36.14000 59.98900 38.60500
O  37.21800 59.39600 38.67600
C  36.24100 61.45200 38.41000
N  30.78500 61.31600 39.39000
C  31.94500 61.86500 39.31500
C  31.87600 63.40400 39.48700
C  30.44100 63.60800 39.85900
C  29.84400 62.20400 39.78700
C  32.96900 63.91900 40.55100
C  29.51100 64.47700 39.03700
C  29.86700 65.96000 38.75100
N  28.49600 59.58800 39.62600
C  27.84900 60.75500 39.68200
C  26.48400 60.54400 39.47000
C  26.32000 59.15400 39.13900
C  27.63200 58.65200 39.15800
C  25.47200 61.60100 39.43400
C  25.33700 58.09200 38.82900
O  24.08400 58.09000 38.62300
C  26.26200 56.81800 38.49500
C  25.85800 55.87400 39.63100
O  26.21300 55.87700 40.77800
O  24.94200 55.00300 39.17500
C  24.73200 53.92000 40.15800
H  33.02900 55.53800 38.71900
H  33.88200 62.01100 38.89400
H  27.82500 62.79700 40.07900
H  28.29700 54.56700 38.20900
H  31.12700 54.36800 37.62500
H  31.23500 54.44200 40.34800
H  30.62000 53.06200 39.24200
H  29.51700 54.14600 40.00000
H  29.92900 55.01400 35.88600
H  28.66000 56.25600 35.88200
H  27.40400 53.66400 36.48200
H  28.77200 53.29900 35.51600
H  36.08200 56.78100 39.75600
H  36.23100 56.81900 37.95800
H  35.12500 55.73400 38.69700
H  37.25800 61.71200 38.11700
H  35.97300 61.97500 39.32900
H  35.56300 61.80800 37.63400
H  32.06800 63.83700 38.50500
H  30.26100 63.91700 40.88800
H  33.43000 64.83800 40.19100
H  33.64600 63.13900 40.90000
H  32.39800 64.16300 41.44700
H  28.48500 64.63400 39.37000
H  29.52400 63.91100 38.10600
H  30.85800 66.19500 39.13700
H  29.17000 66.73000 39.08200
H  29.89100 66.10200 37.67000
H  25.10400 61.87100 40.42400
H  24.66200 61.32800 38.75800
H  25.99300 62.53300 39.21900
H  26.01700 56.36300 37.53500
H  24.55700 53.08200 39.48300
H  23.79100 54.10500 40.67500
H  25.50600 53.63000 40.87000
Mg -2.43800 35.42800 26.25200
C  -3.69600 33.51500 28.91400
C  -1.18100 37.72700 28.54900
C  -1.22100 37.21600 23.75000
C  -3.86100 33.16300 24.09100
N  -2.47500 35.58700 28.46400
C  -3.01900 34.67700 29.32600
C  -2.83200 35.08600 30.82000
C  -1.92500 36.42100 30.62400
C  -1.85800 36.61400 29.12100
C  -2.31600 37.67200 31.39300
C  -2.28100 34.02500 31.79500
C  -1.25500 34.43300 32.82700
H  -1.21500 33.59700 34.10900
N  -1.28400 37.21400 26.13000
C  -0.83300 37.92900 27.20200
C  -0.02900 39.04300 26.72600
C  -0.01000 38.95000 25.26300
C  -0.79300 37.69400 25.00300
C  0.69700 40.01800 27.68200
C  0.69800 39.80900 24.15000
O  0.58800 39.58000 22.97400
C  1.49600 40.93800 24.61700
N  -2.83300 35.44700 24.23700
C  -2.13000 36.28400 23.44800
C  -2.45000 35.99000 22.02800
C  -3.01700 34.57200 22.05100
C  -3.25000 34.27800 23.53400
C  -3.36200 37.11500 21.55100
C  -2.09800 33.47800 21.32300
C  -0.64700 33.32700 21.81800
N  -3.60600 33.71800 26.41600
C  -4.10300 32.86000 25.42100
C  -4.79100 31.75400 25.99300
C  -4.64700 31.97500 27.37600
C  -3.88700 33.16100 27.58300
C  -5.31400 30.55700 25.25100
C  -4.95900 31.44700 28.62000
O  -5.68000 30.49100 28.89300
C  -4.30900 32.42200 29.66800
C  -5.43800 32.87900 30.59600
O  -6.39700 33.56500 30.25300
O  -5.24400 32.28700 31.84000
C  -6.31800 32.57600 32.82600
H  -0.76600 38.31700 29.36900
H  -0.83600 37.70800 22.85400
H  -4.23600 32.44000 23.36400
H  -3.76000 35.45600 31.25400
H  -0.96200 36.11100 31.03100
H  -3.10200 37.53000 32.13500
H  -2.50100 38.52600 30.74100
H  -1.54700 37.93300 32.11900
H  -1.75400 33.20300 31.31100
H  -3.17000 33.60300 32.26400
H  -1.46900 35.46900 33.08800
H  -0.30800 34.16600 32.35600
H  -0.08200 40.78000 27.67100
H  1.70800 40.28700 27.37500
H  0.81300 39.49500 28.63200
H  0.84900 41.57300 25.22200
H  1.87700 41.54800 23.79800
H  2.38200 40.55300 25.12300
H  -1.54900 36.07600 21.42200
H  -3.99600 34.46400 21.58400
H  -4.42500 36.89100 21.46000
H  -3.07500 37.44100 20.55100
H  -3.22500 38.03300 22.12300
H  -1.93600 33.72400 20.27300
H  -2.54000 32.49100 21.45200
H  -0.39200 34.15400 22.48000
H  0.09300 33.36800 21.01900
H  -0.47600 32.38300 22.33400
H  -5.41200 29.70000 25.91700
H  -4.57500 30.22800 24.52100
H  -6.17900 30.77300 24.62300
H  -3.61600 31.75800 30.18400
H  -5.87500 33.25500 33.55400
H  -6.61100 31.56700 33.11800
H  -7.18700 33.17200 32.54700

