158

Mg 24.71200 -6.29700 46.10700
C  26.75600 -4.02000 44.28900
C  22.05900 -5.42500 44.00700
C  23.01300 -9.10300 47.06600
C  27.53000 -7.39400 47.67600
N  24.45400 -4.76900 44.38500
C  25.35900 -3.84600 43.95000
C  24.70700 -2.97600 42.81000
C  23.19900 -3.38200 42.99900
C  23.18700 -4.65400 43.78200
C  22.27500 -2.31900 43.62600
C  25.24900 -3.09900 41.36200
C  25.98900 -1.89500 40.70300
H  25.73000 -1.76000 39.16600
N  22.80000 -7.13500 45.58300
C  21.85800 -6.57800 44.75700
C  20.61600 -7.33200 44.81400
C  20.86500 -8.38400 45.82500
C  22.24300 -8.29300 46.18100
C  19.40900 -7.22100 43.95200
C  19.91200 -9.38600 46.24400
O  18.74500 -9.41200 45.82200
C  20.20900 -10.37400 47.36800
N  25.19500 -8.08400 47.11500
C  24.34000 -9.02600 47.51400
C  25.10700 -10.11300 48.35100
C  26.53600 -9.63400 48.24000
C  26.42200 -8.25100 47.67500
C  24.57400 -10.12200 49.81900
C  27.49900 -10.62300 47.39700
C  28.73200 -11.17500 48.13000
N  26.71700 -5.60000 46.24200
C  27.68100 -6.18700 47.01000
C  28.95800 -5.62200 46.56500
C  28.60700 -4.79400 45.52900
C  27.25400 -4.77900 45.36400
C  30.33600 -5.93400 47.04800
C  29.18700 -3.96900 44.45200
O  30.32400 -3.60900 44.20200
C  27.96800 -3.24600 43.75000
C  27.92900 -1.81000 44.16200
O  27.76300 -0.94400 43.34900
O  27.98700 -1.68800 45.50800
C  27.43900 -0.42600 46.09200
H  21.18900 -5.03300 43.47600
H  22.54200 -9.96500 47.54300
H  28.50800 -7.65000 48.08900
H  24.86500 -1.93000 43.07000
H  22.70200 -3.79200 42.12100
H  22.78000 -1.39100 43.89600
H  21.94600 -2.82700 44.53300
H  21.47100 -2.30200 42.89100
H  24.40800 -3.35000 40.71700
H  25.89400 -3.97400 41.44200
H  27.06400 -1.99000 40.85900
H  25.81800 -0.99100 41.28800
H  19.61800 -6.81400 42.96200
H  18.70700 -6.55100 44.44800
H  18.87900 -8.14800 43.73300
H  20.89100 -11.14200 47.00500
H  19.18400 -10.72000 47.50400
H  20.65400 -9.85200 48.21600
H  25.07900 -11.08300 47.85500
H  27.02500 -9.61300 49.21300
H  25.19000 -9.57000 50.52900
H  24.36900 -11.09700 50.26100
H  23.61800 -9.60200 49.76800
H  27.78200 -10.11500 46.47500
H  26.95900 -11.45800 46.95300
H  28.34600 -12.16800 48.35900
H  28.82400 -10.60900 49.05700
H  29.65200 -11.11900 47.55000
H  30.79500 -6.78400 46.54200
H  30.28800 -5.95100 48.13700
H  31.11200 -5.18300 46.90200
H  28.07300 -3.37600 42.67300
H  26.93000 -0.63900 47.03200
H  26.70200 0.05700 45.45000
H  28.23200 0.29400 46.29300
Mg 30.61000 58.60300 39.62800
C  28.30700 56.07300 38.73900
C  33.13900 56.35600 38.72400
C  32.84900 61.06800 39.86000
C  27.97300 60.77400 39.58000
N  30.72800 56.44500 38.79400
C  29.62900 55.60800 38.69800
C  30.03800 54.30700 38.11800
C  31.54200 54.25900 38.52600
C  31.85800 55.81100 38.54700
C  31.78900 53.61800 39.93100
C  29.85900 54.09500 36.58300
C  28.80400 53.12000 36.09000
H  27.80100 53.62400 35.09000
N  32.71500 58.69100 39.36500
C  33.58300 57.65900 39.03400
C  34.96500 58.12000 38.98600
C  34.88500 59.54600 39.34300
C  33.45100 59.82700 39.58900
C  36.21800 57.31300 38.74200
C  36.07300 60.51000 39.46200
O  37.20800 60.18100 39.10000
C  35.83200 61.97700 39.79500
N  30.48800 60.69800 39.33400
C  31.47000 61.43300 39.86500
C  30.89800 62.79000 40.37000
C  29.40000 62.80000 39.90200
C  29.27400 61.33700 39.58900
C  31.15200 63.18300 41.90600
C  29.05600 63.78000 38.79400
C  27.86700 64.76800 39.16300
N  28.47600 58.47100 39.45400
C  27.53300 59.41300 39.49500
C  26.21300 58.86700 39.28600
C  26.48100 57.51000 39.00300
C  27.86800 57.32900 39.05500
C  24.89500 59.62500 39.26000
C  25.87100 56.22200 38.60500
O  24.71200 55.89200 38.46800
C  27.03100 55.32600 38.38000
C  26.77100 54.06400 39.22300
O  27.08200 53.98900 40.38200
O  25.99300 53.18300 38.54800
C  25.44200 52.00400 39.33000
H  33.99200 55.68500 38.60600
H  33.53700 61.80200 40.28400
H  27.15900 61.48700 39.72900
H  29.52400 53.56300 38.72600
H  32.15500 53.75500 37.77900
H  32.15200 54.32300 40.67800
H  32.48200 52.77700 39.90600
H  30.95700 53.08700 40.39300
H  30.80200 53.86800 36.08500
H  29.76900 55.13900 36.28300
H  28.23700 52.56300 36.83600
H  29.42400 52.39200 35.56600
H  36.13000 56.30600 39.15000
H  37.02500 57.78400 39.30300
H  36.40800 57.33200 37.66800
H  35.18800 62.38300 39.01500
H  36.76700 62.51600 39.64300
H  35.44700 61.97500 40.81500
H  31.45800 63.47900 39.73700
H  28.79600 62.99600 40.78700
H  32.01400 63.85000 41.92000
H  31.44500 62.34100 42.53100
H  30.24300 63.65300 42.28200
H  28.73300 63.17600 37.94600
H  29.98400 64.25900 38.48200
H  27.04000 64.64800 38.46300
H  28.23400 65.78900 39.05900
H  27.52700 64.72500 40.19700
H  24.92400 60.70100 39.43400
H  24.22200 59.13800 39.96600
H  24.51400 59.49800 38.24700
H  27.06200 54.97100 37.35000
H  26.15600 51.18300 39.28500
H  24.52100 51.66000 38.85900
H  25.24000 52.23500 40.37600

