158

Mg 48.42300 15.62600 28.32300
C  46.54000 15.52300 31.30100
C  50.70600 17.60300 30.07200
C  50.01800 15.98700 25.30600
C  45.79500 14.06800 26.64400
N  48.62000 16.43400 30.42400
C  47.67900 16.24100 31.50500
C  48.29000 16.90000 32.78800
C  49.44600 17.77400 32.25100
C  49.58000 17.30700 30.79300
C  49.26600 19.31100 32.43800
C  48.73100 15.80300 33.85200
C  48.06500 15.75500 35.22000
H  47.85300 17.16500 35.81000
N  50.15700 16.56800 27.79600
C  50.94200 17.33700 28.64400
C  52.03500 17.77100 27.88300
C  51.84600 17.49900 26.49100
C  50.58700 16.67300 26.48900
C  53.11600 18.52300 28.53400
C  52.73000 17.91100 25.25000
O  52.50000 17.58700 24.06800
C  53.90300 18.83100 25.43100
N  47.97200 15.08600 26.24100
C  48.86500 15.24000 25.26900
C  48.44700 14.56800 23.93200
C  46.99100 13.99500 24.29200
C  46.89200 14.37800 25.78600
C  48.32800 15.51000 22.65500
C  46.80600 12.49700 24.19800
C  47.54300 11.61300 25.22000
N  46.60300 14.92700 28.79800
C  45.61300 14.31000 28.02800
C  44.44100 13.97600 28.79500
C  44.77000 14.49900 30.06500
C  46.08500 15.06300 30.04200
C  43.25400 13.23000 28.34200
C  44.29500 14.51800 31.41300
O  43.24200 14.05800 31.85800
C  45.36500 15.23000 32.26100
C  44.86600 16.52600 32.80500
O  44.55500 17.51000 32.20100
O  44.66400 16.34900 34.16800
C  43.77300 17.39000 34.73300
H  51.47000 18.17600 30.60300
H  50.48400 16.10000 24.32500
H  44.94100 13.56600 26.18700
H  47.49800 17.56900 33.12700
H  50.32800 17.45200 32.80500
H  48.48300 19.69300 33.09300
H  49.21100 19.84700 31.49000
H  50.19100 19.67900 32.88200
H  49.81000 15.84500 34.00000
H  48.60300 14.83100 33.37400
H  48.67200 15.16600 35.90800
H  47.11500 15.27400 34.98600
H  52.96100 19.59600 28.41300
H  54.04400 18.36000 27.98600
H  53.29900 18.22300 29.56600
H  53.69800 19.82500 25.83000
H  54.44400 18.84300 24.48600
H  54.60300 18.37600 26.13100
H  49.23400 13.85600 23.68500
H  46.10100 14.34300 23.76800
H  47.27100 15.56800 22.39900
H  48.93100 15.11000 21.84000
H  48.56000 16.55200 22.87500
H  47.14700 12.24400 23.19400
H  45.75800 12.23200 24.06100
H  48.03000 10.76000 24.74800
H  46.77600 11.26100 25.91000
H  48.28400 12.15000 25.81300
H  42.36900 13.37500 28.96100
H  43.58400 12.19200 28.30900
H  43.09100 13.57700 27.32200
H  45.77300 14.58200 33.03700
H  44.43200 18.25400 34.82000
H  43.53000 16.95500 35.70200
H  42.86700 17.49400 34.13600
Mg 47.85300 24.47900 27.90000
C  48.62600 26.80300 30.40100
C  47.30700 22.22200 30.45500
C  47.27000 22.27200 25.57600
C  48.81400 26.83400 25.54700
N  48.12200 24.50900 30.19200
C  48.26600 25.61900 30.96500
C  48.05000 25.29600 32.46900
C  47.57500 23.77200 32.44400
C  47.77600 23.41400 30.99500
C  48.33700 22.87300 33.47100
C  47.01100 26.29200 33.12300
C  46.41700 25.91400 34.45600
H  46.53100 27.09300 35.41900
N  47.25400 22.59000 28.04400
C  47.09900 21.78600 29.14000
C  46.80900 20.40000 28.68300
C  46.61700 20.42500 27.27000
C  47.05900 21.82500 26.90200
C  46.59500 19.27200 29.66000
C  46.06600 19.30400 26.27000
O  45.91800 19.53400 25.12400
C  45.79900 17.98700 26.81400
N  48.04500 24.60400 25.76800
C  47.63300 23.49400 25.04100
C  47.82400 23.81300 23.46200
C  48.04300 25.34000 23.55000
C  48.31800 25.65800 25.00800
C  48.84000 22.88000 22.80300
C  47.01100 26.27200 22.81300
C  45.61000 26.47900 23.35300
N  48.68100 26.46500 27.92300
C  48.93700 27.29300 26.85900
C  49.46100 28.55300 27.43900
C  49.39400 28.39900 28.84100
C  48.82700 27.10600 29.09800
C  49.87100 29.82400 26.73100
C  49.69900 29.00100 30.08200
O  50.28200 29.98200 30.33100
C  49.11000 28.06100 31.18600
C  50.15400 27.73800 32.19700
O  51.04400 26.89100 32.04400
O  49.99800 28.53300 33.34900
C  50.66000 28.08200 34.59300
H  47.11300 21.61900 31.34400
H  47.17700 21.51200 24.79700
H  49.22800 27.51700 24.80300
H  48.99300 25.42900 32.99900
H  46.52400 23.67900 32.71400
H  49.30500 22.52100 33.11400
H  47.65600 22.06500 33.73800
H  48.50100 23.47300 34.36600
H  46.20800 26.43400 32.40000
H  47.54300 27.23100 33.27600
H  46.75300 24.94300 34.81900
H  45.35200 25.90500 34.22100
H  47.00900 19.61300 30.60900
H  46.95500 18.35900 29.18600
H  45.54600 19.18000 29.94200
H  46.55400 17.61300 27.50400
H  45.70900 17.42100 25.88700
H  44.77200 17.95800 27.18000
H  46.94600 23.80800 22.81600
H  48.92400 25.58000 22.95500
H  48.90700 21.95000 23.36800
H  49.70600 23.54200 22.77900
H  48.59600 22.57800 21.78500
H  46.81800 25.89200 21.81000
H  47.53800 27.22600 22.79500
H  45.71100 26.57800 24.43400
H  44.89300 25.71300 23.05800
H  45.34400 27.48200 23.01900
H  48.93200 30.37400 26.67600
H  50.16700 29.64100 25.69800
H  50.64000 30.41500 27.22900
H  48.33900 28.65400 31.67900
H  50.31700 27.06500 34.78500
H  50.37200 28.71200 35.43500
H  51.74600 28.11900 34.51500

