158

Mg 2.07900 -1.85400 44.06900
C  5.52300 -1.04500 43.72800
C  1.37100 1.11100 42.34000
C  -1.18700 -2.97900 43.56500
C  2.88800 -4.99800 45.24600
N  3.31600 -0.29500 42.95000
C  4.70100 -0.10000 42.99700
C  5.16100 1.16200 42.29500
C  3.78700 1.91900 42.21300
C  2.71600 0.84700 42.49300
C  3.61500 3.10900 43.16900
C  5.78900 0.79800 40.88800
C  7.12400 1.50000 40.60000
H  7.18300 2.48700 39.41600
N  0.33200 -1.04200 43.11700
C  0.22200 0.24500 42.57000
C  -1.18200 0.47000 42.21400
C  -1.90400 -0.65300 42.71100
C  -0.91300 -1.62900 43.09200
C  -1.56600 1.71600 41.54300
C  -3.35400 -0.69700 42.75200
O  -4.06600 0.14000 42.26500
C  -4.10600 -1.75300 43.58800
N  0.96800 -3.81400 44.32100
C  -0.35700 -3.90300 44.15100
C  -0.81100 -5.27100 44.66900
C  0.48400 -5.96500 45.14700
C  1.55300 -4.86800 44.88900
C  -1.95900 -5.20000 45.70500
C  0.79200 -7.33100 44.52200
C  1.20600 -8.55100 45.38100
N  3.77700 -2.84900 44.54100
C  3.93000 -4.05200 45.11700
C  5.34300 -4.19100 45.40600
C  5.99200 -3.06700 44.89200
C  5.00700 -2.23200 44.38500
C  5.95300 -5.40300 46.05300
C  7.31600 -2.39400 44.64700
O  8.41300 -2.74400 44.96000
C  7.02700 -0.98700 44.00700
C  7.35500 0.00700 45.08300
O  7.02900 -0.06700 46.28600
O  7.89400 1.13000 44.52800
C  8.03000 2.26800 45.42100
H  1.14600 1.96600 41.69900
H  -2.19100 -3.39700 43.46500
H  3.05900 -5.91600 45.81200
H  5.77100 1.63700 43.06300
H  3.52100 2.30900 41.23000
H  2.65400 3.07100 43.68200
H  3.70100 3.98400 42.52500
H  4.37900 3.00600 43.93900
H  5.00500 1.12700 40.20700
H  5.84100 -0.28300 40.75400
H  7.73200 0.61800 40.40000
H  7.59000 1.94400 41.48000
H  -2.48600 1.50400 40.99800
H  -0.99500 2.02800 40.66900
H  -1.81600 2.57700 42.16400
H  -5.00000 -1.21800 43.90700
H  -3.55300 -1.87700 44.51900
H  -4.35600 -2.61000 42.96200
H  -1.24000 -5.85400 43.85400
H  0.50200 -6.06900 46.23200
H  -2.02300 -4.14400 45.97000
H  -1.81700 -5.87100 46.55100
H  -2.88700 -5.42000 45.17600
H  1.53800 -7.19300 43.73800
H  -0.11700 -7.59700 43.98300
H  0.55100 -9.39800 45.17700
H  1.17500 -8.31000 46.44400
H  2.20000 -8.93100 45.14600
H  5.61900 -6.26400 45.47400
H  5.60200 -5.44200 47.08400
H  7.02300 -5.19200 46.05900
H  7.62700 -0.80200 43.11600
H  7.40100 2.31900 46.31000
H  7.70300 3.11400 44.81600
H  9.06800 2.40200 45.72600
Mg 0.47200 43.60800 26.68900
C  2.66200 43.67900 29.43800
C  -2.03900 42.56300 28.93700
C  -1.58700 42.89400 24.05200
C  3.06300 44.53300 24.58400
N  0.34900 43.13700 28.88200
C  1.36300 43.34300 29.81300
C  0.86200 43.07500 31.25500
C  -0.66100 42.67100 31.10500
C  -0.77800 42.79900 29.53400
C  -1.03700 41.23400 31.67200
C  1.19000 44.28900 32.16200
C  0.31400 44.60600 33.39800
H  -0.01900 43.52100 34.42700
N  -1.60800 42.96800 26.59200
C  -2.42100 42.64700 27.57100
C  -3.75100 42.47000 26.99600
C  -3.66700 42.56500 25.60700
C  -2.22400 42.78100 25.29900
C  -4.95400 42.13400 27.88700
C  -4.66500 42.33100 24.51600
O  -4.41600 42.39300 23.29000
C  -6.11000 41.93100 24.92200
N  0.71700 43.53800 24.71300
C  -0.24000 43.18000 23.76600
C  0.30500 43.38200 22.31500
C  1.49500 44.34400 22.56000
C  1.81200 44.11300 24.06900
C  0.63600 42.04800 21.54500
C  1.15800 45.87500 22.45400
C  1.86300 46.50700 21.27600
N  2.43600 43.99000 26.90100
C  3.33900 44.40400 25.95700
C  4.65600 44.45400 26.52600
C  4.43100 44.17600 27.85200
C  3.04300 43.92400 28.08500
C  5.95800 44.85900 25.89200
C  5.07700 43.99700 29.15700
O  6.25200 44.00400 29.43100
C  3.91300 43.77000 30.22900
C  4.28100 42.56600 30.96600
O  4.12300 41.42000 30.51200
O  4.68000 42.97400 32.22700
C  4.90100 41.84700 33.15400
H  -2.83900 42.29000 29.62700
H  -2.12400 42.66300 23.12900
H  3.91000 44.74000 23.92700
H  1.55400 42.28000 31.53100
H  -1.30500 43.43400 31.54200
H  -1.31400 40.55700 30.86400
H  -1.99600 41.18100 32.18800
H  -0.18500 40.76900 32.16700
H  1.20900 45.14500 31.48700
H  2.18900 44.12000 32.56400
H  -0.63100 45.10700 33.18900
H  0.93400 45.22100 34.04900
H  -5.83400 42.53000 27.38100
H  -5.04000 42.73800 28.79100
H  -5.00000 41.09300 28.20600
H  -6.76600 41.92800 24.05100
H  -6.57900 42.74400 25.47800
H  -6.02300 40.96400 25.41600
H  -0.50300 43.95100 21.85600
H  2.35700 44.07800 21.94800
H  -0.27300 41.82000 20.98800
H  0.91300 41.27600 22.26300
H  1.38900 42.17600 20.76700
H  1.35500 46.48700 23.33500
H  0.10800 46.13100 22.31500
H  1.19200 46.87600 20.50100
H  2.55500 45.84900 20.75000
H  2.42700 47.35300 21.67000
H  6.37000 45.51100 26.66100
H  6.01800 45.19800 24.85800
H  6.69800 44.06600 25.78000
H  3.89000 44.68600 30.82000
H  4.22400 41.89500 34.00700
H  5.89000 42.06100 33.55800
H  4.84000 40.79400 32.88000

