158

Mg -1.22200 17.16900 26.58900
C  -1.71100 14.98500 29.21700
C  -2.52700 19.79600 28.44900
C  -1.50900 19.03400 23.85400
C  -1.39400 14.33300 24.54900
N  -1.86500 17.34700 28.56800
C  -1.84900 16.40200 29.55700
C  -2.15400 16.96000 30.95200
C  -2.72000 18.33800 30.59300
C  -2.38300 18.47700 29.10500
C  -4.14400 18.60700 31.09900
C  -0.92500 17.02000 31.89600
C  -1.07000 17.52400 33.33800
H  -0.36200 16.78700 34.49000
N  -1.54000 19.20200 26.24800
C  -2.17200 20.10000 27.13100
C  -2.26000 21.41900 26.52600
C  -1.84400 21.21900 25.17700
C  -1.63800 19.73600 25.05100
C  -2.70300 22.77600 27.25200
C  -1.72000 22.26700 24.18000
O  -1.36300 21.95300 23.06900
C  -1.83500 23.76100 24.42200
N  -1.30600 16.69800 24.49400
C  -1.46200 17.68700 23.53900
C  -1.48100 17.18300 22.09100
C  -1.23300 15.60000 22.34500
C  -1.38800 15.53400 23.88300
C  -2.82100 17.55500 21.34100
C  0.11600 15.09400 21.75900
C  1.48500 15.52100 22.46400
N  -1.53500 15.09100 26.82600
C  -1.57700 14.03900 25.88400
C  -1.58600 12.81500 26.48800
C  -1.71800 13.12000 27.87000
C  -1.65100 14.52300 27.96200
C  -1.70000 11.54500 25.92200
C  -1.75000 12.55900 29.23700
O  -1.74100 11.39300 29.62600
C  -1.80300 13.76100 30.14100
C  -0.65100 13.69300 31.09600
O  0.55700 13.85200 30.85300
O  -1.10400 13.11800 32.28400
C  -0.04600 12.69600 33.11200
H  -2.82300 20.51000 29.22000
H  -1.70700 19.67300 22.99100
H  -1.37600 13.45300 23.90400
H  -2.89500 16.32000 31.43100
H  -2.15900 19.01900 31.23300
H  -4.56100 17.68400 31.50100
H  -4.68300 18.82200 30.17700
H  -4.13100 19.34000 31.90500
H  -0.24300 17.66600 31.34200
H  -0.47800 16.02600 31.92300
H  -2.12100 17.66100 33.59300
H  -0.60500 18.51000 33.32400
H  -3.39200 23.29600 26.58600
H  -1.85100 23.42000 27.47100
H  -3.12600 22.55900 28.23300
H  -1.38700 24.08800 25.36100
H  -2.88000 24.04000 24.28300
H  -1.19700 24.27100 23.70100
H  -0.61700 17.66800 21.63700
H  -2.08400 15.04700 21.94700
H  -3.44500 18.08200 22.06300
H  -3.31300 16.68100 20.91500
H  -2.56000 18.29500 20.58500
H  0.12100 15.60000 20.79300
H  0.10300 14.02300 21.55700
H  1.86500 16.28200 21.78300
H  2.05200 14.62200 22.70900
H  1.18600 16.05500 23.36600
H  -1.29900 11.58000 24.90900
H  -2.75700 11.31000 25.79700
H  -1.24700 10.73600 26.49400
H  -2.68400 13.73100 30.78300
H  0.71100 13.41000 33.43500
H  0.47400 11.79100 32.79700
H  -0.41300 12.49000 34.11800
Mg 46.59400 44.93300 43.74500
C  43.33000 43.79600 43.46300
C  47.70000 41.76200 43.13000
C  49.65700 46.14100 43.26600
C  45.31000 48.20200 43.84300
N  45.59000 43.01700 43.27000
C  44.26600 42.78400 43.17200
C  43.96300 41.26000 42.89100
C  45.37500 40.60300 42.89300
C  46.30200 41.85100 43.10200
C  45.56600 39.45600 43.87500
C  43.06100 40.95900 41.62900
C  43.23800 41.93200 40.44200
H  42.70200 41.60000 38.99600
N  48.40700 44.02000 43.57200
C  48.73100 42.72400 43.37600
C  50.19800 42.55000 43.31900
C  50.78800 43.81400 43.35000
C  49.61100 44.73300 43.44300
C  50.89700 41.25500 43.20700
C  52.23200 44.16500 43.39500
O  53.03700 43.27700 43.24600
C  52.82300 45.53100 43.50500
N  47.39700 46.86200 43.61400
C  48.74700 47.15500 43.47100
C  48.98600 48.69400 43.17500
C  47.61200 49.33200 43.51900
C  46.73700 48.08300 43.69800
C  50.20900 49.41900 43.87800
C  47.11700 50.34000 42.49000
C  47.09500 51.76700 43.05400
N  44.72000 45.86700 43.88200
C  44.34500 47.18100 43.94500
C  42.96300 47.27400 44.13300
C  42.48500 45.96900 43.93300
C  43.63800 45.11900 43.71600
C  42.19400 48.54000 44.36600
C  41.31800 45.12500 43.92300
O  40.13900 45.28900 44.22700
C  41.85100 43.67900 43.53400
C  41.33800 42.60600 44.43400
O  40.66600 41.69100 44.04100
O  41.66600 42.85400 45.72900
C  41.27200 41.83700 46.76400
H  48.14600 40.83100 42.77100
H  50.53200 46.67600 42.89300
H  45.08200 49.25600 44.01700
H  43.37500 40.85600 43.71500
H  45.48200 40.22600 41.87600
H  45.88800 38.67600 43.18400
H  44.60900 39.12000 44.27500
H  46.22900 39.70900 44.70200
H  42.01600 40.91100 41.93400
H  43.36500 40.04900 41.11300
H  44.30800 42.01300 40.25400
H  43.08600 42.96400 40.76000
H  50.18700 40.51900 43.58300
H  51.81300 41.12100 43.78200
H  51.14800 41.06700 42.16300
H  52.21000 46.15800 44.15200
H  52.81400 46.12600 42.59200
H  53.80200 45.52900 43.98400
H  49.03000 48.71600 42.08600
H  47.67700 49.81900 44.49200
H  50.82600 48.72400 44.44700
H  49.87200 50.09400 44.66500
H  50.88000 49.84600 43.13300
H  46.22600 49.98900 41.96900
H  47.89500 50.44900 41.73500
H  47.01400 51.73500 44.14100
H  46.20700 52.26300 42.66100
H  47.99900 52.29600 42.75000
H  41.34900 48.22100 44.97700
H  41.86500 49.03000 43.45000
H  42.68800 49.23800 45.04100
H  41.35600 43.44800 42.59100
H  41.56400 40.82100 46.50000
H  40.18300 41.84900 46.78400
H  41.56700 42.18900 47.75300

