158

Mg -2.43900 17.61100 26.78700
C  -3.09100 15.29700 29.56700
C  -2.87300 20.07200 28.98900
C  -2.48700 19.52200 24.15400
C  -2.56000 14.73900 24.69100
N  -3.00800 17.62700 29.03500
C  -3.02300 16.60900 29.96500
C  -3.00600 17.15000 31.38700
C  -3.11500 18.74300 31.11700
C  -3.02900 18.79500 29.62100
C  -4.23900 19.59200 31.65200
C  -1.66300 16.72100 32.21200
C  -1.17500 17.63000 33.27100
H  -0.70500 16.99000 34.67400
N  -2.64300 19.56100 26.56600
C  -2.79100 20.39800 27.62000
C  -2.86600 21.76100 27.10800
C  -2.75700 21.62300 25.69400
C  -2.69800 20.20900 25.36500
C  -2.93300 23.07300 27.98400
C  -2.89400 22.71700 24.63200
O  -2.95200 22.36300 23.45200
C  -2.85000 24.18700 25.02400
N  -2.54000 17.16500 24.73400
C  -2.43300 18.17200 23.84000
C  -2.27500 17.63200 22.34700
C  -2.02300 16.09200 22.64100
C  -2.29400 16.02300 24.10400
C  -3.53200 18.00300 21.45000
C  -0.61200 15.57500 22.16300
C  0.66000 16.14200 22.85200
N  -2.79200 15.44400 26.95300
C  -2.81500 14.45100 26.06700
C  -2.95400 13.19100 26.72700
C  -3.04800 13.44800 28.08500
C  -2.97300 14.87400 28.18100
C  -2.96500 11.82900 26.06000
C  -3.14700 12.85900 29.34500
O  -3.25400 11.66700 29.65100
C  -3.21700 14.01100 30.42500
C  -2.09700 13.68500 31.35700
O  -0.93500 13.86700 31.17200
O  -2.74800 13.05300 32.33500
C  -1.89600 12.70600 33.46800
H  -2.68000 20.79300 29.78700
H  -2.26000 20.03800 23.21800
H  -2.45200 13.88700 24.01700
H  -3.89000 16.83500 31.94200
H  -2.23600 19.26400 31.49700
H  -3.85400 20.39700 32.27800
H  -4.87000 18.96800 32.28500
H  -4.84200 20.03100 30.85800
H  -0.81900 16.52400 31.55100
H  -1.90700 15.79900 32.74100
H  -1.86800 18.44900 33.46300
H  -0.34100 18.16400 32.81500
H  -2.79800 22.75000 29.01600
H  -3.84500 23.65300 27.83800
H  -2.10500 23.67600 27.61300
H  -3.45100 24.50100 25.87700
H  -3.23800 24.87300 24.27100
H  -1.84300 24.55300 25.22500
H  -1.30200 17.97900 22.00100
H  -2.72700 15.45100 22.11000
H  -3.08400 18.49600 20.58700
H  -4.05500 18.71900 22.08400
H  -4.18600 17.14200 21.31100
H  -0.46300 15.75100 21.09800
H  -0.60100 14.48700 22.22000
H  0.39700 17.00600 23.46200
H  1.33100 16.54100 22.09200
H  1.06400 15.30600 23.42300
H  -3.19200 12.06000 25.01900
H  -3.71100 11.24100 26.59500
H  -2.02600 11.28000 26.12200
H  -4.21100 13.91900 30.86500
H  -1.56000 11.66900 33.45400
H  -2.47800 12.90900 34.36700
H  -1.05200 13.36400 33.67800
Mg 52.83400 23.97000 45.01300
C  50.18500 25.96400 43.85000
C  50.89300 21.28100 43.86500
C  55.62500 22.12400 45.03000
C  54.48900 26.72200 45.92400
N  50.88100 23.72600 43.68300
C  49.95800 24.69000 43.35600
C  48.77000 24.09200 42.67300
C  48.95200 22.58900 42.84500
C  50.33600 22.48500 43.44400
C  47.81000 21.80700 43.56500
C  48.76600 24.46200 41.13600
C  50.10200 24.69000 40.34100
H  50.17600 25.31400 38.90600
N  53.19300 21.90800 44.64100
C  52.24100 20.96000 44.27600
C  52.88900 19.66300 44.22800
C  54.28000 19.84900 44.58000
C  54.45500 21.34800 44.79700
C  52.21500 18.34100 43.96800
C  55.29700 18.76600 44.73000
O  54.89200 17.58000 44.54900
C  56.71700 19.08400 45.08700
N  54.81600 24.40700 45.25300
C  55.75900 23.48700 45.31100
C  57.16500 24.08200 45.48900
C  56.83700 25.58400 45.91800
C  55.32300 25.62800 45.66900
C  58.04200 23.44700 46.61600
C  57.61000 26.71500 45.18600
C  58.90000 27.25600 45.80100
N  52.45100 26.04300 44.88500
C  53.16300 26.99000 45.51100
C  52.40500 28.24600 45.57800
C  51.18200 27.85100 44.90500
C  51.26900 26.52700 44.54000
C  52.69900 29.38600 46.34300
C  49.80000 28.26900 44.51200
O  49.18200 29.31500 44.56200
C  49.12000 27.00900 43.79700
C  48.90400 27.51100 42.38800
O  49.80600 27.77300 41.65600
O  47.58100 27.69800 42.07500
C  47.42900 28.50300 40.88200
H  50.27500 20.39200 43.72300
H  56.56300 21.58900 45.18900
H  55.11800 27.51500 46.33300
H  47.88800 24.42400 43.22000
H  48.99000 22.06500 41.89000
H  48.33000 21.29500 44.37400
H  47.32600 21.05400 42.94200
H  47.04400 22.43100 44.02600
H  48.12000 25.33700 41.06700
H  48.18800 23.72600 40.57700
H  50.51500 23.68200 40.29200
H  50.83200 25.26900 40.90700
H  52.59500 17.89100 43.05100
H  51.14400 18.41300 43.78100
H  52.37200 17.69200 44.83000
H  57.27000 18.14900 45.17700
H  56.81100 19.60800 46.03700
H  57.06500 19.64100 44.21700
H  57.74500 23.98500 44.57100
H  56.92600 25.68000 47.00000
H  57.45300 22.93000 47.37400
H  58.55100 24.17800 47.24500
H  58.79700 22.79700 46.17300
H  57.08800 27.65600 45.01000
H  57.84500 26.27700 44.21600
H  59.76100 26.93300 45.21600
H  59.16100 26.94500 46.81300
H  58.83800 28.33000 45.97500
H  53.42800 29.18200 47.12700
H  51.72700 29.55100 46.80800
H  52.96900 30.24000 45.72100
H  48.14600 26.73900 44.20500
H  46.35400 28.54100 40.70800
H  47.72500 27.97100 39.97800
H  47.78100 29.53200 40.95900

