158

Mg 25.45400 -8.07900 47.79300
C  28.28000 -5.88300 47.05700
C  23.83400 -6.48000 45.19800
C  23.28800 -10.55100 47.68600
C  27.68500 -10.01000 49.74100
N  26.08700 -6.43600 46.28700
C  27.25600 -5.72600 46.13100
C  27.15400 -4.83500 44.92300
C  25.64400 -4.97200 44.52700
C  25.11500 -6.09000 45.36300
C  24.85900 -3.63100 44.59400
C  28.05000 -5.12200 43.71100
C  28.70200 -3.86900 43.09300
H  28.19600 -3.38100 41.74300
N  23.66500 -8.31300 46.82000
C  23.12900 -7.48800 45.83900
C  21.77800 -7.93100 45.50300
C  21.59400 -9.08300 46.29400
C  22.84700 -9.38200 47.00600
C  20.90800 -7.28600 44.48600
C  20.18000 -9.85100 46.48900
O  19.24200 -9.54400 45.81500
C  19.95200 -10.89900 47.49400
N  25.63500 -10.11000 48.46500
C  24.49500 -10.91700 48.39700
C  24.66600 -12.07200 49.33400
C  26.11000 -11.96700 49.86500
C  26.47400 -10.61000 49.36700
C  23.59600 -12.22600 50.43200
C  27.11200 -13.15300 49.28900
C  27.67500 -13.97400 50.43200
N  27.47900 -7.93400 48.44000
C  28.23100 -8.77600 49.22600
C  29.52500 -8.38900 49.26700
C  29.51700 -7.15800 48.56200
C  28.25300 -6.94000 48.03900
C  30.65000 -9.11800 49.82300
C  30.46100 -6.12100 48.13100
O  31.61700 -5.87300 48.47700
C  29.66300 -5.25000 47.09000
C  29.59900 -3.78100 47.41300
O  29.85300 -3.30800 48.51200
O  29.37000 -3.13800 46.26700
C  29.65600 -1.65700 46.29300
H  23.25800 -5.97700 44.41800
H  22.54200 -11.33900 47.81100
H  28.21300 -10.65900 50.44200
H  27.36500 -3.82800 45.28300
H  25.54000 -5.39000 43.52600
H  23.84600 -3.77400 44.21800
H  25.27900 -2.88900 43.91400
H  24.82900 -3.24400 45.61300
H  27.44200 -5.56700 42.92300
H  28.79500 -5.90400 43.85600
H  29.73800 -4.17300 42.94800
H  28.61200 -3.02400 43.77500
H  21.14100 -7.48400 43.44000
H  21.06800 -6.21100 44.40700
H  19.87500 -7.51200 44.75100
H  20.32000 -10.61900 48.48200
H  20.56200 -11.71600 47.10900
H  18.93000 -11.26600 47.58800
H  24.56400 -12.90600 48.64000
H  26.12000 -11.95400 50.95500
H  23.36800 -13.29200 50.41700
H  22.67000 -11.68000 50.25200
H  24.04700 -11.85100 51.35100
H  27.95300 -12.68900 48.77400
H  26.70900 -13.73900 48.46300
H  28.71100 -13.75800 50.69600
H  27.75000 -15.04900 50.26600
H  27.12100 -13.83300 51.36000
H  30.77500 -9.96000 49.14300
H  30.36200 -9.69500 50.70200
H  31.64100 -8.66900 49.88700
H  30.20400 -5.32700 46.14700
H  29.99400 -1.22500 47.23500
H  28.76900 -1.13100 45.93800
H  30.42900 -1.48200 45.54400
Mg 6.64100 57.17200 41.87800
C  5.75600 53.65700 41.65800
C  9.53600 56.50000 40.48400
C  7.05400 60.51100 41.65000
C  3.60000 57.68600 43.55800
N  7.42900 55.22900 41.02800
C  6.92100 53.99000 40.96900
C  8.06600 53.05600 40.46900
C  9.35400 54.02200 40.40100
C  8.75100 55.36300 40.74100
C  10.54600 53.66500 41.27600
C  7.83200 52.29700 39.02300
C  8.54000 50.93600 38.93700
H  8.03600 49.84500 37.92900
N  8.09600 58.40300 41.02500
C  9.22800 57.91200 40.54200
C  10.08600 59.02300 40.19700
C  9.35500 60.25500 40.45500
C  8.10500 59.74400 41.07800
C  11.51000 58.98400 39.51000
C  9.76600 61.67300 39.98200
O  10.87900 61.80700 39.50100
C  8.81800 62.84400 39.97000
N  5.47300 58.90500 42.27700
C  5.78400 60.19500 42.18500
C  4.77700 61.15000 42.77400
C  3.65800 60.22400 43.27200
C  4.23200 58.83000 43.04700
C  5.39000 62.08500 43.86800
C  2.23300 60.44000 42.71200
C  1.16900 60.72600 43.78600
N  5.00600 55.96400 42.55700
C  3.86600 56.26900 43.30600
C  3.12500 55.15900 43.70300
C  3.79000 54.09300 43.04000
C  4.93500 54.61100 42.37900
C  1.91800 55.10000 44.60000
C  3.81300 52.69100 42.74400
O  2.94700 51.83900 42.96100
C  5.17500 52.35400 42.06500
C  4.93100 51.37900 40.98100
O  4.36300 51.61400 39.94600
O  5.37500 50.20700 41.44500
C  5.21200 49.10700 40.52400
H  10.54000 56.21100 40.16700
H  7.16900 61.59300 41.56300
H  2.75700 57.91400 44.21400
H  8.21900 52.31100 41.25000
H  9.70300 54.11800 39.37300
H  10.44500 52.74100 41.84600
H  10.67800 54.50100 41.96400
H  11.39700 53.43500 40.63500
H  8.19500 52.93500 38.21700
H  6.83100 52.21200 38.60000
H  8.60200 50.65200 39.98700
H  9.59600 51.03500 38.68400
H  11.42400 59.41700 38.51400
H  11.88200 57.96200 39.43200
H  12.22600 59.54800 40.10700
H  7.87200 62.65800 39.46100
H  9.20900 63.64900 39.34700
H  8.50500 63.21100 40.94800
H  4.35300 61.77900 41.99100
H  3.54500 60.35000 44.34900
H  4.87800 61.89500 44.81100
H  5.16200 63.07600 43.47500
H  6.47100 62.01400 43.98900
H  1.99500 59.49000 42.23400
H  2.24500 61.25600 41.98900
H  0.22600 60.42000 43.33400
H  0.99400 61.78800 43.95600
H  1.38100 60.19100 44.71200
H  2.14800 54.44900 45.44300
H  1.13400 54.53400 44.09600
H  1.59500 56.09600 44.90300
H  5.76400 51.98100 42.90400
H  4.22000 48.72100 40.75400
H  5.97800 48.37000 40.76300
H  5.19800 49.27600 39.44700

