158

Mg 35.65800 2.07500 30.35400
C  33.25300 3.24800 32.64800
C  38.08300 2.17300 32.73100
C  37.90200 1.37100 27.97900
C  33.19600 2.66400 27.80200
N  35.65500 2.78700 32.36500
C  34.56500 3.16400 33.11800
C  35.01200 3.34400 34.58800
C  36.55200 3.41300 34.45400
C  36.78200 2.69200 33.10100
C  37.13100 4.84900 34.47200
C  34.55000 2.31300 35.63900
C  34.33900 2.87000 37.12800
H  35.06700 4.07700 37.69000
N  37.69000 1.70000 30.36100
C  38.50900 1.62200 31.46300
C  39.76200 0.97800 31.08000
C  39.71200 0.73100 29.65900
C  38.42000 1.32000 29.27800
C  40.84500 0.81300 32.03400
C  40.70400 0.22000 28.70900
O  40.48000 -0.09100 27.52500
C  42.17700 -0.01000 29.18100
N  35.64300 2.34500 28.14900
C  36.73800 1.87900 27.42600
C  36.39900 1.87900 25.94500
C  34.84700 2.01100 25.84900
C  34.53300 2.43600 27.33900
C  37.35400 2.79900 25.15400
C  34.25500 0.66900 25.48000
C  32.78400 0.48600 25.21900
N  33.57700 2.69100 30.17900
C  32.77200 2.89900 29.10700
C  31.45700 3.25500 29.63700
C  31.56900 3.36600 31.04300
C  32.90100 3.07600 31.32000
C  30.29800 3.60200 28.75600
C  30.88400 3.71400 32.23300
O  29.72200 4.04100 32.37300
C  31.94000 3.60000 33.36100
C  31.94000 4.96200 34.02600
O  32.29900 6.03200 33.54400
O  31.51700 4.86500 35.34700
C  31.73100 6.10200 36.09700
H  38.76200 2.14400 33.58600
H  38.55600 0.98900 27.19300
H  32.46400 2.62900 26.99300
H  34.59900 4.25500 35.02200
H  37.19500 2.83200 35.11500
H  36.82500 5.24000 35.44200
H  36.80500 5.36900 33.57100
H  38.21700 4.76200 34.48000
H  35.27500 1.50500 35.72700
H  33.58800 1.93500 35.29200
H  34.40900 1.97500 37.74600
H  33.29800 3.19300 37.13000
H  40.86400 -0.22400 32.37100
H  40.66300 1.35900 32.95900
H  41.86200 1.08500 31.75100
H  42.17500 -0.60000 30.09800
H  42.51500 1.00600 29.37900
H  42.76600 -0.39300 28.34800
H  36.65900 0.83900 25.74900
H  34.63300 2.80900 25.13900
H  37.71200 3.48200 25.92400
H  36.82100 3.31700 24.35700
H  38.12300 2.14000 24.75100
H  34.61400 -0.08100 26.18500
H  34.78100 0.30300 24.59900
H  32.34600 1.37100 24.75900
H  32.29500 0.00400 26.06600
H  32.60200 -0.19800 24.39000
H  30.61300 3.95900 27.77500
H  29.60900 4.32500 29.19400
H  29.82300 2.65200 28.51300
H  31.49400 2.92100 34.08700
H  31.18000 5.90700 37.01700
H  31.30900 6.91400 35.50500
H  32.79700 6.25800 36.26800
Mg 26.66100 50.21200 26.27700
C  25.04300 51.85100 28.91500
C  29.18400 49.29700 28.63000
C  28.66100 49.16000 23.75600
C  24.56600 51.84900 24.13600
N  27.01400 50.53700 28.52700
C  26.13100 51.14000 29.35600
C  26.53300 50.91300 30.79900
C  28.00000 50.34000 30.68800
C  28.07500 49.97400 29.18900
C  29.12600 51.28400 31.20400
C  25.46400 49.92300 31.44600
C  24.89000 50.43300 32.81700
H  25.74300 50.94300 33.95100
N  28.57500 49.19600 26.23100
C  29.44900 48.94400 27.28200
C  30.56500 48.22700 26.74700
C  30.50900 48.27900 25.32200
C  29.19600 48.89500 25.05300
C  31.75500 47.81900 27.60800
C  31.67500 47.99700 24.28700
O  31.49500 48.04200 23.10500
C  33.08900 47.71400 24.68900
N  26.71300 50.60800 24.26000
C  27.53400 49.88100 23.43400
C  27.05200 49.89600 21.99300
C  25.66400 50.73500 22.18200
C  25.61200 51.08800 23.63200
C  28.10400 50.40200 21.02700
C  24.27500 50.20200 21.60300
C  23.57300 51.10200 20.52400
N  25.04000 51.56300 26.41500
C  24.29200 52.20700 25.50000
C  23.22900 52.99200 26.07300
C  23.49000 52.90200 27.50400
C  24.62000 52.03800 27.60500
C  22.20000 53.82200 25.43800
C  23.09000 53.35200 28.80600
O  22.20500 54.05600 29.12800
C  24.15200 52.70400 29.82400
C  24.77900 53.73500 30.69300
O  25.85100 54.27500 30.50400
O  23.93400 54.01300 31.67300
C  24.49000 54.98100 32.62300
H  29.85300 48.93900 29.41500
H  29.23700 48.76500 22.91700
H  23.77500 52.22000 23.48200
H  26.44100 51.87800 31.29900
H  28.14500 49.35200 31.12400
H  28.74600 52.29700 31.33600
H  29.95400 51.44800 30.51300
H  29.48000 50.91300 32.16700
H  25.83700 48.90500 31.56400
H  24.58800 49.86000 30.80000
H  24.31300 49.54100 33.06100
H  24.22900 51.25300 32.53700
H  31.95100 46.75100 27.50900
H  31.63100 48.09900 28.65400
H  32.62700 48.44200 27.41300
H  33.49700 48.71300 24.83800
H  33.63900 47.20200 23.89900
H  33.16200 47.16000 25.62500
H  26.77500 48.87100 21.74800
H  25.87700 51.71700 21.76000
H  28.71600 49.73100 20.42400
H  28.71700 51.01900 21.68300
H  27.55300 51.08300 20.37800
H  23.57000 50.21200 22.43300
H  24.31000 49.16800 21.26200
H  22.70200 51.52000 21.03000
H  23.29200 50.50200 19.65800
H  24.26300 51.93500 20.38800
H  21.20300 53.41500 25.60900
H  22.29900 53.74600 24.35500
H  22.24300 54.83000 25.85000
H  23.60800 52.02000 30.47500
H  24.93600 55.83700 32.11700
H  25.17200 54.40000 33.24400
H  23.81200 55.35900 33.38700

