158

Mg 49.29000 35.56200 28.86200
C  46.78200 34.12500 31.04500
C  49.71500 37.96600 31.09000
C  51.30700 36.86100 26.56800
C  48.07700 33.27200 26.34700
N  48.55200 35.84700 30.97700
C  47.56200 35.12000 31.64700
C  47.20700 35.89900 32.91600
C  47.89100 37.26900 32.75600
C  48.79400 37.01200 31.55100
C  46.92300 38.41800 32.55700
C  47.69700 35.14000 34.16900
C  49.27900 34.96700 34.27100
H  49.90300 34.79300 35.70900
N  50.39300 37.17000 28.86900
C  50.50400 38.05000 29.88400
C  51.57800 38.98700 29.58400
C  52.09000 38.65800 28.24500
C  51.26300 37.55600 27.83800
C  51.94200 40.02900 30.54500
C  53.12300 39.34500 27.41200
O  53.49300 38.91000 26.35400
C  53.75100 40.68100 27.74100
N  49.51700 35.22700 26.70000
C  50.42800 35.89600 26.00500
C  50.61800 35.25800 24.59600
C  49.70300 34.02000 24.61700
C  49.03400 34.18400 25.96000
C  50.27400 36.26000 23.45700
C  50.49300 32.72200 24.35600
C  50.07000 32.09300 23.05000
N  47.81200 33.93900 28.70400
C  47.46700 33.13400 27.64800
C  46.50800 32.09000 28.14100
C  46.13800 32.50800 29.43500
C  47.01200 33.62000 29.74800
C  45.91500 30.99600 27.38500
C  45.19500 32.27700 30.51100
O  44.30800 31.48400 30.75200
C  45.61700 33.42400 31.61200
C  45.89500 32.56900 32.84500
O  46.62400 31.55000 32.87200
O  45.01000 33.02500 33.87900
C  45.08900 32.25800 35.11200
H  49.82600 38.85500 31.71500
H  52.05200 37.21800 25.85400
H  47.76500 32.42000 25.73900
H  46.13000 36.06500 32.87500
H  48.56400 37.60200 33.54600
H  45.92800 38.11400 32.88300
H  46.85400 38.89800 31.58100
H  47.20500 39.23900 33.21600
H  47.33300 34.11300 34.18900
H  47.20000 35.72900 34.94100
H  49.90200 35.55600 33.59800
H  49.34200 33.98700 33.79700
H  51.05400 40.66100 30.50300
H  52.72600 40.68300 30.16400
H  52.25400 39.70100 31.53600
H  52.98200 41.38300 28.06500
H  54.03200 41.02800 26.74700
H  54.55600 40.58100 28.46900
H  51.66300 34.97200 24.47500
H  48.82700 34.06600 23.97000
H  49.71200 37.12600 23.80600
H  49.69100 35.73100 22.70300
H  51.20800 36.64700 23.05100
H  50.23700 31.93600 25.06600
H  51.57600 32.80800 24.44400
H  49.53900 32.77900 22.38900
H  49.53400 31.15900 23.21800
H  50.93200 31.75600 22.47600
H  46.60500 30.65100 26.61500
H  45.04300 31.40000 26.86900
H  45.63000 30.12900 27.98000
H  44.75700 34.06600 31.80400
H  45.97300 32.53500 35.68600
H  45.05200 31.19000 34.89200
H  44.23700 32.58100 35.70900
Mg -11.98000 16.47500 40.93200
C  -8.85200 15.08100 40.43300
C  -10.75100 19.58200 39.77100
C  -15.16600 17.74600 40.71400
C  -13.29900 13.42100 41.52200
N  -10.07100 17.16300 39.97600
C  -8.89000 16.43400 39.92300
C  -7.74900 17.38900 39.33600
C  -8.32100 18.78600 39.44900
C  -9.83700 18.53700 39.76300
C  -7.58900 19.72300 40.45800
C  -7.10100 16.93000 37.99100
C  -5.58500 17.02500 37.84300
H  -5.07300 16.88400 36.40100
N  -12.80800 18.41900 40.51200
C  -12.13400 19.52900 40.07400
C  -13.06500 20.64200 39.96600
C  -14.36900 20.15900 40.32200
C  -14.15000 18.71900 40.54100
C  -12.61400 22.08800 39.71300
C  -15.71000 20.98000 40.44700
O  -15.69100 22.19500 40.27500
C  -17.06100 20.43000 40.85700
N  -14.00600 15.64800 41.13100
C  -15.14300 16.40000 41.05800
C  -16.37900 15.49600 41.27500
C  -15.68300 14.12000 41.68200
C  -14.21800 14.38000 41.36900
C  -17.42900 15.96000 42.23900
C  -16.27500 12.97100 40.92800
C  -16.50800 11.66400 41.74500
N  -11.25900 14.66400 40.97600
C  -11.91200 13.51500 41.33400
C  -10.98700 12.38100 41.35500
C  -9.77300 13.00300 41.07800
C  -10.00700 14.38100 40.83500
C  -11.18200 10.88000 41.62900
C  -8.33100 12.73300 41.10400
O  -7.64800 11.70400 41.31700
C  -7.72700 14.11500 40.57300
C  -6.76600 14.63500 41.61200
O  -6.88100 15.64500 42.30600
O  -5.67800 13.71300 41.78000
C  -4.72400 13.84300 42.88900
H  -10.46800 20.59900 39.49300
H  -16.18700 18.12700 40.65000
H  -13.66200 12.40700 41.70500
H  -7.00700 17.33600 40.13200
H  -8.29300 19.36000 38.52200
H  -7.39000 20.61500 39.86400
H  -6.66500 19.22000 40.74400
H  -8.20300 19.80900 41.35500
H  -7.55900 17.51900 37.19800
H  -7.46600 15.95500 37.66600
H  -5.24200 16.15600 38.40600
H  -5.25900 17.95600 38.30600
H  -13.34900 22.62000 39.10800
H  -11.58400 22.24900 39.39500
H  -12.73200 22.46700 40.72800
H  -17.72100 21.29500 40.92100
H  -16.93100 19.86700 41.78100
H  -17.37500 19.81900 40.01100
H  -16.83800 15.29500 40.30700
H  -15.66500 13.96300 42.76100
H  -18.40800 15.89400 41.76300
H  -17.17800 17.00900 42.39300
H  -17.46600 15.29200 43.10000
H  -15.60200 12.68800 40.11900
H  -17.19100 13.25000 40.40700
H  -15.66300 11.02000 41.49900
H  -17.45000 11.14100 41.58500
H  -16.41200 11.88200 42.80900
H  -11.23800 10.39100 40.65700
H  -12.11700 10.73000 42.16800
H  -10.30700 10.52300 42.17300
H  -7.14500 13.97900 39.66100
H  -3.67000 13.72600 42.63700
H  -4.98300 13.12700 43.66800
H  -4.90500 14.83200 43.31100

