158

Mg 54.83000 24.48500 44.71100
C  52.15700 26.62300 43.56300
C  52.94900 21.80400 43.82400
C  57.56700 22.56200 45.36400
C  56.64100 27.39000 45.37000
N  52.76300 24.24400 43.78900
C  51.85700 25.26400 43.51100
C  50.60000 24.63700 42.92800
C  50.73700 23.15600 43.42600
C  52.21600 23.00000 43.80800
C  49.86400 22.69800 44.62500
C  50.57700 24.79100 41.39800
C  49.13900 24.99000 40.75200
H  48.79300 24.48000 39.34700
N  55.23000 22.48200 44.54200
C  54.34200 21.52900 44.16100
C  54.96700 20.20600 44.20300
C  56.30100 20.48500 44.49900
C  56.41000 21.88300 44.87100
C  54.29600 18.96100 43.73700
C  57.39200 19.41600 44.37900
O  57.04500 18.26500 44.01900
C  58.94400 19.74300 44.56700
N  56.79900 24.94800 45.15900
C  57.72200 23.91700 45.53900
C  59.10800 24.55900 45.97000
C  58.86100 26.06200 45.64200
C  57.35700 26.15900 45.44400
C  59.65700 24.13300 47.46500
C  59.57800 26.65100 44.48800
C  60.97500 27.08200 44.60300
N  54.46900 26.59400 44.51700
C  55.31100 27.67100 44.84300
C  54.61200 28.97500 44.66700
C  53.33600 28.59900 44.18100
C  53.35000 27.18500 44.10100
C  55.13300 30.32300 45.09700
C  52.04100 29.02100 43.64100
O  51.58700 30.16000 43.54900
C  51.33900 27.78500 43.07800
C  51.33900 27.95100 41.63800
O  52.31700 27.78600 40.92400
O  50.11800 28.32700 41.12600
C  50.09500 28.43300 39.71200
H  52.38000 20.89600 43.61200
H  58.40600 21.98200 45.75500
H  57.21000 28.25700 45.71200
H  49.74000 25.09200 43.42000
H  50.56300 22.50100 42.57200
H  50.47300 22.52300 45.51200
H  49.32500 21.77700 44.40300
H  49.27100 23.56200 44.92500
H  50.88200 23.81100 41.03300
H  51.26900 25.55000 41.03300
H  49.07600 26.06800 40.60700
H  48.32600 24.86300 41.46600
H  54.61000 18.68200 42.73200
H  53.22100 19.09400 43.61600
H  54.40000 18.15700 44.46600
H  59.19200 20.76800 44.29200
H  59.44200 18.94800 44.01200
H  59.19700 19.62600 45.62100
H  59.80300 23.96500 45.37600
H  59.20100 26.62200 46.51300
H  60.00600 24.99300 48.03600
H  60.38600 23.32500 47.40400
H  58.88600 23.69700 48.10000
H  58.90300 27.38800 44.05300
H  59.57900 25.82200 43.78100
H  61.13100 28.07700 44.18600
H  61.59800 26.42800 43.99300
H  61.27900 27.24100 45.63800
H  56.18200 30.22400 45.37600
H  54.53400 30.73000 45.91100
H  55.11100 30.92500 44.18900
H  50.33300 27.72900 43.49400
H  49.03800 28.49700 39.45400
H  50.52900 27.59300 39.16900
H  50.46900 29.37600 39.31500
Mg 41.13400 41.01700 26.95400
C  40.38200 43.59200 29.32600
C  42.14600 39.11900 29.66300
C  41.70400 38.58800 24.76400
C  40.56700 43.24100 24.48400
N  41.21700 41.27400 29.22300
C  40.91600 42.41900 29.94400
C  41.02300 42.20500 31.54100
C  41.56600 40.74600 31.55500
C  41.70200 40.36600 30.03900
C  42.81400 40.50000 32.39100
C  39.67600 42.38900 32.26300
C  39.63800 43.31900 33.48800
H  38.89000 42.79200 34.76000
N  41.82800 39.12800 27.19300
C  42.19600 38.50100 28.35400
C  42.58900 37.12700 28.10100
C  42.53700 37.00200 26.62400
C  42.02800 38.26700 26.12100
C  43.17500 36.21800 29.17200
C  43.03400 35.73300 25.90500
O  43.10000 35.67200 24.70100
C  43.57500 34.55400 26.61300
N  41.40300 40.98400 24.86500
C  41.45200 39.81600 24.19000
C  41.06900 40.02300 22.68300
C  40.64500 41.48400 22.59600
C  40.83200 41.92000 24.07800
C  42.26200 39.75200 21.67300
C  39.19800 41.54900 22.21000
C  38.21900 40.94900 23.21600
N  40.57800 43.08100 26.90900
C  40.44700 43.80500 25.78500
C  40.04500 45.12700 26.19200
C  39.97600 45.14700 27.62800
C  40.31500 43.82500 27.93800
C  39.68800 46.31000 25.32100
C  39.67700 45.92300 28.76800
O  39.22000 47.04900 28.83600
C  39.77400 44.91700 29.89000
C  40.70400 45.63700 30.81500
O  41.91400 45.71600 30.69400
O  40.02600 46.08000 31.88800
C  40.89200 46.54600 33.00400
H  42.32700 38.53600 30.56900
H  41.77200 37.75900 24.05500
H  40.36900 43.77300 23.55100
H  41.77900 42.95800 31.76400
H  40.81700 40.08400 31.98800
H  43.45600 39.97500 31.68300
H  42.57300 39.85900 33.23800
H  43.32300 41.37200 32.80200
H  39.42000 41.40900 32.66400
H  38.83400 42.60000 31.60400
H  39.04600 44.20100 33.24200
H  40.67900 43.55900 33.70400
H  42.53900 35.33300 29.16700
H  43.11600 36.74000 30.12700
H  44.19200 35.89400 28.95200
H  42.81500 34.16600 27.29100
H  44.50900 34.83400 27.10100
H  44.00800 33.80600 25.94900
H  40.27900 39.32500 22.40600
H  41.34600 42.15600 22.10000
H  43.03500 39.14600 22.14600
H  42.69500 40.68500 21.31100
H  41.97400 39.11800 20.83500
H  39.19500 40.95600 21.29500
H  38.92500 42.59500 22.07000
H  38.40700 41.22200 24.25400
H  38.00600 39.90500 22.98600
H  37.25400 41.43000 23.05600
H  39.08600 46.02600 24.45700
H  40.63700 46.77800 25.06000
H  39.03400 46.87600 25.98500
H  38.82800 44.75500 30.40800
H  40.23400 46.77500 33.84200
H  41.53800 47.32800 32.60500
H  41.60700 45.82400 33.39700

