158

Mg 54.08700 25.40300 45.25800
C  51.46800 27.79500 44.61400
C  52.09200 22.92300 44.00100
C  56.77900 23.45800 44.80700
C  56.11600 28.23800 45.95700
N  52.11300 25.45600 44.30100
C  51.20800 26.47200 44.15700
C  49.93800 25.95200 43.53700
C  50.05200 24.45700 43.82500
C  51.50900 24.28000 44.05900
C  49.19400 23.87200 45.03900
C  49.73200 26.33200 42.04100
C  48.37400 26.00300 41.45400
H  48.24400 25.28900 40.15300
N  54.41100 23.34700 44.54600
C  53.41900 22.49500 44.24000
C  53.97200 21.13800 44.08700
C  55.34600 21.24200 44.49600
C  55.58200 22.71300 44.63100
C  53.08700 19.91400 43.77400
C  56.38600 20.14700 44.67200
O  56.13600 18.94800 44.38300
C  57.69800 20.42700 45.37800
N  56.13500 25.89200 45.15400
C  57.05000 24.85200 45.04600
C  58.48200 25.38000 45.25300
C  58.26300 27.01000 45.28700
C  56.70800 27.08400 45.51800
C  58.88800 24.85600 46.60800
C  58.78000 27.73700 44.02600
C  60.02300 28.68500 44.20200
N  53.79900 27.49400 45.60900
C  54.69400 28.49800 45.98500
C  53.95400 29.66800 46.38100
C  52.76500 29.51300 45.64600
C  52.70800 28.18200 45.22400
C  54.52100 30.99800 46.96700
C  51.53200 30.18100 45.24500
O  51.16000 31.31600 45.58600
C  50.68600 29.08200 44.53800
C  50.33500 29.52700 43.13900
O  51.14400 29.72200 42.27500
O  48.99600 29.51400 42.90300
C  48.54600 29.99000 41.59700
H  51.31500 22.17600 43.82500
H  57.71300 22.89500 44.85700
H  56.87600 28.97900 46.21100
H  49.02700 26.30800 44.01800
H  49.85100 23.85100 42.94100
H  49.70400 24.07000 45.98200
H  49.17300 22.78600 44.94900
H  48.19000 24.29500 45.02700
H  50.51200 25.85100 41.45100
H  49.99000 27.34900 41.74400
H  47.78400 26.92000 41.43800
H  47.83900 25.44800 42.22400
H  53.41200 19.39700 42.87100
H  52.02500 20.14000 43.68500
H  53.14100 19.25300 44.64000
H  58.41700 20.94300 44.74100
H  58.16200 19.55300 45.83400
H  57.45200 21.03900 46.24600
H  59.25900 25.14700 44.52400
H  58.71200 27.47500 46.16500
H  59.87500 24.39300 46.61200
H  58.21300 24.16200 47.10800
H  59.22000 25.63700 47.29200
H  57.90900 28.27900 43.65800
H  59.11600 26.97100 43.32700
H  60.53600 28.70200 43.24000
H  60.76600 28.30600 44.90300
H  59.57800 29.65200 44.43400
H  55.29600 30.65100 47.65000
H  53.73100 31.60100 47.41500
H  54.94000 31.61400 46.17100
H  49.75200 28.84300 45.04500
H  48.58400 29.29400 40.76000
H  48.98900 30.96500 41.39400
H  47.46600 30.11500 41.68600
Mg 16.78800 52.38700 26.67700
C  19.14400 50.59700 28.48400
C  14.90000 52.76900 29.44000
C  14.68200 53.99800 24.73800
C  18.60800 51.32000 23.69000
N  17.05000 51.89700 28.69800
C  18.08700 51.17000 29.27600
C  18.04600 51.20200 30.81000
C  16.55100 51.56300 31.01200
C  16.14400 52.10700 29.60300
C  15.60800 50.41400 31.31400
C  19.11200 52.21400 31.46700
C  19.20700 52.39200 32.96800
H  18.11500 51.77900 33.87600
N  15.02600 53.21500 27.00200
C  14.37400 53.30000 28.26800
C  13.13500 54.06900 28.17300
C  13.08000 54.52800 26.81600
C  14.29600 53.95800 26.09500
C  12.13900 54.24200 29.25100
C  12.11700 55.47700 26.13700
O  12.02800 55.57400 24.91700
C  11.19000 56.29800 26.98200
N  16.67200 52.63700 24.58600
C  15.74300 53.44100 24.00100
C  15.81400 53.55700 22.42200
C  17.10700 52.71400 22.22700
C  17.51200 52.21500 23.60300
C  14.69200 52.99100 21.55300
C  18.26400 53.45200 21.51000
C  19.17300 54.27400 22.48700
N  18.54000 51.21400 26.13800
C  19.15600 50.90300 24.92700
C  20.37100 50.07200 25.24000
C  20.38700 49.96400 26.65200
C  19.24600 50.67000 27.10500
C  21.39400 49.59500 24.18100
C  21.05100 49.36300 27.80000
O  21.99200 48.59700 27.83700
C  20.40300 49.96200 29.01000
C  20.19700 48.81000 29.96900
O  19.40900 47.88600 29.85500
O  20.76800 49.13700 31.19200
C  20.40700 48.37400 32.36400
H  14.30600 52.99000 30.32900
H  14.04000 54.60400 24.09500
H  19.23400 51.00300 22.85300
H  18.12700 50.21700 31.27000
H  16.39500 52.36300 31.73600
H  14.90200 50.89000 31.99500
H  16.12900 49.60100 31.82000
H  15.08300 50.09600 30.41300
H  18.90900 53.22700 31.12100
H  20.13200 51.95700 31.17700
H  19.26500 53.47700 33.05900
H  20.19500 52.02000 33.24000
H  11.47800 55.10800 29.25700
H  12.68100 54.30600 30.19500
H  11.45000 53.39800 29.29500
H  11.71900 56.71900 27.83700
H  10.34600 55.72400 27.36300
H  10.86300 57.15900 26.39900
H  16.02300 54.56500 22.06500
H  16.92300 51.74700 21.76000
H  13.96600 52.37500 22.08300
H  15.11300 52.38200 20.75300
H  14.12500 53.77200 21.04500
H  17.89800 54.12100 20.73100
H  18.74100 52.70100 20.88100
H  19.46000 55.26600 22.13600
H  20.05800 53.64300 22.56700
H  18.75400 54.43000 23.48100
H  22.21800 49.10800 24.70200
H  21.74800 50.37900 23.51300
H  20.86600 48.94200 23.48600
H  21.11300 50.72600 29.32600
H  21.35700 48.34000 32.89800
H  20.03700 47.37800 32.12300
H  19.72700 48.98700 32.95600

