158

Mg 27.10800 50.81700 26.61700
C  25.09300 51.76700 29.34700
C  29.46700 49.90300 28.83000
C  29.10600 50.13500 23.99400
C  24.75000 52.19700 24.52300
N  27.25900 50.78800 28.85500
C  26.27400 51.16900 29.77200
C  26.76500 50.92400 31.27200
C  28.30600 50.60400 31.09700
C  28.36800 50.40100 29.52100
C  29.15000 51.77500 31.72700
C  26.01000 49.74300 31.92400
C  25.27100 50.09000 33.27300
H  26.16300 50.46300 34.44500
N  28.99100 50.15600 26.45100
C  29.79500 49.73100 27.48300
C  31.08900 49.14000 26.96200
C  30.99600 49.31600 25.56300
C  29.67700 49.86400 25.30400
C  32.14400 48.60000 27.86700
C  32.06800 48.96400 24.53400
O  31.86600 49.09300 23.33000
C  33.44900 48.52400 24.98000
N  27.14000 51.38000 24.56000
C  27.93600 50.76500 23.66900
C  27.47600 50.96700 22.22900
C  26.01100 51.53000 22.38700
C  25.94600 51.69700 23.94100
C  28.42000 51.96900 21.45500
C  24.83100 50.80800 21.79400
C  23.82000 51.57400 20.85300
N  25.22400 51.81900 26.82600
C  24.38800 52.30900 25.90700
C  23.30900 52.97500 26.52300
C  23.46500 52.75900 27.91000
C  24.69100 52.03100 28.04300
C  22.31900 53.71000 25.73800
C  22.88400 52.92000 29.21900
O  21.85500 53.35000 29.58700
C  23.95900 52.28800 30.21900
C  24.41500 53.42200 31.07300
O  25.24300 54.26900 30.79900
O  23.70300 53.51100 32.22200
C  23.87200 54.74800 33.05600
H  30.22300 49.54700 29.53300
H  29.72100 49.98600 23.10400
H  24.18800 52.75900 23.77400
H  26.61700 51.88900 31.75600
H  28.37300 49.62300 31.56600
H  28.71200 52.67100 32.16600
H  29.91500 52.15100 31.04800
H  29.65900 51.20000 32.50100
H  26.53900 48.85000 32.25700
H  25.28600 49.42100 31.17600
H  24.60200 49.24300 33.42600
H  24.49500 50.82000 33.04000
H  33.06500 49.15900 27.70400
H  32.30900 47.57100 27.54900
H  31.86700 48.69800 28.91700
H  34.24400 48.49900 24.23500
H  33.33300 47.47600 25.25700
H  33.81600 49.16900 25.77800
H  27.48400 49.98600 21.75400
H  26.03800 52.55700 22.02300
H  29.13700 52.43200 22.13300
H  27.92400 52.77900 20.91900
H  28.91700 51.35200 20.70700
H  24.17500 50.62200 22.64400
H  25.16800 49.91400 21.27000
H  24.21600 52.56500 20.63100
H  22.89500 51.77700 21.39200
H  23.64500 51.03700 19.92100
H  22.70200 54.57200 25.19200
H  21.57100 54.05800 26.45000
H  21.82800 52.99100 25.08300
H  23.44700 51.49200 30.76000
H  24.64700 54.37200 33.72400
H  22.99800 54.87600 33.69500
H  24.12900 55.67000 32.53500
Mg 10.76500 47.46900 25.58700
C  8.06400 48.04200 27.97800
C  12.91800 48.64700 27.95700
C  12.96200 47.30800 23.31300
C  8.15800 47.12500 23.02100
N  10.44600 48.27600 27.75300
C  9.34500 48.25800 28.51800
C  9.70900 48.34500 29.98600
C  11.14100 49.05400 29.87300
C  11.56900 48.62500 28.44500
C  11.06400 50.59200 29.95200
C  9.78700 46.97800 30.74100
C  10.17300 47.23800 32.24400
H  9.33600 46.44200 33.34400
N  12.70200 47.85600 25.66000
C  13.46300 48.29600 26.70700
C  14.80500 48.44000 26.27200
C  14.89100 48.06700 24.93200
C  13.50200 47.73200 24.54100
C  15.84200 49.02600 27.11400
C  16.01200 47.97600 23.99800
O  15.88900 47.86300 22.79100
C  17.37500 48.01200 24.48600
N  10.50800 47.31700 23.45800
C  11.64900 47.21600 22.81700
C  11.43000 46.60300 21.41400
C  9.93900 46.64500 21.19000
C  9.50400 46.90400 22.67000
C  12.31400 47.26100 20.31700
C  9.29100 45.36100 20.59700
C  9.07500 45.38500 19.05500
N  8.53000 47.50000 25.50900
C  7.66500 47.36700 24.37500
C  6.29600 47.45400 24.91300
C  6.41400 47.69900 26.28000
C  7.76800 47.78300 26.58700
C  5.14500 47.19300 24.08400
C  5.65900 47.87200 27.44000
O  4.48200 48.02000 27.58300
C  6.69300 48.10000 28.61300
C  6.41400 46.98900 29.58100
O  6.75000 45.75100 29.50000
O  5.52600 47.44800 30.51300
C  5.05300 46.59800 31.61200
H  13.66900 48.96900 28.68100
H  13.68800 46.76600 22.70300
H  7.32500 47.15300 22.31600
H  9.01500 49.04600 30.44800
H  11.83700 48.60200 30.57900
H  10.04300 50.94400 30.09900
H  11.38300 51.11600 29.05100
H  11.70100 50.93200 30.76800
H  10.56400 46.35300 30.30000
H  8.80000 46.51900 30.68200
H  10.30400 48.28200 32.52800
H  11.17200 46.83700 32.41900
H  16.63300 48.31800 27.36100
H  15.48700 49.34200 28.09500
H  16.16500 49.94300 26.62200
H  17.56000 47.33900 25.32400
H  17.73700 48.99900 24.77300
H  17.95900 47.69600 23.62200
H  11.73800 45.55800 21.45400
H  9.52200 47.57400 20.80300
H  12.68900 48.20200 20.72000
H  11.62900 47.43500 19.48700
H  13.07600 46.56200 19.97300
H  8.35000 45.16900 21.11300
H  9.95200 44.51200 20.77100
H  9.60600 46.22300 18.60300
H  7.99500 45.50900 18.98200
H  9.34100 44.41200 18.64200
H  5.03100 47.89500 23.25700
H  4.20000 47.25300 24.62200
H  5.26500 46.18600 23.68400
H  6.46500 49.07600 29.04200
H  5.11700 45.53100 31.39700
H  3.99400 46.81400 31.75700
H  5.55100 46.77000 32.56600

