158

Mg -0.19400 7.34700 26.26500
C  0.76700 9.31600 29.05900
C  -0.08600 4.63100 28.41600
C  -0.62500 5.53700 23.66100
C  0.31900 10.20700 24.23600
N  0.28200 6.97500 28.57500
C  0.53700 7.96500 29.47700
C  0.48300 7.39500 30.92300
C  0.53200 5.83200 30.68100
C  0.29500 5.78100 29.10500
C  1.92500 5.18100 31.20700
C  -0.72100 7.82300 31.85200
C  -0.36500 7.94600 33.36800
H  0.81600 7.25000 34.02900
N  -0.35500 5.38600 26.06800
C  -0.29900 4.38700 27.05900
C  -0.59200 3.11300 26.44300
C  -0.78300 3.36200 25.03000
C  -0.53400 4.81300 24.83600
C  -0.65600 1.84600 27.21100
C  -1.20300 2.40200 23.93700
O  -1.44100 2.71100 22.75900
C  -1.71400 0.96600 24.31300
N  0.07900 7.77900 24.21600
C  -0.29600 6.81000 23.31000
C  -0.31100 7.42600 21.82900
C  -0.04500 8.93800 22.04800
C  0.15500 9.00200 23.57800
C  0.71100 6.71500 20.89700
C  -1.17200 9.85300 21.48800
C  -2.36500 10.06600 22.37500
N  0.47100 9.38600 26.51200
C  0.51300 10.44000 25.60500
C  0.83500 11.66600 26.31100
C  1.00900 11.28800 27.66700
C  0.71500 9.88500 27.74500
C  1.00700 13.04500 25.68600
C  1.36100 11.73300 28.98700
O  1.75400 12.79900 29.37900
C  1.12600 10.45700 29.93600
C  2.39000 10.19600 30.61000
O  3.37500 9.63000 30.16600
O  2.30100 10.77200 31.81300
C  3.50100 10.65900 32.69900
H  -0.25000 3.75100 29.04300
H  -1.03000 4.96500 22.82400
H  0.38800 11.11400 23.63200
H  1.40400 7.70900 31.41500
H  -0.19700 5.31100 31.30200
H  2.31200 4.63400 30.34700
H  1.71200 4.48200 32.01600
H  2.61100 6.00600 31.39900
H  -1.52900 7.09200 31.89100
H  -1.15900 8.72700 31.42900
H  -1.21700 7.58300 33.94300
H  -0.29400 8.97900 33.71100
H  -1.22000 0.98600 26.85000
H  -1.09200 1.98100 28.20000
H  0.39200 1.55200 27.27000
H  -2.56700 0.97000 24.99100
H  -0.94200 0.37000 24.80100
H  -2.11300 0.47500 23.42600
H  -1.29700 7.25500 21.39800
H  0.88300 9.12100 21.50700
H  0.78100 5.64800 21.10900
H  1.69000 7.07100 21.21800
H  0.53900 6.93800 19.84400
H  -1.53500 9.35900 20.58700
H  -0.61200 10.75900 21.25700
H  -2.39000 11.11000 22.68700
H  -2.39100 9.43400 23.26200
H  -3.29900 9.91700 21.83300
H  0.11200 13.65400 25.55900
H  1.37700 12.81000 24.68900
H  1.69800 13.56300 26.35100
H  0.32200 10.72200 30.62300
H  4.41900 11.11200 32.32400
H  3.52900 9.63800 33.08000
H  3.39400 11.17800 33.65100
Mg 34.74800 2.97900 29.60200
C  32.72000 4.14000 32.23800
C  37.37200 2.69300 31.81700
C  36.80900 2.49500 27.02700
C  32.07400 3.73900 27.50800
N  35.02100 3.45200 31.73500
C  34.03400 3.74600 32.65700
C  34.53900 3.58300 34.12400
C  36.10800 3.43000 33.92900
C  36.19000 3.12200 32.40400
C  37.03600 4.61100 34.23200
C  33.77600 2.43400 34.79500
C  33.13200 2.77100 36.13400
H  33.86900 3.83600 37.15200
N  36.81300 2.60900 29.41400
C  37.71900 2.53600 30.43600
C  39.04000 2.22900 29.89100
C  38.94500 2.10500 28.49600
C  37.49000 2.34500 28.26800
C  40.30400 2.03100 30.81800
C  40.03400 1.94400 27.38400
O  39.79700 1.95000 26.21100
C  41.47600 1.84200 27.88900
N  34.47700 3.14600 27.50700
C  35.48400 2.87300 26.63500
C  35.06100 3.18100 25.16500
C  33.50200 3.53100 25.38900
C  33.27400 3.39300 26.89700
C  35.81000 4.36100 24.47100
C  32.57400 2.69200 24.48600
C  32.18600 1.18200 24.81100
N  32.76200 3.69400 29.75200
C  31.77600 3.89700 28.85300
C  30.62400 4.42000 29.40600
C  30.88200 4.54000 30.78900
C  32.21600 4.13300 30.92100
C  29.35100 4.70400 28.64400
C  30.34000 4.82000 32.11400
O  29.25800 5.21000 32.49900
C  31.53800 4.50100 33.10800
C  31.69800 5.80600 33.91100
O  32.05300 6.90900 33.47900
O  31.19900 5.52600 35.18200
C  31.27800 6.62600 36.12700
H  38.17900 2.70100 32.55300
H  37.52600 2.46400 26.20400
H  31.37100 4.09700 26.75400
H  34.37000 4.58600 34.51600
H  36.49700 2.49200 34.32600
H  37.58000 4.89900 33.33200
H  37.75200 4.15000 34.91300
H  36.51500 5.39300 34.78500
H  34.52500 1.71200 35.12100
H  33.06800 1.84300 34.21300
H  33.14600 1.79000 36.60900
H  32.15100 3.18100 35.89300
H  40.15200 2.15600 31.89000
H  41.12300 2.70600 30.57400
H  40.62500 1.01800 30.57200
H  41.64000 2.77000 28.43700
H  42.11500 1.75500 27.01000
H  41.60000 0.98600 28.55200
H  35.04400 2.20400 24.68300
H  33.36000 4.59500 25.19700
H  36.36400 4.91900 25.22600
H  35.11000 5.06200 24.01700
H  36.42400 3.90500 23.69400
H  33.15500 2.48900 23.58700
H  31.68800 3.25500 24.19100
H  31.09900 1.11500 24.77200
H  32.49000 0.96400 25.83500
H  32.68400 0.43100 24.19800
H  28.85200 3.79900 28.29900
H  29.47100 5.30300 27.74100
H  28.57000 5.24800 29.17500
H  31.44900 3.78800 33.92700
H  31.19700 6.29700 37.16300
H  30.45500 7.32600 35.98300
H  32.23700 7.14100 36.06600

