158

Mg 54.66500 24.66100 44.46500
C  51.89300 26.59600 44.00100
C  52.69500 21.73800 43.91800
C  57.42100 22.67600 44.21100
C  56.64500 27.44000 44.38900
N  52.47800 24.21600 43.92800
C  51.58500 25.18500 43.89300
C  50.21300 24.47100 43.79600
C  50.43600 22.96800 44.28900
C  51.93400 22.92700 43.99100
C  50.09400 22.71900 45.76100
C  49.32300 24.57400 42.58200
C  49.94000 24.01000 41.33300
H  49.45800 24.59500 39.98800
N  55.00100 22.59900 44.05100
C  54.03600 21.55700 43.85700
C  54.70000 20.30900 43.84600
C  56.04700 20.45700 44.05600
C  56.22200 21.94500 44.15000
C  53.78700 19.02900 43.65100
C  57.11300 19.42200 44.01000
O  56.76900 18.29500 43.59600
C  58.60700 19.60900 44.37000
N  56.77200 25.00000 44.39500
C  57.72600 24.04300 44.33100
C  59.11800 24.62100 44.21000
C  58.80300 26.17200 44.18800
C  57.30900 26.27400 44.42300
C  60.10700 24.19100 45.38200
C  59.34600 26.92700 42.93500
C  58.45500 26.75400 41.64800
N  54.40800 26.67600 44.29700
C  55.29500 27.75700 44.29000
C  54.53500 28.98500 44.32700
C  53.18300 28.58600 44.12200
C  53.21800 27.15800 44.11900
C  55.05600 30.33600 44.61400
C  51.88000 29.10900 44.02300
O  51.54300 30.24000 43.99900
C  50.99800 27.84600 43.86200
C  50.42300 28.02400 42.53500
O  51.02400 27.87600 41.48100
O  49.04100 28.16400 42.55600
C  48.27600 28.15500 41.28000
H  52.03700 20.86600 43.92300
H  58.28700 22.01600 44.12900
H  57.27800 28.31500 44.22600
H  49.67000 24.99600 44.58300
H  49.95500 22.25400 43.62000
H  50.96600 22.25600 46.22300
H  49.24300 22.03800 45.75800
H  49.78600 23.61000 46.30700
H  48.94700 25.57600 42.37400
H  48.42500 23.99000 42.77800
H  49.84400 22.92800 41.24400
H  51.00600 24.23900 41.34400
H  54.23700 18.06300 43.42200
H  52.97900 19.28600 42.96700
H  53.36700 18.99000 44.65600
H  59.19000 20.21100 43.67400
H  59.02200 18.60200 44.41200
H  58.70600 20.03600 45.36800
H  59.48100 24.41500 43.20300
H  59.22200 26.73300 45.02300
H  60.89300 23.54800 44.98500
H  59.57500 23.44200 45.96800
H  60.55100 25.06600 45.85700
H  60.37000 26.59700 42.76000
H  59.40300 28.00500 43.08200
H  57.98200 27.71000 41.42200
H  57.67800 25.99000 41.67000
H  59.14900 26.46400 40.85900
H  54.85100 30.94500 43.73300
H  56.13500 30.26900 44.75800
H  54.53900 30.74800 45.48000
H  50.20500 27.84900 44.61000
H  48.10300 29.15700 40.88800
H  47.34600 27.65200 41.54600
H  48.78100 27.57100 40.51000
Mg 46.42400 16.89200 28.10700
C  44.26700 16.67100 31.08600
C  48.56400 18.76400 29.97800
C  48.37300 16.96900 25.38200
C  43.95200 15.30000 26.29600
N  46.25700 17.83100 30.26400
C  45.44700 17.46800 31.31000
C  46.02200 17.94400 32.69100
C  47.33000 18.71400 32.17300
C  47.38300 18.46300 30.68100
C  47.28600 20.27600 32.50900
C  46.38400 16.69500 33.52700
C  47.49000 16.88800 34.65500
H  47.59800 18.33500 35.24900
N  48.15900 17.79400 27.74900
C  48.98300 18.49100 28.64400
C  50.22600 18.78600 28.05800
C  50.07200 18.50700 26.65800
C  48.81500 17.70400 26.54900
C  51.41900 19.34200 28.77600
C  51.03800 18.82200 25.43600
O  50.75500 18.66000 24.24700
C  52.41000 19.43200 25.75500
N  46.11600 16.32800 26.04500
C  47.14600 16.31100 25.19700
C  46.78000 15.71000 23.81100
C  45.35100 15.07100 24.11600
C  45.13000 15.60300 25.58900
C  46.69900 16.78800 22.63500
C  45.27700 13.53600 24.06100
C  44.26800 12.90000 22.96000
N  44.51400 16.16900 28.50300
C  43.65100 15.52300 27.67600
C  42.47600 15.03100 28.40800
C  42.75400 15.48800 29.79400
C  43.93200 16.21900 29.77600
C  41.38300 14.16900 27.87100
C  42.16900 15.55000 31.09400
O  41.06900 15.14800 31.46700
C  43.17400 16.21200 31.98900
C  42.48500 17.22400 32.75700
O  42.05200 18.29400 32.36200
O  42.48900 16.77200 34.03100
C  42.10100 17.64600 35.11600
H  49.29700 19.22400 30.64400
H  48.93900 17.22900 24.48500
H  43.21000 14.70200 25.76400
H  45.31800 18.60600 33.19500
H  48.31800 18.44600 32.54800
H  48.10500 20.58200 33.16000
H  46.41300 20.63900 33.05200
H  47.35900 20.85700 31.59000
H  46.63800 15.91000 32.81500
H  45.49000 16.32200 34.02800
H  48.46400 16.52600 34.32800
H  47.16700 16.33500 35.53700
H  52.20400 18.72000 28.34600
H  51.47900 19.17700 29.85200
H  51.46700 20.41800 28.61000
H  52.82600 19.75000 24.79900
H  52.94900 18.62600 26.25300
H  52.29400 20.30100 26.40200
H  47.45000 14.92700 23.45700
H  44.55900 15.49900 23.50200
H  47.66400 16.83700 22.13200
H  46.48700 17.77600 23.04400
H  45.91300 16.66500 21.89000
H  45.06000 13.09800 25.03500
H  46.27000 13.15100 23.82900
H  43.70100 13.75600 22.59600
H  43.67300 12.16500 23.50200
H  44.85800 12.44300 22.16600
H  41.50800 13.92500 26.81600
H  40.47900 14.77700 27.91400
H  41.25800 13.42000 28.65200
H  43.39400 15.34600 32.61400
H  41.15100 18.07100 34.79200
H  42.81900 18.45700 35.24100
H  42.10400 17.13900 36.08100

