158

Mg 49.14000 35.98500 27.83700
C  47.10100 34.25700 30.12000
C  49.58100 38.46200 30.39800
C  50.72300 37.96600 25.58800
C  48.49800 33.58600 25.48300
N  48.41900 36.31100 29.94200
C  47.79600 35.35200 30.70100
C  47.82700 35.68300 32.18800
C  48.23400 37.20100 32.22900
C  48.66400 37.44300 30.72100
C  47.06200 38.05600 32.74900
C  48.71800 34.71100 32.93100
C  48.57400 34.49600 34.45400
H  47.79300 35.57900 35.30100
N  50.06000 37.88300 28.00100
C  50.18100 38.72600 29.12000
C  50.96900 39.80100 28.77000
C  51.42700 39.64500 27.45200
C  50.67900 38.42200 26.96100
C  51.19000 40.99400 29.71100
C  52.21000 40.62500 26.56700
O  52.42300 40.24800 25.42200
C  52.66500 42.02500 26.96900
N  49.43300 35.88100 25.73100
C  50.15400 36.76900 25.03600
C  50.31400 36.30100 23.54400
C  49.80800 34.79300 23.56900
C  49.19900 34.70300 24.99100
C  49.58000 37.12900 22.51900
C  50.83500 33.73500 23.24400
C  50.53100 32.81900 22.03400
N  47.99700 34.26300 27.70100
C  47.76500 33.33300 26.62600
C  46.91200 32.19100 27.09300
C  46.58200 32.62600 28.41400
C  47.28400 33.84800 28.73600
C  46.61100 30.91100 26.36700
C  45.76300 32.34300 29.58100
O  45.03700 31.37500 29.76000
C  45.98900 33.36400 30.65300
C  46.15500 32.70300 32.00000
O  46.96000 31.82600 32.30600
O  45.28300 33.21600 32.86400
C  44.98800 32.43900 34.09100
H  49.87200 39.06500 31.26000
H  51.25400 38.42500 24.75100
H  48.53700 32.81900 24.70700
H  46.86200 35.52900 32.66900
H  49.07900 37.36800 32.89800
H  47.36900 38.50900 33.69100
H  46.22700 37.41100 33.02500
H  46.82900 38.81400 32.00100
H  49.76200 35.02300 32.90200
H  48.66200 33.74400 32.43000
H  49.57700 34.43800 34.87700
H  47.98400 33.64100 34.78500
H  52.19600 41.38700 29.56200
H  51.07000 40.84300 30.78400
H  50.47900 41.75500 29.38700
H  51.79400 42.56800 27.33800
H  52.77600 42.46200 25.97700
H  53.60100 42.15400 27.51200
H  51.36400 36.32000 23.25200
H  48.97000 34.70300 22.87800
H  49.40000 38.14500 22.87000
H  48.65500 36.64300 22.20700
H  50.16100 37.24500 21.60400
H  51.02800 33.06000 24.07900
H  51.85000 34.08300 23.05100
H  49.73100 33.20400 21.40200
H  50.33100 31.77300 22.27000
H  51.47600 32.85000 21.49300
H  47.30900 30.13100 26.67300
H  46.67800 31.00800 25.28300
H  45.62400 30.52200 26.61700
H  45.10400 33.99900 30.69400
H  44.22000 31.68500 33.91400
H  44.62400 33.01600 34.94000
H  45.88600 31.92600 34.43400
Mg 30.71700 58.00800 39.94500
C  27.79300 56.14800 39.03300
C  32.55500 55.24400 39.09600
C  33.39400 59.89100 40.18100
C  28.53000 60.80500 40.39200
N  30.17200 55.99200 38.99400
C  28.95900 55.37300 38.88800
C  29.13100 53.97000 38.22200
C  30.54100 53.67900 38.87300
C  31.14000 55.10000 38.99900
C  30.37500 52.89400 40.19900
C  29.06200 54.02400 36.63700
C  27.91800 53.24200 35.87100
H  27.03000 54.10300 34.93100
N  32.66400 57.61700 39.74000
C  33.25500 56.45500 39.36700
C  34.71400 56.58700 39.39300
C  35.01100 57.98300 39.60700
C  33.65100 58.54900 39.89900
C  35.64200 55.49800 38.90600
C  36.38300 58.71100 39.56100
O  37.33400 58.09600 39.13300
C  36.61600 60.14500 39.94100
N  30.93200 60.13800 40.07200
C  32.19000 60.62900 40.38200
C  32.08200 62.09900 40.77800
C  30.49600 62.31200 40.77300
C  29.90700 61.00800 40.41600
C  32.77500 62.29600 42.16300
C  30.05500 63.48900 39.82000
C  29.51500 64.71100 40.55500
N  28.58100 58.49000 39.85800
C  27.86500 59.62500 40.03200
C  26.46900 59.39300 39.78900
C  26.35500 57.97600 39.45100
C  27.65500 57.51900 39.43300
C  25.39000 60.34700 39.89800
C  25.43700 56.85200 39.23800
O  24.24000 56.71300 39.34900
C  26.36400 55.60800 38.88400
C  26.05100 54.52000 39.72400
O  26.32400 54.44600 40.89900
O  25.31400 53.56000 38.98700
C  24.79500 52.37200 39.77600
H  33.16700 54.34900 38.96600
H  34.21700 60.55600 40.45400
H  27.82800 61.61500 40.60100
H  28.35000 53.39200 38.71600
H  31.16200 53.02700 38.26000
H  29.48700 52.27000 40.29200
H  30.56200 53.48900 41.09300
H  31.27700 52.28200 40.19300
H  30.05200 53.71000 36.30500
H  28.95300 55.08400 36.40900
H  27.18200 52.93600 36.61500
H  28.42100 52.45300 35.31200
H  35.06500 54.83600 38.26000
H  36.19100 54.90100 39.63300
H  36.41900 56.03000 38.35700
H  36.27400 60.80100 39.14100
H  37.69800 60.27900 39.94500
H  36.22900 60.33700 40.94200
H  32.63200 62.58400 39.97100
H  30.14700 62.33400 41.80600
H  32.10800 62.63000 42.95800
H  33.50500 63.03700 41.83900
H  33.26500 61.36400 42.44700
H  29.22600 63.18900 39.17900
H  30.95400 63.83600 39.31100
H  28.44900 64.65300 40.77400
H  29.71800 65.55300 39.89300
H  29.98600 64.82500 41.53100
H  24.58100 59.71200 40.25700
H  25.16500 60.76600 38.91700
H  25.77700 61.01000 40.67200
H  26.21700 55.32500 37.84200
H  23.73900 52.64100 39.80400
H  25.24400 52.32400 40.76800
H  24.94000 51.45800 39.20000

