158

Mg 26.26800 0.68400 28.89800
C  28.09000 0.61300 31.96100
C  23.46300 1.14300 30.72500
C  24.64500 1.09400 26.00200
C  29.21500 -0.16200 27.24900
N  25.85800 0.71400 31.15000
C  26.78300 0.91200 32.14200
C  26.04000 1.22700 33.46700
C  24.51800 1.38400 33.02500
C  24.62200 1.08900 31.51700
C  23.56200 0.49900 33.84600
C  26.65500 2.57500 34.03700
C  27.32000 2.47500 35.41500
H  26.87500 3.38500 36.50500
N  24.26200 0.97100 28.39800
C  23.20900 1.04400 29.32200
C  21.93700 1.18900 28.60200
C  22.34600 1.38800 27.21000
C  23.83700 1.21200 27.09800
C  20.66000 1.20500 29.31400
C  21.47300 1.68800 25.98500
O  21.94100 1.78300 24.84400
C  19.99200 1.79700 26.13000
N  26.86000 0.46200 26.92400
C  25.99400 0.76600 25.85000
C  26.69300 0.45500 24.44500
C  28.16500 0.11000 24.89100
C  28.12200 0.11200 26.44500
C  25.99300 -0.57900 23.63000
C  29.37200 0.89000 24.23500
C  29.78600 2.17300 24.98500
N  28.24900 0.22600 29.43500
C  29.31700 -0.03200 28.65100
C  30.50300 -0.30000 29.41900
C  30.05000 -0.01100 30.71900
C  28.67400 0.27400 30.71600
C  31.81600 -0.65400 28.84000
C  30.50800 0.25500 32.14000
O  31.62300 0.24500 32.55000
C  29.26000 0.62600 32.97300
C  29.09800 -0.52000 33.99900
O  28.92400 -1.68500 33.72200
O  29.20300 -0.09200 35.30600
C  29.01700 -1.11200 36.38300
H  22.47100 1.24900 31.16800
H  24.14000 1.19800 25.03900
H  30.11000 -0.48500 26.71400
H  26.12600 0.28100 34.00000
H  24.17000 2.40500 33.18000
H  23.32000 -0.43000 33.33100
H  22.64100 1.06400 33.98800
H  23.92600 0.16600 34.81800
H  25.81700 3.26900 34.09800
H  27.30500 2.96700 33.25500
H  28.39000 2.58600 35.24200
H  27.15700 1.45200 35.75300
H  20.38700 2.16900 29.74400
H  20.69000 0.42200 30.07100
H  19.82800 1.00000 28.63900
H  19.65800 2.52000 26.87500
H  19.63300 0.81300 26.43000
H  19.42500 2.07400 25.24200
H  26.65600 1.38900 23.88400
H  28.27900 -0.95600 24.69600
H  26.58200 -1.47600 23.43800
H  25.64400 -0.16500 22.68400
H  25.08600 -0.84100 24.17600
H  29.06400 1.10100 23.21200
H  30.16900 0.17900 24.45300
H  30.08200 2.84200 24.17700
H  30.71400 2.02300 25.53700
H  28.96000 2.52800 25.60200
H  31.82300 -1.47000 28.11700
H  32.44500 -1.05500 29.63500
H  32.29800 0.22900 28.42200
H  29.38500 1.60300 33.43900
H  29.66300 -0.84100 37.21900
H  29.09200 -2.13900 36.02500
H  27.99200 -1.06200 36.75000
Mg -9.99800 17.61900 41.42200
C  -6.56300 16.91500 41.55700
C  -9.03500 20.85200 40.57200
C  -13.10500 18.17900 40.53200
C  -10.69300 14.26600 41.67600
N  -8.01400 18.72100 40.96000
C  -6.75900 18.23800 41.14100
C  -5.72900 19.23200 40.74500
C  -6.49300 20.59200 40.79200
C  -7.94400 20.04400 40.86300
C  -6.21800 21.49900 42.07200
C  -5.19500 18.89600 39.32000
C  -3.71200 18.57700 39.13400
H  -3.38300 17.28900 38.36700
N  -10.96200 19.35600 40.76300
C  -10.44300 20.56200 40.54900
C  -11.46700 21.53500 40.18600
C  -12.66200 20.75700 40.20400
C  -12.31300 19.37000 40.50100
C  -11.13700 23.03000 39.93100
C  -14.04600 21.37700 39.91900
O  -14.18000 22.62200 39.83100
C  -15.38700 20.65300 39.67300
N  -11.69000 16.33200 41.06600
C  -12.93500 16.80300 40.85000
C  -13.98500 15.73000 40.77700
C  -13.16300 14.40800 41.06100
C  -11.79800 15.03800 41.32400
C  -15.26700 15.87800 41.67900
C  -13.13000 13.41400 39.89300
C  -12.11400 13.69000 38.71600
N  -8.83100 15.88000 41.75000
C  -9.30300 14.58700 41.79500
C  -8.15900 13.71300 41.77800
C  -7.02500 14.54500 41.80200
C  -7.52600 15.87200 41.81100
C  -8.16600 12.18100 41.74700
C  -5.53700 14.68300 41.70800
O  -4.67600 13.79500 41.67400
C  -5.22000 16.19300 41.69500
C  -4.38100 16.63000 42.84800
O  -3.34500 17.34100 42.75800
O  -4.72300 15.89900 44.02800
C  -3.96800 16.12100 45.20900
H  -8.79200 21.89000 40.33600
H  -14.12700 18.38800 40.20700
H  -10.86100 13.20600 41.88000
H  -4.88900 19.18600 41.43800
H  -6.37600 21.10800 39.83900
H  -6.98300 21.32200 42.82900
H  -6.23400 22.53700 41.74000
H  -5.24300 21.33100 42.53000
H  -5.38200 19.68300 38.59000
H  -5.80100 18.07200 38.94400
H  -3.30100 18.57300 40.14400
H  -3.27800 19.44300 38.63500
H  -10.38000 22.97900 39.14800
H  -10.79000 23.48500 40.85900
H  -11.98800 23.58200 39.53300
H  -15.72000 19.92400 40.41300
H  -15.34500 20.19800 38.68400
H  -16.15000 21.43000 39.65000
H  -14.29500 15.55200 39.74700
H  -13.42400 14.01700 42.04400
H  -16.19400 15.77700 41.11600
H  -15.27800 16.83600 42.20100
H  -15.15300 15.11900 42.45300
H  -14.09500 13.37800 39.38700
H  -12.95900 12.42200 40.31000
H  -11.75200 14.71700 38.74500
H  -12.55000 13.57700 37.72300
H  -11.26300 13.00900 38.74300
H  -9.12000 11.95000 42.22200
H  -7.42300 11.70900 42.39000
H  -8.20600 11.76900 40.73900
H  -4.57100 16.26500 40.82200
H  -3.23900 16.92900 45.14300
H  -3.49600 15.22200 45.60600
H  -4.77400 16.31500 45.91700

