158

Mg 16.52400 51.98200 26.43400
C  18.30600 50.61300 29.17100
C  14.15100 52.99500 28.56400
C  15.00600 53.10300 23.80800
C  18.91200 50.39400 24.27100
N  16.23500 51.72000 28.62000
C  17.09000 51.20600 29.61100
C  16.45000 51.36000 30.95200
C  15.16700 52.13700 30.70700
C  15.13300 52.23400 29.17700
C  13.92900 51.62000 31.44400
C  17.47700 52.02800 31.95600
C  16.77600 52.54900 33.20600
H  16.09200 51.50500 34.04100
N  14.81000 53.00600 26.18700
C  13.97900 53.34900 27.22200
C  12.81400 53.98000 26.61000
C  13.10900 54.10500 25.22200
C  14.41200 53.44400 25.04900
C  11.60200 54.52200 27.38400
C  12.24300 54.58000 24.11200
O  12.59500 54.68000 22.93100
C  10.82900 54.89600 24.43100
N  16.92100 51.72500 24.37200
C  16.15500 52.34300 23.54100
C  16.60200 52.24800 22.05500
C  17.95600 51.48200 22.17900
C  17.94000 51.14100 23.65200
C  15.63700 51.38500 21.15800
C  19.19300 52.26700 21.78400
C  20.15700 51.39300 20.95700
N  18.21600 50.60200 26.62400
C  19.06000 50.13300 25.68400
C  20.12400 49.32500 26.32600
C  19.92400 49.59500 27.71400
C  18.67500 50.31600 27.80800
C  21.10200 48.51800 25.51700
C  20.37800 49.30100 29.04100
O  21.45300 48.74600 29.40000
C  19.36200 49.90500 30.00600
C  18.80100 48.85200 30.90600
O  17.97600 47.95500 30.69200
O  19.33600 49.02800 32.16200
C  18.93900 47.97100 33.19800
H  13.43700 53.41700 29.27600
H  14.54900 53.53500 22.91500
H  19.69300 49.88300 23.70300
H  16.28700 50.35600 31.34600
H  15.28500 53.14600 31.10400
H  13.25500 51.18700 30.70500
H  13.49400 52.51900 31.88100
H  14.29000 50.83600 32.10800
H  18.05000 52.86000 31.54600
H  18.18700 51.27200 32.29200
H  16.20300 53.47300 33.13100
H  17.65300 52.89000 33.75800
H  12.00700 54.48600 28.39500
H  10.71000 53.90500 27.27000
H  11.36100 55.56300 27.17000
H  10.39600 54.09000 25.02400
H  10.22800 54.99400 23.52800
H  11.01400 55.86200 24.90200
H  16.77100 53.19800 21.54700
H  17.85700 50.52000 21.67600
H  14.77000 51.99100 20.89300
H  15.31800 50.45100 21.62200
H  16.06600 51.15600 20.18300
H  19.64100 52.48400 22.75300
H  19.05300 53.16000 21.17300
H  19.73400 50.41800 20.71800
H  21.13500 51.29500 21.42900
H  20.23600 51.96800 20.03400
H  21.52600 47.76500 26.18200
H  21.89400 49.19400 25.19500
H  20.56600 48.01400 24.71300
H  19.99100 50.56700 30.60200
H  17.86700 48.08600 33.35300
H  19.42700 48.17200 34.15200
H  19.19000 46.97100 32.84500
Mg -6.43900 26.04700 25.68700
C  -4.80700 27.33000 28.44600
C  -8.00600 23.80600 27.84300
C  -7.19100 24.08800 23.00300
C  -4.54900 28.18800 23.55600
N  -6.24400 25.48100 27.87100
C  -5.58700 26.28800 28.76600
C  -6.12800 25.91800 30.21500
C  -6.91800 24.64200 29.94700
C  -7.11500 24.64400 28.47900
C  -6.41000 23.30900 30.59000
C  -6.99100 27.00100 30.95900
C  -7.08300 27.07800 32.52900
H  -6.34400 26.07300 33.43200
N  -7.62700 24.30900 25.35400
C  -8.23100 23.61100 26.38600
C  -9.01600 22.57800 25.84900
C  -8.73400 22.56200 24.42800
C  -7.81000 23.68300 24.16500
C  -9.89900 21.72700 26.70300
C  -9.16300 21.53500 23.35700
O  -8.66900 21.54600 22.22200
C  -10.20300 20.57400 23.68500
N  -5.83500 26.03800 23.62100
C  -6.32500 25.15200 22.72600
C  -6.07900 25.64200 21.27800
C  -5.33000 27.03200 21.40300
C  -5.25000 27.13300 22.96500
C  -5.30800 24.64800 20.41500
C  -6.06100 28.31600 20.70000
C  -7.00200 29.16100 21.59000
N  -5.05400 27.57900 25.94800
C  -4.38600 28.37600 24.97800
C  -3.48200 29.22700 25.68100
C  -3.58200 28.87300 27.03300
C  -4.54300 27.83600 27.12900
C  -2.61700 30.30800 25.14300
C  -3.09400 29.13200 28.41700
O  -2.33300 30.05600 28.82500
C  -3.92700 28.18500 29.35700
C  -2.92700 27.46500 30.24800
O  -2.44900 26.37800 29.99000
O  -2.85900 28.16900 31.34500
C  -2.49300 27.35000 32.51400
H  -8.48800 23.08500 28.50800
H  -7.54000 23.59400 22.09400
H  -4.05500 28.89100 22.88100
H  -5.29800 25.68700 30.88200
H  -7.87400 24.65100 30.47100
H  -6.34400 22.59900 29.76600
H  -7.10500 23.02900 31.38200
H  -5.43300 23.53000 31.02000
H  -8.04000 26.87300 30.69400
H  -6.83400 27.96700 30.47800
H  -8.12200 26.87500 32.79200
H  -6.94100 28.08300 32.92800
H  -9.58200 20.68600 26.63600
H  -10.93000 21.92300 26.40800
H  -10.04200 21.98700 27.75100
H  -10.55000 19.90800 22.89600
H  -11.10600 21.05100 24.06700
H  -9.73800 19.81000 24.30900
H  -7.09100 25.82100 20.91300
H  -4.34000 26.94400 20.95500
H  -5.79000 24.68500 19.43800
H  -5.46500 23.67300 20.87600
H  -4.22800 24.78500 20.47000
H  -6.69000 27.94000 19.89200
H  -5.32000 28.97500 20.24800
H  -6.58900 30.16600 21.67500
H  -7.28700 28.69100 22.53100
H  -7.93400 29.24200 21.03100
H  -1.64400 30.45000 25.61400
H  -3.18200 31.23500 25.23900
H  -2.53700 30.25600 24.05700
H  -4.59000 28.87300 29.88100
H  -2.79400 27.86600 33.42600
H  -1.40300 27.36700 32.53800
H  -3.00700 26.38800 32.50500

