158

Mg 40.96600 8.58100 29.90400
C  42.97100 9.81000 32.34300
C  38.74800 7.45100 32.21000
C  38.96100 7.69300 27.45100
C  43.43900 9.31300 27.55800
N  40.79200 8.70900 32.05300
C  41.74300 9.28200 32.91100
C  41.30300 9.20800 34.42600
C  40.06100 8.27800 34.25300
C  39.86300 8.05200 32.74800
C  40.28500 6.91800 34.92000
C  41.02000 10.68400 35.04900
C  41.60600 10.81400 36.52200
H  41.13800 11.89600 37.46800
N  39.16500 7.54600 29.78100
C  38.48300 7.10300 30.88700
C  37.27600 6.40900 30.42100
C  37.23000 6.63100 28.99800
C  38.54400 7.23900 28.68900
C  36.29500 5.73900 31.35000
C  36.14700 6.32900 28.02100
O  36.16600 6.60500 26.85700
C  34.96900 5.62700 28.56400
N  41.20700 8.29100 27.74100
C  40.14300 8.12500 26.97400
C  40.41800 8.43400 25.49400
C  41.92700 8.89400 25.48900
C  42.19300 8.88900 27.01500
C  40.09500 7.25900 24.38600
C  42.16000 10.24200 24.76200
C  41.63500 11.52100 25.67300
N  42.91100 9.30000 29.93700
C  43.76200 9.49100 28.90000
C  45.09300 9.94100 29.42900
C  44.74100 10.16400 30.81300
C  43.41400 9.78300 31.01000
C  46.30500 10.45900 28.74900
C  45.31500 10.57800 32.10900
O  46.42200 10.90700 32.45500
C  44.14600 10.45300 33.14700
C  44.53400 9.55000 34.28800
O  44.86300 8.38400 34.21200
O  44.85300 10.30900 35.41300
C  45.82300 9.81200 36.39300
H  38.04900 7.09600 32.97000
H  38.35500 7.61800 26.54600
H  44.20700 9.57400 26.82700
H  42.09800 8.69000 34.96300
H  39.25800 8.83400 34.73500
H  41.32600 6.60800 35.01100
H  39.72300 6.11300 34.44600
H  39.93100 7.03900 35.94400
H  39.94700 10.85600 35.13900
H  41.48800 11.45500 34.43700
H  42.68500 10.92100 36.63500
H  41.46600 9.82900 36.96800
H  35.74200 4.90300 30.92000
H  35.58400 6.48100 31.71400
H  36.75000 5.39400 32.27800
H  34.57800 6.24700 29.37100
H  35.23900 4.60600 28.83100
H  34.26400 5.39300 27.76700
H  39.77700 9.31000 25.39200
H  42.59900 8.13100 25.09700
H  40.98400 6.70100 24.09300
H  39.65800 7.77100 23.52900
H  39.28500 6.62600 24.74900
H  41.51800 10.23300 23.88100
H  43.23400 10.36700 24.61900
H  41.97600 11.68900 26.69500
H  40.54900 11.42600 25.66800
H  41.88600 12.38700 25.06100
H  46.55300 9.71800 27.99000
H  47.14200 10.53600 29.44400
H  46.08800 11.45100 28.35200
H  43.97700 11.43800 33.58100
H  45.42100 9.01100 37.01300
H  46.24100 10.61400 37.00100
H  46.65200 9.50000 35.75800
Mg 30.21400 58.95200 39.60500
C  27.76200 56.53000 39.16700
C  32.54200 56.61800 38.64500
C  32.53900 61.39300 39.59000
C  27.71800 61.27400 40.24300
N  30.09200 56.80100 39.01000
C  28.98500 56.00600 38.86500
C  29.29600 54.71700 38.34200
C  30.90400 54.66300 38.39300
C  31.19300 56.11700 38.74000
C  31.51000 53.71100 39.37300
C  28.75500 54.78500 36.86500
C  27.93500 53.54800 36.55100
H  27.41500 53.48100 35.09800
N  32.30400 58.95200 39.27100
C  33.07300 57.91400 38.89500
C  34.45000 58.27100 38.64800
C  34.46300 59.70700 38.76300
C  33.11700 60.06800 39.29500
C  35.51500 57.20900 38.29400
C  35.63700 60.50300 38.41800
O  36.68000 59.98800 37.91900
C  35.63300 61.97300 38.69400
N  30.14800 60.94700 39.88300
C  31.25600 61.73800 39.90200
C  30.88900 63.22900 40.10900
C  29.39300 63.17600 40.38800
C  29.05800 61.68500 40.07600
C  31.58200 63.96700 41.26400
C  28.58300 64.26000 39.51700
C  27.94900 65.37000 40.34100
N  28.11400 58.98600 39.79500
C  27.26600 59.96900 40.08800
C  25.94100 59.44300 40.29700
C  26.08300 58.09300 39.85400
C  27.41800 57.87500 39.55300
C  24.74000 60.26200 40.61900
C  25.34200 56.88200 39.49700
O  24.19300 56.60400 39.51300
C  26.43700 55.82300 39.14100
C  26.51000 54.84500 40.25700
O  26.81100 55.13500 41.38800
O  25.99500 53.66600 39.82400
C  26.07100 52.63700 40.87200
H  33.15300 55.89200 38.10400
H  33.36500 62.10400 39.65200
H  26.97000 62.04400 40.44100
H  28.88400 53.90100 38.93600
H  31.37600 54.48900 37.42600
H  30.79900 52.88400 39.36500
H  31.69600 54.15100 40.35200
H  32.45900 53.45600 38.90200
H  29.59500 54.67000 36.17900
H  28.15200 55.65200 36.59600
H  27.00300 53.41300 37.09900
H  28.52900 52.64600 36.70000
H  35.27600 56.23200 38.71300
H  36.54700 57.38500 38.59900
H  35.39400 57.04100 37.22400
H  34.83000 62.43600 38.12100
H  36.56600 62.47500 38.43600
H  35.50400 62.22500 39.74700
H  31.12700 63.67500 39.14300
H  29.16200 63.25500 41.45000
H  31.78700 63.29300 42.09600
H  31.09900 64.88100 41.60900
H  32.58800 64.31000 41.02100
H  27.84700 63.72300 38.91800
H  29.20600 64.80100 38.80400
H  28.12300 65.19300 41.40200
H  26.87900 65.39900 40.13400
H  28.29900 66.31100 39.91400
H  24.68200 61.09600 39.91900
H  24.70400 60.71700 41.60900
H  23.91400 59.57300 40.44800
H  26.17600 55.41100 38.16600
H  25.16200 52.80200 41.45000
H  26.97400 52.71500 41.47800
H  26.05700 51.61900 40.48300

