158

Mg 40.67800 8.40100 29.07200
C  42.55600 9.55300 31.76100
C  38.61500 6.84500 31.28300
C  38.96200 7.19900 26.46400
C  42.97800 9.66400 26.89500
N  40.57900 8.29800 31.26800
C  41.31700 9.02900 32.10400
C  40.66800 9.08000 33.52300
C  39.43100 8.06700 33.36800
C  39.53500 7.64500 31.92100
C  39.40900 6.90600 34.40500
C  40.33300 10.56600 34.03200
C  39.32800 10.72300 35.20300
H  40.07500 10.93800 36.49900
N  39.01900 7.18600 28.89500
C  38.33900 6.63500 29.91200
C  37.14900 6.02300 29.41100
C  37.27100 6.12700 27.95700
C  38.42700 6.91100 27.72600
C  35.94600 5.29100 30.17600
C  36.33000 5.55000 26.85000
O  36.56400 5.62600 25.65300
C  35.01100 4.93000 27.26500
N  41.03300 8.38300 26.94900
C  40.08500 7.91300 26.10500
C  40.33900 8.32000 24.68900
C  41.67200 9.16900 24.80700
C  41.85100 9.21700 26.33600
C  40.21500 7.24900 23.60300
C  41.66900 10.51100 23.99700
C  40.48800 11.47600 24.11700
N  42.57300 9.28700 29.24100
C  43.37400 9.73500 28.28400
C  44.60700 10.24700 28.92500
C  44.29000 10.24200 30.31600
C  43.04800 9.64300 30.43100
C  45.80800 10.82600 28.14700
C  44.69500 10.72300 31.61200
O  45.67000 11.39200 32.00700
C  43.56300 10.34700 32.66000
C  44.11100 9.56300 33.87900
O  44.93300 8.64400 33.74700
O  43.61200 10.07900 35.06700
C  44.12200 9.40500 36.26600
H  37.91400 6.32700 31.94000
H  38.37100 7.11400 25.55000
H  43.68500 10.16800 26.23400
H  41.40200 8.60200 34.17200
H  38.47300 8.58800 33.37600
H  38.41000 6.85400 34.83700
H  40.09200 7.08600 35.23600
H  39.64300 5.95700 33.92200
H  39.94800 11.13800 33.18800
H  41.30800 10.99600 34.26200
H  38.63900 9.88300 35.29000
H  38.76900 11.64100 35.02100
H  35.03500 5.77900 29.82900
H  36.08200 5.56500 31.22200
H  35.87400 4.21400 30.02700
H  34.62100 4.50000 26.34200
H  34.30700 5.63100 27.71200
H  35.09600 4.02800 27.87100
H  39.56700 9.09000 24.67900
H  42.50600 8.50900 24.56900
H  39.96100 6.28900 24.05300
H  41.22100 7.11200 23.20700
H  39.56800 7.51400 22.76600
H  41.83600 10.13400 22.98800
H  42.54700 11.04400 24.36200
H  40.00700 11.73300 23.17300
H  40.92700 12.40400 24.48400
H  39.70300 11.12000 24.78400
H  45.77100 10.48300 27.11300
H  46.58400 10.33900 28.73700
H  45.89900 11.91200 28.16500
H  43.14700 11.27400 33.05500
H  45.21000 9.33400 36.29600
H  43.66800 8.46600 36.58300
H  43.85900 10.20700 36.95700
Mg 30.08600 58.91100 40.13100
C  27.45000 57.00700 39.11300
C  32.29700 56.44100 38.89200
C  32.89400 61.10200 40.23800
C  27.99500 61.57700 40.93900
N  29.89400 56.97600 39.00200
C  28.66000 56.37500 38.77300
C  28.88100 55.08600 37.98300
C  30.37200 54.76900 38.39800
C  30.93100 56.19000 38.66000
C  30.51500 53.88100 39.67800
C  28.67900 55.38100 36.47900
C  27.55200 54.56800 35.84000
H  26.89300 55.16300 34.62300
N  32.28500 58.75900 39.76700
C  32.90400 57.60600 39.27700
C  34.27000 57.80200 39.28100
C  34.56600 59.13400 39.65000
C  33.22800 59.75800 39.91500
C  35.27200 56.78100 38.87000
C  35.99900 59.67500 39.83800
O  36.96800 59.05000 39.61400
C  36.11900 61.05100 40.50800
N  30.41500 61.09300 40.37000
C  31.65300 61.69100 40.50500
C  31.50600 63.21500 41.04900
C  29.90200 63.27200 41.25800
C  29.39600 61.87000 40.84900
C  32.34500 63.58600 42.33400
C  29.12200 64.42700 40.41300
C  28.27000 65.43800 41.27500
N  28.12300 59.28400 40.12700
C  27.34000 60.38500 40.50600
C  25.95500 60.10800 40.35600
C  25.93000 58.76000 39.81900
C  27.23300 58.29900 39.66900
C  24.81200 61.05100 40.60800
C  25.07900 57.66500 39.39500
O  23.86100 57.64800 39.38800
C  25.99300 56.49700 38.94500
C  25.75500 55.43700 39.86300
O  26.21300 55.35100 40.97200
O  24.99000 54.59600 39.17800
C  24.26300 53.43800 39.86700
H  32.83700 55.52800 38.63400
H  33.79700 61.71500 40.20200
H  27.25900 62.32800 41.23400
H  28.20100 54.28700 38.27600
H  30.92800 54.28800 37.59200
H  31.01100 54.47300 40.44600
H  31.14000 52.98800 39.64900
H  29.48400 53.64900 39.94700
H  29.60400 55.11500 35.96600
H  28.48200 56.43600 36.29000
H  26.82100 54.33700 36.61600
H  28.05500 53.71200 35.38900
H  35.68100 57.11200 37.91500
H  34.87400 55.83900 38.49400
H  36.07500 56.77800 39.60600
H  35.55600 61.33200 41.39800
H  35.78000 61.86600 39.86800
H  37.18300 61.11700 40.73400
H  31.80400 63.99300 40.34500
H  29.57800 63.37500 42.29300
H  33.29500 63.05800 42.41900
H  31.75400 63.35600 43.22100
H  32.62000 64.64100 42.32400
H  28.36300 63.95400 39.79000
H  29.72000 64.97800 39.68700
H  27.20300 65.23200 41.18500
H  28.41600 66.44200 40.87700
H  28.64400 65.30100 42.28900
H  25.07400 61.98600 40.11400
H  24.73900 61.27900 41.67100
H  23.90500 60.57800 40.23100
H  25.83600 56.25000 37.89500
H  24.76400 53.31900 40.82700
H  24.47500 52.56600 39.24800
H  23.17900 53.53500 39.93000

