158

Mg 34.63600 2.73500 28.96600
C  32.82600 3.94100 31.70400
C  37.42900 2.49100 31.00000
C  36.31000 2.00800 26.30300
C  31.74700 3.44000 26.96100
N  35.04200 3.16200 31.12600
C  34.11100 3.60600 32.04000
C  34.81000 3.65900 33.49400
C  36.36700 3.42800 33.09700
C  36.27300 2.94800 31.64400
C  37.32900 4.61800 33.34800
C  34.28900 2.62200 34.53300
C  34.00700 3.22500 35.98100
H  35.14800 4.15500 36.51800
N  36.57100 2.36100 28.67600
C  37.59000 2.28700 29.57600
C  38.79800 1.93600 28.91400
C  38.50300 1.95800 27.49500
C  37.05900 2.12600 27.44300
C  40.15300 1.78100 29.68300
C  39.49600 1.89600 26.33600
O  39.11800 2.00600 25.19600
C  40.90300 1.48300 26.67500
N  34.13500 2.87300 26.85200
C  34.97900 2.36700 26.01000
C  34.36100 2.22300 24.62200
C  32.80800 2.45400 24.90900
C  32.89200 2.95800 26.31600
C  34.97800 3.14100 23.52900
C  31.97900 1.12200 24.84900
C  31.11000 1.05700 23.60400
N  32.75500 3.58500 29.17000
C  31.69900 3.86700 28.33100
C  30.55000 4.32400 29.00200
C  30.89900 4.32000 30.33600
C  32.28300 3.91300 30.37700
C  29.23900 4.68200 28.36100
C  30.47200 4.55500 31.67000
O  29.34000 4.66600 32.17300
C  31.77300 4.40800 32.65000
C  32.07600 5.72100 33.30000
O  32.50000 6.72800 32.71100
O  31.69500 5.72200 34.61900
C  31.77900 6.93400 35.44000
H  38.26300 2.39200 31.69700
H  36.80400 1.72500 25.37100
H  30.86900 3.57700 26.32600
H  34.67000 4.65700 33.91000
H  36.77500 2.64400 33.73500
H  37.91600 4.34400 34.22500
H  36.71700 5.46800 33.65000
H  38.08200 4.82800 32.58700
H  34.87100 1.70600 34.63200
H  33.40100 2.19000 34.07100
H  33.87100 2.46100 36.74600
H  33.05500 3.75300 35.93700
H  40.51000 0.77500 29.46500
H  39.97300 1.86100 30.75500
H  40.90400 2.45000 29.26300
H  41.31000 1.21400 25.70000
H  40.79700 0.59400 27.29600
H  41.42500 2.30900 27.15900
H  34.65800 1.19800 24.40000
H  32.30900 3.14100 24.22600
H  34.33300 3.06900 22.65300
H  35.99100 2.96300 23.16900
H  34.74400 4.18600 23.73000
H  31.38300 1.00300 25.75300
H  32.69900 0.30400 24.87800
H  30.09500 1.32500 23.89600
H  31.21700 0.07800 23.13700
H  31.49700 1.72300 22.83200
H  29.30700 4.63400 27.27500
H  28.87000 5.62200 28.77300
H  28.47600 3.94000 28.59500
H  31.60200 3.72600 33.48300
H  31.09900 7.69700 35.06100
H  32.82700 7.23000 35.49200
H  31.57500 6.56100 36.44400
Mg 49.18200 46.96900 44.11400
C  46.15600 46.99500 42.28200
C  49.97600 44.10700 42.58300
C  52.34500 47.72500 44.99900
C  48.23000 50.28300 45.11400
N  48.06800 45.68700 42.79800
C  46.86600 45.83000 42.16600
C  46.40100 44.49200 41.44900
C  47.58200 43.55600 41.78700
C  48.59700 44.43400 42.51400
C  47.11100 42.34200 42.64300
C  46.31200 44.67700 39.91100
C  45.02300 44.12200 39.34800
H  45.27900 43.22500 38.09900
N  50.93000 45.99300 43.91700
C  51.05000 44.82100 43.17800
C  52.49600 44.50100 43.16000
C  53.18100 45.44200 43.91900
C  52.18700 46.42500 44.38900
C  53.09800 43.42300 42.18200
C  54.71800 45.33500 44.27800
O  55.46100 44.46400 43.81300
C  55.38800 46.34800 45.26700
N  50.12900 48.76800 44.97800
C  51.41200 48.72900 45.30900
C  51.68800 49.94100 46.15700
C  50.43900 50.88500 46.10500
C  49.50800 49.98300 45.37200
C  52.16000 49.59600 47.62300
C  50.71300 52.31600 45.39400
C  51.61500 53.28700 46.16800
N  47.55200 48.37200 43.86600
C  47.35700 49.57700 44.36000
C  46.06100 50.11300 43.91800
C  45.55600 49.14800 43.09300
C  46.48700 48.06900 43.10800
C  45.48900 51.43600 44.34900
C  44.41000 48.76600 42.24200
O  43.41100 49.43500 42.02800
C  44.72600 47.39100 41.63000
C  43.58900 46.42300 41.78800
O  43.39300 45.65000 42.71400
O  42.61400 46.51800 40.73700
C  41.53200 45.51100 40.87400
H  50.34600 43.21900 42.06600
H  53.41400 47.90500 45.13100
H  47.93400 51.27700 45.45400
H  45.43400 44.20000 41.85900
H  48.13400 43.13200 40.94900
H  47.54300 42.31000 43.64300
H  47.50800 41.47700 42.11200
H  46.04000 42.33000 42.84300
H  47.08700 44.09800 39.40900
H  46.48100 45.72100 39.65100
H  44.35600 44.91900 39.01800
H  44.47700 43.54100 40.09000
H  53.90900 42.85100 42.63100
H  53.55400 43.93600 41.33500
H  52.38100 42.62500 41.99100
H  55.56300 47.31700 44.79800
H  56.33900 45.95800 45.62900
H  54.71000 46.40200 46.11800
H  52.46100 50.52300 45.65600
H  50.08100 51.16300 47.09700
H  52.45600 48.62400 48.01600
H  51.26600 49.90500 48.16500
H  52.78300 50.43800 47.92600
H  49.77600 52.81600 45.15000
H  51.12600 52.06100 44.41800
H  51.11500 54.23900 46.34700
H  52.51000 53.61100 45.63700
H  51.83000 52.88700 47.15900
H  45.74700 51.76500 45.35500
H  44.40400 51.38400 44.26200
H  45.86200 52.25800 43.73800
H  44.91000 47.56300 40.57000
H  40.87200 45.78700 41.69600
H  41.90600 44.53300 41.17800
H  40.97800 45.32700 39.95300

