158

Mg 24.97900 1.32300 29.28400
C  27.18100 1.20700 32.11900
C  22.35400 1.59100 31.53600
C  22.96900 1.48300 26.73900
C  27.77300 0.90200 27.28700
N  24.76600 1.15700 31.55800
C  25.81600 1.26200 32.46000
C  25.27200 1.43600 33.88600
C  23.72700 1.58000 33.67100
C  23.63100 1.47700 32.13600
C  22.72800 0.64800 34.49500
C  26.03500 2.62300 34.67300
C  25.30700 3.22200 35.91400
H  26.11500 3.78900 37.06200
N  22.90300 1.39200 29.13800
C  21.98900 1.56200 30.14800
C  20.73200 1.77300 29.58800
C  20.90000 1.67900 28.12400
C  22.30100 1.46500 27.94000
C  19.50600 2.09300 30.40800
C  19.85100 1.68900 26.98900
O  20.02500 1.59100 25.75300
C  18.46600 1.68300 27.53600
N  25.33200 1.00500 27.30100
C  24.31300 1.37300 26.45500
C  24.85700 1.44000 24.98300
C  26.33600 1.16400 25.10900
C  26.52100 1.08200 26.64400
C  24.15600 0.44500 23.98600
C  27.14100 2.31900 24.52200
C  26.86200 3.70200 25.19900
N  27.03800 1.16600 29.58300
C  28.02400 0.85800 28.66800
C  29.24900 0.54100 29.34100
C  28.94100 0.74100 30.68100
C  27.61600 1.06400 30.74100
C  30.58100 0.30900 28.73800
C  29.58100 0.79900 32.02900
O  30.74200 0.60900 32.37700
C  28.42000 1.24400 32.97500
C  28.29100 0.29800 34.11000
O  27.56300 -0.69200 34.26000
O  29.16500 0.68300 35.09900
C  28.98400 0.12100 36.53900
H  21.50400 1.92700 32.13200
H  22.32000 1.81800 25.92800
H  28.61700 0.82600 26.59900
H  25.49800 0.49900 34.39600
H  23.44800 2.61500 33.87000
H  22.27100 -0.11600 33.86600
H  22.02100 1.35700 34.92600
H  23.26100 0.08500 35.26200
H  25.96000 3.39300 33.90500
H  27.05200 2.36100 34.96500
H  24.57200 2.45400 36.15200
H  24.74600 4.09800 35.58800
H  18.69000 1.37300 30.33700
H  19.12900 3.00700 29.94900
H  19.69800 2.25300 31.46800
H  17.83500 1.33200 26.71900
H  18.16600 2.62800 27.98900
H  18.35900 0.80100 28.16700
H  24.57400 2.40600 24.56500
H  26.60700 0.20000 24.67900
H  24.69000 -0.50200 23.90300
H  24.16200 0.95800 23.02400
H  23.16400 0.10700 24.28500
H  26.85900 2.48100 23.48200
H  28.15100 1.92500 24.63800
H  27.78900 3.94500 25.71800
H  25.96200 3.78200 25.80800
H  26.81100 4.40100 24.36400
H  31.39100 0.80500 29.27300
H  30.59700 0.58900 27.68500
H  30.70900 -0.76100 28.90300
H  28.41800 2.24300 33.41100
H  28.85400 -0.95400 36.41000
H  28.09300 0.55500 36.99200
H  29.82000 0.38900 37.18500
Mg 49.43700 47.06500 43.39200
C  45.96100 47.36800 42.49900
C  49.48300 44.15100 41.61300
C  52.74500 47.25600 43.50700
C  49.26800 50.48100 44.49100
N  47.92500 45.91600 42.15800
C  46.59000 46.22000 42.00700
C  45.88700 45.25500 41.07700
C  46.91900 44.08800 40.97300
C  48.16000 44.77700 41.58400
C  46.59600 42.69400 41.73400
C  45.54700 45.76900 39.65600
C  44.37900 45.05200 38.98100
H  44.55500 44.20100 37.77000
N  50.91400 45.83300 42.64200
C  50.73000 44.59800 42.06600
C  52.01900 43.90600 41.96300
C  53.03100 44.78500 42.39700
C  52.24600 46.04500 42.90500
C  52.15300 42.59900 41.35400
C  54.49300 44.60700 42.26800
O  55.00000 43.62100 41.65500
C  55.45500 45.64600 42.78400
N  50.81400 48.71900 43.70700
C  52.14100 48.46700 43.83200
C  52.90200 49.69700 44.39700
C  51.77200 50.70200 44.53100
C  50.52400 49.91700 44.25600
C  53.66900 49.43200 45.75600
C  51.84200 51.91400 43.56700
C  51.58100 53.24200 44.28600
N  47.93200 48.65500 43.54000
C  48.03700 49.94700 44.03400
C  46.71600 50.46900 44.16600
C  45.84700 49.50000 43.68600
C  46.67900 48.40600 43.22600
C  46.44000 51.84400 44.75200
C  44.45300 49.09800 43.48500
O  43.42700 49.66700 43.80100
C  44.44800 47.83800 42.49300
C  43.59400 46.82000 43.08900
O  43.61900 46.33700 44.23900
O  42.62800 46.62600 42.09800
C  41.86100 45.38900 42.34000
H  49.53700 43.13000 41.23100
H  53.82100 47.26500 43.69100
H  49.19300 51.52500 44.80400
H  44.98400 44.87900 41.55700
H  47.13000 43.80900 39.94100
H  45.67600 42.77800 42.31300
H  47.29000 42.33900 42.49600
H  46.60000 41.91600 40.97100
H  46.42800 45.77300 39.01400
H  45.35100 46.84000 39.71000
H  43.60400 45.75700 38.68100
H  43.93300 44.38000 39.71500
H  52.41200 42.62000 40.29500
H  51.31400 41.97500 41.66100
H  52.96900 42.08600 41.86500
H  55.28500 46.67600 42.47200
H  56.47400 45.43900 42.45700
H  55.55500 45.58100 43.86700
H  53.61600 49.98400 43.62500
H  51.69800 50.95500 45.58900
H  54.22400 48.49800 45.67600
H  52.94000 49.40900 46.56600
H  54.25900 50.31200 46.01200
H  51.20600 51.87000 42.68300
H  52.88900 51.96800 43.26900
H  50.90400 53.75400 43.60300
H  52.54400 53.73400 44.42400
H  51.10000 53.05900 45.24700
H  46.90100 52.54000 44.05100
H  46.86100 52.10600 45.72300
H  45.35200 51.91200 44.75100
H  44.09600 48.29500 41.56800
H  42.60600 44.61800 42.53500
H  41.39200 45.14800 41.38600
H  41.10800 45.73900 43.04700

