158

Mg 40.67700 9.25900 28.95400
C  42.06000 10.54100 31.76900
C  38.24900 7.72300 30.86600
C  39.39900 7.75100 26.09700
C  43.51700 10.18000 27.08000
N  40.14300 9.28700 31.03400
C  40.82800 9.92700 32.00100
C  40.15100 9.84200 33.32700
C  39.09700 8.70100 33.07400
C  39.06200 8.60000 31.56100
C  39.36300 7.48000 33.85600
C  39.56500 11.19500 33.72600
C  38.98300 11.28100 35.12400
H  39.82300 12.01500 36.19800
N  39.11000 7.88300 28.58400
C  38.22500 7.45400 29.48100
C  37.19900 6.59900 28.81900
C  37.44700 6.66800 27.41700
C  38.66700 7.49300 27.28200
C  36.02200 5.92300 29.59900
C  36.60200 6.20900 26.29100
O  36.91700 6.37800 25.06100
C  35.34000 5.45200 26.59800
N  41.35800 9.00000 26.86700
C  40.62700 8.46600 25.93600
C  41.40300 8.52200 24.54400
C  42.66100 9.19500 24.88000
C  42.52000 9.51600 26.33000
C  41.55500 7.21200 23.70200
C  42.96300 10.50600 24.06000
C  42.37600 11.81600 24.61200
N  42.48800 10.14800 29.28100
C  43.48400 10.57400 28.44200
C  44.43100 11.36600 29.25700
C  43.97200 11.33600 30.50000
C  42.70700 10.68000 30.47700
C  45.70300 12.05000 28.78800
C  44.17900 11.72600 31.87900
O  45.08500 12.40300 32.33200
C  42.97100 11.18300 32.70000
C  43.52400 10.29300 33.65300
O  44.31500 9.39500 33.35400
O  42.97300 10.42300 34.97500
C  43.46500 9.47900 36.07200
H  37.42000 7.26900 31.41200
H  38.83600 7.46300 25.20700
H  44.41900 10.49700 26.55100
H  40.87400 9.54700 34.08700
H  38.06100 8.97600 33.27200
H  38.51200 7.06600 34.39700
H  40.12600 7.63700 34.61800
H  39.71900 6.64800 33.24900
H  38.73100 11.37300 33.04600
H  40.38800 11.90500 33.64000
H  38.56400 10.32700 35.44700
H  38.18300 11.99100 34.91600
H  35.03000 6.19200 29.23800
H  36.03900 5.98600 30.68700
H  36.11800 4.84500 29.46900
H  35.68900 4.74800 27.35400
H  34.84300 4.99400 25.74300
H  34.63200 6.15400 27.04000
H  40.81700 9.14600 23.87000
H  43.50700 8.50800 24.84200
H  41.30200 6.38700 24.36800
H  42.52900 6.99100 23.26700
H  40.86100 7.10800 22.86700
H  42.62700 10.52400 23.02300
H  44.04000 10.67800 24.07000
H  41.90300 12.37600 23.80700
H  43.23100 12.26800 25.11500
H  41.56600 11.42400 25.22800
H  45.70200 11.89400 27.70900
H  46.61000 11.51900 29.07800
H  45.71100 13.11800 29.00500
H  42.45600 12.02100 33.17100
H  44.31300 9.95600 36.56400
H  43.72300 8.47500 35.73600
H  42.61500 9.32500 36.73700
Mg 52.83400 23.97000 45.01300
C  50.18500 25.96400 43.85000
C  50.89300 21.28100 43.86500
C  55.62500 22.12400 45.03000
C  54.48900 26.72200 45.92400
N  50.88100 23.72600 43.68300
C  49.95800 24.69000 43.35600
C  48.77000 24.09200 42.67300
C  48.95200 22.58900 42.84500
C  50.33600 22.48500 43.44400
C  47.81000 21.80700 43.56500
C  48.76600 24.46200 41.13600
C  50.10200 24.69000 40.34100
H  50.17600 25.31400 38.90600
N  53.19300 21.90800 44.64100
C  52.24100 20.96000 44.27600
C  52.88900 19.66300 44.22800
C  54.28000 19.84900 44.58000
C  54.45500 21.34800 44.79700
C  52.21500 18.34100 43.96800
C  55.29700 18.76600 44.73000
O  54.89200 17.58000 44.54900
C  56.71700 19.08400 45.08700
N  54.81600 24.40700 45.25300
C  55.75900 23.48700 45.31100
C  57.16500 24.08200 45.48900
C  56.83700 25.58400 45.91800
C  55.32300 25.62800 45.66900
C  58.04200 23.44700 46.61600
C  57.61000 26.71500 45.18600
C  58.90000 27.25600 45.80100
N  52.45100 26.04300 44.88500
C  53.16300 26.99000 45.51100
C  52.40500 28.24600 45.57800
C  51.18200 27.85100 44.90500
C  51.26900 26.52700 44.54000
C  52.69900 29.38600 46.34300
C  49.80000 28.26900 44.51200
O  49.18200 29.31500 44.56200
C  49.12000 27.00900 43.79700
C  48.90400 27.51100 42.38800
O  49.80600 27.77300 41.65600
O  47.58100 27.69800 42.07500
C  47.42900 28.50300 40.88200
H  50.27500 20.39200 43.72300
H  56.56300 21.58900 45.18900
H  55.11800 27.51500 46.33300
H  47.88800 24.42400 43.22000
H  48.99000 22.06500 41.89000
H  48.33000 21.29500 44.37400
H  47.32600 21.05400 42.94200
H  47.04400 22.43100 44.02600
H  48.12000 25.33700 41.06700
H  48.18800 23.72600 40.57700
H  50.51500 23.68200 40.29200
H  50.83200 25.26900 40.90700
H  52.59500 17.89100 43.05100
H  51.14400 18.41300 43.78100
H  52.37200 17.69200 44.83000
H  57.27000 18.14900 45.17700
H  56.81100 19.60800 46.03700
H  57.06500 19.64100 44.21700
H  57.74500 23.98500 44.57100
H  56.92600 25.68000 47.00000
H  57.45300 22.93000 47.37400
H  58.55100 24.17800 47.24500
H  58.79700 22.79700 46.17300
H  57.08800 27.65600 45.01000
H  57.84500 26.27700 44.21600
H  59.76100 26.93300 45.21600
H  59.16100 26.94500 46.81300
H  58.83800 28.33000 45.97500
H  53.42800 29.18200 47.12700
H  51.72700 29.55100 46.80800
H  52.96900 30.24000 45.72100
H  48.14600 26.73900 44.20500
H  46.35400 28.54100 40.70800
H  47.72500 27.97100 39.97800
H  47.78100 29.53200 40.95900

