158

Mg -2.40600 34.92400 26.86000
C  -3.78400 32.94100 29.47400
C  -1.01900 36.93800 29.22800
C  -1.48000 37.10300 24.39100
C  -4.26600 33.21900 24.63500
N  -2.32200 34.86700 29.09700
C  -2.97100 33.97300 29.96600
C  -2.59500 34.25500 31.44000
C  -1.88500 35.62100 31.32300
C  -1.78200 35.87200 29.80900
C  -2.49500 36.77300 32.14900
C  -1.78500 33.19500 32.07600
C  -2.35300 32.25100 33.13400
H  -1.41100 32.13100 34.39800
N  -1.32400 36.66000 26.82200
C  -0.78700 37.31000 27.88900
C  -0.10600 38.47300 27.42100
C  -0.19400 38.49900 26.06800
C  -1.03600 37.35900 25.70300
C  0.64200 39.37700 28.41700
C  0.51600 39.41500 25.11900
O  0.53600 39.27900 23.92300
C  1.07400 40.77000 25.62800
N  -2.66800 35.02600 24.75900
C  -2.28900 36.02000 23.93200
C  -2.65600 35.78400 22.44700
C  -3.33700 34.40000 22.53300
C  -3.42700 34.15800 24.07000
C  -3.46700 36.93100 21.83100
C  -2.65500 33.19800 21.81300
C  -1.52200 32.41500 22.56500
N  -3.73500 33.43900 26.88900
C  -4.35600 32.77800 25.93900
C  -5.24000 31.70100 26.49300
C  -4.98900 31.73700 27.83300
C  -4.14700 32.85000 28.06700
C  -6.02300 30.69600 25.72500
C  -5.35000 31.09700 29.06800
O  -6.19100 30.23500 29.32400
C  -4.55100 31.84200 30.17400
C  -5.56500 32.30900 31.13100
O  -6.09600 33.40700 31.08700
O  -5.80900 31.36000 32.07800
C  -6.72400 31.84100 33.08800
H  -0.55900 37.43800 30.08300
H  -1.13400 37.70100 23.54500
H  -5.00600 32.72000 24.00500
H  -3.55900 34.33400 31.94400
H  -0.82800 35.58400 31.58600
H  -2.93300 37.46000 31.42400
H  -1.81700 37.31000 32.81200
H  -3.34900 36.35000 32.67700
H  -0.90700 33.63000 32.55400
H  -1.55600 32.54100 31.23500
H  -2.49800 31.28200 32.65600
H  -3.34000 32.57000 33.47000
H  -0.12400 40.06900 28.76700
H  1.53500 39.92600 28.11800
H  0.85900 38.90900 29.37700
H  1.10300 41.60600 24.93000
H  2.04700 40.61600 26.09500
H  0.48000 41.22000 26.42400
H  -1.70100 35.87400 21.92900
H  -4.37600 34.46500 22.21000
H  -3.83300 37.62500 22.58800
H  -4.38900 36.50300 21.43600
H  -2.88300 37.44800 21.06900
H  -2.18700 33.62400 20.92500
H  -3.45800 32.55400 21.45500
H  -1.65500 32.42700 23.64700
H  -0.60700 32.95700 22.32300
H  -1.55500 31.36500 22.27600
H  -6.18800 30.97900 24.68600
H  -6.93700 30.48400 26.28200
H  -5.43500 29.77800 25.70400
H  -3.76500 31.26300 30.66000
H  -7.58900 32.36300 32.67900
H  -6.14700 32.39400 33.82900
H  -7.11500 31.01400 33.68100
Mg -6.11300 25.26500 25.68100
C  -4.59200 26.66600 28.60200
C  -7.79200 22.95000 27.74500
C  -7.32200 23.81200 22.85000
C  -4.20500 27.52000 23.71400
N  -6.05100 24.83200 27.96300
C  -5.51000 25.67000 28.91200
C  -6.08500 25.26000 30.21100
C  -6.93100 23.93100 29.94500
C  -6.92800 23.86600 28.44600
C  -6.30600 22.66000 30.73000
C  -6.87400 26.43000 30.88700
C  -6.63900 26.56200 32.37600
H  -6.12400 25.35400 33.19700
N  -7.41800 23.70200 25.36300
C  -8.00200 22.87000 26.30100
C  -8.75800 21.85500 25.66200
C  -8.61800 22.06500 24.22200
C  -7.78900 23.29900 24.09500
C  -9.50400 20.85300 26.44800
C  -9.26400 21.30400 23.07800
O  -9.09300 21.65500 21.90900
C  -10.11400 20.06200 23.30000
N  -5.96600 25.71300 23.54300
C  -6.37000 24.87200 22.61700
C  -5.84300 25.22500 21.24400
C  -5.13200 26.58800 21.48500
C  -5.01700 26.62300 23.00600
C  -4.93800 24.18300 20.56300
C  -5.82000 27.86300 20.94000
C  -5.27900 28.22200 19.50600
N  -4.65500 26.72000 25.98100
C  -4.08900 27.63200 25.07900
C  -3.28600 28.60200 25.84100
C  -3.45400 28.28600 27.22500
C  -4.26800 27.08900 27.25300
C  -2.42100 29.63800 25.22500
C  -3.07400 28.67900 28.53500
O  -2.33100 29.56700 28.91100
C  -3.85800 27.64800 29.53500
C  -2.76700 27.12900 30.48300
O  -1.85900 26.41200 30.10200
O  -2.91100 27.54000 31.73700
C  -2.02200 26.99100 32.72300
H  -8.42600 22.33300 28.38500
H  -7.76400 23.42700 21.92900
H  -3.54800 28.06400 23.03200
H  -5.21700 25.00100 30.81800
H  -7.98800 23.94400 30.21200
H  -6.05600 21.81900 30.08300
H  -7.08500 22.22900 31.35900
H  -5.41300 22.95100 31.28300
H  -7.94700 26.25700 30.80700
H  -6.66200 27.33400 30.31600
H  -7.58100 26.77100 32.88300
H  -5.91400 27.36400 32.51600
H  -8.80900 20.33600 27.11000
H  -10.05300 20.13900 25.83500
H  -10.22900 21.30200 27.12700
H  -10.34800 19.71800 22.29300
H  -10.82500 20.44900 24.03000
H  -9.42300 19.37200 23.78500
H  -6.73700 25.27300 20.62200
H  -4.15100 26.39300 21.05200
H  -3.88700 24.45900 20.64700
H  -5.16800 24.07800 19.50200
H  -5.14700 23.29900 21.16400
H  -5.76300 28.67400 21.66500
H  -6.87700 27.72000 20.71600
H  -4.64000 27.41300 19.14900
H  -4.88400 29.23600 19.45500
H  -6.16000 28.22000 18.86500
H  -1.63900 30.03300 25.87300
H  -3.04400 30.50300 24.99400
H  -1.94700 29.19000 24.35100
H  -4.60900 28.22300 30.07700
H  -1.10100 27.55000 32.89300
H  -1.76800 25.93500 32.62600
H  -2.53700 27.04900 33.68200

