158

Mg 9.22900 3.45000 28.44500
C  10.71700 1.91200 31.22900
C  7.96800 5.87200 30.40600
C  7.93300 4.75400 25.56800
C  10.57900 0.78800 26.50900
N  9.30900 3.72800 30.62000
C  9.98800 3.04700 31.56800
C  9.74200 3.77000 32.91800
C  8.86500 5.06400 32.59300
C  8.65500 4.85900 31.06000
C  7.49300 5.22200 33.41000
C  11.09700 4.06800 33.75600
C  11.06100 5.24600 34.69100
H  11.84000 5.14600 36.03900
N  8.03800 5.07600 28.01100
C  7.59700 5.94300 29.00200
C  6.65100 6.87400 28.36200
C  6.75700 6.66400 26.92100
C  7.59600 5.42900 26.77100
C  5.82300 7.92400 29.17900
C  5.84400 7.30000 25.76400
O  5.79800 6.87400 24.58700
C  4.95800 8.47100 26.08100
N  9.24400 2.95300 26.38100
C  8.67700 3.63700 25.37900
C  8.97700 2.99700 23.98600
C  9.71600 1.73000 24.33800
C  9.95400 1.81600 25.88800
C  7.73100 2.80100 23.07600
C  10.99200 1.47900 23.53400
C  11.06500 0.27300 22.52900
N  10.32300 1.74000 28.74900
C  10.73500 0.74900 27.87600
C  11.44300 -0.28100 28.57800
C  11.52600 0.20900 29.90300
C  10.74900 1.32200 29.95900
C  11.95200 -1.52800 27.98100
C  12.12300 -0.14500 31.19200
O  12.99700 -0.96000 31.41100
C  11.55200 1.04500 32.17600
C  10.75700 0.38100 33.30000
O  9.60800 -0.04500 33.27700
O  11.51800 0.44600 34.41600
C  10.87200 0.13100 35.74800
H  7.52000 6.61700 31.06700
H  7.62500 5.24500 24.64200
H  10.83800 -0.16500 26.04300
H  9.05900 3.11600 33.46100
H  9.48000 5.96200 32.65700
H  7.37900 6.24800 33.75800
H  7.33600 4.42300 34.13500
H  6.65700 5.13600 32.71600
H  11.86900 4.22600 33.00300
H  11.32900 3.19600 34.36800
H  10.01500 5.37300 34.97200
H  11.56100 6.00800 34.09300
H  6.61300 8.59400 29.51800
H  5.31600 7.48600 30.03900
H  5.06800 8.51000 28.65400
H  4.40300 8.87800 25.23700
H  5.44900 9.21800 26.70500
H  4.13300 8.07700 26.67400
H  9.69400 3.67700 23.52500
H  9.06400 0.86100 24.24400
H  7.60400 1.74500 22.83700
H  7.75400 3.41000 22.17300
H  6.82900 2.87100 23.68400
H  11.83800 1.49900 24.22100
H  11.17100 2.36800 22.92900
H  10.18300 -0.36600 22.48700
H  11.87800 -0.41000 22.77400
H  11.23300 0.60700 21.50500
H  11.33600 -2.03000 27.23500
H  11.97300 -2.19700 28.84100
H  13.00300 -1.44300 27.70200
H  12.38700 1.58900 32.61800
H  9.81700 -0.13600 35.80500
H  10.86100 0.95600 36.46100
H  11.45800 -0.68800 36.16600
Mg 46.91200 44.83700 42.80200
C  43.84300 43.39500 42.36500
C  48.40000 41.89600 41.67400
C  49.81500 46.55800 42.20400
C  45.25000 48.04700 43.28900
N  46.19900 42.87100 41.95900
C  44.91100 42.47400 42.09300
C  44.76800 40.90200 41.94200
C  46.26300 40.46700 41.85500
C  47.01800 41.83300 41.81900
C  46.82800 39.74700 43.07400
C  43.97500 40.43400 40.67200
C  44.07500 41.32900 39.43300
H  44.07900 40.75500 38.02100
N  48.82800 44.30000 42.14100
C  49.22200 42.99800 41.81300
C  50.63500 43.02200 41.41500
C  51.04300 44.38300 41.49300
C  49.88200 45.17300 41.92000
C  51.43200 41.75600 40.93500
C  52.32000 44.85900 40.98400
O  53.14200 44.07000 40.50100
C  52.77000 46.32400 41.00700
N  47.44500 47.03000 42.72000
C  48.74100 47.36100 42.60800
C  48.95300 48.84400 42.99100
C  47.52300 49.22800 43.55800
C  46.67000 48.04600 43.15000
C  49.97700 49.25100 43.89100
C  46.86100 50.53000 42.97400
C  46.58100 51.74000 43.87300
N  44.98800 45.58800 42.96500
C  44.46600 46.87100 43.18500
C  43.03000 46.74400 43.26300
C  42.71600 45.37100 42.96100
C  43.95000 44.75600 42.70500
C  42.20100 47.96100 43.68600
C  41.68500 44.43000 42.86900
O  40.46400 44.54000 43.08700
C  42.34400 43.08600 42.52400
C  42.06700 42.11600 43.61800
O  42.20300 42.27000 44.81500
O  41.57900 40.95200 43.13900
C  40.93700 39.95000 44.03500
H  48.82900 40.90700 41.50400
H  50.79200 47.04400 42.24900
H  44.75200 48.94300 43.66500
H  44.23100 40.52200 42.81100
H  46.32500 39.83700 40.96800
H  45.98800 39.15500 43.43900
H  46.94100 40.40300 43.93700
H  47.72400 39.21000 42.76400
H  42.98000 40.22400 41.06400
H  44.34300 39.45100 40.37500
H  44.96000 41.96000 39.52600
H  43.24700 42.03800 39.45200
H  52.06600 41.97400 40.07600
H  50.69800 41.01600 40.61700
H  52.15300 41.39700 41.67000
H  51.94800 46.91200 40.59700
H  53.54200 46.44000 40.24600
H  53.15100 46.66800 41.96800
H  49.06900 49.38500 42.05200
H  47.54300 49.31500 44.64500
H  49.65700 49.74600 44.80800
H  50.59600 49.93200 43.30700
H  50.43600 48.33100 44.25200
H  45.97400 50.43400 42.34800
H  47.56600 50.88400 42.22100
H  47.27000 52.55900 43.66800
H  46.70200 51.46800 44.92100
H  45.59300 52.15500 43.67200
H  42.53300 48.07900 44.71700
H  41.11500 47.87300 43.67700
H  42.59600 48.75200 43.04900
H  41.85600 42.78500 41.59800
H  41.44000 39.81000 44.99200
H  40.89600 39.01600 43.47500
H  39.89600 40.24100 44.17400

