158

Mg 9.55700 3.47000 27.11100
C  10.72900 1.79800 29.92500
C  8.29100 5.92600 29.12800
C  8.02800 4.89200 24.42200
C  10.62200 0.80600 25.13200
N  9.47500 3.75200 29.25300
C  10.05100 3.01300 30.24100
C  9.70200 3.54400 31.66900
C  8.79000 4.78200 31.31600
C  8.94800 4.89500 29.78600
C  7.35900 4.62800 31.79800
C  10.96100 3.84200 32.48100
C  10.88500 4.67500 33.74000
H  11.86400 4.44000 34.82600
N  8.29100 5.20100 26.81700
C  7.90600 6.05500 27.73600
C  7.21400 7.10900 27.17000
C  7.21700 6.89900 25.79400
C  7.84900 5.63200 25.61500
C  6.69200 8.19700 28.00000
C  6.77800 7.80400 24.72100
O  6.78900 7.44500 23.59400
C  6.21700 9.13500 25.00600
N  9.10500 2.70700 25.12300
C  8.58400 3.56100 24.18200
C  8.66500 3.00300 22.72900
C  9.49400 1.68900 22.91800
C  9.77900 1.72000 24.51000
C  7.29500 2.77300 22.04600
C  10.78200 1.49800 22.12600
C  10.86900 0.11900 21.46100
N  10.50700 1.68600 27.38500
C  10.93800 0.74000 26.48400
C  11.63900 -0.24000 27.22200
C  11.63600 0.08200 28.62200
C  10.87800 1.29800 28.63100
C  12.30600 -1.45800 26.60400
C  12.00300 -0.33800 29.92300
O  12.58800 -1.33400 30.34400
C  11.43900 0.81800 30.87300
C  10.48600 0.25600 31.94400
O  9.34200 -0.13600 31.85200
O  11.25900 0.06700 33.10700
C  10.50600 -0.47200 34.28500
H  7.86100 6.66100 29.81200
H  7.81300 5.35700 23.45700
H  10.96600 -0.05200 24.55000
H  9.24500 2.74400 32.25300
H  9.06400 5.71800 31.80300
H  6.63100 4.69200 30.98900
H  7.11100 5.43500 32.48800
H  7.15600 3.66100 32.25800
H  11.72400 4.28500 31.84200
H  11.24800 2.82500 32.74800
H  9.89800 4.85100 34.16900
H  11.16800 5.65100 33.34400
H  7.33700 9.03100 27.72200
H  6.74600 8.05600 29.07900
H  5.68300 8.48300 27.70400
H  6.91400 9.79300 25.52500
H  5.31100 8.91100 25.56900
H  5.90900 9.57700 24.05800
H  9.27700 3.75400 22.23100
H  8.95100 0.78500 22.63900
H  7.14500 3.48300 21.23300
H  6.46100 2.95900 22.72200
H  7.27800 1.74200 21.69200
H  11.59300 1.70500 22.82400
H  10.65900 2.26700 21.36300
H  10.48900 -0.60800 22.17900
H  11.91000 -0.18400 21.35200
H  10.37200 0.03600 20.49400
H  12.96000 -1.20000 25.77100
H  11.63700 -2.22500 26.21500
H  12.91700 -1.96600 27.35000
H  12.26200 1.24600 31.44500
H  10.09700 0.40400 34.78800
H  11.26000 -0.88700 34.95400
H  9.77200 -1.26700 34.15500
Mg -2.15400 34.85100 26.95100
C  -3.13100 33.36400 29.76300
C  -0.32000 37.25700 28.88300
C  -1.76100 36.64200 24.13700
C  -4.12800 32.63900 25.16800
N  -1.71600 35.19900 29.04100
C  -2.24100 34.38700 29.99500
C  -1.75100 34.85000 31.44200
C  -0.87900 36.14600 31.12500
C  -0.99900 36.22800 29.62600
C  -1.42100 37.34300 31.96000
C  -0.98300 33.67600 32.08400
C  -1.40300 33.26800 33.53200
H  -0.35100 33.20800 34.60500
N  -1.05300 36.67700 26.57100
C  -0.42000 37.52900 27.48800
C  -0.07800 38.73300 26.82200
C  -0.53500 38.62000 25.43200
C  -1.10500 37.31400 25.29900
C  0.58600 39.92700 27.47700
C  -0.41200 39.64500 24.29900
O  -0.59600 39.35800 23.11400
C  -0.08800 41.06900 24.58800
N  -2.83900 34.71600 24.92000
C  -2.58700 35.60100 23.99800
C  -3.27400 35.30500 22.59500
C  -3.87100 33.82900 22.82300
C  -3.60700 33.69100 24.40500
C  -4.41300 36.35700 22.45800
C  -3.12200 32.77700 21.87900
C  -1.72400 32.23500 22.41400
N  -3.35600 33.29400 27.32500
C  -4.09900 32.47100 26.53700
C  -4.72100 31.43700 27.33900
C  -4.44300 31.83700 28.63100
C  -3.59900 32.94700 28.55500
C  -5.61400 30.33600 27.00100
C  -4.63800 31.46300 30.00000
O  -5.27600 30.54000 30.51200
C  -3.85200 32.56000 30.82400
C  -4.96500 33.29500 31.52900
O  -5.73600 34.03900 31.02900
O  -4.84400 33.00700 32.90600
C  -5.93100 33.48100 33.75300
H  0.30100 37.99900 29.38900
H  -1.73600 37.22600 23.21400
H  -4.60100 31.92900 24.48700
H  -2.66400 35.12400 31.97000
H  0.17200 36.01900 31.38300
H  -2.45100 37.63700 31.75700
H  -0.81100 38.22900 31.78500
H  -1.36000 37.13800 33.02900
H  0.06500 33.97600 32.12000
H  -1.02300 32.78100 31.46300
H  -1.88100 32.28900 33.49500
H  -2.17600 33.95900 33.87000
H  1.29200 39.71100 28.27800
H  -0.12600 40.63400 27.90300
H  1.24900 40.33400 26.71400
H  -0.51700 41.54500 23.70700
H  0.97400 41.31400 24.62400
H  -0.67300 41.38600 25.45100
H  -2.60500 35.36100 21.73700
H  -4.92500 33.69900 22.57600
H  -4.54500 36.94600 23.36500
H  -5.36800 35.85100 22.32300
H  -4.12300 37.01500 21.63800
H  -2.97200 33.24300 20.90500
H  -3.76200 31.90500 21.74800
H  -0.94700 32.49100 21.69400
H  -1.88000 31.16400 22.54800
H  -1.48600 32.62200 23.40400
H  -5.67100 30.13800 25.93100
H  -6.57600 30.60600 27.43700
H  -5.17200 29.56200 27.62900
H  -3.07300 32.13200 31.45600
H  -6.18400 32.71900 34.49100
H  -6.80400 33.86000 33.22200
H  -5.53100 34.37700 34.22700

