158

Mg 45.51700 2.30600 47.74600
C  43.38400 5.23800 47.15300
C  42.81300 0.44900 46.83300
C  47.55800 -0.25300 47.62400
C  48.28900 4.57700 47.94100
N  43.19000 2.84200 47.19600
C  42.68200 4.02900 46.92100
C  41.21600 3.82100 46.39600
C  40.93700 2.24800 46.62800
C  42.40700 1.80300 46.96700
C  39.86300 2.04400 47.80600
C  41.02900 4.33100 44.94300
C  39.69600 5.14500 44.69500
H  39.09700 4.92400 43.28800
N  45.21200 0.30700 47.28700
C  44.04900 -0.29400 47.02000
C  44.26000 -1.71400 46.87800
C  45.61700 -1.97800 47.06200
C  46.21600 -0.62900 47.35400
C  43.19400 -2.73900 46.54400
C  46.40700 -3.24000 47.00200
O  45.77900 -4.25200 46.70600
C  47.94100 -3.48500 47.30600
N  47.64300 2.18100 47.58400
C  48.14700 0.97100 47.84500
C  49.66400 1.05800 48.11000
C  49.94500 2.64800 48.16400
C  48.51800 3.20200 47.92800
C  50.10800 0.30900 49.41800
C  51.07800 3.23100 47.29500
C  51.70500 4.45700 48.02700
N  45.84300 4.48500 47.63000
C  47.01800 5.22500 47.72900
C  46.65300 6.64900 47.60600
C  45.31200 6.66900 47.40300
C  44.80200 5.32800 47.39000
C  47.56200 7.78600 47.71400
C  44.08900 7.52600 47.26900
O  43.97300 8.76600 47.22600
C  42.82700 6.59000 47.08800
C  41.80600 6.68700 48.18300
O  41.81900 6.12000 49.26500
O  40.82600 7.58500 47.78900
C  39.75700 7.76400 48.78800
H  41.93500 -0.14600 46.57000
H  48.32500 -1.01700 47.76800
H  49.10800 5.25800 48.18100
H  40.59500 4.49100 46.99000
H  40.64200 1.68300 45.74400
H  39.00400 1.67800 47.24400
H  39.58600 2.96800 48.31300
H  40.23500 1.37600 48.58400
H  41.05300 3.52400 44.21000
H  41.84400 5.01000 44.69300
H  39.88100 6.21600 44.77700
H  39.02700 4.85000 45.50300
H  43.30500 -3.04700 45.50400
H  42.18700 -2.34600 46.68800
H  43.39600 -3.59200 47.19100
H  48.52200 -2.99100 46.52800
H  48.04100 -4.56700 47.22200
H  48.32800 -3.24200 48.29600
H  50.17100 0.54000 47.29600
H  50.18300 2.96000 49.18100
H  49.27100 -0.00600 50.04100
H  50.63300 1.08400 49.97700
H  50.83300 -0.50100 49.33900
H  50.53700 3.62400 46.43300
H  51.85700 2.56900 46.91700
H  52.77000 4.22400 47.99000
H  51.42500 4.58200 49.07300
H  51.48400 5.38800 47.50500
H  47.19400 8.66600 47.18800
H  48.55100 7.62900 47.28400
H  47.68200 7.97300 48.78100
H  42.28000 6.87800 46.19000
H  39.04500 6.96000 48.60500
H  39.26600 8.73400 48.71300
H  40.02900 7.69100 49.84100
Mg 46.44600 23.94700 28.19700
C  47.05400 26.12100 30.78100
C  45.86300 21.40300 30.42900
C  46.25300 21.88800 25.56400
C  47.19800 26.61900 26.03800
N  46.47000 23.78800 30.26700
C  46.69500 24.84000 31.21300
C  46.46700 24.33700 32.64300
C  46.32800 22.76000 32.44900
C  46.13800 22.65600 30.96700
C  47.64600 22.00000 32.86000
C  45.22900 25.03100 33.26700
C  45.61700 25.68700 34.68400
H  44.49700 25.89400 35.76700
N  46.08300 21.93600 28.02200
C  45.82100 21.04300 29.04000
C  45.44300 19.78900 28.47500
C  45.51500 19.90500 27.02500
C  45.95600 21.28300 26.82600
C  45.21300 18.58700 29.38400
C  45.27400 18.86700 25.98600
O  45.35800 19.20100 24.78200
C  45.02000 17.43300 26.32900
N  46.62200 24.19500 26.13900
C  46.48400 23.27000 25.27500
C  46.62000 23.72700 23.80300
C  46.47900 25.27400 23.97000
C  46.76400 25.38200 25.44800
C  47.93700 23.27000 23.11700
C  45.18100 25.91000 23.48700
C  43.99800 25.74800 24.34800
N  47.01500 25.97600 28.30900
C  47.38200 26.93000 27.39200
C  47.90800 28.11700 27.94200
C  47.80300 27.83200 29.31400
C  47.24500 26.54200 29.46900
C  48.40700 29.39300 27.25800
C  48.14500 28.40300 30.60400
O  48.65900 29.49500 30.89500
C  47.56300 27.30500 31.62100
C  48.65300 26.98100 32.63900
O  49.50500 26.09500 32.46700
O  48.47000 27.75100 33.77200
C  49.60100 27.52800 34.76000
H  45.79400 20.64100 31.20800
H  46.31400 21.23800 24.68900
H  47.44600 27.46100 25.38900
H  47.38000 24.57700 33.18700
H  45.45300 22.38300 32.97800
H  48.55200 22.59800 32.76500
H  47.76200 21.06200 32.31700
H  47.66600 21.67000 33.89800
H  44.41800 24.35200 33.52700
H  44.98000 25.75400 32.49000
H  46.09300 26.60800 34.34800
H  46.51600 25.23600 35.10400
H  44.23400 18.12500 29.25500
H  45.22800 18.73900 30.46300
H  45.97800 17.84200 29.16300
H  45.94100 16.95000 26.65500
H  44.87300 17.04000 25.32300
H  44.14600 17.27600 26.96000
H  45.79100 23.33800 23.21200
H  47.34900 25.71200 23.48200
H  48.77100 23.93200 23.34800
H  47.83200 23.01800 22.06200
H  48.35800 22.41900 23.65300
H  45.18800 25.53100 22.46500
H  45.55600 26.93200 23.43400
H  44.01800 26.59400 25.03500
H  44.06700 24.81200 24.90200
H  43.17000 25.82500 23.64400
H  48.35400 30.32600 27.81700
H  47.94400 29.58100 26.28900
H  49.41000 29.15300 26.90400
H  46.68500 27.69300 32.13700
H  49.72600 26.48100 35.03600
H  49.28100 27.98300 35.69700
H  50.53900 27.94100 34.38800

