158

Mg 1.89700 -2.52100 45.17400
C  5.29300 -1.70700 44.49300
C  0.82700 0.10500 43.41900
C  -1.16400 -3.82100 45.50700
C  3.27800 -5.57700 46.52500
N  2.98700 -1.21900 43.89700
C  4.34900 -0.95300 43.82300
C  4.62000 0.22000 42.92500
C  3.25400 0.94600 42.93100
C  2.23600 -0.18100 43.39000
C  3.31300 2.19400 43.85800
C  5.26100 -0.08300 41.53900
C  6.25800 1.02400 40.99700
H  5.74400 1.77200 39.82300
N  0.01400 -1.85800 44.62400
C  -0.20000 -0.72500 43.92000
C  -1.65100 -0.58700 43.73300
C  -2.22400 -1.80700 44.25500
C  -1.15000 -2.54100 44.82600
C  -2.31400 0.60400 43.09600
C  -3.63500 -2.11300 44.21500
O  -4.41800 -1.36200 43.64800
C  -4.16300 -3.39400 44.62300
N  1.22300 -4.41300 45.85800
C  -0.12500 -4.65400 45.98600
C  -0.44300 -5.96200 46.79900
C  0.98700 -6.61500 46.78100
C  1.90800 -5.41600 46.45500
C  -0.93600 -5.66100 48.24500
C  1.13100 -7.81800 45.77700
C  2.15700 -8.84800 46.23000
N  3.95600 -3.43900 45.65600
C  4.28400 -4.66700 46.18500
C  5.74400 -4.77200 46.14900
C  6.18700 -3.54800 45.63500
C  5.07400 -2.80400 45.26800
C  6.61300 -5.87400 46.65800
C  7.34800 -2.76500 45.24000
O  8.52300 -2.95600 45.41600
C  6.78900 -1.49600 44.44000
C  7.31100 -0.34800 45.24300
O  8.39100 0.19700 45.10300
O  6.37600 0.09300 46.07500
C  6.52000 1.43500 46.70000
H  0.58400 0.94100 42.75900
H  -2.16400 -4.23000 45.67000
H  3.66300 -6.50000 46.96300
H  5.32500 0.84400 43.47500
H  2.88400 1.22200 41.94400
H  4.27200 2.70500 43.94400
H  3.09900 1.85300 44.87100
H  2.62400 2.97700 43.53900
H  4.46600 -0.11200 40.79300
H  5.63300 -1.10700 41.57300
H  7.17200 0.49200 40.73100
H  6.44400 1.76200 41.77700
H  -2.64400 0.31800 42.09800
H  -1.62900 1.45200 43.10500
H  -3.27500 0.83200 43.55900
H  -4.13200 -3.47100 45.71000
H  -3.53800 -4.14300 44.13700
H  -5.15000 -3.63600 44.22800
H  -1.20000 -6.55900 46.29100
H  1.35100 -6.90200 47.76700
H  -0.16100 -5.52100 48.99900
H  -1.72700 -6.34400 48.55400
H  -1.48000 -4.71900 48.18300
H  1.37700 -7.40600 44.79800
H  0.16400 -8.31900 45.73400
H  2.72500 -8.37800 47.03300
H  2.88700 -9.07200 45.45300
H  1.68200 -9.75100 46.61300
H  6.01500 -6.78500 46.63400
H  7.03500 -5.78800 47.65900
H  7.41500 -6.05700 45.94300
H  7.26900 -1.34900 43.47300
H  5.52200 1.83800 46.87000
H  6.97100 2.09000 45.95400
H  7.06400 1.37600 47.64200
Mg -2.55000 34.62300 26.45800
C  -4.23400 32.90600 28.81400
C  -0.97000 36.51500 28.78500
C  -0.98900 36.38000 23.89300
C  -4.34800 32.72000 23.97100
N  -2.83000 34.88600 28.56800
C  -3.39100 33.89600 29.33800
C  -3.13000 34.16500 30.84100
C  -2.36100 35.47500 30.75400
C  -1.98500 35.62200 29.29300
C  -3.01300 36.80300 31.26100
C  -2.26200 32.91700 31.36500
C  -2.60500 32.39600 32.79400
H  -1.52600 32.44000 33.96300
N  -1.12500 36.30400 26.34200
C  -0.58500 36.89500 27.47700
C  0.35800 37.87400 26.98600
C  0.32600 37.86400 25.61200
C  -0.59800 36.79000 25.22000
C  1.23500 38.75100 27.93900
C  1.11100 38.71000 24.58900
O  0.88700 38.72100 23.37900
C  2.21300 39.62400 25.18600
N  -2.59700 34.54800 24.35700
C  -1.82500 35.28100 23.50300
C  -2.11600 35.00300 22.00200
C  -2.91400 33.73000 22.11200
C  -3.36100 33.66300 23.59800
C  -2.75300 36.15100 21.32900
C  -2.27800 32.42400 21.46000
C  -1.22100 31.66300 22.26100
N  -4.11200 33.23100 26.37300
C  -4.62900 32.40500 25.35400
C  -5.62900 31.44100 25.92400
C  -5.46000 31.55000 27.29900
C  -4.53400 32.70200 27.47700
C  -6.47000 30.46200 25.17300
C  -5.87200 31.06800 28.57300
O  -6.67100 30.12800 28.82900
C  -5.09200 31.89500 29.64000
C  -6.02400 32.48400 30.66400
O  -6.74100 33.47300 30.41800
O  -6.08600 31.78600 31.82100
C  -7.01300 32.31700 32.90500
H  -0.53000 37.22500 29.48800
H  -0.54300 36.90300 23.04500
H  -4.79600 32.03400 23.25000
H  -4.04700 34.36900 31.39500
H  -1.41000 35.38300 31.27800
H  -3.55700 37.29300 30.45400
H  -2.21600 37.46500 31.59900
H  -3.69700 36.69600 32.10300
H  -1.21800 33.17800 31.53900
H  -2.26800 32.10800 30.63500
H  -3.00600 31.38600 32.71700
H  -3.48100 32.98500 33.06400
H  1.16000 38.38500 28.96300
H  0.92400 39.79000 27.83500
H  2.26900 38.62200 27.61900
H  1.76700 40.28700 25.92800
H  2.69600 40.27600 24.45800
H  2.91400 38.92800 25.64600
H  -1.15100 34.73900 21.57100
H  -3.82200 33.94500 21.54800
H  -1.85700 36.54900 20.85300
H  -3.03200 36.95800 22.00600
H  -3.59500 35.91300 20.67900
H  -1.79400 32.75800 20.54300
H  -3.13000 31.77800 21.24700
H  -1.61800 30.64800 22.26900
H  -1.12500 32.01300 23.28900
H  -0.22900 31.88100 21.86500
H  -7.31500 30.26200 25.83200
H  -5.85800 29.57000 25.30700
H  -6.77100 30.93000 24.23600
H  -4.44100 31.17900 30.14100
H  -7.72000 31.57000 33.26600
H  -7.54400 33.20300 32.55700
H  -6.44500 32.61900 33.78500

