158

Mg -0.11200 7.18900 26.39300
C  0.67200 9.38300 29.14500
C  -0.70500 4.66400 28.61400
C  -1.04100 5.45200 23.83900
C  0.68200 9.99200 24.29300
N  0.01300 7.01000 28.59200
C  0.33400 8.01200 29.52400
C  0.29400 7.46300 30.99300
C  -0.15000 6.00100 30.83600
C  -0.35800 5.86300 29.24800
C  0.88100 5.03700 31.46400
C  -0.67200 8.14800 32.01300
C  -0.13100 8.63100 33.39300
H  -0.72300 8.17400 34.72700
N  -0.67300 5.31100 26.25200
C  -0.91300 4.33400 27.26400
C  -1.24700 3.10000 26.71700
C  -1.31900 3.28700 25.33500
C  -1.03700 4.73600 25.08300
C  -1.29700 1.89000 27.54400
C  -1.46000 2.29600 24.29000
O  -1.57200 2.60600 23.12800
C  -1.43700 0.81200 24.62300
N  -0.14300 7.70000 24.35500
C  -0.53000 6.72100 23.43100
C  -0.55900 7.26900 21.96600
C  -0.05400 8.69800 22.18500
C  0.16100 8.83000 23.73900
C  0.45300 6.41200 20.97600
C  -0.96300 9.90800 21.60600
C  -2.15500 10.26900 22.54800
N  0.70100 9.17200 26.62200
C  0.97500 10.16000 25.69500
C  1.53300 11.36500 26.32900
C  1.43500 11.06300 27.69500
C  0.90000 9.74900 27.79800
C  1.85400 12.66500 25.62300
C  1.55800 11.62300 29.00200
O  1.94000 12.76000 29.33300
C  1.04200 10.58200 30.01600
C  2.06100 10.39200 31.06400
O  3.10900 9.75900 30.93200
O  1.74400 11.09900 32.22600
C  2.80100 11.17200 33.23900
H  -0.80300 3.94900 29.43300
H  -1.29800 4.84500 22.96800
H  0.81400 10.82100 23.59400
H  1.30600 7.58600 31.37800
H  -1.11900 5.73900 31.26200
H  1.56400 5.52900 32.15700
H  1.55800 4.57400 30.74600
H  0.27000 4.28000 31.95600
H  -1.50200 7.47000 32.21300
H  -1.11600 9.02200 31.53500
H  -0.24000 9.70600 33.53100
H  0.93400 8.42300 33.29400
H  -0.89000 2.06400 28.54000
H  -0.68300 1.12600 27.06700
H  -2.26200 1.39700 27.66700
H  -2.21000 0.59400 25.36000
H  -0.37900 0.66900 24.84300
H  -1.75400 0.24300 23.74800
H  -1.58000 7.17600 21.59500
H  0.95200 8.71800 21.76800
H  0.28500 6.71000 19.94100
H  0.19800 5.35400 21.04000
H  1.49300 6.62500 21.22000
H  -1.40000 9.49100 20.69900
H  -0.35400 10.73000 21.23000
H  -3.04100 9.95800 21.99400
H  -2.25700 11.34300 22.70200
H  -2.22200 9.75400 23.50700
H  2.81200 13.04000 25.98300
H  1.03400 13.37700 25.72600
H  1.95700 12.44100 24.56200
H  0.06000 10.86200 30.39700
H  2.80700 12.11500 33.78600
H  3.77600 11.07100 32.76300
H  2.66500 10.31400 33.89700
Mg 30.35100 57.69000 40.49800
C  27.74400 55.80900 38.96200
C  32.64200 55.46400 39.04100
C  32.81800 59.80200 41.12000
C  27.84200 60.10900 41.22400
N  30.14900 55.90000 38.99400
C  28.94500 55.26900 38.65200
C  29.26700 53.76800 38.22800
C  30.87700 53.69600 38.21000
C  31.27300 55.10900 38.84100
C  31.54300 52.49400 39.01700
C  28.61100 53.42400 36.81600
C  28.55000 54.62400 35.79700
H  29.09900 54.36300 34.42200
N  32.50500 57.66200 40.22300
C  33.20200 56.59800 39.68200
C  34.59200 57.03700 39.65200
C  34.73800 58.33200 40.14600
C  33.38100 58.63000 40.51800
C  35.65800 56.11500 39.10700
C  35.98000 59.10600 40.32400
O  37.10200 58.62900 40.15900
C  35.85700 60.55900 40.66800
N  30.30500 59.74600 41.09900
C  31.55000 60.30000 41.39200
C  31.19300 61.76400 41.87700
C  29.71600 61.69300 42.27200
C  29.18600 60.49000 41.46800
C  32.01100 62.12000 43.12200
C  28.95100 62.96300 41.85500
C  28.42200 63.75900 43.00800
N  28.19300 57.91600 40.24200
C  27.32400 58.90500 40.73500
C  26.01900 58.40400 40.62100
C  26.12600 57.21500 39.93300
C  27.48000 56.96700 39.69000
C  24.74600 59.11300 41.13900
C  25.33300 56.22800 39.32600
O  24.06500 56.02800 39.27800
C  26.32400 55.17100 38.70300
C  26.15400 53.89800 39.42200
O  26.48400 53.63400 40.59200
O  25.60400 52.94000 38.62100
C  25.26200 51.67800 39.15700
H  33.30600 54.66300 38.71100
H  33.58300 60.51700 41.43000
H  27.16000 60.80700 41.71500
H  28.97000 53.08600 39.02400
H  31.19900 53.67700 37.16800
H  32.35600 52.81700 39.66800
H  31.86600 51.79700 38.24300
H  30.81200 51.99800 39.65600
H  27.57000 53.13100 36.95300
H  29.01200 52.48700 36.43100
H  29.04900 55.50000 36.20900
H  27.49500 54.89900 35.81400
H  35.88700 56.48600 38.10800
H  35.36500 55.07100 39.00100
H  36.63100 56.16200 39.59600
H  36.83300 60.98700 40.44300
H  35.57800 60.59600 41.72100
H  35.10100 61.08500 40.08600
H  31.47500 62.47800 41.10400
H  29.52500 61.54300 43.33400
H  32.52200 62.99700 42.72300
H  32.73200 61.37400 43.45300
H  31.44800 62.34500 44.02800
H  28.02700 62.81700 41.29400
H  29.56100 63.67500 41.29900
H  27.46900 64.28600 42.95900
H  29.07000 64.61900 43.17900
H  28.46300 63.35100 44.01700
H  24.11500 58.45600 41.73800
H  24.19700 59.61900 40.34500
H  25.07800 59.90400 41.81200
H  26.05800 54.99800 37.66000
H  25.95500 50.85200 38.99400
H  24.30300 51.35200 38.75200
H  25.07000 51.83900 40.21700

