158

Mg 47.65000 34.01000 26.92000
C  45.80100 32.55600 29.50600
C  48.07500 36.81400 29.07400
C  49.04600 35.81000 24.37400
C  46.95500 31.47900 24.85000
N  46.93500 34.65500 29.02800
C  46.24100 33.81800 29.91000
C  46.08900 34.55700 31.27300
C  46.44300 35.97900 30.82100
C  47.25300 35.78300 29.58200
C  45.21300 36.86800 30.61100
C  47.02700 33.99700 32.31000
C  46.49400 33.97600 33.75800
H  45.62200 35.06600 34.33100
N  48.65200 35.93800 26.77900
C  48.72200 36.86800 27.80200
C  49.55700 37.90400 27.30500
C  49.80800 37.71200 25.95000
C  49.13500 36.47200 25.62700
C  50.06600 39.06200 28.22100
C  50.51300 38.58000 24.87400
O  50.64600 38.26200 23.72000
C  51.29900 39.74800 25.40500
N  47.87500 33.78500 24.94300
C  48.55400 34.62600 24.03900
C  48.60200 34.01300 22.67000
C  48.25100 32.45600 23.00000
C  47.65400 32.56200 24.37400
C  47.97100 34.73500 21.47000
C  49.44800 31.48500 23.00700
C  49.30100 30.28600 22.07500
N  46.61000 32.37600 27.08500
C  46.42300 31.40100 26.15700
C  45.71700 30.30800 26.80800
C  45.48400 30.66700 28.14200
C  46.06500 31.95500 28.23500
C  45.25400 29.02200 26.15900
C  44.83200 30.26100 29.35100
O  44.26000 29.23800 29.61700
C  44.85600 31.51200 30.21500
C  45.21400 31.14500 31.64500
O  46.32800 30.88900 32.01900
O  44.07600 30.89800 32.35200
C  44.39600 30.30900 33.68600
H  48.32500 37.61000 29.78000
H  49.61000 36.30600 23.58200
H  46.82900 30.63400 24.17100
H  45.07900 34.40000 31.65200
H  47.06500 36.36100 31.63100
H  44.24200 36.40900 30.80100
H  45.09400 37.22900 29.59000
H  45.16100 37.68700 31.32800
H  47.94200 34.57400 32.44200
H  47.39300 33.00000 32.06500
H  47.43100 34.05400 34.30900
H  46.12900 32.95900 33.89900
H  51.08900 39.42500 28.12400
H  50.18000 38.69100 29.24000
H  49.36900 39.87600 28.02300
H  50.60100 40.43600 25.88200
H  51.63600 40.17900 24.46300
H  52.11300 39.65000 26.12400
H  49.68500 34.07100 22.56500
H  47.42900 32.17700 22.33900
H  47.80800 34.13800 20.57300
H  48.55600 35.59500 21.14300
H  46.94100 34.99400 21.71600
H  49.67800 31.21700 24.03800
H  50.34400 32.05800 22.76600
H  49.45800 29.45500 22.76300
H  50.04600 30.44400 21.29500
H  48.35500 30.16400 21.54900
H  45.54700 28.23700 26.85600
H  45.79000 28.86400 25.22300
H  44.17300 28.96900 26.03300
H  43.86100 31.94000 30.33600
H  44.89700 31.02300 34.34000
H  44.98500 29.39600 33.60400
H  43.47100 29.99400 34.16900
Mg -11.25800 18.45500 43.08500
C  -7.75600 18.69300 43.93700
C  -11.50800 21.81100 42.86700
C  -14.28000 18.02500 41.83000
C  -10.72100 14.91700 43.09200
N  -9.75600 19.95900 43.36600
C  -8.43700 19.87100 43.65600
C  -7.76300 21.21800 43.37000
C  -9.01800 22.22900 43.48900
C  -10.20000 21.32000 43.16100
C  -9.17900 23.08000 44.78700
C  -7.20600 21.14100 41.89600
C  -5.72100 21.32800 41.83600
H  -5.14600 21.99200 40.62900
N  -12.73600 19.74900 42.42100
C  -12.70100 21.11200 42.40500
C  -13.82000 21.68500 41.80100
C  -14.71500 20.54000 41.44800
C  -13.97600 19.38100 41.97500
C  -13.95600 23.14900 41.58600
C  -16.10700 20.70200 40.90300
O  -16.50700 21.78700 40.55200
C  -16.96500 19.55800 40.58900
N  -12.32300 16.75800 42.50200
C  -13.59600 16.83400 41.98300
C  -14.20400 15.47500 41.75300
C  -13.13700 14.43600 42.26800
C  -11.96800 15.38500 42.61000
C  -15.68000 15.32500 42.24400
C  -12.74700 13.32600 41.17400
C  -12.58000 11.84500 41.69900
N  -9.63800 16.95100 43.57700
C  -9.60500 15.61600 43.52300
C  -8.27000 15.14800 43.83700
C  -7.49400 16.27000 44.08600
C  -8.41100 17.38100 43.93800
C  -7.83200 13.69600 43.83200
C  -6.17900 16.83100 44.41400
O  -5.13500 16.26000 44.79000
C  -6.32800 18.35700 44.35500
C  -5.91400 18.87000 45.71900
O  -6.55700 18.76800 46.71500
O  -4.57200 19.27300 45.73000
C  -4.07600 20.03200 46.86100
H  -11.48200 22.90200 42.91100
H  -15.26300 17.74400 41.44600
H  -10.51000 13.87800 42.83000
H  -7.10700 21.36000 44.22900
H  -8.83100 22.94300 42.68700
H  -9.49400 24.06900 44.45300
H  -8.19800 23.15900 45.25700
H  -9.90400 22.62000 45.45800
H  -7.66100 21.85800 41.21200
H  -7.42900 20.19300 41.40700
H  -5.25400 20.37300 42.07700
H  -5.44700 21.91500 42.71300
H  -14.36900 23.40600 40.61000
H  -12.95400 23.56900 41.50100
H  -14.55600 23.59300 42.38000
H  -16.60000 18.96300 39.75100
H  -17.92600 19.89800 40.20300
H  -17.16900 18.91400 41.44400
H  -14.16600 15.36900 40.66900
H  -13.46600 13.92600 43.17400
H  -15.96100 16.16900 42.87400
H  -15.75800 14.36300 42.74900
H  -16.33400 15.23900 41.37700
H  -11.83200 13.66800 40.69000
H  -13.48900 13.33900 40.37500
H  -12.46700 11.09000 40.92100
H  -13.53900 11.48500 42.07200
H  -11.84900 11.87400 42.50600
H  -8.05600 13.27600 42.85100
H  -8.27600 13.12700 44.64900
H  -6.74600 13.61700 43.88600
H  -5.55000 18.56500 43.62000
H  -4.28700 21.09400 46.73200
H  -3.01000 20.06500 47.08800
H  -4.67300 19.79100 47.74000

