158

Mg 47.58300 34.79800 28.30500
C  46.20500 33.11800 30.89500
C  47.91900 37.64200 30.28900
C  48.92600 36.62900 25.65800
C  46.84100 32.26500 26.15300
N  47.07600 35.32600 30.30200
C  46.60900 34.47400 31.22200
C  46.65400 35.10000 32.62100
C  46.77700 36.61300 32.33800
C  47.24900 36.53700 30.84700
C  45.43000 37.41700 32.52900
C  47.85200 34.52200 33.46500
C  47.50200 33.95000 34.81600
H  47.98300 34.75200 36.02300
N  48.34000 36.88000 28.00100
C  48.46000 37.77200 29.01200
C  49.15100 38.92800 28.46500
C  49.43800 38.72600 27.14100
C  48.87600 37.39200 26.82600
C  49.55800 40.11200 29.33700
C  50.29400 39.53000 26.20600
O  50.48800 39.20400 25.02200
C  50.97900 40.77600 26.64300
N  47.84700 34.51200 26.23600
C  48.42100 35.35600 25.38800
C  48.52900 34.78100 23.94900
C  48.11000 33.32400 24.18600
C  47.55600 33.36700 25.56100
C  47.78200 35.57200 22.78300
C  49.22200 32.20700 24.02900
C  48.76600 30.97100 23.27000
N  46.59200 33.11300 28.40000
C  46.45000 32.07300 27.47800
C  45.77800 30.93700 28.04000
C  45.60700 31.38100 29.39700
C  46.18900 32.59300 29.58300
C  45.29500 29.68100 27.37000
C  45.13900 30.92300 30.68600
O  44.60200 29.84400 30.99100
C  45.43400 32.09600 31.74600
C  46.09200 31.47400 32.90300
O  47.22800 31.15300 32.88100
O  45.26100 31.25200 34.00800
C  45.90200 30.53700 35.13100
H  48.01600 38.49200 30.96800
H  49.40900 37.08100 24.78900
H  46.74800 31.43000 25.45600
H  45.74400 34.88000 33.17900
H  47.54500 37.05700 32.97100
H  45.31000 37.98700 31.60800
H  45.52800 38.05300 33.40900
H  44.58400 36.74900 32.68900
H  48.50300 35.34300 33.76500
H  48.29800 33.72700 32.86800
H  48.14800 33.07800 34.91700
H  46.46200 33.63900 34.90600
H  50.63400 40.12600 29.50900
H  49.05900 39.98000 30.29700
H  49.21000 41.06200 28.93000
H  51.36100 41.31100 25.77400
H  51.84200 40.45300 27.22600
H  50.31200 41.45600 27.17200
H  49.59000 34.72800 23.70700
H  47.27200 32.95800 23.59200
H  47.44000 36.51300 23.21300
H  46.86700 35.03400 22.53600
H  48.44200 35.73600 21.93100
H  49.48600 31.85700 25.02800
H  50.20300 32.52400 23.67400
H  49.11700 30.12700 23.86500
H  49.26700 31.02200 22.30300
H  47.70700 31.00000 23.01200
H  45.98300 29.32900 26.60100
H  44.30000 29.92300 26.99600
H  45.28300 28.95300 28.18100
H  44.56400 32.53300 32.23600
H  45.54600 30.92200 36.08600
H  46.99100 30.50200 35.14500
H  45.60700 29.49300 35.23400
Mg 6.46700 54.48600 40.32400
C  6.66100 50.97200 40.16400
C  9.80200 54.59700 39.55500
C  6.11700 57.81700 39.97600
C  2.94900 54.16300 40.53300
N  7.98700 52.95400 39.95400
C  7.85800 51.59500 39.92500
C  9.24200 50.95500 39.96900
C  10.22200 52.13500 40.14700
C  9.26900 53.30500 39.79700
C  11.00500 52.27200 41.49900
C  9.57900 50.11500 38.72500
C  9.39300 50.88500 37.45300
H  8.03800 50.86600 36.66000
N  7.72800 55.99200 39.86000
C  9.06200 55.79900 39.53900
C  9.62900 57.03700 39.27400
C  8.67800 58.03900 39.50300
C  7.42200 57.34300 39.84900
C  11.10300 57.23900 38.95900
C  8.89500 59.52900 39.29300
O  9.99100 60.03200 39.19400
C  7.70300 60.43000 39.31000
N  4.78200 55.73300 40.05800
C  4.93400 57.09000 40.02100
C  3.53900 57.76400 40.09300
C  2.55600 56.64700 40.39600
C  3.47800 55.40500 40.28200
C  3.40700 58.95500 41.08900
C  1.21800 56.62000 39.62900
C  -0.08200 56.78500 40.41000
N  5.02100 52.93900 40.39000
C  3.67500 52.98300 40.62400
C  3.19300 51.53200 40.81700
C  4.34800 50.73200 40.76200
C  5.37000 51.61300 40.35300
C  1.76300 51.06100 41.06300
C  4.93700 49.36300 41.02000
O  4.33800 48.37400 41.38700
C  6.43200 49.44600 40.48200
C  6.24900 48.71800 39.23500
O  5.72700 49.09500 38.20400
O  6.81500 47.46700 39.44300
C  6.58800 46.56100 38.26500
H  10.87900 54.56600 39.37800
H  5.92800 58.88800 40.08200
H  1.89000 53.97100 40.71500
H  9.20400 50.20800 40.76200
H  10.99300 51.95100 39.39800
H  10.64800 51.52700 42.21100
H  10.87800 53.26600 41.92700
H  12.06600 52.11000 41.30900
H  9.02300 49.17800 38.68600
H  10.61200 49.76900 38.71300
H  10.25100 50.72600 36.79900
H  9.39600 51.95600 37.65500
H  11.64500 56.39100 38.54000
H  11.73600 57.82600 39.62400
H  10.99900 57.86500 38.07200
H  6.79200 60.19100 38.76200
H  8.00500 61.34600 38.80100
H  7.38200 60.76700 40.29500
H  3.40000 58.26200 39.13300
H  2.19400 56.80700 41.41100
H  3.28500 59.85100 40.47900
H  4.32200 59.00900 41.67900
H  2.54800 58.88500 41.75700
H  1.17000 55.71500 39.02300
H  1.27700 57.44700 38.92200
H  -0.77500 55.97300 40.18600
H  -0.75100 57.58300 40.08600
H  0.01700 56.96400 41.48000
H  1.22400 51.77600 41.68500
H  1.75900 50.05000 41.46900
H  1.45700 50.99900 40.01800
H  7.17800 49.03500 41.16100
H  7.00500 47.01000 37.36300
H  5.49900 46.53700 38.31500
H  6.93900 45.53500 38.37600

