158

Mg 8.69500 4.20300 27.90400
C  9.97300 2.56600 30.84600
C  6.94300 6.35400 30.04700
C  7.40000 5.60700 25.24500
C  10.27900 1.82400 25.98300
N  8.47700 4.46500 30.18900
C  9.12300 3.68000 31.09100
C  8.85300 4.20500 32.51700
C  7.67800 5.27800 32.31600
C  7.74800 5.44900 30.76000
C  6.30500 4.75600 32.74200
C  10.10800 4.89500 33.13900
C  10.50700 4.26800 34.52400
H  10.89200 5.15900 35.72000
N  7.37800 5.79900 27.70000
C  6.79800 6.59900 28.66300
C  6.01200 7.65000 28.03000
C  6.12200 7.47400 26.56800
C  6.95300 6.24100 26.41900
C  5.27000 8.80800 28.75800
C  5.44400 8.08200 25.38100
O  5.52400 7.65800 24.24800
C  4.58600 9.30000 25.71800
N  8.71400 3.70300 25.92200
C  8.14600 4.49000 24.99100
C  8.47500 3.98100 23.53900
C  9.65800 2.96400 23.71800
C  9.53000 2.76500 25.28300
C  7.25800 3.44100 22.79200
C  11.06700 3.44900 23.32500
C  11.93900 2.37100 22.51500
N  9.78200 2.48000 28.24900
C  10.40700 1.61500 27.37600
C  11.28000 0.72700 28.12700
C  11.15600 1.08900 29.47600
C  10.21400 2.18000 29.48000
C  12.15600 -0.34100 27.60900
C  11.63700 0.80400 30.82300
O  12.50300 0.05000 31.24800
C  10.92400 1.79900 31.70400
C  10.14700 0.98900 32.70500
O  9.21100 0.26900 32.35400
O  10.73200 1.15100 33.91300
C  10.17500 0.31000 34.99200
H  6.40700 6.96500 30.77700
H  7.06800 6.01700 24.28800
H  10.90100 1.22200 25.31700
H  8.45600 3.39500 33.12900
H  7.91600 6.26400 32.71400
H  6.40400 3.72500 33.08300
H  5.68400 4.67900 31.84900
H  5.89800 5.38500 33.53300
H  9.96300 5.97400 33.20000
H  10.94700 4.91600 32.44300
H  11.43500 3.74000 34.30600
H  9.80700 3.52000 34.89600
H  5.81600 9.75100 28.74500
H  5.08700 8.62900 29.81800
H  4.28100 8.96400 28.32500
H  3.73000 9.02900 26.33600
H  4.15400 9.60800 24.76600
H  5.27300 10.05000 26.11000
H  8.71400 4.75900 22.81300
H  9.53200 1.96300 23.30400
H  7.50900 2.48700 22.32800
H  7.23100 4.15700 21.97000
H  6.35700 3.51700 23.40100
H  11.51200 3.78200 24.26200
H  11.03200 4.35000 22.71300
H  12.21700 2.74900 21.53100
H  11.45200 1.40700 22.65800
H  12.91300 2.28200 22.99500
H  12.61900 -0.07500 26.65900
H  11.57200 -1.25900 27.66000
H  13.01300 -0.39200 28.28200
H  11.62900 2.49600 32.15700
H  9.23200 -0.18400 34.75900
H  9.96700 1.00300 35.80700
H  10.92000 -0.42200 35.30500
Mg 48.36800 45.25800 42.42000
C  45.10800 45.82600 40.95300
C  48.33500 42.26300 40.97200
C  51.67800 45.34700 42.44300
C  48.15700 48.61700 43.51400
N  46.92700 44.26600 40.97700
C  45.58800 44.57900 40.58600
C  44.88000 43.43900 39.84500
C  45.81700 42.23700 40.23300
C  47.16200 42.92600 40.78300
C  45.24200 41.27900 41.34900
C  44.70900 43.82500 38.36800
C  43.52700 43.20800 37.68800
H  43.75900 42.70200 36.24800
N  49.81700 43.90400 42.00200
C  49.55300 42.66100 41.34200
C  50.86000 41.94000 41.19300
C  51.84900 42.90400 41.69500
C  51.13800 44.12400 42.01700
C  51.09100 40.66600 40.66400
C  53.30600 42.60100 41.92600
O  53.75200 41.51200 41.58400
C  54.28700 43.48600 42.58900
N  49.66600 46.75800 42.88300
C  50.99300 46.51000 42.92000
C  51.78300 47.77500 43.40400
C  50.67900 48.70000 43.80200
C  49.39500 47.96200 43.48100
C  52.93100 47.60100 44.43300
C  50.73200 50.03500 43.15900
C  50.41300 51.23200 44.14100
N  46.93900 46.90900 42.31500
C  46.98100 48.16800 42.87900
C  45.74500 48.88900 42.63800
C  44.98700 47.92400 41.91600
C  45.79000 46.79500 41.71300
C  45.45300 50.32500 43.00500
C  43.65100 47.69100 41.30000
O  42.67700 48.48000 41.23400
C  43.72600 46.34500 40.62800
C  42.62500 45.62400 41.36600
O  41.72200 45.00300 40.89100
O  42.88300 45.79000 42.75000
C  42.01000 44.94500 43.54700
H  48.25700 41.22500 40.64200
H  52.76900 45.34500 42.39600
H  48.16600 49.62700 43.93100
H  43.91600 43.27200 40.32700
H  45.93100 41.58100 39.37000
H  44.62900 41.89500 42.00600
H  45.98800 40.68000 41.87100
H  44.55500 40.53200 40.95000
H  45.58500 43.39400 37.88300
H  44.79400 44.88200 38.11700
H  42.74900 43.97000 37.63900
H  43.06600 42.39500 38.24800
H  50.10400 40.23900 40.48400
H  51.65300 40.14900 41.44200
H  51.58800 40.76800 39.70000
H  53.84900 43.87200 43.50900
H  54.55600 44.27000 41.88000
H  55.15200 42.86900 42.83200
H  52.22200 48.09300 42.45800
H  50.68500 48.87400 44.87800
H  52.98200 46.56200 44.75700
H  53.01500 48.22400 45.32300
H  53.89500 47.71400 43.93800
H  49.99500 50.11100 42.35900
H  51.74300 50.15100 42.77000
H  49.63700 51.08600 44.89200
H  50.12500 52.07400 43.51200
H  51.30000 51.34800 44.76500
H  45.92700 51.09200 42.39200
H  45.82300 50.44500 44.02300
H  44.38300 50.52900 43.01800
H  43.42700 46.39900 39.58100
H  41.61300 44.07800 43.01700
H  41.20800 45.56900 43.94100
H  42.59000 44.66100 44.42500

