158

Mg 43.41500 4.29000 47.33600
C  41.26000 7.08200 47.40900
C  40.41600 2.37500 46.97500
C  45.30200 1.62800 46.65500
C  46.11000 6.35000 47.34300
N  41.08600 4.74000 46.88000
C  40.56000 5.92900 47.29800
C  39.05600 5.83900 47.49500
C  38.77000 4.26800 47.52000
C  40.17900 3.75800 47.09600
C  38.25300 3.69100 48.86000
C  38.13800 6.62600 46.37600
C  38.59000 6.40600 44.86000
H  38.81600 7.63600 43.99200
N  43.00500 2.32700 46.98200
C  41.69900 1.79500 46.93900
C  41.87100 0.40100 46.84700
C  43.22100 0.08400 46.57900
C  43.92600 1.36900 46.66300
C  40.67900 -0.57200 47.02700
C  43.78600 -1.27700 46.29800
O  43.03700 -2.24600 46.19900
C  45.16000 -1.53100 46.12700
N  45.43100 4.09000 47.06700
C  46.02900 2.81100 46.94000
C  47.52700 3.02800 46.90600
C  47.90500 4.57300 47.10900
C  46.40000 5.01400 47.19500
C  48.45800 2.05900 47.73800
C  48.75100 5.36300 46.06300
C  49.94000 4.67900 45.52200
N  43.69800 6.34500 47.31900
C  44.87900 7.06800 47.49600
C  44.60700 8.44200 47.67700
C  43.16800 8.47100 47.67000
C  42.68000 7.16900 47.36700
C  45.67700 9.53900 47.93900
C  42.04200 9.39400 47.88400
O  42.01800 10.59200 48.16600
C  40.76000 8.52800 47.70000
C  39.94100 8.54800 48.93900
O  40.21100 7.95800 50.01200
O  38.86300 9.39400 48.69300
C  37.82800 9.43800 49.84300
H  39.55300 1.71100 47.04900
H  46.05900 0.85500 46.50700
H  46.99400 6.98900 47.37200
H  38.87800 6.22800 48.49800
H  38.05800 4.08100 46.71600
H  37.59400 4.35200 49.42400
H  39.08400 3.33700 49.47100
H  37.70900 2.77500 48.62900
H  37.97200 7.65400 46.69600
H  37.16400 6.13800 46.35700
H  37.84600 5.76400 44.38600
H  39.50600 5.82200 44.77300
H  40.17100 -0.78200 46.08600
H  40.06000 -0.09800 47.78900
H  41.11900 -1.49700 47.40000
H  45.79300 -1.02100 46.85300
H  45.50200 -0.98900 45.24500
H  45.25700 -2.61100 46.02000
H  47.77500 2.71000 45.89300
H  48.41000 4.70000 48.06700
H  49.17500 1.57100 47.07800
H  47.82100 1.27600 48.15100
H  49.03500 2.55700 48.51700
H  48.96100 6.33300 46.51500
H  48.00400 5.52200 45.28500
H  49.70500 4.35900 44.50700
H  50.42600 3.86700 46.06300
H  50.68700 5.45800 45.37000
H  45.31700 10.56800 47.91300
H  46.46800 9.49200 47.19000
H  46.11700 9.21100 48.88000
H  40.20700 8.85200 46.81700
H  38.30300 9.98800 50.65500
H  37.67100 8.45300 50.28200
H  36.88100 9.80400 49.44400
Mg 30.53000 57.11200 40.10200
C  27.75200 54.98700 39.33300
C  32.61900 54.52700 38.99700
C  33.07800 59.27700 40.12300
C  28.22300 59.74800 40.69100
N  30.20000 55.05700 39.11900
C  29.01300 54.34000 39.05700
C  29.26100 52.86700 38.60400
C  30.82300 52.70400 38.77500
C  31.26100 54.17800 38.96500
C  31.23600 51.81700 39.96400
C  28.79100 52.60800 37.14100
C  28.46500 53.74900 36.13300
H  28.56400 53.34800 34.62000
N  32.57300 56.87800 39.72400
C  33.18700 55.78100 39.26900
C  34.64000 56.00700 39.13400
C  34.85800 57.25400 39.67000
C  33.46800 57.88600 39.84400
C  35.68600 54.84200 38.85000
C  36.18300 57.85800 39.96600
O  37.18700 57.24700 39.70000
C  36.40900 59.21500 40.48900
N  30.63200 59.27400 40.29200
C  31.83500 59.92100 40.32200
C  31.64800 61.39600 40.59500
C  30.07200 61.59800 40.85200
C  29.58400 60.10300 40.56700
C  32.55100 61.93600 41.70800
C  29.27500 62.69100 39.97900
C  29.52600 64.09500 40.48500
N  28.44800 57.46700 39.96700
C  27.70600 58.54200 40.22900
C  26.29200 58.22200 40.00100
C  26.27200 56.74700 39.68000
C  27.68000 56.38700 39.67300
C  25.12900 59.23400 40.21300
C  25.40100 55.66200 39.46300
O  24.14800 55.61800 39.55100
C  26.29700 54.39200 39.23400
C  25.93400 53.28400 40.13500
O  26.47800 52.93800 41.15900
O  24.94400 52.51100 39.52000
C  24.68900 51.19500 40.07500
H  33.22900 53.64200 38.80400
H  33.94500 59.94100 40.14500
H  27.53300 60.56200 40.92400
H  28.74200 52.24400 39.33200
H  31.23500 52.27600 37.86100
H  31.94100 51.02800 39.70400
H  30.39200 51.33500 40.45900
H  31.67500 52.43100 40.75000
H  27.94200 51.93000 37.22400
H  29.60400 51.99600 36.75100
H  29.23500 54.48500 36.36700
H  27.47600 54.15500 36.34200
H  36.58500 55.16700 38.32600
H  35.12400 54.10200 38.28100
H  36.06600 54.32000 39.72900
H  35.75800 59.34000 41.35400
H  36.35700 60.05100 39.79100
H  37.45700 59.26200 40.78400
H  31.89700 61.92000 39.67200
H  29.90700 61.75300 41.91800
H  33.49200 61.39200 41.63900
H  32.05800 61.80400 42.67100
H  32.92500 62.94000 41.50800
H  28.20000 62.53000 40.05600
H  29.58100 62.71300 38.93300
H  30.33100 64.05800 41.21800
H  28.61100 64.62400 40.75300
H  30.11500 64.67900 39.77800
H  24.32200 59.00000 39.51900
H  25.54200 60.22100 40.00400
H  24.75100 59.34200 41.23000
H  26.03600 54.16800 38.20000
H  23.73300 51.29900 40.58700
H  25.42100 50.86800 40.81300
H  24.74300 50.54600 39.20100

