158

Mg 30.18900 57.23800 40.50300
C  27.36500 55.30500 39.50300
C  32.15000 54.45700 39.85800
C  32.91300 59.27200 40.46400
C  28.03800 60.07700 40.40300
N  29.78600 55.14800 39.70500
C  28.57000 54.55300 39.41100
C  28.79600 53.20500 38.70600
C  30.12800 52.82700 39.41100
C  30.77200 54.22700 39.62900
C  30.10100 52.08300 40.82800
C  28.88500 53.35800 37.12100
C  27.91500 52.41700 36.31500
H  27.14300 52.89300 35.07600
N  32.28100 56.93200 40.25900
C  32.82800 55.69400 40.00000
C  34.30100 56.00800 40.02500
C  34.58100 57.38600 40.22400
C  33.24700 57.94600 40.32800
C  35.24100 54.93800 39.53700
C  36.00800 58.03100 40.29200
O  37.01400 57.37100 40.09300
C  36.29400 59.45200 40.79400
N  30.42600 59.30600 40.46400
C  31.64100 59.92200 40.54300
C  31.55300 61.43800 40.67900
C  29.97800 61.64800 40.74900
C  29.43800 60.24300 40.54800
C  32.22900 62.20000 41.90400
C  29.42700 62.62200 39.74400
C  28.22800 63.41900 40.26900
N  28.09800 57.64700 40.25600
C  27.37700 58.82200 40.25500
C  25.92200 58.52800 40.01100
C  25.87100 57.19800 39.75300
C  27.20000 56.70300 39.84600
C  24.76100 59.58300 39.93200
C  25.06100 56.03900 39.30000
O  23.91300 55.97700 39.09200
C  25.94600 54.77600 39.17700
C  25.55000 53.76400 40.15700
O  26.25700 53.44100 41.07900
O  24.36500 53.16400 39.77800
C  24.02800 51.81200 40.14000
H  32.81000 53.59700 39.72100
H  33.70100 60.02500 40.40700
H  27.31100 60.88600 40.49500
H  28.03700 52.49000 39.02400
H  30.80700 52.30700 38.73600
H  29.09700 51.66000 40.83800
H  30.17900 52.80900 41.63700
H  30.78400 51.24000 40.93800
H  29.93800 53.25300 36.86400
H  28.51600 54.34000 36.82300
H  27.32300 51.83700 37.02300
H  28.49000 51.58900 35.90100
H  34.80800 54.31700 38.75300
H  35.61700 54.22500 40.27000
H  36.07500 55.49500 39.10800
H  36.28700 60.23200 40.03300
H  37.22000 59.40300 41.36700
H  35.57800 59.68000 41.58400
H  31.95100 61.91300 39.78300
H  29.68800 62.02900 41.72900
H  33.00600 62.88800 41.56800
H  32.77600 61.47600 42.50800
H  31.50700 62.78200 42.47700
H  29.14900 62.23400 38.76400
H  30.09800 63.45400 39.53200
H  28.45200 64.48100 40.37400
H  27.83000 63.16100 41.25000
H  27.50400 63.25200 39.47200
H  24.96000 60.24000 39.08600
H  24.70800 60.14500 40.86500
H  23.88700 59.00000 39.64300
H  25.72100 54.28200 38.23200
H  23.09600 51.72400 40.69900
H  24.83300 51.31600 40.68200
H  23.86200 51.31600 39.18400
Mg 35.85200 49.10900 25.60300
C  36.17700 47.58900 28.66700
C  34.24500 51.87400 27.26700
C  35.16200 50.59200 22.58500
C  37.09800 46.39500 24.06700
N  35.22700 49.66200 27.78000
C  35.59000 48.88000 28.86000
C  35.17100 49.59200 30.14900
C  34.53100 50.96300 29.72600
C  34.65000 50.82500 28.14300
C  33.02100 51.08200 30.15700
C  36.45700 49.65500 31.14000
C  36.10200 49.50400 32.63900
H  34.62400 49.53400 33.08900
N  34.85400 51.00300 25.00400
C  34.34200 51.97600 25.84300
C  33.98700 53.15000 25.01700
C  34.25500 52.80300 23.62500
C  34.69900 51.40600 23.70000
C  33.59300 54.53100 25.69300
C  34.17500 53.69700 22.42300
O  34.54800 53.36000 21.29600
C  33.63600 55.12200 22.56200
N  35.99100 48.52700 23.58100
C  35.77600 49.33400 22.55500
C  36.24200 48.70500 21.27300
C  36.92800 47.33300 21.76500
C  36.74800 47.42600 23.20300
C  35.15400 48.47700 20.14000
C  38.39600 47.23000 21.40500
C  39.46800 48.03500 22.09200
N  36.53000 47.32600 26.18300
C  37.04100 46.26100 25.44400
C  37.40400 45.18100 26.27900
C  37.07700 45.65700 27.56300
C  36.51100 46.97400 27.47400
C  37.94900 43.83500 25.86900
C  36.98300 45.26900 28.99200
O  37.27100 44.23200 29.52800
C  36.48000 46.48900 29.71000
C  35.19800 46.12200 30.44200
O  34.13400 45.96100 29.88900
O  35.46900 45.76700 31.73500
C  34.43200 44.96400 32.42300
H  33.64400 52.63100 27.77600
H  34.90400 51.03300 21.62100
H  37.55100 45.53600 23.56900
H  34.41000 48.92100 30.54800
H  35.05500 51.80300 30.18200
H  32.88800 52.03200 30.67400
H  32.61300 50.38100 30.88500
H  32.33000 51.06100 29.31400
H  37.04400 50.56700 31.02800
H  37.15200 48.87300 30.83000
H  36.68100 50.19000 33.25700
H  36.48900 48.49700 32.79500
H  32.52500 54.75100 25.66100
H  34.14400 55.32500 25.18800
H  34.03100 54.54100 26.69100
H  33.55300 55.59800 21.58500
H  34.41200 55.64700 23.11900
H  32.75000 55.06700 23.19500
H  37.03200 49.34300 20.87600
H  36.43600 46.49100 21.28000
H  34.17100 48.55700 20.60500
H  35.34500 47.49900 19.69700
H  35.38100 49.26900 19.42700
H  38.44500 47.56900 20.37100
H  38.57300 46.17200 21.59900
H  39.56900 47.83800 23.15900
H  39.33800 49.09400 21.86500
H  40.44700 47.83400 21.65700
H  38.73300 44.06400 25.14700
H  37.13500 43.21800 25.48700
H  38.48800 43.43300 26.72700
H  37.22000 46.75800 30.46300
H  34.83200 43.96400 32.58900
H  33.48300 44.94400 31.88700
H  34.12800 45.50800 33.31800

