158

Mg 41.29600 7.16200 29.48600
C  42.54100 8.70000 32.47100
C  38.65100 6.05200 31.30600
C  40.08100 5.78100 26.65000
C  44.09100 8.37300 27.86400
N  40.77300 7.17600 31.73900
C  41.39000 7.92100 32.74300
C  40.49700 7.92600 34.03200
C  39.32200 7.01100 33.66200
C  39.52000 6.80400 32.10900
C  39.39500 5.57600 34.34000
C  39.99300 9.38400 34.42700
C  40.06300 9.63700 35.95400
H  40.70500 10.93600 36.57300
N  39.58700 6.11300 29.02800
C  38.60000 5.76300 29.95600
C  37.47700 5.16600 29.33200
C  37.79600 5.21800 27.87900
C  39.24600 5.67300 27.78900
C  36.21100 4.66000 30.04600
C  36.99500 4.81400 26.72200
O  37.53400 4.72200 25.60500
C  35.47500 4.47200 26.83900
N  41.96900 7.08400 27.57600
C  41.30800 6.44600 26.54100
C  42.11300 6.58300 25.28800
C  43.38200 7.33600 25.68700
C  43.18100 7.63700 27.16600
C  42.34600 5.35300 24.42400
C  43.80300 8.44700 24.75800
C  42.79500 9.56100 24.49300
N  43.06900 8.27400 30.04300
C  44.09600 8.60200 29.25400
C  45.04600 9.36100 30.08000
C  44.42700 9.49300 31.34700
C  43.23600 8.74500 31.23900
C  46.30400 9.93600 29.64300
C  44.57200 10.00600 32.66100
O  45.55900 10.64500 33.08500
C  43.47100 9.42100 33.47500
C  44.09700 8.61200 34.47900
O  44.43300 7.43500 34.32100
O  44.30600 9.35600 35.66500
C  44.90800 8.66600 36.78700
H  37.86000 5.62400 31.92500
H  39.80400 5.35200 25.68500
H  44.97200 8.76200 27.35000
H  41.12200 7.64800 34.88000
H  38.37300 7.49100 33.89900
H  39.40500 4.81200 33.56300
H  38.57400 5.42800 35.04200
H  40.29700 5.36900 34.91400
H  38.94600 9.54200 34.16700
H  40.65000 10.01100 33.82500
H  40.40300 8.73400 36.46100
H  39.00800 9.78800 36.18000
H  36.34000 4.59800 31.12700
H  36.12400 3.64300 29.66500
H  35.41200 5.33200 29.73300
H  34.95800 5.23200 27.42300
H  35.49300 3.53200 27.39000
H  35.15000 4.33400 25.80700
H  41.49200 7.31500 24.77200
H  44.19900 6.62800 25.54800
H  43.20100 5.54400 23.77600
H  41.53800 5.31200 23.69300
H  42.22900 4.48300 25.07000
H  44.06000 7.94800 23.82400
H  44.80600 8.83100 24.94700
H  41.95400 9.59300 25.18600
H  42.32700 9.52300 23.51000
H  43.10900 10.60300 24.55600
H  46.39100 11.00500 29.83300
H  46.38600 9.69500 28.58300
H  47.08800 9.43400 30.21100
H  43.11900 10.35900 33.90400
H  45.21800 9.52400 37.38200
H  45.64800 7.91300 36.51700
H  44.20600 8.12300 37.42100
Mg -10.87200 17.63700 42.98200
C  -7.56400 18.60700 42.88900
C  -11.74900 20.85300 42.51000
C  -14.07400 16.49900 42.79900
C  -9.83200 14.24700 42.56100
N  -9.76400 19.49200 42.68600
C  -8.42900 19.66100 42.75200
C  -8.07000 21.10800 42.60300
C  -9.40800 21.87400 42.91200
C  -10.35900 20.66500 42.74600
C  -9.44800 22.54500 44.31900
C  -7.55900 21.30500 41.14700
C  -6.08500 21.84900 41.00200
H  -5.15500 20.99700 40.10400
N  -12.67500 18.54100 42.56200
C  -12.85000 19.92500 42.42800
C  -14.30600 20.17800 42.30400
C  -15.00200 18.95400 42.36000
C  -13.96600 17.93800 42.58900
C  -14.89900 21.55800 42.18600
C  -16.53400 18.74600 42.33800
O  -17.25300 19.72400 42.25100
C  -17.15900 17.37300 42.32500
N  -11.84400 15.63700 42.46800
C  -13.19300 15.47200 42.69100
C  -13.52500 13.98800 42.64100
C  -12.18800 13.30500 42.38500
C  -11.25700 14.44800 42.43900
C  -14.24700 13.43100 43.97700
C  -12.12400 12.49500 41.03300
C  -11.98400 10.95700 41.15800
N  -9.02300 16.47500 42.85400
C  -8.72800 15.17900 42.66800
C  -7.30700 15.02200 42.77000
C  -6.77100 16.32300 42.89300
C  -7.82800 17.17200 42.80200
C  -6.48700 13.77200 42.69100
C  -5.53600 17.13700 43.06700
O  -4.41700 16.81300 43.18500
C  -6.05700 18.64900 43.06800
C  -5.74300 19.28500 44.39400
O  -6.39500 19.11300 45.39200
O  -4.71600 20.14200 44.35500
C  -4.70600 21.25000 45.36000
H  -12.01100 21.91300 42.53800
H  -15.03600 15.99000 42.88900
H  -9.55500 13.20500 42.39200
H  -7.34200 21.37700 43.36900
H  -9.60900 22.61100 42.13500
H  -8.59900 22.43500 44.99300
H  -10.26000 22.08100 44.87900
H  -9.59700 23.61100 44.14200
H  -8.22500 21.93800 40.56100
H  -7.53800 20.31600 40.68900
H  -5.60700 21.81800 41.98100
H  -6.07600 22.92500 40.82900
H  -15.75000 21.73700 41.52900
H  -14.26500 22.44100 42.09800
H  -15.30500 21.61100 43.19700
H  -18.23800 17.47700 42.21200
H  -16.91600 17.06900 43.34400
H  -16.65800 16.73900 41.59400
H  -14.23200 13.93800 41.81300
H  -11.87200 12.69000 43.22700
H  -14.07100 14.22900 44.69900
H  -13.66900 12.57400 44.32300
H  -15.28700 13.11900 43.88900
H  -11.28600 12.79500 40.40300
H  -12.99700 12.73400 40.42600
H  -11.42200 10.40000 40.40800
H  -12.94100 10.43500 41.16300
H  -11.39600 10.69300 42.03700
H  -5.43900 13.92100 42.94900
H  -6.48800 13.52000 41.63000
H  -6.95100 12.99700 43.30100
H  -5.58000 19.07800 42.18700
H  -5.69900 21.45100 45.76200
H  -4.56200 22.17900 44.80800
H  -3.96300 21.07700 46.13900

