158

Mg -2.24600 17.34400 26.88900
C  -2.84300 15.29600 29.63300
C  -2.42000 20.02200 28.97200
C  -2.10400 19.32500 24.11600
C  -2.73500 14.57000 24.73300
N  -2.76400 17.62600 29.15000
C  -2.79400 16.63500 30.08100
C  -2.76500 17.22200 31.57800
C  -2.78700 18.79500 31.25600
C  -2.67100 18.86600 29.72900
C  -4.12700 19.47600 31.69000
C  -1.61700 16.77900 32.49400
C  -1.18400 17.63900 33.59800
H  -0.94500 16.81400 34.92800
N  -1.95500 19.28600 26.61300
C  -2.05600 20.22200 27.62900
C  -1.67400 21.54600 27.11600
C  -1.65100 21.36400 25.73500
C  -1.90400 19.89000 25.41700
C  -1.58200 22.77700 27.99500
C  -1.39800 22.51600 24.69300
O  -1.48300 22.39400 23.51300
C  -1.21000 23.82500 25.20700
N  -2.74900 17.03600 24.78300
C  -2.58100 18.07200 23.84200
C  -2.77700 17.46700 22.43800
C  -2.40900 15.99000 22.66500
C  -2.60400 15.81400 24.15500
C  -4.21800 17.67900 21.99100
C  -0.95200 15.58900 22.24100
C  0.14000 16.06900 23.13300
N  -2.68600 15.34600 27.07500
C  -2.83600 14.37800 26.14500
C  -3.05700 13.09300 26.78600
C  -3.04900 13.37400 28.19000
C  -2.82000 14.79100 28.30800
C  -3.30400 11.69800 26.19100
C  -3.25600 12.84400 29.53900
O  -3.40700 11.70200 29.97600
C  -3.09200 14.02200 30.50000
C  -1.90700 13.61000 31.33700
O  -0.71500 13.90300 31.19300
O  -2.43400 12.92700 32.40500
C  -1.48500 12.45700 33.39900
H  -2.36100 20.87200 29.65600
H  -2.10300 19.97700 23.24000
H  -2.79400 13.62500 24.18800
H  -3.64600 16.86800 32.11300
H  -2.06000 19.43000 31.76200
H  -3.88000 20.47600 32.04800
H  -4.60600 18.96800 32.52700
H  -4.78300 19.59500 30.82800
H  -0.79300 16.51400 31.83100
H  -2.07700 15.85000 32.83200
H  -1.84800 18.49100 33.74600
H  -0.28600 18.16000 33.26800
H  -1.40900 22.57800 29.05300
H  -2.42300 23.46000 27.88500
H  -0.63000 23.24300 27.73900
H  -0.24300 23.79000 25.70900
H  -2.02000 24.09100 25.88700
H  -1.13400 24.51200 24.36500
H  -2.04100 17.88800 21.75400
H  -3.10400 15.36600 22.10400
H  -4.82900 17.95100 22.85100
H  -4.51300 16.77100 21.46500
H  -4.24500 18.59800 21.40500
H  -0.89300 16.03700 21.25000
H  -0.92000 14.51900 22.03300
H  0.68700 15.19900 23.49800
H  -0.28900 16.58500 23.99100
H  0.73200 16.79100 22.57100
H  -2.36700 11.14700 26.27100
H  -3.66600 11.82200 25.17000
H  -4.10700 11.25500 26.78100
H  -4.00700 14.13500 31.08100
H  -1.12700 11.59700 32.83300
H  -1.97300 12.04800 34.28400
H  -0.72800 13.18500 33.69000
Mg 7.64800 2.73400 28.49000
C  9.45500 1.82000 31.29200
C  5.73400 4.91700 30.42200
C  6.01500 3.68700 25.71100
C  9.26500 0.21400 26.65100
N  7.67100 3.31600 30.65700
C  8.43800 2.76900 31.59100
C  8.09600 3.40900 33.01100
C  6.79700 4.25100 32.67800
C  6.68600 4.19000 31.14300
C  5.52000 3.82400 33.49600
C  9.29700 4.33900 33.34500
C  9.22100 4.73300 34.85400
H  10.02100 3.97700 35.84100
N  6.21800 4.15800 28.14600
C  5.49900 4.86000 29.08100
C  4.43100 5.65700 28.43700
C  4.55600 5.37800 27.02100
C  5.60100 4.37300 26.90500
C  3.44900 6.53800 29.15100
C  3.77900 5.98200 25.91800
O  3.98200 5.74600 24.72800
C  2.70800 6.96200 26.19000
N  7.68800 2.08600 26.48500
C  6.94800 2.70100 25.46500
C  7.29900 2.13800 24.10900
C  8.28500 0.96900 24.43000
C  8.52300 1.11200 25.97800
C  6.06900 1.63600 23.30400
C  9.64400 1.05600 23.63900
C  10.95600 1.82800 24.23400
N  9.06600 1.28000 28.84400
C  9.62900 0.34600 27.99600
C  10.68100 -0.35700 28.65900
C  10.60600 0.12900 29.99000
C  9.63600 1.20100 30.03300
C  11.57900 -1.51000 28.23400
C  11.09500 -0.01500 31.31000
O  11.94000 -0.84800 31.71500
C  10.45900 1.14000 32.24300
C  9.70700 0.29600 33.25900
O  8.74300 -0.43800 33.10600
O  10.45200 0.37700 34.45300
C  10.13900 -0.61200 35.46900
H  5.15300 5.57400 31.07400
H  5.53600 4.01800 24.78700
H  9.91400 -0.44400 26.06900
H  7.94800 2.66700 33.79600
H  7.08500 5.25800 32.98200
H  4.80600 3.25600 32.90000
H  4.93300 4.67300 33.84400
H  5.92300 3.17800 34.27600
H  9.37500 5.12700 32.59600
H  10.20500 3.74200 33.25600
H  8.19100 4.63700 35.19700
H  9.54500 5.76700 34.97000
H  3.73700 7.56600 28.93300
H  3.51700 6.45000 30.23500
H  2.41400 6.33400 28.87600
H  1.92100 6.52700 26.80600
H  2.34800 7.33200 25.23100
H  3.09300 7.87500 26.64600
H  7.69700 2.96300 23.51900
H  7.83800 0.02200 24.12800
H  5.08800 1.74900 23.76500
H  6.19800 0.60400 22.98000
H  6.00400 2.22800 22.39000
H  9.31000 1.52800 22.71600
H  9.99100 0.05500 23.38100
H  11.27200 2.63000 23.56700
H  11.82800 1.17600 24.26700
H  10.78600 2.21500 25.23900
H  10.98700 -2.40700 28.41900
H  12.51600 -1.54800 28.79000
H  11.71800 -1.39600 27.15900
H  11.18300 1.67200 32.86100
H  9.75700 -1.57600 35.13300
H  9.39300 -0.22200 36.16200
H  11.08700 -0.74700 35.99000

