158

Mg 5.67700 54.56100 41.21800
C  5.20800 50.87900 40.58000
C  8.64300 54.16400 39.74000
C  5.68600 57.68500 41.26500
C  2.41300 54.35500 42.54500
N  6.69400 52.74100 40.17200
C  6.38600 51.37400 40.03700
C  7.55800 50.68400 39.41300
C  8.80200 51.70300 39.51900
C  7.97800 52.95800 39.79600
C  9.81800 51.32700 40.61800
C  7.36700 50.00300 38.00400
C  6.37200 50.70400 37.00300
H  5.68000 49.74400 35.98000
N  6.93700 55.76700 40.39400
C  8.21100 55.44500 39.86700
C  8.91700 56.61100 39.58000
C  8.11000 57.72000 40.07200
C  6.83700 57.07600 40.61300
C  10.35300 56.69200 39.13000
C  8.56800 59.15300 40.10300
O  9.64500 59.52900 39.62100
C  7.76800 60.26000 40.80900
N  4.25000 55.85600 41.84900
C  4.49900 57.14300 41.72700
C  3.28900 57.96800 42.24300
C  2.20200 56.91200 42.64900
C  3.04800 55.62800 42.40900
C  3.70100 58.86900 43.38500
C  0.87800 57.00600 41.79300
C  0.87000 56.39100 40.38100
N  4.15600 52.96800 41.69500
C  2.89000 53.10000 42.24000
C  2.24000 51.76100 42.29900
C  3.21700 50.91100 41.69700
C  4.27800 51.71100 41.24400
C  0.82300 51.46900 42.68400
C  3.40500 49.56700 41.24400
O  2.63500 48.60700 41.25100
C  4.72800 49.46400 40.60900
C  4.55500 48.69100 39.34900
O  3.96200 48.96500 38.28500
O  5.14500 47.44700 39.54700
C  5.01300 46.46000 38.46200
H  9.61600 54.12200 39.24600
H  5.65300 58.77300 41.17700
H  1.40600 54.39800 42.96500
H  7.77700 49.90800 40.14700
H  9.37200 51.89600 38.61000
H  9.70900 50.26500 40.83800
H  9.60300 51.96600 41.47500
H  10.85100 51.56000 40.35800
H  6.88500 49.06800 38.28800
H  8.31100 49.92200 37.46500
H  7.10300 51.28700 36.44100
H  5.65500 51.34800 37.51200
H  10.92300 56.80400 40.05200
H  10.51100 57.52500 38.44400
H  10.57200 55.73900 38.64800
H  8.40000 61.08200 41.14800
H  7.45100 59.92100 41.79500
H  7.03000 60.60300 40.08400
H  2.86300 58.57000 41.44100
H  1.97900 57.09600 43.70000
H  3.44600 59.88100 43.06800
H  4.76200 59.06600 43.53900
H  3.17600 58.65500 44.31600
H  0.68300 58.07700 41.74100
H  0.13800 56.64100 42.50500
H  0.71800 57.08000 39.55000
H  -0.00700 55.74800 40.30700
H  1.75500 55.76600 40.26900
H  0.27300 52.38700 42.89100
H  0.71000 50.74600 43.49200
H  0.38900 50.99300 41.80500
H  5.37700 48.90200 41.28200
H  5.86500 45.78900 38.57400
H  5.16500 46.90700 37.47900
H  4.17900 45.75900 38.49900
Mg -2.88200 34.75800 26.99600
C  -4.79400 33.12400 29.43700
C  -1.77600 36.80500 29.47100
C  -1.12600 36.33800 24.58800
C  -4.32200 32.63500 24.58200
N  -3.41100 35.04200 29.26600
C  -4.11500 34.15300 30.01400
C  -3.82400 34.41700 31.56900
C  -2.86200 35.67400 31.56600
C  -2.60100 35.85600 30.01900
C  -3.36500 36.98000 32.27900
C  -3.19800 33.13000 32.35800
C  -3.97200 32.77700 33.61700
H  -3.10500 32.53500 34.90600
N  -1.59200 36.35300 27.00500
C  -1.30400 37.05900 28.12000
C  -0.41000 38.11600 27.70200
C  -0.16300 37.97300 26.28900
C  -0.94700 36.89400 25.88600
C  0.21100 39.14300 28.65500
C  0.64300 38.80600 25.35700
O  0.68700 38.59900 24.14200
C  1.35100 40.01000 25.78800
N  -2.89800 34.67000 24.78700
C  -1.95100 35.34000 24.01800
C  -1.81400 34.72500 22.60400
C  -2.89500 33.55400 22.65100
C  -3.34200 33.61400 24.10200
C  -2.16200 35.85500 21.51300
C  -2.23200 32.17200 22.22700
C  -3.17600 31.25300 21.34100
N  -4.41900 33.30200 26.91200
C  -4.87200 32.52800 25.85100
C  -5.74600 31.51900 26.44300
C  -5.76100 31.73800 27.81600
C  -4.90000 32.81900 28.05200
C  -6.56800 30.43000 25.71300
C  -6.31600 31.19600 28.94500
O  -7.03400 30.20800 29.12200
C  -5.75900 32.13600 30.13800
C  -6.97200 32.81100 30.75000
O  -7.55300 33.69900 30.22100
O  -7.29300 32.17300 31.97300
C  -8.38000 32.94100 32.64400
H  -1.31400 37.48300 30.19100
H  -0.68100 36.84000 23.72700
H  -4.73600 31.85500 23.93800
H  -4.79100 34.69900 31.98500
H  -1.93000 35.30400 31.99400
H  -2.47400 37.49200 32.64300
H  -4.00000 36.73800 33.13100
H  -3.88500 37.63300 31.57800
H  -2.16000 33.37200 32.58300
H  -3.14300 32.29800 31.65600
H  -4.51900 31.87700 33.33400
H  -4.68800 33.59200 33.72300
H  1.28500 38.96000 28.65100
H  -0.05800 38.97400 29.69800
H  0.02400 40.19000 28.41500
H  0.71200 40.79500 26.19100
H  1.88000 40.45300 24.94400
H  2.08500 39.57900 26.46900
H  -0.79700 34.38800 22.40100
H  -3.82100 33.65300 22.08400
H  -2.18700 36.83400 21.99200
H  -3.19900 35.66200 21.23800
H  -1.46300 35.63900 20.70500
H  -1.95100 31.50400 23.04100
H  -1.34000 32.32800 21.62100
H  -4.04900 31.75600 20.92700
H  -3.45300 30.44400 22.01800
H  -2.57400 30.76900 20.57200
H  -7.52000 30.26200 26.21500
H  -6.02700 29.48400 25.73500
H  -6.73800 30.65800 24.66100
H  -5.38700 31.38700 30.83700
H  -7.81600 33.69900 33.18800
H  -8.93700 32.31500 33.34100
H  -9.11300 33.51000 32.07400

