158

Mg -1.94000 34.23600 26.85800
C  -3.41000 32.50400 29.49800
C  -0.95800 36.58700 29.07800
C  -1.25400 36.14900 24.21900
C  -3.58600 31.89500 24.61900
N  -2.23900 34.59600 29.00000
C  -2.72000 33.66900 29.93200
C  -2.32300 34.08300 31.38400
C  -1.41900 35.31600 31.20200
C  -1.60200 35.54200 29.67300
C  -1.66500 36.57800 32.04600
C  -1.70100 32.86500 32.19700
C  -2.39000 32.42700 33.51000
H  -1.60900 32.53200 34.90100
N  -1.16500 36.06900 26.66300
C  -0.90900 36.92000 27.77900
C  -0.35800 38.19000 27.20300
C  -0.28400 37.99300 25.77900
C  -0.96100 36.69600 25.48400
C  0.47300 39.27200 27.96400
C  0.34400 38.89300 24.68900
O  0.28600 38.60900 23.43900
C  1.03300 40.07700 24.98600
N  -2.43000 34.10100 24.64500
C  -1.91700 34.96100 23.82400
C  -2.05500 34.40400 22.35300
C  -2.58800 33.00000 22.48700
C  -2.94400 33.00200 24.00000
C  -2.90200 35.20100 21.37900
C  -1.48700 31.94100 22.10600
C  -0.34000 31.91500 23.06300
N  -3.21700 32.54800 27.02600
C  -3.70300 31.67600 26.05500
C  -4.45700 30.58600 26.71700
C  -4.40500 30.87600 28.09600
C  -3.52700 32.03000 28.18800
C  -5.26900 29.57400 26.08700
C  -4.81600 30.53100 29.37400
O  -5.57800 29.60000 29.69600
C  -4.22500 31.54400 30.29000
C  -5.26300 32.27500 31.08100
O  -6.02300 33.12200 30.66900
O  -5.21000 31.69300 32.34500
C  -6.31900 32.11800 33.22100
H  -0.40600 37.24800 29.75000
H  -0.94500 36.71700 23.33900
H  -4.08000 31.15200 23.99000
H  -3.21800 34.46100 31.87900
H  -0.41400 34.98900 31.46900
H  -1.71600 37.49000 31.45000
H  -0.96900 36.56700 32.88500
H  -2.65000 36.52600 32.50900
H  -0.66600 33.03000 32.49700
H  -1.63700 31.98500 31.55800
H  -2.70700 31.38400 33.50600
H  -3.26700 33.07300 33.54000
H  0.16500 40.25300 27.60200
H  1.55200 39.25400 27.81500
H  0.34800 39.26500 29.04700
H  1.79300 40.20000 25.75800
H  0.40300 40.96600 24.96700
H  1.56000 40.43500 24.10200
H  -1.03600 34.50500 21.97900
H  -3.39400 32.74300 21.79900
H  -3.52500 35.85500 21.99000
H  -3.50600 34.63600 20.66900
H  -2.31700 35.92700 20.81600
H  -1.06200 32.16500 21.12700
H  -1.91500 30.94000 22.15100
H  -0.51200 31.43500 24.02600
H  0.00500 32.90800 23.35100
H  0.47300 31.34500 22.61300
H  -4.84400 29.20400 25.15400
H  -6.32500 29.82800 25.99400
H  -5.17700 28.74100 26.78300
H  -3.44000 31.09500 30.89900
H  -5.92900 32.56200 34.13600
H  -6.81800 31.18600 33.48900
H  -6.93700 32.91100 32.80100
Mg -5.26600 24.89900 25.98500
C  -3.72700 26.53600 28.53700
C  -6.33900 22.44100 28.22600
C  -6.86100 23.37600 23.48500
C  -3.64300 27.13700 23.78600
N  -5.21500 24.76700 28.09900
C  -4.62900 25.56800 28.96200
C  -4.88000 25.23700 30.40400
C  -5.52000 23.79700 30.26500
C  -5.69100 23.62200 28.76700
C  -4.72200 22.68200 30.94500
C  -5.78000 26.27000 31.06900
C  -5.50700 26.78400 32.49400
H  -5.00200 25.71400 33.42300
N  -6.49100 23.17700 25.89100
C  -6.65900 22.21200 26.89800
C  -7.30700 21.09800 26.39100
C  -7.54300 21.40100 24.95300
C  -7.03300 22.76700 24.72100
C  -7.65100 19.94300 27.27700
C  -8.11900 20.38500 23.91300
O  -8.24400 20.76400 22.74300
C  -8.53300 19.02700 24.39700
N  -5.27000 25.26300 23.92700
C  -6.06900 24.48500 23.08800
C  -5.97900 24.91300 21.59200
C  -4.87400 26.02900 21.72200
C  -4.62700 26.23900 23.23300
C  -5.68300 23.81200 20.53500
C  -5.20400 27.28400 20.94800
C  -4.05900 27.86000 20.05100
N  -3.71000 26.36400 26.04200
C  -3.15700 27.15900 25.07200
C  -2.21300 28.05200 25.77300
C  -2.36600 27.84000 27.12900
C  -3.36900 26.84400 27.22400
C  -1.34200 29.06700 25.13600
C  -1.99100 28.26800 28.43900
O  -1.15000 29.11400 28.87800
C  -2.84700 27.41400 29.42100
C  -1.85400 26.72700 30.31700
O  -0.91800 26.08700 29.87800
O  -2.06700 27.12100 31.59300
C  -1.03400 26.71700 32.53200
H  -6.67000 21.83800 29.07400
H  -7.29700 22.83800 22.64100
H  -3.25700 27.90400 23.11100
H  -3.91800 25.19000 30.91500
H  -6.49500 23.71600 30.74600
H  -4.26800 23.11900 31.83500
H  -3.96100 22.23100 30.30800
H  -5.36600 21.83900 31.19600
H  -6.72000 25.75000 31.25300
H  -5.97400 27.14100 30.44300
H  -6.25300 27.39500 33.00200
H  -4.61600 27.37700 32.28900
H  -7.10900 19.08500 26.87900
H  -8.71000 19.69500 27.22100
H  -7.52800 19.87300 28.35800
H  -9.14500 18.55200 23.63000
H  -9.28100 19.15000 25.18000
H  -7.82300 18.27400 24.73800
H  -6.93300 25.38700 21.36300
H  -3.94900 25.53100 21.43100
H  -5.39900 22.87400 21.01300
H  -4.86200 24.11500 19.88500
H  -6.58500 23.77700 19.92300
H  -5.81300 28.00500 21.49200
H  -5.83800 26.88900 20.15400
H  -4.47700 28.41600 19.21100
H  -3.39100 27.17100 19.53400
H  -3.31500 28.38300 20.65300
H  -0.31400 28.92900 25.47000
H  -1.61000 30.04600 25.53400
H  -1.48800 29.08100 24.05600
H  -3.30700 28.16000 30.06900
H  -1.42400 27.28600 33.37500
H  -0.01400 27.08000 32.40500
H  -0.99800 25.64400 32.72100

