158

Mg 24.67300 -6.87300 47.11700
C  27.54200 -4.73900 46.02800
C  22.97900 -5.34600 44.45800
C  22.62400 -9.36200 47.44500
C  27.22000 -8.65300 48.90000
N  25.25200 -5.26600 45.38000
C  26.41100 -4.60100 45.23500
C  26.22300 -3.52200 44.18500
C  24.71900 -3.49300 43.80800
C  24.24400 -4.79700 44.54400
C  23.96100 -2.12500 44.20700
C  27.16100 -3.86300 42.99100
C  28.16500 -2.65600 42.67000
H  27.82200 -1.91500 41.34900
N  22.90200 -7.21400 46.20800
C  22.33200 -6.45000 45.23300
C  21.06600 -7.06900 44.85000
C  20.97600 -8.27800 45.59200
C  22.21000 -8.32600 46.44400
C  20.09400 -6.51500 43.73900
C  19.84900 -9.30700 45.38400
O  18.82000 -9.08500 44.74800
C  20.00800 -10.61800 46.01900
N  24.91400 -8.80300 47.94200
C  23.91000 -9.65100 47.98200
C  24.22000 -10.87200 48.93300
C  25.68400 -10.59400 49.36800
C  25.96300 -9.29200 48.67100
C  23.07400 -11.13700 50.00000
C  26.72400 -11.70500 48.96900
C  27.68700 -12.15600 50.07700
N  26.82200 -6.68000 47.60100
C  27.65900 -7.44300 48.35300
C  29.01000 -6.90500 48.44300
C  28.96600 -5.78500 47.58700
C  27.65900 -5.77500 46.99200
C  30.15000 -7.48200 49.22600
C  29.74100 -4.64000 47.14900
O  30.83300 -4.19100 47.52500
C  28.73600 -3.83800 46.09100
C  28.41600 -2.47200 46.66800
O  27.89000 -2.20500 47.78100
O  28.90500 -1.49300 45.82100
C  28.56500 -0.13700 46.16800
H  22.37200 -4.70900 43.81200
H  21.88500 -10.11800 47.71800
H  27.83400 -9.30400 49.52600
H  26.46000 -2.53800 44.59100
H  24.56000 -3.60000 42.73500
H  23.37800 -1.68900 43.39600
H  24.65500 -1.31600 44.43600
H  23.25100 -2.33500 45.00700
H  26.60700 -4.10900 42.08500
H  27.69900 -4.78100 43.22700
H  29.22800 -2.85400 42.81000
H  27.91800 -1.88300 43.39700
H  19.08400 -6.33800 44.11000
H  19.99700 -7.08700 42.81700
H  20.44300 -5.56400 43.33500
H  19.73500 -10.36300 47.04300
H  20.98700 -11.03100 45.77400
H  19.24000 -11.29000 45.63700
H  24.20400 -11.64300 48.16300
H  25.60800 -10.36000 50.43000
H  22.44900 -10.27500 50.23500
H  23.56800 -11.63700 50.83300
H  22.42800 -11.82900 49.46000
H  27.40400 -11.23600 48.25800
H  26.28100 -12.54300 48.43200
H  27.66100 -13.24500 50.07000
H  27.30800 -11.86300 51.05600
H  28.68900 -11.72900 50.05200
H  30.81400 -6.72600 49.64500
H  30.88800 -8.03200 48.64200
H  29.85900 -8.10300 50.07400
H  29.24400 -3.72500 45.13400
H  27.91800 0.32000 45.42000
H  29.43100 0.51500 46.28300
H  28.11600 -0.05400 47.15800
Mg 44.15400 4.39600 46.87000
C  42.11200 7.26300 46.68900
C  41.49900 2.38700 46.39200
C  46.29300 1.95300 46.08900
C  47.07900 6.67700 47.00500
N  42.05600 4.84400 46.65600
C  41.37500 6.02800 46.52600
C  39.91400 5.83500 46.16700
C  39.79300 4.26400 46.55600
C  41.20500 3.75600 46.50100
C  39.07300 3.84900 47.83800
C  39.51400 6.05000 44.67800
C  37.92600 5.93800 44.43100
H  37.37100 5.71600 43.02200
N  43.85200 2.42400 46.35400
C  42.71700 1.77400 46.34500
C  43.01100 0.34500 46.10800
C  44.37600 0.17300 46.00300
C  44.93700 1.53500 46.19800
C  41.94100 -0.77700 45.96100
C  45.11400 -1.14000 45.70300
O  44.49200 -2.18700 45.70400
C  46.49300 -1.20100 45.21600
N  46.36000 4.33700 46.46200
C  46.91800 3.13800 46.19200
C  48.50000 3.24500 46.25300
C  48.79700 4.71800 46.52800
C  47.35000 5.31100 46.67500
C  49.27400 2.29200 47.13200
C  49.69300 5.34200 45.47100
C  50.45500 6.55000 46.01900
N  44.57300 6.55500 47.00800
C  45.78400 7.28100 47.03700
C  45.37300 8.68200 47.20900
C  44.00000 8.70700 47.00200
C  43.53900 7.40500 46.90200
C  46.27100 9.84300 47.45700
C  42.83500 9.57400 46.82700
O  42.74400 10.76400 46.96900
C  41.51100 8.62000 46.66400
C  40.58100 8.76600 47.84900
O  40.38300 8.00000 48.78100
O  39.83100 9.93300 47.63200
C  38.76600 9.97900 48.67300
H  40.59600 1.77200 46.41100
H  47.03100 1.15300 46.00400
H  47.95400 7.30700 47.17900
H  39.32800 6.44900 46.85100
H  39.38500 3.78500 45.66500
H  38.69600 4.75300 48.31700
H  39.78700 3.40100 48.53000
H  38.25600 3.17700 47.57700
H  40.07200 5.36500 44.04000
H  39.74500 7.10300 44.51400
H  37.45700 6.85500 44.78800
H  37.60700 5.15800 45.12300
H  41.89400 -1.42100 45.08300
H  41.01500 -0.20300 45.91400
H  41.75600 -1.35200 46.86800
H  46.57200 -0.49100 44.39300
H  46.72200 -2.18600 44.81100
H  47.17900 -1.00200 46.03900
H  48.86300 3.11100 45.23400
H  49.33900 4.73800 47.47400
H  49.53400 1.43200 46.51600
H  48.60000 2.02100 47.94500
H  50.17000 2.73700 47.56300
H  48.91800 5.69800 44.79200
H  50.29100 4.71300 44.81200
H  49.99100 7.46900 45.66000
H  51.47200 6.36200 45.67600
H  50.54400 6.55400 47.10600
H  46.50400 9.82900 48.52200
H  45.87700 10.79200 47.09500
H  47.19900 9.65600 46.91600
H  40.87700 8.77900 45.79200
H  38.22100 9.04600 48.53100
H  38.10800 10.79400 48.37000
H  39.08500 10.10000 49.70800

