158

Mg 48.61800 35.17200 27.44500
C  46.65600 33.87200 30.06900
C  49.30100 37.92100 29.34600
C  50.37800 36.28500 24.84700
C  47.55200 32.34600 25.49600
N  48.14900 35.70700 29.48900
C  47.40100 35.01100 30.42400
C  47.74500 35.58800 31.80600
C  47.94400 37.09400 31.46800
C  48.49500 36.95000 29.99100
C  46.80400 38.19100 31.64900
C  48.94500 34.78600 32.54900
C  48.98500 34.64900 34.09700
H  48.11800 35.56700 34.87300
N  49.56200 36.92100 27.10000
C  49.77600 37.88800 28.03000
C  50.64300 38.88600 27.40600
C  51.08600 38.39000 26.12300
C  50.36600 37.13300 25.97900
C  50.98100 40.25800 28.02600
C  52.16500 38.92300 25.22000
O  52.43900 38.40300 24.17700
C  52.97800 40.15500 25.63800
N  48.80100 34.45100 25.47600
C  49.63400 35.10700 24.62400
C  49.84200 34.37300 23.32500
C  48.92000 33.01900 23.51200
C  48.38400 33.29200 24.93700
C  49.34000 35.33100 22.24100
C  49.84200 31.65600 23.31900
C  49.50800 30.80600 22.06400
N  47.38300 33.50400 27.64700
C  47.05700 32.41900 26.84000
C  46.21100 31.52700 27.48900
C  46.04800 32.11100 28.75000
C  46.77700 33.27200 28.78100
C  45.60800 30.24600 26.98700
C  45.33000 31.89300 29.99500
O  44.49100 31.07500 30.27200
C  45.79400 33.01200 30.96700
C  46.56100 32.33200 32.06200
O  47.57000 31.66100 31.99900
O  45.72300 32.40600 33.16000
C  46.07400 31.48300 34.19500
H  49.57600 38.80700 29.92300
H  50.98000 36.60600 23.99400
H  47.23900 31.41500 25.01800
H  46.88100 35.53700 32.47000
H  48.75400 37.47600 32.08900
H  46.30000 38.42600 30.71100
H  47.07800 39.10200 32.18100
H  45.98500 37.75900 32.22400
H  49.89600 35.22200 32.24500
H  48.89000 33.77900 32.13500
H  49.99600 34.65100 34.50500
H  48.65800 33.63900 34.34300
H  50.18000 40.51900 28.71800
H  50.87900 40.92700 27.17100
H  51.89500 40.43500 28.59300
H  53.83100 40.21900 24.96200
H  53.20100 40.06500 26.70100
H  52.27800 40.96800 25.44800
H  50.90300 34.12900 23.29600
H  48.07100 33.17300 22.84600
H  48.64600 36.08600 22.61100
H  48.87000 34.84900 21.38400
H  50.15200 35.92300 21.82000
H  49.87700 30.93400 24.13400
H  50.84900 31.99900 23.08400
H  49.26400 29.82500 22.47200
H  50.37900 30.70100 21.41800
H  48.65100 31.22800 21.53900
H  45.39900 30.23700 25.91800
H  44.72000 30.02100 27.57700
H  46.37100 29.51100 27.24600
H  45.09900 33.71100 31.43100
H  45.51400 31.61800 35.12000
H  47.08500 31.55800 34.59500
H  46.01200 30.44200 33.87700
Mg 1.59800 42.49600 25.78000
C  3.00500 42.64900 29.05700
C  -1.19800 41.19100 27.12600
C  0.54700 41.92200 22.65200
C  4.74600 43.43100 24.58800
N  1.02200 42.09200 27.82000
C  1.69700 42.34100 29.01000
C  0.79100 42.09700 30.18800
C  -0.52200 41.57500 29.51600
C  -0.22100 41.51100 28.02900
C  -1.01200 40.15100 30.02800
C  0.61100 43.43700 30.96400
C  0.93600 43.48400 32.45900
H  0.02200 42.74400 33.43300
N  -0.09900 41.58200 25.02100
C  -1.13200 41.15000 25.70500
C  -2.16800 40.75300 24.82700
C  -1.79000 40.99400 23.49300
C  -0.40100 41.48100 23.67100
C  -3.41800 40.15600 25.28700
C  -2.45000 40.79100 22.11900
O  -1.95200 40.95400 21.01600
C  -3.89300 40.24400 22.06100
N  2.51000 42.59000 23.87500
C  1.79300 42.46300 22.72600
C  2.58700 42.80100 21.47600
C  3.79600 43.54300 22.12600
C  3.71700 43.13600 23.61200
C  2.99500 41.55200 20.67700
C  3.84700 45.05300 21.79400
C  4.29500 45.42900 20.28100
N  3.53500 42.92700 26.60200
C  4.65800 43.32200 25.94200
C  5.68300 43.58000 26.95000
C  5.07200 43.39700 28.17400
C  3.78700 42.95700 27.92600
C  7.16100 44.02200 26.71400
C  5.24600 43.37100 29.56100
O  6.27900 43.52800 30.19400
C  3.90300 42.97900 30.23200
C  4.06400 41.76500 31.12400
O  4.18600 40.61400 30.69200
O  4.13300 42.09800 32.39300
C  4.29400 41.11300 33.40600
H  -2.13300 40.90800 27.61300
H  0.19800 41.76100 21.62900
H  5.61300 43.86200 24.08300
H  1.18500 41.24600 30.74500
H  -1.40100 42.21100 29.61200
H  -0.70500 39.92700 31.05000
H  -0.62100 39.36100 29.38700
H  -2.09600 40.15400 30.14100
H  -0.44800 43.67600 30.85800
H  1.00000 44.26600 30.37300
H  0.92200 44.53800 32.73900
H  1.96000 43.12200 32.54500
H  -3.40800 39.06900 25.20600
H  -4.24100 40.60900 24.73500
H  -3.58500 40.42500 26.33000
H  -4.45300 40.94700 22.67700
H  -3.87400 39.28800 22.58400
H  -4.25800 40.12300 21.04100
H  2.05700 43.49200 20.82100
H  4.67500 43.15600 21.61100
H  2.70500 40.65900 21.23200
H  4.08000 41.45400 20.65400
H  2.45700 41.54400 19.72900
H  4.60600 45.54600 22.40100
H  2.84100 45.38900 22.04600
H  3.52700 45.93600 19.69600
H  4.63900 44.51100 19.80500
H  5.10000 46.15300 20.40800
H  7.64500 43.92400 25.74300
H  7.80900 43.50800 27.42400
H  7.15900 45.06800 27.02400
H  3.51500 43.85100 30.75900
H  5.28000 41.24600 33.85000
H  4.11200 40.07800 33.11700
H  3.51400 41.30500 34.14300

