158

Mg 1.77900 -0.98300 44.87800
C  5.09300 -0.17100 44.22500
C  0.83800 1.85400 43.27400
C  -1.42900 -2.23100 44.67600
C  2.90600 -4.13700 45.88400
N  2.89200 0.57800 43.66300
C  4.21400 0.75700 43.73000
C  4.56600 2.10500 43.13500
C  3.20900 2.90100 43.10600
C  2.24100 1.74600 43.43200
C  3.16500 4.07800 44.14100
C  5.35200 2.04200 41.79100
C  4.99100 0.81300 40.84600
H  4.77000 1.17000 39.39200
N  -0.09400 -0.22500 44.23800
C  -0.24100 0.95500 43.57100
C  -1.61700 1.15500 43.19000
C  -2.27900 -0.00800 43.58800
C  -1.24700 -0.93000 44.15000
C  -2.05200 2.39400 42.39400
C  -3.78900 -0.36500 43.40400
O  -4.61200 0.55200 43.11300
C  -4.42800 -1.72300 43.56500
N  0.82100 -2.91400 45.10900
C  -0.51200 -3.16100 45.06900
C  -0.81700 -4.57800 45.55000
C  0.57100 -5.02600 46.10200
C  1.51600 -3.97000 45.67400
C  -2.06600 -4.76300 46.44900
C  0.92700 -6.44500 45.56000
C  1.91400 -7.35000 46.30200
N  3.62500 -1.92700 45.29000
C  3.92800 -3.21900 45.63400
C  5.35300 -3.41900 45.75400
C  5.89000 -2.21500 45.30700
C  4.78100 -1.36400 44.91000
C  6.07300 -4.57600 46.25000
C  7.12500 -1.55800 44.99300
O  8.26800 -1.86500 45.18300
C  6.65300 -0.18000 44.29800
C  7.11900 0.94000 45.14300
O  6.91400 1.16700 46.32100
O  7.80900 1.77500 44.21600
C  8.09800 3.12000 44.64300
H  0.57800 2.79400 42.78400
H  -2.44300 -2.61600 44.80200
H  3.34600 -5.08500 46.20000
H  5.21700 2.58500 43.86600
H  3.01900 3.27000 42.09800
H  3.43500 4.98200 43.59500
H  3.80400 3.81100 44.98200
H  2.11600 4.13900 44.43100
H  6.42600 2.09500 41.96900
H  5.05900 2.96000 41.28000
H  4.16100 0.21600 41.22300
H  5.80600 0.09100 40.90300
H  -3.07400 2.23400 42.05100
H  -1.48800 2.58700 41.48100
H  -2.02400 3.29000 43.01400
H  -5.45600 -1.71800 43.20300
H  -4.43600 -1.84500 44.64800
H  -3.83000 -2.54000 43.16100
H  -0.97300 -5.14400 44.63200
H  0.43500 -4.99300 47.18300
H  -2.83500 -5.24700 45.84700
H  -2.48200 -3.82400 46.81200
H  -1.89100 -5.29200 47.38600
H  1.40200 -6.19700 44.61100
H  0.02400 -6.93400 45.19700
H  1.34600 -8.27000 46.44500
H  2.28000 -6.86000 47.20400
H  2.71100 -7.53700 45.58200
H  5.79400 -5.03300 47.19900
H  7.15000 -4.42700 46.31800
H  5.86100 -5.43100 45.60900
H  7.00400 -0.04100 43.27600
H  7.15500 3.51500 45.02100
H  8.59100 3.69800 43.86100
H  8.77800 3.09500 45.49400
Mg 23.83400 -6.21200 45.49300
C  25.77200 -3.52500 44.02200
C  21.21600 -5.01800 43.44900
C  22.09600 -8.90500 46.12200
C  26.73800 -7.54600 46.76900
N  23.59600 -4.47300 43.88200
C  24.46900 -3.48200 43.60300
C  23.95200 -2.64700 42.42600
C  22.39200 -2.98700 42.43200
C  22.41100 -4.29900 43.25900
C  21.35900 -1.97700 42.99100
C  24.66000 -2.83900 41.08000
C  25.16000 -1.64700 40.20700
H  25.03600 -1.65900 38.73100
N  21.84900 -6.73100 45.15600
C  20.93300 -6.13500 44.29800
C  19.70200 -6.82400 44.28700
C  19.86100 -7.98900 45.06000
C  21.28400 -7.93600 45.51600
C  18.53500 -6.38600 43.39400
C  18.88700 -9.17100 45.22800
O  17.84400 -9.25100 44.58000
C  19.05800 -10.19900 46.38100
N  24.36400 -7.94800 46.46000
C  23.44100 -8.94900 46.51000
C  24.06000 -10.22000 47.03100
C  25.54800 -9.79100 47.37600
C  25.58600 -8.32700 46.93000
C  23.24900 -10.83600 48.21400
C  26.58400 -10.66800 46.60200
C  27.97700 -10.86400 47.34800
N  25.85200 -5.62400 45.56200
C  26.89500 -6.24400 46.21500
C  28.05400 -5.30300 46.17200
C  27.61900 -4.24600 45.33300
C  26.31200 -4.50800 44.90200
C  29.48100 -5.49900 46.68900
C  28.03500 -3.05300 44.63900
O  29.16100 -2.60600 44.58300
C  26.89200 -2.60600 43.65800
C  26.65400 -1.14400 43.81500
O  26.00500 -0.54100 44.69900
O  27.50300 -0.50000 42.89800
C  27.79700 0.88600 43.00300
H  20.39400 -4.63800 42.83900
H  21.56700 -9.85500 46.22100
H  27.66400 -7.92300 47.20800
H  24.10300 -1.62300 42.76500
H  22.09500 -3.25000 41.41600
H  21.70700 -0.94400 43.01800
H  20.85300 -2.21700 43.92600
H  20.54300 -2.03700 42.27100
H  23.97200 -3.39200 40.44100
H  25.50600 -3.48700 41.30900
H  26.20500 -1.49200 40.47400
H  24.65900 -0.77100 40.62000
H  18.69100 -6.49200 42.32100
H  18.31700 -5.36100 43.69600
H  17.67200 -6.99300 43.66800
H  19.66900 -9.79000 47.18700
H  19.39000 -11.13200 45.92700
H  18.10200 -10.29600 46.89600
H  23.96500 -10.96200 46.23800
H  25.72500 -9.88600 48.44700
H  23.80100 -10.94300 49.14800
H  22.85200 -11.80800 47.92200
H  22.39800 -10.21400 48.49100
H  26.77100 -10.20500 45.63300
H  26.12800 -11.62400 46.34600
H  28.76100 -10.60600 46.63600
H  28.13600 -11.83400 47.81900
H  27.87000 -10.15500 48.16900
H  30.12800 -4.79900 46.16100
H  29.73800 -6.55700 46.62600
H  29.58800 -5.22000 47.73800
H  27.15400 -2.74200 42.60900
H  27.31800 1.55200 42.28500
H  28.84700 1.08800 42.78900
H  27.56500 1.34900 43.96200

