158

Mg 23.90000 -5.58400 45.66500
C  26.49300 -3.57100 44.42100
C  21.67100 -3.89400 43.60500
C  21.83800 -8.25800 45.86600
C  26.43700 -7.50000 47.35500
N  24.09300 -3.88000 44.36400
C  25.21800 -3.16600 43.96900
C  24.86100 -2.07200 42.90400
C  23.37900 -1.88600 43.20300
C  23.01400 -3.29300 43.77100
C  23.03500 -0.76400 44.23700
C  25.12900 -2.56800 41.44600
C  25.45900 -1.41000 40.52300
H  24.73600 -1.26400 39.17300
N  21.95500 -5.96000 44.88400
C  21.22800 -5.15400 44.05600
C  19.99000 -5.79600 43.66600
C  20.00800 -7.08400 44.32700
C  21.26600 -7.16300 45.10800
C  19.02500 -5.20000 42.68500
C  18.89300 -8.05100 44.36400
O  17.87000 -7.78800 43.67300
C  18.81300 -9.18900 45.35900
N  24.09400 -7.53500 46.64000
C  23.08500 -8.46900 46.50900
C  23.46200 -9.72900 47.31300
C  24.96200 -9.48200 47.75400
C  25.17600 -8.07700 47.23100
C  22.52500 -10.17200 48.52100
C  25.97700 -10.46400 47.11600
C  25.66600 -11.93100 47.33900
N  25.95700 -5.46200 46.03200
C  26.84700 -6.32700 46.67300
C  28.19900 -5.82300 46.52700
C  28.09900 -4.73300 45.69700
C  26.75000 -4.59100 45.35900
C  29.35900 -6.46600 47.13600
C  28.83500 -3.78000 44.95700
O  30.04900 -3.52500 45.02600
C  27.78300 -2.91300 44.10200
C  27.82400 -1.45400 44.45300
O  27.33600 -0.92300 45.42000
O  28.41300 -0.82200 43.41400
C  28.20600 0.66800 43.43500
H  21.05000 -3.32800 42.90700
H  21.22300 -9.15800 45.93800
H  27.14400 -8.11000 47.92200
H  25.42700 -1.16200 43.10500
H  22.74700 -1.58100 42.37000
H  22.67200 -1.24700 45.14400
H  22.27000 -0.13900 43.77600
H  23.94600 -0.22100 44.48900
H  24.25700 -3.02100 40.97500
H  25.93700 -3.29900 41.43100
H  26.52300 -1.57400 40.34800
H  25.34000 -0.50800 41.12400
H  19.52600 -4.49700 42.01900
H  18.30500 -4.63100 43.27300
H  18.46500 -5.92600 42.09700
H  17.73700 -9.36200 45.36800
H  19.09000 -8.83100 46.35100
H  19.36100 -10.06400 45.01000
H  23.39000 -10.53200 46.58000
H  25.07900 -9.48100 48.83700
H  21.59500 -9.60300 48.52100
H  23.03100 -10.04100 49.47700
H  22.35300 -11.24800 48.55200
H  26.91700 -10.16700 47.58200
H  25.97100 -10.15300 46.07200
H  26.47500 -12.34800 47.93900
H  25.38100 -12.47800 46.44000
H  24.80300 -11.98200 48.00300
H  29.17300 -6.91600 48.11100
H  30.22100 -5.80200 47.21000
H  29.77900 -7.29800 46.56900
H  27.87300 -3.05700 43.02600
H  28.83800 1.05400 44.23500
H  27.14000 0.76100 43.64700
H  28.40800 1.19300 42.50100
Mg 47.83500 16.73400 29.37700
C  45.73800 16.14900 32.16400
C  49.96500 18.32100 31.30900
C  49.42200 17.65300 26.48200
C  45.47000 15.10600 27.34100
N  47.73200 17.23500 31.53000
C  46.89700 16.79400 32.51200
C  47.51600 17.07000 33.89700
C  48.77300 17.92600 33.58200
C  48.87400 17.79900 32.03700
C  48.60000 19.37900 34.06300
C  47.86500 15.78300 34.72300
C  47.57900 15.87600 36.19900
H  47.58100 17.30700 36.79900
N  49.40700 17.82200 28.98200
C  50.22700 18.26200 29.94000
C  51.46100 18.70000 29.24500
C  51.37300 18.57200 27.83700
C  50.02900 17.96500 27.70800
C  52.59900 19.30300 30.06600
C  52.25100 19.04600 26.66500
O  51.90100 19.08600 25.47500
C  53.59100 19.71800 26.99600
N  47.46200 16.50500 27.19600
C  48.25900 16.95700 26.18600
C  47.80100 16.57700 24.81900
C  46.66200 15.57500 25.09400
C  46.50600 15.67800 26.65800
C  47.44700 17.78300 23.91000
C  46.83600 14.10700 24.67700
C  45.63100 13.45300 24.01800
N  45.94400 15.92700 29.62000
C  45.11200 15.21300 28.73900
C  43.98100 14.59200 29.42700
C  44.23100 14.95900 30.74500
C  45.36200 15.77300 30.80900
C  43.01100 13.57200 28.91200
C  43.62900 14.79900 32.10200
O  42.68300 14.28300 32.51900
C  44.69000 15.53200 33.03500
C  44.06200 16.57900 33.83700
O  43.53400 17.63400 33.39500
O  44.14200 16.22700 35.13300
C  43.53800 17.09200 36.10200
H  50.65300 18.90300 31.92600
H  49.97700 17.82900 25.55800
H  44.76000 14.51400 26.75900
H  46.76900 17.66600 34.42100
H  49.72700 17.48200 33.86700
H  47.64200 19.81700 34.34300
H  48.95700 19.98300 33.22800
H  49.38500 19.52000 34.80600
H  48.93000 15.55600 34.67600
H  47.34400 14.96000 34.23400
H  48.25600 15.21900 36.74500
H  46.67800 15.29800 36.40500
H  52.68300 20.35700 29.80100
H  53.52000 18.78000 29.80800
H  52.40000 19.31600 31.13800
H  53.24700 20.53300 27.63200
H  54.08400 20.20800 26.15600
H  54.16800 18.95500 27.51900
H  48.65900 16.02100 24.44100
H  45.67900 15.94800 24.80800
H  47.94500 17.78000 22.94000
H  47.81900 18.67200 24.41900
H  46.37900 17.91400 23.73700
H  47.05100 13.58000 25.60700
H  47.77200 14.02400 24.12400
H  45.32700 12.52800 24.50800
H  45.96300 13.22400 23.00500
H  44.74000 14.07200 23.91300
H  42.06800 14.05600 28.65900
H  42.88200 12.97600 29.81500
H  43.42300 12.88100 28.17600
H  45.13700 14.80100 33.70900
H  42.46200 17.14600 35.93400
H  44.03900 18.05200 36.22100
H  43.59200 16.59600 37.07100

