158

Mg -2.05100 17.58600 27.23100
C  -2.62700 15.33200 29.78300
C  -2.45400 20.21100 29.54900
C  -2.01800 19.72900 24.70200
C  -2.28100 14.86300 24.98500
N  -2.53700 17.65200 29.40300
C  -2.68000 16.66500 30.30500
C  -2.80800 17.13900 31.76700
C  -2.85700 18.71200 31.58100
C  -2.52400 18.90400 30.08600
C  -4.09500 19.53000 32.10600
C  -1.72900 16.64600 32.77200
C  -1.27500 17.54000 33.92900
H  -0.85000 16.69100 35.16200
N  -2.15200 19.67600 27.13100
C  -2.33200 20.53800 28.18100
C  -2.22900 21.91400 27.64300
C  -2.02800 21.76000 26.19700
C  -2.03500 20.38900 25.99200
C  -2.22800 23.15300 28.45400
C  -1.85100 22.87700 25.19100
O  -1.56300 22.65100 24.00200
C  -2.06700 24.30700 25.52300
N  -2.11300 17.37500 25.14800
C  -2.10500 18.42400 24.35700
C  -2.12900 18.01900 22.83300
C  -1.94800 16.43000 22.92900
C  -2.10100 16.16200 24.47300
C  -3.41500 18.38700 22.00100
C  -0.60100 15.95500 22.38300
C  0.61300 16.27300 23.29700
N  -2.37000 15.57800 27.32300
C  -2.36000 14.59400 26.34600
C  -2.53800 13.31700 26.88300
C  -2.66900 13.53600 28.21000
C  -2.54800 14.91000 28.47600
C  -2.86200 11.97900 26.25000
C  -2.88000 12.90600 29.50200
O  -3.14800 11.74600 29.78400
C  -2.79000 13.98700 30.58600
C  -1.53200 13.66600 31.33400
O  -0.34100 13.88900 31.03800
O  -1.90000 13.08200 32.48700
C  -0.86600 12.66400 33.43000
H  -2.41500 21.03000 30.27000
H  -2.00100 20.39000 23.83300
H  -2.36900 13.99900 24.32200
H  -3.67300 16.65400 32.21900
H  -1.95400 19.03500 32.10000
H  -4.87300 18.98800 32.64300
H  -4.49100 20.02500 31.21900
H  -3.81100 20.24800 32.87500
H  -0.84700 16.35400 32.20200
H  -2.08700 15.70600 33.19300
H  -1.98500 18.23600 34.37400
H  -0.47700 18.20600 33.60100
H  -1.28700 23.70400 28.44300
H  -2.29200 22.95300 29.52400
H  -2.95500 23.89500 28.12400
H  -2.08800 25.05300 24.72800
H  -1.39300 24.66500 26.30200
H  -3.07900 24.47800 25.88900
H  -1.22300 18.40900 22.36900
H  -2.81400 15.91400 22.51400
H  -4.18800 18.81600 22.63900
H  -3.92700 17.57700 21.48100
H  -3.19600 19.21500 21.32700
H  -0.53300 16.45800 21.41800
H  -0.64000 14.87000 22.28300
H  0.98300 15.29400 23.60100
H  0.51500 16.76600 24.26400
H  1.30400 16.88900 22.72100
H  -1.98600 11.33300 26.30100
H  -3.10700 12.12900 25.19800
H  -3.67100 11.48700 26.78900
H  -3.55900 13.88600 31.35100
H  -1.42800 12.52300 34.35300
H  -0.11500 13.43000 33.62400
H  -0.39800 11.71000 33.19200
Mg -10.33000 17.45200 41.58700
C  -6.75800 17.43100 41.63800
C  -9.94700 20.84500 40.83900
C  -13.50000 17.43000 40.61500
C  -10.25300 13.99600 41.80200
N  -8.55200 18.83700 41.18700
C  -7.23700 18.60900 41.17200
C  -6.37900 19.79900 40.80500
C  -7.47000 20.89800 41.04500
C  -8.77500 20.12200 41.08600
C  -7.25900 21.80700 42.29200
C  -5.92900 19.54000 39.33500
C  -4.48800 19.05600 39.04900
H  -4.33800 17.57000 38.60300
N  -11.56000 18.92600 40.81800
C  -11.21300 20.23400 40.68000
C  -12.44300 21.00300 40.39400
C  -13.45300 20.06000 40.14100
C  -12.87600 18.70500 40.49300
C  -12.50600 22.54900 40.16200
C  -14.82000 20.43400 39.65000
O  -15.10900 21.59400 39.36300
C  -15.88600 19.39000 39.63400
N  -11.73200 15.91200 41.21600
C  -12.97400 16.19800 40.83000
C  -13.70300 14.85700 40.53700
C  -12.72000 13.74700 41.03500
C  -11.49200 14.57600 41.37100
C  -15.16600 14.81400 41.02300
C  -12.48700 12.55100 40.06700
C  -13.26000 11.28300 40.34200
N  -8.88800 16.00100 41.93300
C  -9.03200 14.64900 42.04900
C  -7.78500 14.06000 42.29600
C  -6.85200 15.16800 42.27200
C  -7.58700 16.29200 41.95100
C  -7.43000 12.66200 42.49400
C  -5.48600 15.49100 42.40500
O  -4.49400 14.73000 42.55100
C  -5.37400 17.00100 42.09200
C  -4.92900 17.79000 43.29600
O  -5.63100 18.47200 44.07800
O  -3.54300 17.84000 43.30200
C  -2.94700 18.58700 44.43000
H  -9.86000 21.91800 40.65700
H  -14.53100 17.58900 40.29000
H  -10.14700 12.91200 41.87700
H  -5.56300 19.90700 41.51900
H  -7.47000 21.54900 40.17100
H  -8.13400 21.94000 42.92800
H  -6.94700 22.79700 41.96200
H  -6.45500 21.42600 42.92200
H  -6.15100 20.45000 38.77700
H  -6.62600 18.79200 38.95800
H  -3.94000 19.24900 39.97200
H  -4.07800 19.74900 38.31400
H  -13.50600 22.93100 40.36600
H  -12.40200 22.72900 39.09200
H  -11.81400 23.19200 40.70600
H  -16.75100 19.90500 39.21700
H  -16.00000 18.88800 40.59500
H  -15.57000 18.62300 38.92700
H  -13.71400 14.83900 39.44800
H  -13.08400 13.32600 41.97200
H  -15.71900 14.58300 40.11300
H  -15.55000 15.74100 41.44900
H  -15.23600 13.99200 41.73600
H  -11.42900 12.30200 40.14400
H  -12.65700 13.00000 39.08800
H  -12.81900 11.00900 41.30000
H  -13.02900 10.56800 39.55200
H  -14.33100 11.46900 40.42400
H  -7.01600 12.28300 41.56000
H  -8.28900 12.04800 42.76400
H  -6.74000 12.47200 43.31600
H  -4.66200 17.19700 41.29000
H  -1.86100 18.58000 44.33700
H  -3.25700 18.15100 45.37900
H  -3.21900 19.63100 44.27400

