158

Mg 36.38900 48.76000 25.03100
C  35.81100 46.90400 28.08700
C  35.33000 51.60000 26.72900
C  36.05900 50.17300 22.13500
C  36.81900 45.58900 23.44800
N  35.61200 49.16700 27.17400
C  35.55300 48.28700 28.24900
C  35.42300 49.10100 29.58100
C  34.98100 50.52600 29.01600
C  35.38100 50.42500 27.54500
C  33.45200 50.73100 29.22300
C  36.67600 49.11500 30.44300
C  36.33600 48.93400 31.93800
H  34.97400 49.14000 32.56700
N  35.89900 50.73900 24.51400
C  35.51200 51.76700 25.32100
C  35.33700 52.98500 24.55300
C  35.60900 52.60200 23.20900
C  35.88200 51.13300 23.22200
C  34.92900 54.34700 25.09400
C  35.50200 53.50600 21.90200
O  35.86100 53.06400 20.80600
C  35.08700 54.92000 21.90800
N  36.31300 47.97300 23.08600
C  36.31700 48.81800 22.05100
C  36.53400 48.08500 20.72900
C  37.13600 46.69200 21.27600
C  36.72300 46.73800 22.71300
C  35.34400 48.01300 19.80300
C  38.64300 46.39300 21.12400
C  39.17200 46.38900 19.69700
N  36.25400 46.56800 25.58500
C  36.59200 45.46400 24.83300
C  36.78600 44.31700 25.70700
C  36.44200 44.84000 26.96400
C  36.09000 46.21800 26.82200
C  37.39900 43.03500 25.26700
C  36.23600 44.44300 28.41200
O  36.31600 43.34500 28.92700
C  35.95300 45.82600 29.18200
C  34.70100 45.70000 30.00000
O  33.64100 46.25300 29.80600
O  35.03900 44.99300 31.12400
C  33.95800 44.99300 32.07500
H  35.08100 52.50800 27.28100
H  35.97600 50.69600 21.18000
H  37.01200 44.64000 22.94300
H  34.67800 48.44900 30.03700
H  35.43500 51.35800 29.55400
H  33.07300 50.98900 28.23400
H  33.28000 51.61500 29.83700
H  32.88900 49.90200 29.65400
H  37.28200 50.01800 30.36400
H  37.39600 48.36900 30.10600
H  37.12300 49.47100 32.46700
H  36.55000 47.86700 32.00600
H  35.35400 54.51600 26.08300
H  33.84700 54.46400 25.02600
H  35.37900 55.05700 24.40100
H  34.08900 54.99900 22.33800
H  34.87900 55.21000 20.87800
H  35.72500 55.56800 22.51000
H  37.34600 48.60400 20.22100
H  36.47000 45.95700 20.82500
H  35.53600 48.62900 18.92400
H  34.49500 48.56500 20.20400
H  35.00300 47.01000 19.54500
H  38.85500 45.40200 21.52600
H  39.26000 47.04100 21.74700
H  38.33400 46.37100 19.00000
H  39.73900 45.48800 19.46400
H  39.84800 47.20100 19.43000
H  38.16700 42.82800 26.01300
H  37.89400 42.98300 24.29700
H  36.65500 42.27100 25.49200
H  36.79300 46.12600 29.80800
H  32.93200 45.14300 31.73900
H  34.11300 45.52800 33.01200
H  33.84600 43.95200 32.37500
Mg 5.62300 54.59100 41.69300
C  5.41700 50.93700 41.70200
C  8.60000 54.35400 40.35300
C  5.35500 57.88500 41.28400
C  2.31600 54.60500 43.07300
N  6.80800 52.79200 40.92900
C  6.56200 51.43300 40.98700
C  7.78500 50.60700 40.48200
C  8.93600 51.75600 40.34000
C  8.09500 53.06400 40.50900
C  10.08200 51.58300 41.43300
C  7.55200 49.87000 39.11100
C  6.55100 50.58700 38.12400
H  6.98000 51.26400 36.75200
N  6.89000 55.98400 40.99400
C  8.09600 55.69300 40.49700
C  8.72400 56.85700 40.02200
C  7.82200 57.98300 40.18300
C  6.59100 57.32500 40.81700
C  9.96800 56.83100 39.16400
C  8.06500 59.44300 39.70000
O  9.14300 59.80300 39.27100
C  6.92900 60.44400 39.85700
N  4.05100 56.03700 42.09400
C  4.26700 57.38500 41.94300
C  3.10800 58.10800 42.53400
C  1.90800 57.03700 42.59800
C  2.82800 55.77600 42.63100
C  3.43200 58.78100 43.86800
C  0.88600 56.96500 41.42400
C  -0.53800 57.30900 41.75400
N  4.14900 53.12400 42.26300
C  2.93800 53.31200 42.94000
C  2.40300 52.04000 43.33500
C  3.34700 51.12300 42.83300
C  4.37900 51.79200 42.20500
C  1.16800 51.75200 44.19600
C  3.61100 49.73500 42.78700
O  2.90200 48.82600 43.16100
C  4.97800 49.54800 41.92400
C  4.62900 48.74800 40.76400
O  3.92200 49.10600 39.81600
O  5.25600 47.56000 40.88100
C  5.10400 46.69200 39.67700
H  9.67100 54.19600 40.20400
H  5.36800 58.97300 41.37500
H  1.29000 54.70800 43.43400
H  7.96000 49.83000 41.22600
H  9.31100 51.83500 39.31900
H  10.99900 51.95000 40.97300
H  10.09500 50.49800 41.54100
H  9.78200 52.06400 42.36400
H  7.14500 48.87800 39.30800
H  8.50800 49.81700 38.59000
H  5.95800 51.33700 38.64700
H  5.70700 49.94100 37.88100
H  10.08000 57.68700 38.49800
H  9.85800 55.96400 38.51200
H  10.76200 56.60200 39.87400
H  6.00300 60.06100 39.42900
H  7.22400 61.41700 39.46500
H  6.72500 60.57100 40.92000
H  2.81100 58.97700 41.94800
H  1.46300 57.17300 43.58400
H  2.53000 59.28500 44.21500
H  4.33400 59.39000 43.81200
H  3.61800 58.05100 44.65600
H  1.00600 56.00300 40.92600
H  1.23700 57.73600 40.73800
H  -1.02000 58.01300 41.07400
H  -0.63100 57.62500 42.79300
H  -1.22300 56.46800 41.64800
H  1.38200 50.94500 44.89600
H  0.36600 51.46400 43.51700
H  0.79100 52.59000 44.78200
H  5.79100 49.04900 42.45300
H  5.67600 47.08200 38.83500
H  4.04100 46.64000 39.44300
H  5.49300 45.69900 39.90400

