158

Mg 26.08200 0.93600 28.92200
C  27.95500 0.02400 31.76800
C  23.27100 0.97500 31.04400
C  24.27900 1.35900 26.28500
C  28.85600 0.23700 26.96800
N  25.73100 0.47100 31.16200
C  26.62000 0.21300 32.12400
C  26.10300 0.53700 33.59900
C  24.56100 0.65500 33.26000
C  24.50600 0.76900 31.74500
C  23.74400 -0.55600 33.65800
C  26.90500 1.67700 34.36900
C  27.72200 1.17500 35.53800
H  27.41400 1.91700 36.84200
N  24.08600 1.18100 28.70300
C  23.09300 1.10400 29.66900
C  21.82200 1.33700 29.05500
C  22.04500 1.48900 27.66600
C  23.52300 1.33800 27.46400
C  20.46200 1.27600 29.83500
C  21.09400 1.51600 26.53200
O  21.40200 1.68400 25.34600
C  19.58000 1.46900 26.80100
N  26.49000 0.52500 26.85900
C  25.53800 0.93600 25.98300
C  26.08400 0.93300 24.54400
C  27.61000 0.55000 24.73900
C  27.69600 0.51500 26.30100
C  25.42600 -0.11600 23.51900
C  28.63000 1.64100 24.17700
C  29.90300 1.07300 23.48400
N  28.07700 0.34900 29.26600
C  29.07900 0.11000 28.38300
C  30.32500 -0.13900 29.06300
C  29.95800 -0.21200 30.40500
C  28.58500 0.09600 30.52200
C  31.66600 -0.47100 28.51000
C  30.39100 -0.45800 31.77200
O  31.51800 -0.76300 32.13800
C  29.13900 -0.35500 32.68900
C  29.05900 -1.63000 33.40900
O  28.54500 -2.64200 32.98600
O  29.60000 -1.41900 34.63800
C  29.34900 -2.37100 35.71400
H  22.41500 0.96900 31.72300
H  23.78900 1.59600 25.33800
H  29.77300 0.17500 26.37900
H  26.28300 -0.39600 34.13400
H  24.09600 1.57200 33.62100
H  23.06800 -0.85000 32.85600
H  23.15500 -0.29400 34.53800
H  24.46300 -1.33600 33.90900
H  26.10400 2.26100 34.82200
H  27.54900 2.23900 33.69200
H  28.76500 1.43600 35.35700
H  27.61900 0.10100 35.69200
H  20.14500 0.23600 29.76100
H  19.82000 2.01200 29.34900
H  20.54300 1.60800 30.87000
H  18.95200 1.55200 25.91400
H  19.17000 2.26400 27.42400
H  19.36300 0.52000 27.29100
H  25.84000 1.89700 24.09800
H  27.96500 -0.42500 24.40600
H  24.91500 -0.81200 24.18500
H  26.11900 -0.74400 22.96000
H  24.74400 0.33100 22.79600
H  28.88400 2.37500 24.94200
H  28.03600 2.15300 23.42000
H  30.71700 1.79100 23.38400
H  29.54600 0.70500 22.52200
H  30.18100 0.20900 24.08700
H  31.38500 -1.37300 27.96600
H  32.44700 -0.55000 29.26600
H  31.91600 0.33300 27.81800
H  29.41400 0.52500 33.27100
H  28.57200 -1.89300 36.31000
H  30.20900 -2.62700 36.33300
H  28.84700 -3.27500 35.37000
Mg 41.61200 8.47600 29.79900
C  43.54600 9.47600 32.50400
C  39.24500 7.34800 32.12800
C  39.90300 7.17500 27.25000
C  44.26700 9.18200 27.66600
N  41.55000 8.29500 32.04300
C  42.36600 8.90600 32.95000
C  41.86000 8.86500 34.38800
C  40.51500 8.01100 34.22100
C  40.40200 7.84100 32.69900
C  40.61500 6.65500 34.99100
C  41.57000 10.34100 34.87600
C  40.67700 10.49700 36.10700
H  41.19000 11.30200 37.27400
N  39.82000 7.41100 29.69700
C  38.95300 7.09300 30.76600
C  37.77100 6.48500 30.21000
C  37.84200 6.61300 28.74000
C  39.23900 7.05700 28.51300
C  36.55200 5.85100 31.07200
C  36.71200 6.42400 27.73000
O  36.98900 6.41100 26.46400
C  35.31500 6.27500 28.23100
N  42.06500 8.04400 27.75300
C  41.12900 7.57200 26.92300
C  41.51800 7.64400 25.48400
C  42.95600 8.35000 25.55100
C  43.11600 8.60800 27.07100
C  41.59900 6.20500 24.78900
C  42.98700 9.65700 24.73400
C  42.19400 10.92500 25.16000
N  43.53500 9.16800 29.99000
C  44.45500 9.50400 29.03000
C  45.63500 10.01300 29.65300
C  45.30000 10.11000 30.99800
C  44.02500 9.54600 31.12900
C  46.88700 10.34800 29.04200
C  45.78500 10.49500 32.30900
O  46.85900 11.00600 32.62300
C  44.59400 10.21400 33.31200
C  45.15200 9.41100 34.40700
O  45.79500 8.35300 34.26300
O  45.06100 10.05400 35.61200
C  45.67800 9.42000 36.75400
H  38.47900 7.14300 32.87800
H  39.34600 7.01800 26.32400
H  45.13500 9.44800 27.05900
H  42.58500 8.35300 35.02100
H  39.68700 8.61600 34.59200
H  40.72000 5.80100 34.32100
H  39.78700 6.51900 35.68600
H  41.46800 6.54600 35.66100
H  41.37900 10.92500 33.97500
H  42.48800 10.67700 35.35600
H  40.47700 9.49100 36.47400
H  39.76000 11.00200 35.80400
H  36.78900 5.94000 32.13200
H  36.30400 4.82000 30.81900
H  35.65500 6.42500 30.84100
H  34.67800 6.13900 27.35700
H  34.91700 7.06600 28.86700
H  35.41400 5.35200 28.80200
H  40.88500 8.31900 24.90800
H  43.76800 7.72300 25.18300
H  41.47100 5.33900 25.43900
H  42.47300 6.05400 24.15600
H  40.81100 6.21900 24.03600
H  42.55000 9.53200 23.74300
H  44.01400 9.89100 24.45400
H  41.40400 11.17700 24.45300
H  42.88200 11.76900 25.14900
H  41.74100 10.80500 26.14500
H  46.75800 10.97200 28.15800
H  47.44000 9.48800 28.66300
H  47.44500 10.88800 29.80700
H  44.25400 11.16100 33.73000
H  46.41900 10.09900 37.17700
H  46.31700 8.56900 36.51900
H  44.91400 9.12200 37.47100

