158

Mg 48.47100 34.97500 27.70500
C  46.42500 33.61700 30.10300
C  48.47900 37.94000 29.51000
C  50.27300 36.44600 25.23000
C  47.72000 32.21400 25.58500
N  47.69800 35.64300 29.69500
C  46.87200 34.88900 30.48900
C  46.68600 35.58200 31.82100
C  46.89800 37.07500 31.41000
C  47.73100 36.90100 30.09900
C  45.52900 37.84400 31.10800
C  47.54300 35.09900 33.03100
C  48.69000 35.97200 33.57200
H  48.33200 36.88800 34.71700
N  49.45900 36.86500 27.53600
C  49.32700 37.89100 28.37000
C  50.19100 39.04600 27.83000
C  50.81700 38.51200 26.65200
C  50.20600 37.20300 26.43800
C  50.17500 40.47700 28.25600
C  51.80100 39.18500 25.71000
O  52.27800 38.71900 24.65200
C  52.45800 40.44100 26.22300
N  48.92900 34.44300 25.68800
C  49.71500 35.21900 24.85600
C  49.96300 34.50900 23.45600
C  49.15200 33.15200 23.61400
C  48.54400 33.21200 25.06700
C  49.50800 35.45500 22.24300
C  49.89600 31.87000 23.36500
C  50.35200 31.55400 21.89200
N  47.41300 33.18000 27.75500
C  47.16500 32.16100 26.89100
C  46.28800 31.13300 27.46500
C  45.99800 31.66000 28.74300
C  46.68200 32.87500 28.86700
C  45.92700 29.84900 26.76500
C  45.33200 31.40700 29.98900
O  44.67300 30.42600 30.21500
C  45.51400 32.71200 30.89700
C  45.90900 32.27800 32.28500
O  46.91300 31.72300 32.64600
O  44.97600 32.75300 33.15200
C  45.12000 32.60500 34.58100
H  48.41400 38.93600 29.95300
H  50.85700 36.85900 24.40500
H  47.48400 31.42200 24.87000
H  45.64300 35.43900 32.10400
H  47.36800 37.74400 32.13100
H  44.57200 37.32200 31.07100
H  45.71100 38.24900 30.11300
H  45.43400 38.56100 31.92300
H  47.94600 34.09300 32.91500
H  46.92500 35.07400 33.92900
H  49.16000 36.52800 32.76000
H  49.44300 35.25900 33.90800
H  49.93900 41.14500 27.42800
H  51.06600 40.66000 28.85800
H  49.22500 40.57200 28.78000
H  52.84900 40.13300 27.19200
H  51.80600 41.31400 26.26600
H  53.29400 40.61300 25.54500
H  51.04800 34.43500 23.53200
H  48.26500 33.31500 23.00200
H  50.46200 35.84000 21.88400
H  48.94700 36.34300 22.53300
H  48.97100 34.92300 21.45800
H  49.32200 31.01800 23.72900
H  50.73700 32.09300 24.02200
H  49.96200 30.59200 21.55900
H  51.42800 31.52400 21.71900
H  50.04800 32.34500 21.20700
H  46.85900 29.38200 26.44500
H  45.36700 30.05000 25.85200
H  45.29000 29.18300 27.34600
H  44.53300 33.18600 30.86300
H  44.50000 31.81100 34.99800
H  44.77000 33.48700 35.11700
H  46.13700 32.38800 34.90800
Mg 16.71500 51.41900 26.23700
C  18.68500 50.50800 28.95900
C  14.02700 52.04000 28.40800
C  14.77200 52.04000 23.56300
C  19.33900 50.29400 24.09000
N  16.34900 51.22200 28.41200
C  17.36600 50.97200 29.32200
C  16.91900 51.18900 30.72600
C  15.42100 51.52200 30.59900
C  15.23500 51.61800 29.04800
C  14.50200 50.38700 31.16600
C  17.74000 52.28900 31.45800
C  18.45600 51.94100 32.75900
H  17.82300 52.63700 33.95200
N  14.70100 51.98800 26.05300
C  13.78800 52.26100 27.03700
C  12.67500 53.00300 26.43500
C  12.88100 53.05200 25.05700
C  14.18000 52.33600 24.79000
C  11.49000 53.46100 27.26500
C  12.00200 53.64900 24.02600
O  12.27300 53.55800 22.79700
C  10.74500 54.41000 24.36100
N  17.02600 51.35400 24.14300
C  16.08100 51.59800 23.25000
C  16.52900 51.57900 21.73900
C  18.01600 51.06800 21.90000
C  18.13600 50.83900 23.46200
C  15.66100 50.65300 20.82600
C  19.04600 52.01600 21.44800
C  19.80500 51.75100 20.16400
N  18.75700 50.52200 26.40000
C  19.64200 50.14500 25.47800
C  20.75400 49.50200 26.20100
C  20.44700 49.72300 27.60700
C  19.20700 50.28800 27.67900
C  21.97100 48.82600 25.62700
C  20.93000 49.50000 28.96300
O  21.98100 48.95800 29.31800
C  19.84400 50.05400 29.91400
C  19.47800 48.91400 30.78400
O  18.60500 48.10500 30.52700
O  20.20300 48.98600 31.97300
C  20.05500 48.02700 33.05700
H  13.22400 52.39000 29.06200
H  14.04300 52.19600 22.76500
H  20.16600 49.92100 23.48200
H  17.05900 50.26700 31.29200
H  15.08800 52.45600 31.05200
H  14.90600 49.40500 30.91800
H  13.45600 50.43600 30.86400
H  14.44300 50.44900 32.25200
H  17.07300 53.13100 31.64600
H  18.51200 52.65100 30.78000
H  19.51600 52.19400 32.71000
H  18.46900 50.87000 32.96100
H  10.56400 53.17700 26.76500
H  11.62700 54.53800 27.36300
H  11.35300 52.98300 28.23400
H  10.41600 54.86300 23.42500
H  10.99200 55.18400 25.08700
H  10.15300 53.61800 24.81900
H  16.47200 52.57100 21.29000
H  18.22200 50.05400 21.55900
H  15.28400 51.23500 19.98600
H  14.87200 50.19000 21.41800
H  16.34000 49.84800 20.54400
H  19.74200 52.04400 22.28600
H  18.71600 53.05400 21.45500
H  19.80800 52.69300 19.61600
H  19.33800 50.87100 19.72200
H  20.78300 51.34700 20.42700
H  22.83900 49.25600 26.12700
H  22.16700 49.00800 24.57000
H  21.89900 47.73900 25.65200
H  20.32600 50.84600 30.48800
H  19.14700 48.29300 33.59700
H  20.93700 48.13900 33.68800
H  19.88500 47.08900 32.52800

