158

Mg 2.79300 -1.31300 43.87800
C  6.08300 -0.40900 43.31600
C  1.83100 1.42100 42.13800
C  -0.22000 -2.72100 43.74800
C  3.92200 -4.37300 45.45800
N  3.86500 0.39200 42.98900
C  5.22400 0.59200 42.88600
C  5.60100 1.90100 42.19300
C  4.16400 2.50700 41.83100
C  3.15900 1.48400 42.50300
C  3.84100 3.99100 42.10900
C  6.41800 1.59000 40.85400
C  7.32900 2.68200 40.34900
H  7.27500 3.02700 38.86300
N  0.99700 -0.65400 43.03800
C  0.79600 0.48200 42.31800
C  -0.64000 0.53100 41.99100
C  -1.26300 -0.58800 42.60500
C  -0.16400 -1.41400 43.12000
C  -1.20800 1.72200 41.14600
C  -2.74100 -0.87400 42.46700
O  -3.46600 -0.02800 41.95600
C  -3.45200 -2.03900 42.94600
N  2.00900 -3.40000 44.44900
C  0.69500 -3.58800 44.37700
C  0.24300 -4.98400 45.03500
C  1.59900 -5.42800 45.60400
C  2.53900 -4.32400 45.26200
C  -0.92000 -4.83000 46.07000
C  2.23600 -6.88000 45.18100
C  2.83800 -7.71100 46.29100
N  4.63500 -2.32500 44.31600
C  4.97400 -3.53600 45.01100
C  6.42400 -3.65300 45.00800
C  6.89600 -2.45800 44.38400
C  5.76200 -1.68200 43.99600
C  7.22200 -4.72500 45.60700
C  8.15600 -1.72900 43.98200
O  9.34900 -1.93700 44.20500
C  7.64500 -0.38600 43.28500
C  8.28500 0.78500 43.97300
O  8.19300 0.96300 45.16600
O  8.99600 1.66600 43.11500
C  9.54300 2.77900 43.87700
H  1.48500 2.17400 41.42600
H  -1.19900 -3.20400 43.74200
H  4.25200 -5.18200 46.11300
H  6.16800 2.50100 42.90500
H  3.91500 2.34900 40.78200
H  3.07400 4.00100 42.88300
H  3.45900 4.36700 41.15900
H  4.72800 4.54800 42.41100
H  5.64400 1.62700 40.08700
H  6.83200 0.58700 40.95200
H  8.35700 2.59500 40.70000
H  6.80900 3.48400 40.87200
H  -1.20000 1.49100 40.08100
H  -0.54500 2.55300 41.38700
H  -2.23800 2.02200 41.33500
H  -4.52300 -1.84900 43.01700
H  -3.06600 -2.15200 43.95900
H  -3.12000 -2.83800 42.28300
H  -0.10600 -5.66900 44.26200
H  1.56700 -5.38700 46.69300
H  -1.78500 -5.34000 45.64500
H  -1.34600 -3.83100 46.16700
H  -0.71900 -5.19700 47.07600
H  2.98900 -6.70500 44.41300
H  1.49800 -7.43700 44.60300
H  2.32600 -8.66500 46.41700
H  2.75000 -7.20800 47.25400
H  3.90800 -7.90300 46.21400
H  7.42400 -5.56600 44.94300
H  6.69700 -5.07200 46.49700
H  8.21200 -4.43300 45.95900
H  7.98200 -0.27400 42.25400
H  10.35400 3.22500 43.30000
H  9.92400 2.47500 44.85300
H  8.74800 3.47100 44.15300
Mg 17.11700 52.95000 26.17700
C  18.75500 51.11400 28.58600
C  14.70700 53.84400 28.54400
C  15.15200 54.26800 23.74900
C  19.13000 51.45300 23.83800
N  16.79500 52.52300 28.32800
C  17.63400 51.78100 29.10600
C  17.13200 51.82700 30.55600
C  15.75700 52.50100 30.48900
C  15.73200 52.97100 29.01500
C  14.55300 51.63400 30.90800
C  18.18100 52.65800 31.42800
C  18.58200 52.04400 32.70700
H  18.06000 52.71300 33.97700
N  15.32100 54.09100 26.14600
C  14.61600 54.45700 27.25900
C  13.60600 55.41400 26.83500
C  13.55300 55.33800 25.42600
C  14.68100 54.52400 25.01600
C  12.61200 56.02000 27.88500
C  12.57000 56.01000 24.40700
O  12.51000 55.90100 23.19500
C  11.38800 56.71400 25.09200
N  17.15100 52.86400 24.10400
C  16.30200 53.55500 23.36600
C  16.57500 53.34200 21.88600
C  18.07300 52.88200 21.90700
C  18.15600 52.37800 23.36100
C  15.54700 52.60800 20.99200
C  19.08300 53.95000 21.46700
C  20.37200 54.12600 22.27900
N  18.66500 51.55600 26.18200
C  19.31700 50.97200 25.14500
C  20.30200 50.08200 25.61100
C  20.14400 50.01600 27.04300
C  19.11700 51.01900 27.27400
C  21.39100 49.38500 24.87000
C  20.63500 49.54400 28.30700
O  21.52900 48.74000 28.58000
C  19.72000 50.19400 29.29600
C  19.01600 49.10000 30.09100
O  18.00400 48.45600 29.78700
O  19.78100 49.03800 31.27000
C  19.06200 48.35100 32.38000
H  13.93500 54.10600 29.27000
H  14.70000 54.84900 22.94200
H  19.93400 51.17500 23.15400
H  17.15900 50.80200 30.92600
H  15.75200 53.43100 31.05800
H  14.07200 51.89900 31.84900
H  14.90200 50.60200 30.90700
H  13.82400 51.72200 30.10200
H  17.83000 53.67000 31.62800
H  19.06500 52.92600 30.84800
H  19.67000 52.06700 32.75700
H  18.27400 50.99900 32.67000
H  12.30800 57.02200 27.58500
H  13.08300 56.05100 28.86800
H  11.76500 55.34100 27.78400
H  11.69200 57.66100 25.53800
H  10.78900 56.10100 25.76400
H  10.73900 57.04500 24.28100
H  16.51800 54.30700 21.38000
H  18.20200 52.08800 21.17200
H  15.06500 53.40400 20.42400
H  14.73300 52.29700 21.64700
H  16.00900 51.82600 20.39000
H  18.67200 54.95700 21.54100
H  19.46200 53.72700 20.46900
H  20.96700 53.26400 21.97600
H  20.27200 53.99800 23.35700
H  20.95500 55.02600 22.08500
H  21.93200 50.07200 24.21900
H  20.90400 48.62600 24.25800
H  22.04800 48.94200 25.62000
H  20.26800 50.74500 30.06100
H  19.34600 47.30000 32.41500
H  17.98900 48.53300 32.44600
H  19.37000 48.64200 33.38400

