158

Mg 16.79700 -0.56300 27.93000
C  15.54500 1.05000 30.71900
C  18.72100 -2.56300 29.89400
C  18.13500 -1.97200 25.15300
C  15.02800 1.65200 25.91500
N  17.06800 -0.73400 30.00900
C  16.44400 0.05900 30.99900
C  16.95600 -0.38300 32.44300
C  17.92800 -1.59800 32.10600
C  17.98300 -1.58600 30.53800
C  19.38200 -1.51000 32.67200
C  15.84700 -0.86700 33.49100
C  15.92500 -0.22300 34.94400
H  17.24200 0.22200 35.54600
N  18.26800 -2.06600 27.63000
C  18.96100 -2.80600 28.55300
C  19.75500 -3.75900 27.91500
C  19.55400 -3.62800 26.53300
C  18.61600 -2.47100 26.37900
C  20.49800 -4.73600 28.76000
C  20.26700 -4.31500 25.37900
O  20.00600 -4.12800 24.22100
C  21.35000 -5.26900 25.74400
N  16.64300 -0.23100 25.84600
C  17.34100 -0.92000 24.88300
C  17.04200 -0.29500 23.41400
C  15.92300 0.74300 23.73000
C  15.82100 0.71700 25.29200
C  18.36900 0.21000 22.74100
C  14.65400 0.51300 22.92900
C  13.65400 -0.53000 23.48500
N  15.49000 1.01300 28.19100
C  14.94300 1.92500 27.26600
C  14.25200 2.95600 27.96700
C  14.42000 2.59500 29.31900
C  15.19200 1.40300 29.38500
C  13.63700 4.15000 27.31700
C  14.12300 3.04000 30.61700
O  13.65000 4.14500 30.95400
C  14.89600 2.12900 31.62500
C  15.91400 2.91300 32.27800
O  17.05000 3.09100 31.87200
O  15.49100 3.24900 33.54400
C  16.41800 4.00500 34.37300
H  19.16100 -3.23700 30.63200
H  18.54200 -2.35200 24.21300
H  14.45600 2.30500 25.25200
H  17.52900 0.42700 32.89400
H  17.58800 -2.61200 32.31900
H  19.91500 -2.45800 32.73800
H  19.42800 -1.00700 33.63800
H  20.02300 -0.90700 32.02900
H  16.02500 -1.92200 33.70100
H  14.87400 -0.51600 33.14700
H  15.44100 -0.95100 35.59400
H  15.27400 0.64900 34.99800
H  21.55600 -4.78100 28.50200
H  20.16700 -5.76500 28.62200
H  20.53300 -4.58000 29.83800
H  22.24300 -4.70000 26.00100
H  21.64200 -5.94100 24.93700
H  21.04400 -5.87900 26.59400
H  16.61400 -1.12100 22.84400
H  16.31800 1.72600 23.47700
H  19.19300 0.06200 23.43900
H  18.21500 1.26500 22.51500
H  18.57300 -0.30500 21.80200
H  15.08300 0.17900 21.98400
H  14.07900 1.42000 22.74400
H  13.99500 -1.14700 24.31600
H  13.32900 -1.21000 22.69700
H  12.77400 0.00900 23.83600
H  13.63800 4.86300 28.14200
H  12.67200 3.94000 26.85600
H  14.33400 4.49700 26.55500
H  14.15600 1.83900 32.37000
H  16.72800 4.90600 33.84500
H  17.37600 3.52100 34.56200
H  16.05100 4.45000 35.29800
Mg 26.41400 50.11400 27.27600
C  24.42300 51.49500 29.55300
C  28.62900 49.06500 29.71200
C  28.52900 49.02600 24.83200
C  24.31800 51.31600 24.79300
N  26.56800 50.39400 29.44400
C  25.48500 50.89500 30.17200
C  25.65900 50.57600 31.65100
C  27.16000 49.99100 31.68600
C  27.55300 49.80200 30.21400
C  28.15500 50.80900 32.48900
C  24.55200 49.56700 32.25700
C  24.03800 49.96600 33.64700
H  24.96300 50.65100 34.66500
N  28.40300 49.25300 27.27200
C  29.05100 48.84700 28.33200
C  30.35700 48.30700 27.96300
C  30.30900 48.22100 26.54700
C  29.07400 48.88000 26.13700
C  31.36900 47.88800 29.03600
C  31.33800 47.61700 25.61500
O  31.19400 47.63000 24.37200
C  32.47700 46.89600 26.27400
N  26.49300 50.32600 25.13300
C  27.38900 49.60200 24.35000
C  27.04400 49.81100 22.88200
C  25.54500 50.15900 22.90600
C  25.45600 50.72000 24.31200
C  27.89600 50.83800 22.13300
C  24.51000 49.01500 22.55400
C  23.70800 49.13500 21.20600
N  24.72900 51.19700 27.14000
C  23.96300 51.65500 26.09100
C  22.84200 52.52400 26.57500
C  22.95700 52.42800 27.94300
C  24.09900 51.60700 28.24600
C  21.79900 53.21500 25.66200
C  22.30300 52.73200 29.16300
O  21.24100 53.31800 29.37300
C  23.19900 52.13900 30.25900
C  23.51700 53.21900 31.23800
O  24.39600 54.07200 31.15400
O  22.65900 53.16100 32.33200
C  22.64600 54.19700 33.40300
H  29.27400 48.69500 30.51200
H  29.02200 48.66000 23.93000
H  23.69900 51.62100 23.94600
H  25.57500 51.48800 32.24200
H  27.12400 48.99500 32.12800
H  28.84400 50.07300 32.90300
H  27.61000 51.33900 33.27100
H  28.67400 51.57000 31.90800
H  25.05200 48.60200 32.17900
H  23.68100 49.52000 31.60400
H  23.53600 49.11900 34.11300
H  23.26200 50.71600 33.49700
H  32.34600 48.34000 28.86400
H  31.43900 46.80100 29.00000
H  31.21300 48.03000 30.10500
H  33.04300 46.44300 25.46000
H  32.08100 46.06000 26.84900
H  33.10400 47.57300 26.85400
H  27.27500 48.89100 22.34400
H  25.29600 50.98400 22.23900
H  28.40500 50.31500 21.32400
H  28.60300 51.24600 22.85600
H  27.31500 51.67600 21.74900
H  23.85500 48.81500 23.40200
H  25.14400 48.14700 22.36900
H  24.27100 49.79500 20.54600
H  22.74200 49.63200 21.29800
H  23.47800 48.16400 20.76600
H  21.37400 52.52500 24.93400
H  22.19200 54.03600 25.06200
H  20.95100 53.38500 26.32500
H  22.61100 51.44900 30.86400
H  23.03500 55.17500 33.12000
H  23.26800 53.82600 34.21700
H  21.64000 54.32500 33.80500

