158

Mg 41.18700 40.74400 26.44200
C  40.38800 43.60300 28.56900
C  41.81600 39.07900 29.33100
C  42.24300 38.16600 24.59700
C  40.93400 42.90400 23.74400
N  41.04100 41.38400 28.73500
C  40.61500 42.44600 29.34800
C  40.60000 42.37700 30.83900
C  41.16800 40.94200 30.99300
C  41.34100 40.37200 29.64300
C  42.39900 40.89100 31.90600
C  39.14300 42.47000 31.33600
C  38.98000 43.17200 32.69900
H  38.23600 42.36300 33.83000
N  41.82700 38.78000 26.90500
C  42.05400 38.28600 28.14600
C  42.61000 36.95200 27.99900
C  42.56500 36.59300 26.60300
C  42.24900 37.85800 25.98400
C  43.00100 36.04600 29.22100
C  42.81400 35.29000 25.92100
O  42.88700 35.22900 24.69300
C  43.12200 34.12800 26.64200
N  41.56000 40.59800 24.54600
C  41.91600 39.38800 23.98100
C  41.97200 39.44200 22.43400
C  41.38600 40.85400 22.13300
C  41.25900 41.57000 23.52500
C  43.38600 39.08600 21.89400
C  40.03600 40.76200 21.26300
C  38.64900 41.12100 21.85400
N  40.81600 42.83900 26.30100
C  40.71700 43.52100 25.09700
C  40.43000 44.96700 25.30000
C  40.31200 45.06500 26.75000
C  40.56100 43.74600 27.27800
C  40.41000 45.97500 24.17200
C  40.03300 45.92200 27.81100
O  39.89200 47.11100 27.84700
C  40.10300 44.99500 29.09900
C  40.99400 45.55200 30.13000
O  42.18800 45.57900 30.13900
O  40.20100 46.03600 31.16500
C  40.92600 46.44900 32.40600
H  41.88700 38.56700 30.29300
H  42.47000 37.35900 23.89700
H  40.82100 43.56700 22.88400
H  41.23700 43.20900 31.14000
H  40.46600 40.26800 31.48300
H  42.57500 41.88500 32.31800
H  43.28900 40.64100 31.32800
H  42.36100 40.31900 32.83200
H  38.84600 41.45600 31.60500
H  38.45200 42.77900 30.55100
H  38.31000 44.01300 32.52100
H  39.98900 43.45300 33.00100
H  43.97200 35.67100 28.89700
H  42.27800 35.24000 29.34200
H  43.16400 36.61200 30.13800
H  42.30100 34.01400 27.35000
H  44.08400 34.24000 27.14200
H  43.07600 33.29100 25.94500
H  41.31200 38.65300 22.07200
H  42.09100 41.40300 21.50900
H  44.14800 39.59200 22.48600
H  43.55700 39.40400 20.86600
H  43.56500 38.01600 22.00300
H  39.98800 39.80800 20.73900
H  40.27100 41.42900 20.43400
H  38.81800 41.27600 22.92000
H  37.99000 40.27000 21.68400
H  38.23700 42.07300 21.52000
H  40.07800 46.90900 24.62700
H  39.75700 45.59900 23.38400
H  41.38900 46.17500 23.73800
H  39.07600 44.88200 29.44400
H  41.96100 46.72400 32.20300
H  40.84300 45.60300 33.09000
H  40.39900 47.20900 32.98200
Mg 0.11100 43.21500 27.01500
C  2.51400 42.86300 29.42600
C  -2.34200 42.20900 29.41800
C  -2.35000 43.45900 24.66700
C  2.50900 43.53500 24.52400
N  0.09200 42.61800 29.15000
C  1.18400 42.67000 29.96700
C  0.81900 42.56300 31.45100
C  -0.59100 41.89000 31.37000
C  -0.98900 42.30900 29.87100
C  -0.59100 40.39300 31.57100
C  0.92800 43.86200 32.14200
C  0.90100 43.80300 33.65900
H  0.26800 42.63300 34.41500
N  -2.03500 42.91300 27.04600
C  -2.77500 42.57900 28.13500
C  -4.19100 42.63600 27.80900
C  -4.24200 43.07000 26.43100
C  -2.88700 43.24600 25.97000
C  -5.30900 42.27000 28.78000
C  -5.49500 43.31000 25.40100
O  -5.40100 43.72800 24.25300
C  -6.84300 42.86200 25.89100
N  0.05700 43.25900 24.86700
C  -1.05700 43.47800 24.17600
C  -0.73000 43.72500 22.64500
C  0.77600 43.76800 22.56600
C  1.16200 43.58500 24.07600
C  -1.35500 42.67000 21.71500
C  1.41500 44.91800 21.82900
C  1.92600 46.09000 22.73900
N  2.09600 43.19700 26.92000
C  2.94900 43.32500 25.84200
C  4.35200 43.32200 26.32100
C  4.20000 43.05500 27.68300
C  2.77100 43.01300 28.04700
C  5.71900 43.43700 25.55500
C  5.00600 42.86200 28.89100
O  6.19000 42.57900 29.18600
C  3.95800 42.84400 30.09600
C  4.25200 41.71900 31.03300
O  4.33000 40.52300 30.75000
O  4.39200 42.19400 32.24800
C  4.47500 41.19100 33.30500
H  -3.07300 41.87600 30.15800
H  -3.07200 43.68000 23.87800
H  3.33500 43.66000 23.82100
H  1.47900 41.86200 31.96200
H  -1.27900 42.31400 32.10200
H  0.36500 39.93300 31.82100
H  -0.80600 39.97000 30.59000
H  -1.36400 40.20800 32.31700
H  0.21700 44.58300 31.73900
H  1.90100 44.29600 31.90900
H  0.50600 44.76800 33.97800
H  1.90500 43.88000 34.07700
H  -6.13900 42.91300 28.48800
H  -5.13600 42.60600 29.80300
H  -5.58200 41.21500 28.74600
H  -6.78900 41.83000 26.23800
H  -7.63100 43.08400 25.17200
H  -7.09800 43.47300 26.75700
H  -1.14700 44.70000 22.39400
H  1.16000 42.84100 22.13900
H  -0.56800 42.31500 21.05000
H  -2.25300 43.11800 21.29000
H  -1.59300 41.80000 22.32600
H  0.90000 45.26800 20.93500
H  2.36900 44.48400 21.53000
H  1.22600 46.25500 23.55900
H  2.04300 46.98600 22.12900
H  2.93800 46.00200 23.13300
H  6.51300 43.15100 26.24500
H  5.83900 44.43200 25.12600
H  5.79500 42.73200 24.72800
H  4.12500 43.82600 30.53800
H  5.49500 41.23900 33.68600
H  4.04400 40.19800 33.17800
H  3.85500 41.62400 34.09100

