158

Mg 46.46200 15.66700 27.82400
C  44.48200 15.48300 30.76200
C  48.39900 18.09600 29.40600
C  48.32000 15.98600 25.07100
C  44.18200 13.65500 26.21700
N  46.37500 16.75100 29.80700
C  45.60800 16.33000 30.88100
C  46.04100 17.07700 32.14800
C  47.03600 18.17300 31.65300
C  47.31000 17.66800 30.19900
C  46.58900 19.63000 31.63100
C  46.66100 16.07400 33.19500
C  46.50800 16.63300 34.60900
H  47.66200 16.41800 35.53300
N  48.20000 16.76500 27.36700
C  48.80700 17.73300 28.12800
C  49.93800 18.27800 27.37800
C  49.96200 17.68800 26.13900
C  48.80400 16.75400 26.15500
C  50.71200 19.46000 27.87000
C  51.00500 17.79900 25.01100
O  50.95100 17.24500 23.93400
C  52.28500 18.62900 25.27800
N  46.25900 15.01500 25.89200
C  47.20800 15.20500 24.93600
C  46.80600 14.49500 23.63300
C  45.78900 13.49200 24.10900
C  45.31000 14.10000 25.50200
C  46.34100 15.45800 22.44600
C  46.26500 12.04200 24.22200
C  47.28200 11.71100 25.28900
N  44.66400 14.84100 28.29100
C  43.81400 14.02100 27.52300
C  42.70600 13.51300 28.30700
C  42.96100 14.02700 29.62200
C  44.15800 14.89300 29.51200
C  41.56700 12.59500 28.00700
C  42.45700 14.09200 30.94000
O  41.42700 13.59000 31.50500
C  43.45800 14.91900 31.75500
C  42.74000 15.94300 32.58800
O  42.28700 16.98500 32.10700
O  42.81100 15.56600 33.91700
C  42.22300 16.52800 34.87300
H  49.02700 18.78000 29.98000
H  48.69100 16.13000 24.05400
H  43.63300 12.82400 25.76800
H  45.20100 17.60200 32.60200
H  48.01400 18.09200 32.12600
H  47.44300 20.25000 31.90400
H  45.74700 19.79500 32.30300
H  46.30200 19.97300 30.63700
H  47.72400 16.00400 32.96200
H  46.26600 15.06200 33.29000
H  45.56200 16.35000 35.07000
H  46.56700 17.71100 34.46300
H  51.72400 19.15300 28.13400
H  50.18600 19.95800 28.68500
H  50.89000 20.25000 27.14000
H  52.00600 19.68200 25.25500
H  52.87500 18.45700 24.37800
H  52.96700 18.26700 26.04700
H  47.68500 13.96000 23.27600
H  44.94600 13.58300 23.42500
H  46.85000 15.31300 21.49300
H  46.63100 16.48400 22.67200
H  45.27200 15.43000 22.23300
H  46.60600 11.63800 23.26800
H  45.41800 11.36900 24.35000
H  48.21700 11.48900 24.77400
H  46.98200 10.83500 25.86500
H  47.52500 12.51300 25.98600
H  40.71400 13.17700 27.65800
H  41.22100 12.04800 28.88400
H  41.87300 11.92300 27.20400
H  43.89000 14.17400 32.42300
H  41.23100 16.91200 34.63300
H  42.88700 17.34300 35.16300
H  41.94500 15.87300 35.69800
Mg 45.43600 25.02100 28.33100
C  46.16300 27.03300 31.09800
C  44.48600 22.53100 30.43500
C  45.38800 22.88800 25.67000
C  46.74000 27.45500 26.22200
N  45.46200 24.81600 30.56800
C  45.68200 25.77700 31.50600
C  45.41700 25.30000 32.97800
C  44.99400 23.79600 32.70700
C  44.99900 23.67900 31.11600
C  45.73600 22.75200 33.48100
C  44.53200 26.11300 34.01700
C  45.11500 26.62800 35.34200
H  44.15800 26.82700 36.49200
N  45.09800 22.97200 28.07100
C  44.61500 22.14000 29.03800
C  44.28700 20.86300 28.47800
C  44.66400 20.92300 27.12000
C  45.02000 22.28100 26.90900
C  43.55800 19.82200 29.33100
C  44.64400 19.81600 26.07900
O  45.19200 19.85900 24.98000
C  43.97700 18.49100 26.48900
N  46.04900 25.15900 26.22400
C  45.86600 24.15500 25.39300
C  46.15900 24.54600 23.98200
C  46.43600 26.07100 24.09600
C  46.44100 26.26000 25.58700
C  47.33000 23.78500 23.32000
C  45.36700 26.92200 23.32800
C  45.95400 27.62600 22.07500
N  46.30000 26.91200 28.49400
C  46.82200 27.79300 27.58700
C  47.37900 28.97000 28.22500
C  47.11400 28.82000 29.60800
C  46.50000 27.46300 29.70600
C  47.91300 30.08400 27.52300
C  47.40400 29.31000 30.94700
O  48.04300 30.29400 31.33600
C  46.68200 28.22000 31.97100
C  47.74600 27.87300 32.90700
O  48.68100 27.06300 32.78000
O  47.53600 28.60900 34.04800
C  48.45100 28.34900 35.15300
H  44.32500 21.75900 31.19000
H  45.35700 22.20100 24.82100
H  47.14100 28.23400 25.57000
H  46.41900 25.43700 33.38600
H  43.97100 23.51900 32.96400
H  46.21600 22.13200 32.72400
H  45.03400 22.23600 34.13500
H  46.51000 23.21400 34.09400
H  43.62400 25.57300 34.28400
H  44.19700 27.03800 33.54700
H  45.38000 27.68200 35.26300
H  45.99300 26.05900 35.64600
H  42.78500 19.25800 28.80800
H  43.25800 20.29200 30.26800
H  44.24700 19.10700 29.78000
H  44.51500 17.92600 27.24900
H  44.14600 17.88600 25.59800
H  42.90400 18.55100 26.67400
H  45.33200 24.25400 23.33600
H  47.42300 26.32600 23.71100
H  48.26700 24.34200 23.34800
H  47.09800 23.67400 22.26100
H  47.66600 22.84000 23.74700
H  45.10100 27.78600 23.93700
H  44.45400 26.42700 22.99600
H  45.41900 27.40600 21.15100
H  47.01400 27.44000 21.90100
H  45.89100 28.71100 22.16600
H  47.69200 30.98700 28.09000
H  47.49000 30.02600 26.52000
H  48.97600 29.85800 27.43600
H  45.78000 28.57700 32.46800
H  49.49600 28.12700 34.93600
H  48.06500 27.54500 35.77900
H  48.25600 29.21900 35.78100

