158

Mg 45.83600 3.94600 48.61400
C  43.99100 6.90000 47.86400
C  43.15600 2.13600 47.52700
C  47.78400 1.13700 48.71300
C  48.67500 5.88900 49.06600
N  43.73800 4.53500 47.81300
C  43.21800 5.74200 47.69900
C  41.74700 5.64800 47.29300
C  41.52400 4.11300 47.23800
C  42.84900 3.50400 47.68100
C  40.33200 3.52300 48.02400
C  41.33800 6.46100 46.00900
C  42.14600 6.49400 44.74600
H  41.29700 6.32400 43.46800
N  45.50600 1.92300 48.20500
C  44.39500 1.41300 47.66400
C  44.59200 -0.09300 47.40700
C  45.97100 -0.38400 47.67300
C  46.50600 0.91700 48.21000
C  43.52300 -0.93100 46.77300
C  46.64200 -1.72900 47.38300
O  46.05600 -2.71800 46.97700
C  48.09400 -1.96400 47.48100
N  47.99600 3.59700 48.73800
C  48.44600 2.37300 48.96100
C  49.96300 2.47600 49.26500
C  50.24100 4.02300 49.36500
C  48.88400 4.52900 48.98400
C  50.43500 1.69000 50.52500
C  51.34200 4.62800 48.47800
C  51.04500 4.85800 47.03200
N  46.31400 5.94600 48.57700
C  47.47600 6.58800 48.73500
C  47.25600 8.03100 48.57600
C  45.92000 8.15700 48.29800
C  45.37200 6.86400 48.26400
C  48.32600 9.10300 48.70600
C  44.84900 9.16700 48.00700
O  44.88100 10.38100 47.85600
C  43.56600 8.37100 47.60200
C  42.50200 8.87500 48.45100
O  42.10400 8.45900 49.49200
O  41.76200 9.84200 47.83600
C  40.35300 9.96000 48.37000
H  42.30900 1.56600 47.14000
H  48.33000 0.22500 48.96100
H  49.52200 6.53200 49.31600
H  41.21000 6.09800 48.12800
H  41.35000 3.87600 46.18800
H  39.54100 4.27300 48.03100
H  40.75400 3.33900 49.01200
H  39.91700 2.72200 47.41300
H  41.30000 7.46500 46.43200
H  40.31800 6.14700 45.79100
H  43.02400 5.84900 44.72600
H  42.67600 7.44100 44.84100
H  43.85900 -1.27000 45.79300
H  42.54500 -0.45000 46.80300
H  43.44200 -1.84100 47.36600
H  48.65600 -1.12000 47.08200
H  48.43000 -2.82700 46.90600
H  48.35300 -2.15400 48.52300
H  50.54200 1.96400 48.49600
H  50.34600 4.38000 50.38900
H  50.79000 0.68600 50.28900
H  49.61000 1.49900 51.21200
H  51.21600 2.25800 51.03100
H  52.19200 3.94700 48.43200
H  51.77100 5.53900 48.89500
H  50.72900 5.90000 46.98700
H  50.29700 4.15300 46.66900
H  51.93600 4.68100 46.42900
H  48.92200 9.17900 47.79600
H  48.86500 9.07100 49.65300
H  47.74800 10.02600 48.75700
H  43.35600 8.73000 46.59400
H  39.83300 10.23300 47.45200
H  40.23400 10.70900 49.15300
H  40.05800 8.98000 48.74500
Mg 30.07900 58.36300 38.19300
C  27.21500 56.29500 37.42900
C  32.03100 55.60000 38.02600
C  32.73500 60.29100 38.23000
C  27.96500 61.05900 37.82800
N  29.61900 56.19800 37.82600
C  28.41000 55.61100 37.47900
C  28.55800 54.10200 37.28400
C  30.05100 53.90700 37.86000
C  30.62600 55.32100 37.95400
C  30.13900 53.14600 39.18800
C  28.27700 53.66200 35.82200
C  29.15500 54.36800 34.78000
H  28.55000 55.08400 33.54500
N  32.14600 57.99300 38.12400
C  32.75400 56.78500 38.15400
C  34.16400 56.90900 38.18400
C  34.42700 58.26800 38.27100
C  33.11700 58.94400 38.24100
C  35.19400 55.71400 37.99800
C  35.80700 58.93600 38.27600
O  36.79200 58.21000 38.28500
C  35.96600 60.40900 38.49900
N  30.39600 60.34000 37.88300
C  31.59900 60.93500 37.99700
C  31.58400 62.46900 37.96400
C  30.03300 62.78600 37.84700
C  29.41000 61.30400 37.88300
C  32.34300 63.20500 39.13400
C  29.70200 63.62800 36.54300
C  29.01000 64.97800 36.70500
N  27.92000 58.65500 37.91400
C  27.28100 59.83800 37.77600
C  25.87700 59.62500 37.76100
C  25.72800 58.19500 37.54100
C  27.04500 57.71700 37.66800
C  24.82800 60.75700 37.73800
C  24.88100 57.11000 37.28400
O  23.69400 57.07400 37.11600
C  25.87100 55.82600 37.10500
C  25.37200 54.84200 38.14500
O  25.48400 54.94600 39.39200
O  24.90800 53.73500 37.50300
C  24.21100 52.76600 38.39200
H  32.56700 54.65800 37.89200
H  33.52600 61.03100 38.09200
H  27.41500 61.99700 37.73500
H  27.79400 53.62300 37.89700
H  30.64300 53.35000 37.13400
H  30.30200 52.08200 39.01700
H  29.37600 53.23300 39.96100
H  30.96200 53.55700 39.77400
H  27.22200 53.72300 35.55700
H  28.51300 52.59800 35.86600
H  29.93900 53.66200 34.50500
H  29.83600 55.08100 35.24500
H  35.91300 55.71400 37.17900
H  34.70700 54.77100 37.75100
H  35.69300 55.64900 38.96500
H  35.46100 60.69800 39.42100
H  35.53000 60.88800 37.62200
H  37.01800 60.69200 38.52000
H  32.08100 62.81800 37.05900
H  29.50100 63.22900 38.69000
H  31.67800 63.70700 39.83600
H  33.05300 63.94500 38.76400
H  32.96200 62.56300 39.76000
H  28.95600 63.00800 36.04600
H  30.62800 63.74300 35.98000
H  28.97200 65.22800 37.76600
H  27.96900 64.91200 36.38700
H  29.56500 65.75000 36.17300
H  24.11600 60.54200 38.53500
H  24.39800 60.73600 36.73600
H  25.27200 61.71400 38.01200
H  25.92900 55.42100 36.09500
H  23.42400 53.29400 38.93000
H  24.88900 52.31900 39.12000
H  23.74700 51.96800 37.81200

