158

Mg 24.73300 -5.98000 46.15500
C  26.88800 -3.56300 44.45500
C  22.29400 -5.17800 43.87300
C  23.39300 -8.89900 46.82200
C  27.76800 -6.84100 47.92100
N  24.73200 -4.66100 44.24300
C  25.61200 -3.68100 43.89900
C  24.99700 -2.73800 42.91900
C  23.48800 -3.12100 42.97600
C  23.47600 -4.41800 43.71600
C  22.66700 -2.03000 43.64600
C  25.62400 -2.88700 41.50400
C  25.52200 -1.60300 40.60800
H  24.81300 -1.74900 39.26300
N  22.90900 -6.82800 45.65600
C  22.05200 -6.38800 44.68300
C  20.95800 -7.23500 44.62100
C  21.19400 -8.27400 45.54600
C  22.52500 -8.03600 46.06800
C  19.75000 -6.98600 43.71200
C  20.17900 -9.30600 45.96300
O  19.14900 -9.42800 45.37600
C  20.49300 -10.28600 47.12800
N  25.60300 -7.75400 46.99400
C  24.76200 -8.78500 47.25100
C  25.40300 -9.81900 48.29600
C  26.72300 -9.03500 48.75600
C  26.72400 -7.82800 47.78100
C  24.34500 -10.02200 49.49400
C  27.97000 -9.88100 48.78900
C  28.77100 -9.83600 50.05300
N  26.87200 -5.20300 46.36700
C  27.90800 -5.68000 47.18400
C  29.00500 -4.70700 47.06900
C  28.69200 -3.91500 45.99800
C  27.37100 -4.26000 45.53400
C  30.23200 -4.64300 47.93300
C  29.11600 -2.80500 45.22100
O  30.15500 -2.17400 45.34400
C  28.03400 -2.56600 44.11700
C  27.70300 -1.14500 44.03200
O  26.82000 -0.49900 44.66600
O  28.36000 -0.63400 42.96400
C  28.00800 0.79700 42.79400
H  21.45000 -4.81000 43.28500
H  22.94000 -9.86900 47.03800
H  28.55700 -7.06000 48.64400
H  25.18300 -1.69100 43.16000
H  23.20100 -3.40900 41.96500
H  23.24500 -1.15400 43.93700
H  22.32600 -2.32100 44.63900
H  21.83400 -1.73100 43.00900
H  25.03500 -3.68100 41.04600
H  26.68600 -3.13400 41.49300
H  26.46000 -1.22700 40.20000
H  25.08600 -0.71400 41.06300
H  19.66400 -5.91400 43.53600
H  18.87300 -7.42900 44.18300
H  19.95600 -7.33600 42.70100
H  20.99900 -9.79100 47.95800
H  21.11100 -11.10400 46.75800
H  19.59400 -10.76100 47.52000
H  25.67300 -10.76000 47.81700
H  26.61200 -8.58300 49.74200
H  23.52000 -9.32300 49.35600
H  24.79200 -9.90800 50.48200
H  23.89200 -11.01400 49.48800
H  28.65700 -9.60900 47.98700
H  27.78200 -10.94100 48.61600
H  28.87000 -10.83300 50.48400
H  28.43500 -9.14400 50.82500
H  29.80600 -9.51300 49.94300
H  30.65300 -5.61300 48.19900
H  30.05500 -4.06900 48.84300
H  31.11800 -4.09400 47.61200
H  28.44100 -2.79900 43.13400
H  28.61800 1.49600 43.36700
H  26.94900 1.01900 42.92200
H  28.29000 1.00800 41.76200
Mg 8.56400 48.87900 25.00200
C  6.53900 49.40300 27.90100
C  11.10800 50.37500 26.86600
C  10.51300 48.37900 22.43600
C  5.71200 48.40200 23.14900
N  8.77100 49.83800 27.15700
C  7.88600 49.72300 28.21600
C  8.50900 50.16300 29.59600
C  9.82200 50.84300 29.07000
C  9.90500 50.38100 27.57900
C  9.88200 52.36100 29.16800
C  8.80600 49.09800 30.67800
C  8.33300 49.54700 32.04600
H  8.14300 48.50200 33.07300
N  10.56500 49.27200 24.69700
C  11.44800 49.79500 25.59700
C  12.79100 49.55800 25.04700
C  12.64200 48.80100 23.80300
C  11.23200 48.80200 23.59000
C  13.98100 50.02700 25.75400
C  13.59400 48.08100 22.79300
O  13.26900 47.41500 21.85700
C  15.10200 48.22800 22.96900
N  8.22900 48.45600 23.08800
C  9.17900 48.28200 22.16700
C  8.61800 47.92000 20.76500
C  7.03300 47.97600 21.00900
C  7.00100 48.18000 22.52900
C  9.06700 48.97300 19.72200
C  6.31400 46.60200 20.63200
C  5.46200 46.59600 19.38000
N  6.54100 48.88400 25.38400
C  5.49900 48.64100 24.56800
C  4.25600 48.77200 25.28600
C  4.61100 49.02100 26.61500
C  6.00800 49.13400 26.66500
C  2.88700 48.72900 24.63600
C  4.11800 49.25800 27.94400
O  2.92600 49.22900 28.35700
C  5.37600 49.48900 28.85400
C  5.36500 48.50600 29.88300
O  5.82900 47.32600 29.71300
O  4.55200 48.90500 30.94100
C  4.27100 47.84500 32.01800
H  11.86300 50.76600 27.55100
H  11.14800 48.13600 21.58200
H  4.80900 48.38500 22.53500
H  8.00500 51.06200 29.95000
H  10.75700 50.52400 29.53100
H  9.13000 52.82900 29.80300
H  9.57900 52.61300 28.15100
H  10.90800 52.65600 29.38500
H  9.88000 48.94800 30.78900
H  8.46200 48.08700 30.45900
H  7.42800 50.07700 31.74800
H  9.08900 50.17800 32.51300
H  14.65100 50.66500 25.17800
H  14.59500 49.21500 26.14600
H  13.70700 50.61100 26.63300
H  15.30200 49.29800 23.02400
H  15.58800 47.72100 22.13600
H  15.31700 47.83500 23.96200
H  8.90800 46.92600 20.42500
H  6.54000 48.83700 20.55700
H  9.88900 49.53900 20.15900
H  8.22800 49.54600 19.32700
H  9.38400 48.34400 18.89000
H  5.62500 46.25600 21.40200
H  7.12900 45.89100 20.76300
H  5.47900 47.59200 18.93700
H  4.43500 46.37600 19.67100
H  5.79800 45.79200 18.72500
H  2.10300 49.21500 25.21700
H  2.60600 47.67700 24.58500
H  2.81200 49.06700 23.60200
H  5.20100 50.49200 29.24400
H  3.64600 48.27700 32.79900
H  5.19800 47.54000 32.50300
H  3.66400 47.07100 31.55000

