158

Mg 24.16500 -5.58600 45.21600
C  26.50300 -3.42400 43.51200
C  21.77400 -4.46400 43.12300
C  22.63700 -8.45000 45.77500
C  26.99900 -6.68500 47.03800
N  24.19700 -4.25400 43.48100
C  25.14900 -3.37500 43.00900
C  24.59000 -2.24700 42.03400
C  23.06300 -2.35100 42.33000
C  22.98000 -3.79800 43.01700
C  22.48000 -1.25100 43.19500
C  25.04200 -2.54400 40.60800
C  24.87600 -1.47300 39.50800
H  25.06900 -1.93800 38.05800
N  22.34700 -6.32100 44.64100
C  21.48200 -5.64100 43.84900
C  20.29500 -6.41200 43.71300
C  20.45000 -7.58400 44.53500
C  21.81900 -7.53000 45.04300
C  19.20100 -5.93400 42.78700
C  19.36900 -8.44000 44.91300
O  18.24100 -8.34500 44.44300
C  19.58700 -9.58100 45.80300
N  24.77600 -7.35000 46.26500
C  23.89300 -8.35800 46.43200
C  24.45600 -9.43300 47.37900
C  25.74200 -8.70600 47.97300
C  25.87400 -7.54100 47.05500
C  23.47500 -10.21800 48.41800
C  27.11600 -9.57200 48.03500
C  28.03800 -9.43200 49.27600
N  26.29900 -5.05000 45.38700
C  27.29200 -5.66900 46.14300
C  28.58100 -5.02400 45.85700
C  28.28300 -4.11300 44.79000
C  26.94200 -4.20300 44.53600
C  29.92800 -5.32900 46.50900
C  28.87500 -3.14300 43.86700
O  30.08100 -2.82000 43.77900
C  27.68000 -2.58200 43.03700
C  27.63600 -1.20300 43.54900
O  27.01800 -0.79700 44.47000
O  28.50600 -0.39700 42.86200
C  28.96300 0.88300 43.54400
H  20.93200 -4.02100 42.58600
H  22.14700 -9.36700 46.10900
H  27.94200 -6.96800 47.51200
H  24.95700 -1.26100 42.32200
H  22.41700 -2.37100 41.45200
H  21.76700 -1.74100 43.85800
H  21.91300 -0.53500 42.60000
H  23.24500 -0.71200 43.75500
H  24.46300 -3.41300 40.29200
H  26.06900 -2.87300 40.45000
H  25.77000 -0.89000 39.72900
H  23.96500 -0.88600 39.61700
H  19.55800 -6.19500 41.79100
H  18.97700 -4.88200 42.96400
H  18.23400 -6.37100 43.03700
H  18.65400 -10.09800 46.02700
H  19.97500 -9.29400 46.78000
H  20.33000 -10.24300 45.35900
H  24.82700 -10.23800 46.74400
H  25.59700 -8.35900 48.99700
H  22.44500 -9.86100 48.42300
H  23.90200 -9.99700 49.39600
H  23.59500 -11.28000 48.20600
H  27.68500 -9.34300 47.13400
H  26.92300 -10.64100 47.94100
H  29.03400 -9.10900 48.97300
H  28.14100 -10.37700 49.80900
H  27.65700 -8.80300 50.08000
H  29.99400 -5.79500 47.49100
H  30.40600 -4.34900 46.52200
H  30.58200 -5.96100 45.90800
H  27.91000 -2.64900 41.97400
H  29.43200 0.65400 44.50100
H  28.03900 1.38400 43.83100
H  29.54200 1.47100 42.83100
Mg 47.37600 25.42700 28.02600
C  48.56600 27.38300 30.76600
C  45.87500 23.32000 30.28600
C  46.69100 23.38400 25.57800
C  49.29200 27.58800 25.96400
N  47.34700 25.33400 30.20500
C  47.91300 26.24200 31.14900
C  47.35700 25.82700 32.58500
C  46.73200 24.42800 32.35100
C  46.62200 24.37000 30.85500
C  47.46200 23.24900 32.83300
C  46.42200 26.94100 33.19000
C  46.91100 27.51500 34.52000
H  45.89700 27.76700 35.67700
N  46.36200 23.57400 27.93900
C  45.79000 22.88100 29.04300
C  45.20800 21.67400 28.51900
C  45.50200 21.62900 27.13300
C  46.18000 22.85400 26.81800
C  44.55500 20.59300 29.31400
C  45.06500 20.63600 26.04800
O  45.37600 20.69000 24.89400
C  44.27900 19.46300 26.52400
N  48.01700 25.41800 26.07000
C  47.41500 24.52600 25.17200
C  47.76600 24.93100 23.70300
C  48.61900 26.23400 23.94800
C  48.64300 26.45900 25.44900
C  48.46700 23.87200 22.90000
C  48.02500 27.45600 23.22100
C  48.91300 28.20700 22.35200
N  48.71000 27.20200 28.24500
C  49.45800 27.92100 27.32100
C  50.14400 29.00100 27.96100
C  49.74800 28.87200 29.32300
C  48.93400 27.74300 29.41000
C  50.99500 30.11300 27.34400
C  49.87600 29.41300 30.63400
O  50.46600 30.39700 31.11400
C  49.07700 28.45000 31.57700
C  50.17700 28.10300 32.58400
O  51.14600 27.40300 32.33300
O  49.95200 28.72300 33.81800
C  51.01400 28.55800 34.90700
H  45.43900 22.59500 30.97600
H  46.43300 22.90500 24.63100
H  49.75500 28.26200 25.24100
H  48.09800 25.60500 33.35200
H  45.73100 24.36400 32.77500
H  48.33800 23.39000 33.46600
H  48.02200 22.74900 32.04300
H  46.66200 22.66800 33.29200
H  45.43100 26.51600 33.34900
H  46.24900 27.81100 32.55600
H  47.36100 28.48900 34.32500
H  47.76400 26.99800 34.95900
H  43.64300 20.19200 28.87200
H  44.28600 20.82400 30.34500
H  45.36100 19.88100 29.49200
H  44.88000 18.81900 27.16500
H  44.33100 18.76700 25.68700
H  43.21700 19.64800 26.69100
H  46.81400 25.08400 23.19400
H  49.63600 26.03900 23.60700
H  48.03100 23.77900 21.90500
H  48.71400 22.97600 23.46900
H  49.44900 24.20300 22.56200
H  47.60700 28.19500 23.90500
H  47.12900 27.14000 22.68600
H  49.32800 29.00100 22.97400
H  48.24200 28.66100 21.62300
H  49.69200 27.56700 21.93700
H  50.52300 31.09400 27.40000
H  51.32800 29.86700 26.33600
H  51.83200 30.32500 28.00900
H  48.25100 28.97000 32.06200
H  50.63600 27.83200 35.62700
H  51.26000 29.48300 35.42900
H  51.89900 28.01700 34.57300

