158

Mg 30.51700 59.66400 40.47800
C  27.73500 57.89000 39.39600
C  32.44500 56.82500 39.72100
C  33.24500 61.49600 40.92000
C  28.44400 62.30600 41.10000
N  30.16500 57.69400 39.51400
C  28.92100 57.20100 39.14300
C  29.01000 55.81600 38.42400
C  30.46800 55.40300 38.91600
C  31.11600 56.72700 39.35100
C  30.48600 54.22100 39.97900
C  28.87900 55.96800 36.90000
C  27.89000 55.06100 36.19200
H  26.87600 55.72800 35.27600
N  32.62500 59.24600 40.19200
C  33.19000 57.98200 40.10700
C  34.57200 58.09200 40.27600
C  34.86800 59.46600 40.60000
C  33.54700 60.15000 40.62200
C  35.57800 56.96100 39.95200
C  36.30700 59.95600 40.75700
O  37.32700 59.21500 40.71900
C  36.60500 61.41900 40.91900
N  30.83600 61.62800 40.64500
C  32.07700 62.12700 40.93800
C  32.05400 63.58500 41.31400
C  30.49700 63.83100 41.43300
C  29.90400 62.47600 41.04100
C  32.99200 64.10800 42.44400
C  30.05500 65.05300 40.53200
C  29.14200 66.11100 41.11000
N  28.49900 60.03900 40.48200
C  27.78300 61.17200 40.74400
C  26.32100 60.92600 40.63800
C  26.27000 59.66700 40.01100
C  27.61800 59.16800 40.00900
C  25.21500 61.96700 40.87400
C  25.36200 58.63100 39.47200
O  24.14200 58.65900 39.40300
C  26.27100 57.46500 39.08000
C  25.77100 56.35900 39.94700
O  26.16000 56.16700 41.10300
O  24.77700 55.67100 39.28400
C  24.25700 54.51500 39.95600
H  32.99400 55.90100 39.52400
H  34.07200 62.03400 41.39000
H  27.82100 63.15700 41.38200
H  28.20600 55.18600 38.80500
H  31.03200 55.00400 38.07200
H  30.79900 53.26300 39.56500
H  29.47100 54.05100 40.33700
H  31.03400 54.59700 40.84300
H  29.84700 55.61300 36.54600
H  28.79200 57.01000 36.59300
H  27.35400 54.47000 36.93400
H  28.46400 54.35400 35.59300
H  36.08900 56.74800 40.89100
H  36.38200 57.18600 39.25100
H  35.00200 56.06000 39.73900
H  37.62100 61.66300 40.60900
H  36.26200 61.81600 41.87500
H  36.02900 61.94200 40.15600
H  32.42100 64.10500 40.42900
H  30.05000 64.01200 42.41100
H  32.27900 64.68400 43.03400
H  33.75900 64.81000 42.11800
H  33.40000 63.32200 43.07900
H  29.64600 64.71100 39.58100
H  30.98600 65.53800 40.23900
H  28.52700 66.54400 40.32200
H  29.70900 66.97200 41.46400
H  28.49600 65.72800 41.90000
H  24.84100 62.44700 39.96900
H  25.61300 62.78100 41.48100
H  24.35800 61.57000 41.41700
H  26.10500 57.34500 38.01000
H  24.99200 54.17800 40.68800
H  24.10700 53.70700 39.24000
H  23.35900 54.82700 40.48800
Mg -1.47300 34.44600 26.71300
C  -2.83300 32.82400 29.49500
C  0.12900 36.61900 28.71500
C  -0.71900 36.26100 23.94000
C  -3.41200 32.34000 24.70500
N  -1.59100 34.82100 28.88700
C  -1.99400 33.89600 29.82300
C  -1.56500 34.31900 31.24200
C  -0.63600 35.50700 30.97200
C  -0.65400 35.67300 29.43400
C  -1.05800 36.76000 31.75000
C  -0.78400 33.25600 32.05800
C  -1.40700 32.95100 33.39400
H  -0.40900 32.98400 34.57200
N  -0.36600 36.18900 26.34900
C  0.24100 36.92300 27.31900
C  1.02900 37.91400 26.69800
C  0.70700 37.93900 25.27400
C  -0.10200 36.73800 25.12200
C  1.79300 38.90500 27.50100
C  1.24000 38.78100 24.17800
O  0.92100 38.60400 23.00200
C  2.34000 39.79600 24.49700
N  -2.15900 34.43300 24.63200
C  -1.67100 35.31800 23.71300
C  -2.05600 34.87300 22.29000
C  -2.37800 33.38400 22.50100
C  -2.73500 33.36500 24.03900
C  -3.16200 35.71000 21.54300
C  -1.32600 32.34000 22.23300
C  0.15400 32.67000 22.51100
N  -2.85800 32.86700 26.92100
C  -3.58400 32.13400 26.07000
C  -4.41000 31.15900 26.72600
C  -4.13900 31.35200 28.12000
C  -3.19300 32.39200 28.17800
C  -5.37500 30.12800 26.17400
C  -4.39200 30.90100 29.44200
O  -5.13900 29.99600 29.86800
C  -3.62000 31.88000 30.39700
C  -4.62800 32.54800 31.20400
O  -5.23400 33.59500 30.94700
O  -4.76100 31.76600 32.37700
C  -5.71300 32.34800 33.33600
H  0.64200 37.30400 29.39300
H  -0.55500 36.80200 23.00500
H  -3.99100 31.70200 24.03200
H  -2.49600 34.50100 31.78000
H  0.39900 35.31500 31.25800
H  -0.19200 37.23800 32.20800
H  -1.78200 36.56500 32.54100
H  -1.58200 37.50200 31.14700
H  0.25900 33.53800 32.20900
H  -0.76600 32.39300 31.39300
H  -1.83000 31.94600 33.38200
H  -2.33200 33.47400 33.63800
H  1.19100 39.05800 28.39700
H  1.80600 39.89000 27.03300
H  2.82000 38.55500 27.60300
H  2.84800 39.92600 23.54100
H  3.04900 39.48400 25.26400
H  1.92500 40.74300 24.84200
H  -1.12100 34.89400 21.73000
H  -3.12300 33.12700 21.74700
H  -3.54700 36.41600 22.27800
H  -4.06300 35.23300 21.15700
H  -2.80400 36.35800 20.74300
H  -1.58000 32.18400 21.18400
H  -1.48800 31.45400 22.84600
H  0.44000 33.62400 22.95200
H  0.76600 32.56300 21.61600
H  0.47300 31.98200 23.29400
H  -5.33900 29.75900 25.14900
H  -6.41800 30.43100 26.26300
H  -5.33500 29.28300 26.86200
H  -3.01800 31.20800 31.00800
H  -5.78400 31.66000 34.17800
H  -6.64700 32.57600 32.82400
H  -5.14700 33.22900 33.63900

