158

Mg 47.95300 24.99000 29.76100
C  48.53200 27.47000 32.26000
C  47.04100 22.73900 32.24900
C  47.72600 22.52000 27.50900
C  49.36300 27.19700 27.38100
N  47.67100 25.17200 31.95500
C  47.86100 26.25900 32.75100
C  47.38200 25.99100 34.09800
C  47.00100 24.41200 34.18200
C  47.29500 24.08200 32.72400
C  47.80200 23.59500 35.16500
C  46.33500 26.98700 34.66400
C  46.29200 27.51800 36.10600
H  47.01100 26.97100 37.34300
N  47.37600 22.91500 29.87100
C  47.02400 22.22700 30.94800
C  46.79400 20.82500 30.60600
C  46.93700 20.73400 29.23700
C  47.41200 22.06400 28.80800
C  46.39600 19.71800 31.59400
C  46.73400 19.55700 28.30300
O  46.77200 19.63900 27.08000
C  46.25400 18.30500 28.86000
N  48.61900 24.86200 27.72400
C  48.21700 23.79800 27.00000
C  48.47500 24.08000 25.45800
C  48.91400 25.60200 25.45700
C  49.01000 25.91000 26.87600
C  49.55600 23.23800 24.88100
C  47.88900 26.60800 24.77900
C  46.46300 26.75500 25.36400
N  48.81700 26.94800 29.72500
C  49.43800 27.69400 28.73200
C  49.85300 28.94800 29.25900
C  49.39400 28.90600 30.58400
C  48.87300 27.64200 30.86200
C  50.57800 30.00800 28.50700
C  49.47700 29.71300 31.82700
O  49.89100 30.79100 32.06500
C  48.88000 28.78500 32.99600
C  49.98500 28.55100 33.99200
O  50.87800 27.69900 33.88800
O  49.89900 29.41200 35.03200
C  51.01000 29.29400 36.04700
H  46.69600 22.00500 32.98000
H  47.67300 21.65100 26.85000
H  49.65500 27.95900 26.65600
H  48.31300 26.16400 34.63800
H  45.92900 24.30800 34.35000
H  48.56300 23.05700 34.59900
H  47.11700 22.93800 35.70100
H  48.38900 24.16800 35.88200
H  45.32700 26.58900 34.54300
H  46.30300 27.80400 33.94200
H  45.26200 27.44200 36.45500
H  46.60200 28.55900 36.02000
H  47.23200 19.04200 31.41400
H  45.48300 19.21200 31.28300
H  46.33600 19.99500 32.64700
H  47.02600 17.80800 29.44800
H  46.02500 17.62100 28.04400
H  45.28700 18.49900 29.32400
H  47.52500 23.98400 24.93400
H  49.90400 25.68600 25.00800
H  50.44300 23.79800 24.58500
H  49.22900 22.73400 23.97200
H  49.94700 22.52600 25.60800
H  47.80100 26.31400 23.73300
H  48.31600 27.60500 24.67000
H  46.44400 26.52200 26.42900
H  45.78000 26.03200 24.91600
H  46.07200 27.75600 25.18600
H  50.96600 29.54700 27.59800
H  51.45000 30.42100 29.01400
H  49.93700 30.83300 28.19600
H  47.97800 29.28700 33.34500
H  50.76600 28.47100 36.71900
H  50.89900 30.24300 36.57100
H  52.05500 29.16000 35.76700
Mg -2.84900 35.09300 27.05900
C  -4.67000 33.24200 29.47300
C  -1.42200 36.70200 29.57600
C  -1.64200 37.18500 24.76500
C  -4.62400 33.29700 24.54900
N  -2.98200 34.85700 29.23200
C  -3.72100 34.09700 30.05500
C  -3.44100 34.30700 31.56700
C  -2.41800 35.44100 31.58900
C  -2.23800 35.71100 30.04800
C  -2.78800 36.71500 32.49600
C  -3.01500 33.01900 32.25900
C  -3.76600 32.65700 33.61900
H  -2.94600 31.83200 34.59900
N  -1.70000 36.68100 27.12200
C  -1.07900 37.08600 28.26100
C  -0.07700 38.10400 27.91400
C  -0.19400 38.35000 26.52600
C  -1.23300 37.41400 26.07400
C  0.79500 38.85300 28.97300
C  0.63300 39.30000 25.65600
O  0.39200 39.34200 24.42200
C  1.80700 40.07300 26.28400
N  -3.22800 35.28500 25.00300
C  -2.45000 36.15700 24.27400
C  -2.63800 35.96600 22.78000
C  -3.38400 34.63500 22.77000
C  -3.77500 34.39800 24.17200
C  -3.49200 37.10700 22.09400
C  -2.53500 33.38700 22.31200
C  -2.34900 33.18300 20.83200
N  -4.43200 33.61900 26.98300
C  -4.94500 32.90400 25.90100
C  -5.78800 31.89200 26.32700
C  -5.76500 32.05000 27.73500
C  -4.88900 33.08400 28.09200
C  -6.58000 30.83700 25.59500
C  -6.30100 31.52800 28.93400
O  -7.12900 30.59600 29.07700
C  -5.63100 32.28500 30.14100
C  -6.74800 33.03700 30.85200
O  -7.53900 33.86500 30.31000
O  -6.81700 32.68600 32.18000
C  -7.84300 33.42900 32.96900
H  -0.91400 37.20900 30.39900
H  -1.17600 37.74200 23.94900
H  -4.89800 32.62700 23.73200
H  -4.32800 34.72100 32.04700
H  -1.52600 35.01800 32.05000
H  -3.36300 37.47300 31.96500
H  -1.85400 37.11500 32.89100
H  -3.30200 36.31600 33.37100
H  -1.96900 32.82900 32.50000
H  -3.41200 32.24800 31.59900
H  -4.61600 32.06800 33.27700
H  -4.02000 33.51600 34.23900
H  0.68200 39.93700 29.00700
H  1.78300 38.51400 28.66100
H  0.75700 38.44600 29.98300
H  1.37700 40.83000 26.93900
H  2.45900 40.53900 25.54400
H  2.44000 39.41700 26.88100
H  -1.64800 35.90600 22.33000
H  -4.33300 34.61600 22.23300
H  -2.80300 37.78500 21.59100
H  -3.86700 37.67300 22.94700
H  -4.37600 36.83700 21.51600
H  -3.15300 32.51500 22.52500
H  -1.61200 33.20400 22.86200
H  -3.02800 33.86400 20.32000
H  -2.53100 32.15600 20.51500
H  -1.32400 33.38800 20.52300
H  -6.28200 30.76400 24.55000
H  -7.64300 31.07800 25.57300
H  -6.41900 29.86000 26.05000
H  -5.31500 31.45500 30.77300
H  -7.64100 33.40200 34.04000
H  -8.59900 32.67600 32.74400
H  -8.06500 34.42900 32.59700

