158

Mg 2.31900 -1.07800 44.78700
C  5.57700 -0.46700 43.94500
C  1.36800 1.57800 42.96800
C  -0.80200 -2.38300 44.91400
C  3.53600 -4.20100 46.23400
N  3.40700 0.32000 43.50000
C  4.73200 0.48600 43.40700
C  5.14500 1.65600 42.46700
C  3.80900 2.51900 42.50400
C  2.74900 1.44700 43.00900
C  3.86000 3.81500 43.40300
C  5.56700 1.30500 41.00300
C  6.63700 2.16700 40.51900
H  6.33200 3.05900 39.35300
N  0.45600 -0.39500 44.18000
C  0.29800 0.71700 43.41300
C  -1.10200 0.83000 43.23100
C  -1.79800 -0.25300 43.82400
C  -0.71900 -1.10600 44.35100
C  -1.75500 2.03500 42.50700
C  -3.27600 -0.39000 43.93900
O  -4.06300 0.36300 43.43000
C  -3.85000 -1.50700 44.71800
N  1.49600 -3.03000 45.49700
C  0.15500 -3.23700 45.48200
C  -0.09800 -4.70800 45.82800
C  1.21300 -5.21500 46.46300
C  2.15800 -4.09500 46.08600
C  -1.39900 -5.02200 46.72000
C  1.63500 -6.62200 45.95700
C  1.98200 -7.65700 47.02600
N  4.14000 -2.11800 45.10700
C  4.43300 -3.36900 45.73500
C  5.82800 -3.60800 45.71700
C  6.28300 -2.49800 45.01200
C  5.24600 -1.58300 44.69100
C  6.72400 -4.81100 46.19300
C  7.47800 -1.84700 44.53200
O  8.64500 -2.20900 44.63400
C  7.07300 -0.57200 43.80800
C  7.79000 0.63300 44.45400
O  7.88400 0.87900 45.65800
O  8.49500 1.32500 43.47400
C  9.23500 2.53700 43.91500
H  1.06900 2.45700 42.39400
H  -1.74900 -2.91100 44.78500
H  3.96400 -5.14100 46.58800
H  5.87000 2.29400 42.97200
H  3.38900 2.77800 41.53200
H  2.82500 4.00300 43.68900
H  4.24800 4.66900 42.84800
H  4.26900 3.59600 44.38900
H  4.80600 1.41600 40.23100
H  5.64600 0.22600 40.86800
H  7.35200 1.41600 40.18400
H  7.14600 2.71300 41.31200
H  -2.84100 1.96600 42.45700
H  -1.19500 2.09700 41.57400
H  -1.50400 2.87000 43.16200
H  -4.91900 -1.33000 44.83200
H  -3.41900 -1.54800 45.71900
H  -3.77400 -2.47600 44.22500
H  -0.14100 -5.23300 44.87400
H  1.08900 -5.15900 47.54500
H  -1.92000 -5.93500 46.43100
H  -2.02900 -4.13500 46.78300
H  -1.06600 -5.22800 47.73700
H  2.53200 -6.40600 45.37700
H  0.87800 -7.01800 45.28000
H  3.03500 -7.88000 47.19800
H  1.44100 -8.55100 46.71200
H  1.75200 -7.30500 48.03100
H  6.24300 -5.20000 47.09000
H  7.69100 -4.45700 46.55300
H  6.83200 -5.61100 45.46200
H  7.40300 -0.63600 42.77200
H  9.70200 3.03600 43.06600
H  10.03600 2.27600 44.60600
H  8.57100 3.31800 44.28800
Mg 0.69900 8.61400 28.05600
C  1.71100 10.78400 30.60900
C  0.61900 5.99100 30.25300
C  0.33500 6.53700 25.35800
C  1.49000 11.24100 25.76000
N  1.11000 8.46200 30.20000
C  1.40100 9.51800 31.10100
C  1.32500 8.98600 32.53300
C  1.41500 7.43300 32.30200
C  0.96000 7.27200 30.81700
C  2.83900 7.00300 32.59900
C  -0.00500 9.45800 33.17100
C  -0.18800 9.35300 34.69600
H  0.84800 8.72200 35.61100
N  0.39000 6.63100 27.79700
C  0.31800 5.68200 28.89600
C  -0.12000 4.42800 28.36800
C  -0.27900 4.60300 26.91300
C  0.10100 5.95300 26.66200
C  -0.27100 3.12300 29.25200
C  -0.63800 3.59500 25.80400
O  -0.62800 3.77000 24.59700
C  -1.06300 2.19900 26.22100
N  0.78900 8.88700 25.89300
C  0.74000 7.84700 25.05000
C  1.26600 8.20400 23.65300
C  1.26200 9.79900 23.74100
C  1.15200 10.01900 25.20100
C  2.65000 7.73200 23.20000
C  0.19400 10.52500 22.87300
C  -1.30700 10.15300 22.95000
N  1.39900 10.61400 28.10700
C  1.61900 11.57800 27.12000
C  1.94800 12.84700 27.70700
C  1.92200 12.54700 29.08300
C  1.59600 11.21800 29.26600
C  2.34200 14.10700 26.92700
C  2.14400 13.17000 30.35800
O  2.38300 14.34100 30.67800
C  1.87300 12.15500 31.43900
C  2.93500 12.06100 32.43800
O  4.11200 11.88100 32.25300
O  2.30800 12.33300 33.66700
C  3.17600 12.55000 34.82900
H  0.66400 5.18900 30.99300
H  0.47500 5.89300 24.48700
H  1.90700 11.93000 25.02300
H  2.17800 9.44100 33.03700
H  0.61400 6.84900 32.75400
H  3.46600 6.77900 31.73600
H  2.69200 6.04600 33.10000
H  3.36600 7.74000 33.20500
H  -0.69800 8.73600 32.74000
H  -0.22500 10.47800 32.85300
H  -1.10900 8.83800 34.96600
H  -0.37900 10.39500 34.95600
H  -1.33000 2.88200 29.15200
H  0.07600 3.20400 30.28200
H  0.32600 2.26000 28.95800
H  -1.49600 1.65500 25.38100
H  -1.89500 2.30700 26.91600
H  -0.17300 1.61700 26.46100
H  0.58500 7.77100 22.92100
H  2.22300 10.18300 23.39700
H  2.97000 8.50000 22.49500
H  2.67500 6.73300 22.76700
H  3.33900 7.70100 24.04500
H  0.63300 10.33700 21.89300
H  0.16400 11.59600 23.07400
H  -1.32100 9.15600 22.50900
H  -2.01700 10.85700 22.51700
H  -1.61100 10.09900 23.99600
H  2.31400 14.97800 27.58100
H  1.65000 14.13800 26.08600
H  3.34200 13.95500 26.52000
H  0.91600 12.39600 31.90100
H  3.83900 13.41500 34.80000
H  3.64900 11.69700 35.31500
H  2.43100 12.86000 35.56300

