158

Mg -2.03200 16.98700 26.40100
C  -2.46200 14.91800 29.36700
C  -2.40300 19.74500 28.46400
C  -2.23300 18.81300 23.72300
C  -2.14400 14.13200 24.51800
N  -2.38500 17.24800 28.65400
C  -2.46700 16.25700 29.66100
C  -2.57000 16.91400 31.06500
C  -2.59600 18.47800 30.69600
C  -2.50600 18.50800 29.17500
C  -3.88400 19.20500 31.22400
C  -1.39000 16.59800 32.11700
C  -0.90200 17.55100 33.16900
H  -0.29200 17.08700 34.50500
N  -2.17800 19.02000 26.16400
C  -2.28900 19.98400 27.09200
C  -2.36100 21.20900 26.44600
C  -2.18800 21.03400 25.03400
C  -2.23100 19.53500 24.90600
C  -2.40200 22.47400 27.19300
C  -1.98000 22.05100 23.91300
O  -1.87200 21.75400 22.72600
C  -1.87600 23.47900 24.34100
N  -2.41600 16.49900 24.39300
C  -2.21500 17.41300 23.39600
C  -2.22200 16.83100 22.01100
C  -1.79000 15.34300 22.40300
C  -2.11700 15.29200 23.85400
C  -3.59600 16.99700 21.26600
C  -0.39200 14.76200 21.97200
C  -0.32200 13.61800 20.94000
N  -2.22900 14.96700 26.81300
C  -2.21300 13.93000 25.90100
C  -2.32400 12.66300 26.57600
C  -2.31300 13.05000 27.94700
C  -2.33500 14.43600 28.03600
C  -2.25200 11.35800 25.99400
C  -2.33500 12.60200 29.32300
O  -2.43400 11.45100 29.75200
C  -2.43400 13.77700 30.27500
C  -1.36300 13.70500 31.26100
O  -0.19100 14.01200 31.04500
O  -1.86100 13.39300 32.51500
C  -0.96700 13.40200 33.70400
H  -2.43500 20.59500 29.14800
H  -2.04300 19.46700 22.86900
H  -2.06700 13.25400 23.87300
H  -3.49600 16.57500 31.52900
H  -1.70300 19.00300 31.03600
H  -4.03400 18.73200 32.19500
H  -4.69400 19.05100 30.51000
H  -3.74400 20.28000 31.32800
H  -0.47500 16.25300 31.63600
H  -1.84400 15.83600 32.75000
H  -1.57300 18.38500 33.37600
H  -0.12500 18.10900 32.64700
H  -1.44600 22.97400 27.34600
H  -2.98100 22.49800 28.11700
H  -3.08700 23.12000 26.64300
H  -2.80400 24.01000 24.55200
H  -1.34100 24.08000 23.60600
H  -1.20100 23.48000 25.19800
H  -1.43600 17.22000 21.36400
H  -2.48400 14.66900 21.90100
H  -4.20800 17.74300 21.77200
H  -4.20100 16.09000 21.29400
H  -3.46700 17.14100 20.19300
H  0.11400 14.51400 22.90500
H  0.03200 15.63400 21.47400
H  0.15500 12.75300 21.40100
H  0.41000 13.90100 20.18400
H  -1.29200 13.35600 20.51700
H  -1.50500 11.28600 25.20300
H  -3.16300 11.10300 25.45100
H  -2.06300 10.52900 26.67600
H  -3.35400 13.67800 30.85100
H  -1.03800 12.39000 34.10300
H  -1.44700 14.11100 34.37900
H  0.09000 13.63100 33.57000
Mg 46.98100 25.69100 28.85000
C  47.94300 27.82500 31.60500
C  45.66500 23.51800 31.12300
C  46.64700 23.42900 26.33100
C  48.64200 27.75600 26.74200
N  46.78600 25.74600 31.10200
C  47.23100 26.69300 32.03200
C  46.88400 26.25200 33.44700
C  46.17400 24.89700 33.30400
C  46.21600 24.69400 31.75700
C  46.82600 23.76500 34.13300
C  46.01900 27.32700 34.19100
C  46.51900 27.76800 35.58100
H  45.48000 27.58300 36.69600
N  46.18800 23.78000 28.76600
C  45.70200 23.05400 29.80700
C  45.15800 21.81800 29.27600
C  45.44400 21.75800 27.87700
C  46.20300 22.99900 27.59300
C  44.37600 20.70100 30.11300
C  44.83500 20.72300 26.87000
O  45.20800 20.67900 25.67200
C  43.78900 19.70300 27.27400
N  47.38700 25.64700 26.80100
C  47.23500 24.61100 25.93700
C  47.78300 24.91800 24.53800
C  48.11000 26.38000 24.62000
C  48.10500 26.59500 26.16000
C  49.01500 23.97300 24.31700
C  47.10600 27.32500 23.82500
C  47.61300 28.02600 22.55600
N  48.01200 27.52500 29.05500
C  48.70200 28.15700 28.08500
C  49.44100 29.30200 28.70800
C  49.08700 29.26600 30.07400
C  48.29400 28.10100 30.25800
C  50.20600 30.37000 28.01200
C  49.26700 29.94400 31.36900
O  49.86000 30.96600 31.61700
C  48.48900 29.00300 32.45000
C  49.57800 28.64200 33.49300
O  50.58400 28.04200 33.24400
O  49.20600 29.11100 34.72300
C  50.11100 29.04800 35.84500
H  45.12600 22.79000 31.73300
H  46.65900 22.58400 25.63900
H  49.11500 28.40100 25.99900
H  47.88200 26.14600 33.87200
H  45.15600 24.98000 33.68700
H  46.05200 23.32000 34.75900
H  47.55000 24.08400 34.88400
H  47.27600 23.04400 33.45200
H  44.96800 27.03700 34.21100
H  46.04000 28.16800 33.49900
H  46.74400 28.82900 35.46900
H  47.44400 27.28100 35.89000
H  43.31800 20.64400 29.85400
H  44.37300 20.93600 31.17700
H  44.87400 19.75400 29.90400
H  44.29900 18.85500 27.73100
H  43.36200 19.30500 26.35300
H  42.90600 20.09100 27.78200
H  47.10900 24.68200 23.71400
H  49.10500 26.60900 24.23600
H  48.83400 22.97100 24.70700
H  49.86600 24.32700 24.89800
H  49.31100 23.90400 23.27000
H  46.92300 28.06800 24.60100
H  46.22000 26.71700 23.64400
H  48.69200 27.96000 22.41500
H  47.46100 29.08700 22.75400
H  47.14500 27.71600 21.62200
H  49.61200 30.64400 27.14000
H  51.17600 29.97200 27.71300
H  50.37400 31.14200 28.76300
H  47.64400 29.58000 32.82600
H  49.93600 29.95000 36.43100
H  51.16000 29.15500 35.57000
H  50.02300 28.10700 36.38900

