158

Mg 53.84000 23.70300 44.93800
C  51.40400 26.14000 44.23200
C  51.76200 21.33600 43.60000
C  56.32000 21.42200 45.22900
C  56.08300 26.20900 45.58600
N  51.93200 23.81400 43.86200
C  51.11800 24.83000 43.75000
C  49.98600 24.51500 42.75800
C  49.83600 23.00900 43.23600
C  51.25600 22.65800 43.55800
C  48.83100 22.75400 44.36500
C  50.17100 24.68600 41.19500
C  51.48700 25.19900 40.68100
H  51.43700 25.93100 39.37400
N  53.99200 21.66800 44.59200
C  53.02200 20.87000 44.03400
C  53.43200 19.52900 44.14600
C  54.72600 19.48400 44.61600
C  55.09400 20.88800 44.82900
C  52.56600 18.32800 43.80100
C  55.56500 18.20600 44.91800
O  55.23800 17.06400 44.58000
C  56.84500 18.35100 45.65900
N  55.86800 23.79900 45.20300
C  56.71700 22.72100 45.28900
C  58.22400 23.15200 45.43100
C  58.09400 24.65200 45.75600
C  56.55900 24.92300 45.59200
C  59.11100 22.34400 46.52200
C  58.94800 25.64200 44.93100
C  58.45800 25.91300 43.50500
N  53.77100 25.82000 44.98400
C  54.72400 26.67000 45.31700
C  54.20000 28.07100 45.33300
C  52.83800 27.84400 45.02000
C  52.68900 26.48400 44.76700
C  54.93800 29.31000 45.70600
C  51.49200 28.49200 44.84800
O  51.16000 29.66200 45.07600
C  50.49400 27.35400 44.33500
C  49.87500 27.78800 43.08600
O  50.45500 28.25600 42.14200
O  48.47700 27.67900 43.13600
C  47.64000 27.94800 41.98300
H  51.05600 20.57800 43.25400
H  57.15400 20.72600 45.34000
H  56.78100 27.03700 45.72700
H  49.11600 25.02100 43.17600
H  49.40700 22.52100 42.36000
H  49.40100 22.25900 45.15100
H  48.02300 22.04300 44.19200
H  48.44100 23.70500 44.72800
H  49.45000 25.39900 40.79400
H  49.95500 23.72600 40.72800
H  52.17400 24.35300 40.68800
H  51.98000 25.88800 41.36600
H  52.51100 17.55300 44.56500
H  52.94600 18.00500 42.83200
H  51.50500 18.56800 43.72400
H  57.19000 17.37500 45.99900
H  56.69500 18.98400 46.53400
H  57.44100 18.86900 44.90800
H  58.71000 22.99500 44.46800
H  58.31900 24.87900 46.79900
H  59.28600 23.01600 47.36200
H  60.03600 22.29500 45.94600
H  58.69800 21.37100 46.78700
H  59.93200 25.18600 45.04600
H  58.94000 26.52500 45.57000
H  59.05000 25.68100 42.61900
H  58.45300 26.99400 43.36900
H  57.49300 25.43900 43.32800
H  55.79800 29.44500 45.05100
H  55.26800 29.20000 46.73900
H  54.29700 30.18800 45.62400
H  49.87500 27.06600 45.18400
H  46.97600 27.10600 41.78500
H  48.06300 28.31300 41.04800
H  47.04400 28.80600 42.29300
Mg 36.46900 49.24300 24.66600
C  36.58900 47.29300 27.60600
C  35.51000 51.95600 26.63600
C  36.21700 50.97000 21.77600
C  37.13400 46.37800 22.86500
N  35.94900 49.54300 26.88100
C  36.30100 48.63600 27.85800
C  36.32000 49.29000 29.24400
C  35.63200 50.76200 28.96700
C  35.71600 50.75700 27.39000
C  34.16900 50.97400 29.49000
C  37.66000 49.33300 30.03400
C  37.57500 48.79500 31.51700
H  36.26600 48.99600 32.26300
N  35.82300 51.16200 24.25500
C  35.44500 52.10700 25.21900
C  35.15900 53.35600 24.46500
C  35.42400 53.07100 23.11400
C  35.79300 51.66400 22.97700
C  34.89000 54.60100 25.22900
C  35.33000 54.01300 21.88000
O  35.46200 53.64900 20.71400
C  34.96400 55.47700 22.15300
N  36.50500 48.73000 22.59000
C  36.56200 49.62300 21.58000
C  37.03800 49.00800 20.19000
C  37.20700 47.51800 20.59700
C  36.82600 47.50100 22.10400
C  36.01700 49.13900 18.93500
C  38.62300 46.94800 20.32500
C  39.72500 47.61400 21.21400
N  36.73200 47.19200 25.08700
C  37.04800 46.15400 24.29300
C  37.47200 44.97700 25.04000
C  37.28000 45.41000 26.36900
C  36.79700 46.73600 26.36900
C  38.06500 43.68800 24.51400
C  37.47600 45.02700 27.71300
O  37.97800 44.06000 28.16700
C  36.96400 46.23000 28.61100
C  35.75800 45.69900 29.26600
O  34.70800 45.48100 28.69600
O  35.89300 45.66800 30.61900
C  34.70300 45.13700 31.30800
H  35.26000 52.74900 27.34400
H  36.27600 51.52100 20.83500
H  37.68200 45.55300 22.40600
H  35.66700 48.62500 29.81000
H  36.18600 51.61400 29.36100
H  33.98100 51.87500 30.07300
H  33.98200 50.13700 30.16200
H  33.47600 50.99300 28.64800
H  37.95900 50.38100 30.04500
H  38.34400 48.75600 29.41100
H  38.46700 49.13900 32.04000
H  37.66900 47.70900 31.53300
H  35.26900 55.50300 24.74900
H  35.31600 54.65400 26.23100
H  33.81900 54.61500 25.43300
H  35.71700 56.04800 22.69600
H  33.97600 55.43300 22.61200
H  34.91500 56.12000 21.27500
H  38.04400 49.37900 19.99400
H  36.65700 46.76500 20.03300
H  36.53100 49.19100 17.97500
H  35.42000 50.04500 19.03800
H  35.32200 48.30300 19.01100
H  38.90700 47.17400 19.29800
H  38.69500 45.86200 20.25800
H  39.27500 48.16200 22.04200
H  40.17100 48.37900 20.57900
H  40.50600 46.90900 21.50200
H  38.59900 43.30400 25.38300
H  38.64800 43.79700 23.60000
H  37.23100 42.98600 24.49400
H  37.78200 46.48700 29.28400
H  33.79700 45.71400 31.12700
H  34.91100 45.17300 32.37800
H  34.58300 44.12400 30.92300

