158

Mg 1.39800 -0.71300 43.04800
C  4.92400 0.09500 42.69800
C  0.79300 2.14500 41.33000
C  -1.75300 -1.89500 42.62000
C  2.44400 -3.88300 44.24600
N  2.74200 0.83100 42.03500
C  4.05900 1.05600 42.14500
C  4.45500 2.33200 41.40800
C  3.11500 3.11300 41.15000
C  2.15700 1.96000 41.51700
C  2.90900 4.36600 41.99400
C  5.25600 1.98100 40.08200
C  6.70200 2.55500 39.85000
H  6.91000 3.19500 38.42000
N  -0.32200 0.09600 42.21100
C  -0.29600 1.23900 41.46500
C  -1.64600 1.49700 41.10500
C  -2.44000 0.34100 41.49900
C  -1.52900 -0.55600 42.12500
C  -2.02200 2.85000 40.51900
C  -3.88200 0.12200 41.20700
O  -4.63800 0.90800 40.57300
C  -4.72000 -1.03000 41.65000
N  0.45000 -2.63000 43.46900
C  -0.88800 -2.84400 43.23700
C  -1.35900 -4.20300 43.83800
C  0.07300 -4.96300 44.12600
C  1.06900 -3.77800 43.95600
C  -2.13600 -4.03100 45.19000
C  0.50900 -6.15300 43.13800
C  0.85800 -7.47400 43.85700
N  3.24900 -1.71600 43.48000
C  3.49700 -2.95200 44.02100
C  4.92100 -3.18800 44.11400
C  5.51700 -1.98600 43.65800
C  4.45300 -1.12000 43.27400
C  5.57400 -4.42300 44.66400
C  6.76300 -1.25700 43.51100
O  7.90800 -1.58500 43.81100
C  6.39400 0.12100 42.84000
C  6.97300 1.20300 43.71200
O  6.49000 1.49500 44.80700
O  8.08200 1.88400 43.15200
C  8.67700 2.99700 43.93200
H  0.48300 3.14500 41.02000
H  -2.79200 -2.23300 42.64600
H  2.69100 -4.91100 44.52100
H  5.13200 2.90400 42.04200
H  2.87100 3.49500 40.15900
H  3.88600 4.61200 42.41200
H  2.06600 4.23200 42.67200
H  2.60400 5.17800 41.33500
H  4.58600 2.25700 39.26800
H  5.36000 0.89600 40.04900
H  7.47600 1.79500 39.95400
H  6.76400 3.35700 40.58500
H  -2.31400 3.56400 41.28800
H  -2.90100 2.80500 39.87600
H  -1.23700 3.31900 39.92600
H  -5.76500 -0.72600 41.70800
H  -4.46100 -1.11900 42.70500
H  -4.53900 -1.98700 41.15900
H  -1.85600 -4.82300 43.09200
H  0.20900 -5.31000 45.15000
H  -3.01200 -4.67600 45.13100
H  -2.35500 -2.96400 45.22800
H  -1.49000 -4.41000 45.98200
H  1.31500 -5.81100 42.48900
H  -0.35500 -6.26900 42.48300
H  -0.00400 -8.12900 43.72600
H  1.06100 -7.19200 44.89000
H  1.75900 -7.83300 43.35900
H  5.44500 -5.33900 44.08700
H  5.11300 -4.55000 45.64300
H  6.63000 -4.25500 44.87500
H  6.92800 0.33100 41.91400
H  8.79700 2.71800 44.97900
H  8.02300 3.86800 43.90500
H  9.72000 3.18300 43.67500
Mg 46.93500 24.66300 27.89700
C  47.47300 26.85700 30.55600
C  46.00900 22.23100 30.25100
C  46.41400 22.30000 25.35900
C  48.22500 26.81500 25.72200
N  46.52500 24.69200 30.13200
C  46.83500 25.70000 31.00600
C  46.57600 25.34300 32.50600
C  46.25600 23.79300 32.33700
C  46.37600 23.51200 30.79000
C  47.16800 22.85200 33.13900
C  45.45300 26.17800 33.13500
C  45.76400 26.65100 34.54900
H  44.69600 26.41100 35.65600
N  46.02400 22.70000 27.77700
C  45.77600 21.85000 28.84200
C  45.14500 20.58500 28.36500
C  45.31300 20.59800 26.95700
C  45.98300 21.92800 26.61100
C  44.64600 19.52200 29.35200
C  45.03600 19.48400 25.96300
O  45.36900 19.64900 24.80700
C  44.33400 18.15200 26.47200
N  47.21700 24.50800 25.84700
C  47.08500 23.49300 25.03200
C  47.55900 23.87400 23.60900
C  47.65800 25.46600 23.65600
C  47.66900 25.59900 25.18900
C  48.84900 23.12900 23.05300
C  46.51400 26.19200 22.91400
C  45.22100 26.61600 23.67900
N  47.89300 26.38900 28.08000
C  48.38000 27.15600 27.06600
C  48.90300 28.38700 27.69800
C  48.60700 28.28700 29.05500
C  47.92600 27.10200 29.21100
C  49.56200 29.48200 26.88700
C  48.73700 28.93600 30.28600
O  49.26300 30.03900 30.58000
C  48.02200 28.01800 31.34200
C  48.85000 27.51800 32.44200
O  49.76000 26.77300 32.27500
O  48.57500 28.05400 33.65800
C  49.47400 27.64100 34.71100
H  45.63700 21.51200 30.98400
H  46.35500 21.57200 24.54700
H  48.52300 27.60400 25.02800
H  47.50000 25.40400 33.08100
H  45.24500 23.52700 32.64500
H  47.36100 21.99700 32.49000
H  46.69500 22.44400 34.03300
H  48.07800 23.36500 33.44900
H  44.47700 25.69200 33.14400
H  45.27800 27.05700 32.51500
H  45.78900 27.74000 34.49700
H  46.73200 26.28900 34.89500
H  43.57000 19.39100 29.23200
H  44.70500 19.92000 30.36500
H  45.22400 18.61700 29.16500
H  43.43500 18.46400 27.00300
H  45.01000 17.46300 26.97900
H  44.04200 17.61300 25.57100
H  46.71300 23.54600 23.00600
H  48.60900 25.84900 23.28600
H  49.18000 22.43400 23.82500
H  49.56100 23.91600 22.80800
H  48.53800 22.53900 22.19000
H  46.28200 25.64300 22.00100
H  46.96800 27.15100 22.66200
H  45.02400 27.68700 23.73300
H  45.30700 26.15600 24.66300
H  44.42700 26.07300 23.16600
H  49.37800 30.49000 27.25900
H  49.21200 29.41500 25.85700
H  50.65000 29.46500 26.82200
H  47.26200 28.63700 31.81800
H  50.38400 27.06300 34.54900
H  48.97000 27.13800 35.53700
H  49.91500 28.56200 35.09200

