158

Mg 27.19400 49.88900 26.62200
C  25.07900 51.07200 29.22300
C  29.44800 48.99400 28.98400
C  29.09600 49.34300 24.12800
C  24.69800 51.24100 24.33400
N  27.22000 50.14400 28.90100
C  26.17400 50.43600 29.71700
C  26.50900 49.96200 31.20600
C  28.04400 49.48000 31.14900
C  28.19100 49.43000 29.57300
C  29.00700 50.45700 31.76400
C  25.53000 48.91000 31.71200
C  24.59100 49.26600 32.92000
H  24.61300 48.44400 34.29500
N  29.03700 49.43100 26.59100
C  29.87600 49.08600 27.62300
C  31.21800 48.84600 27.12700
C  31.18000 48.95500 25.68500
C  29.73900 49.20900 25.40100
C  32.38400 48.40000 28.06400
C  32.25200 48.92500 24.54100
O  31.91800 49.21600 23.36600
C  33.75900 48.56300 24.81900
N  26.91800 50.07400 24.48600
C  27.84900 49.73100 23.67500
C  27.42600 49.85900 22.16000
C  25.88000 50.18100 22.35000
C  25.81700 50.48600 23.82800
C  28.24300 50.92900 21.37900
C  24.95400 49.06400 21.93400
C  23.60300 49.62400 21.40000
N  25.39100 50.97700 26.68700
C  24.51700 51.47200 25.69000
C  23.41200 52.12800 26.26800
C  23.63400 52.05900 27.63000
C  24.80300 51.29600 27.84800
C  22.28100 52.74700 25.53000
C  23.05900 52.36600 28.91500
O  22.00800 52.98600 29.23300
C  23.93700 51.74700 30.01800
C  24.43600 52.73700 31.06600
O  25.30000 53.60400 30.98700
O  23.61300 52.59900 32.18500
C  23.90100 53.50900 33.26900
H  30.17600 48.64900 29.72100
H  29.70100 49.09000 23.25500
H  23.96100 51.69300 23.66700
H  26.47400 50.76800 31.93900
H  28.27000 48.46300 31.47100
H  28.42400 51.15500 32.36500
H  29.49000 51.04600 30.98500
H  29.81000 49.98500 32.32900
H  25.96200 47.91800 31.84600
H  24.82700 48.67500 30.91300
H  23.60600 49.51000 32.52300
H  24.90900 50.24700 33.27200
H  32.34800 47.31500 28.17000
H  32.20200 48.91100 29.01000
H  33.35800 48.66600 27.65400
H  34.21800 49.53400 25.00300
H  34.09000 47.95100 23.98000
H  33.87500 47.92100 25.69200
H  27.48200 48.86900 21.70600
H  25.69800 51.07800 21.75800
H  28.99000 51.29200 22.08400
H  27.69100 51.79000 21.00400
H  28.77100 50.45900 20.54800
H  24.62500 48.43600 22.76200
H  25.40800 48.39700 21.20100
H  22.82500 48.86900 21.50900
H  23.55000 49.91200 20.35000
H  23.32300 50.57200 21.86000
H  22.59700 53.72000 25.15300
H  21.36000 52.78400 26.11100
H  22.04300 52.12700 24.66500
H  23.30400 50.96900 30.44300
H  23.03700 53.63500 33.92200
H  24.25800 54.50500 33.00600
H  24.60800 53.07700 33.97600
Mg 9.91400 47.36500 26.13500
C  7.85700 47.60000 29.02000
C  12.49100 48.87300 27.83400
C  11.77900 47.20000 23.35700
C  7.08000 46.52500 24.31200
N  10.15700 48.08600 28.26700
C  9.16400 48.09100 29.25400
C  9.86600 48.61000 30.60800
C  11.09800 49.43400 30.07100
C  11.29800 48.81200 28.61300
C  10.93200 50.98500 30.05300
C  10.32800 47.33900 31.43900
C  10.69400 47.52200 32.95000
H  10.39700 46.43800 34.01400
N  11.93700 47.75900 25.74500
C  12.81000 48.37500 26.60100
C  14.07200 48.56700 25.88200
C  13.83000 48.01000 24.58800
C  12.48400 47.61800 24.49900
C  15.31000 49.18400 26.53300
C  14.84700 47.81300 23.40500
O  14.60900 47.18600 22.32000
C  16.21500 48.30600 23.56000
N  9.52600 46.91700 24.08200
C  10.42200 46.95800 23.14000
C  9.82200 46.57500 21.70700
C  8.31200 46.40100 22.09900
C  8.31100 46.62100 23.58000
C  9.96000 47.69600 20.71900
C  7.58800 45.12300 21.56400
C  6.05700 45.22600 21.25100
N  7.81500 47.12200 26.51100
C  6.79500 46.71700 25.66300
C  5.62500 46.50100 26.45100
C  5.97600 46.82000 27.78800
C  7.28700 47.24100 27.73900
C  4.25100 46.16700 25.80500
C  5.45900 46.96800 29.15200
O  4.35600 46.73800 29.61600
C  6.69300 47.38200 30.05500
C  6.98100 46.21500 30.91500
O  7.36200 45.14600 30.48300
O  6.75000 46.52600 32.23700
C  6.97300 45.44800 33.20000
H  13.25600 49.42500 28.38400
H  12.18400 47.29100 22.34600
H  6.21100 46.20000 23.73500
H  9.21400 49.27100 31.17900
H  12.00700 49.25700 30.64500
H  11.16900 51.48700 29.11500
H  11.59900 51.44400 30.78200
H  10.00100 51.33100 30.50100
H  11.21500 46.99100 30.91000
H  9.65100 46.49400 31.31100
H  10.26900 48.47600 33.26300
H  11.77600 47.62900 33.03100
H  15.12500 49.69200 27.48000
H  15.91200 49.87400 25.94300
H  15.91100 48.32800 26.83900
H  16.28200 49.35000 23.87000
H  16.76100 48.29000 22.61700
H  16.64200 47.63500 24.30600
H  10.16200 45.57600 21.43500
H  7.74900 47.26900 21.75600
H  10.12300 48.62300 21.26900
H  9.07300 47.88100 20.11200
H  10.86100 47.50300 20.13700
H  7.64800 44.38100 22.36000
H  8.13800 44.66500 20.74100
H  5.50300 46.12800 21.51000
H  5.52600 44.44100 21.79000
H  5.91300 44.94800 20.20600
H  4.22300 45.41700 25.01500
H  3.88100 47.14300 25.48900
H  3.72000 45.81100 26.68700
H  6.47100 48.24900 30.67800
H  6.80500 44.42700 32.85800
H  6.28500 45.68600 34.01100
H  7.99100 45.45600 33.58900

