158

Mg 7.41500 3.47700 27.05700
C  9.16400 2.07500 29.82900
C  5.31200 5.08400 29.20800
C  5.70100 4.61200 24.37200
C  9.00500 1.19800 25.01100
N  7.26900 3.52600 29.23800
C  8.16200 3.00600 30.19000
C  7.80900 3.58400 31.54800
C  6.50100 4.35400 31.31300
C  6.31700 4.31700 29.82600
C  5.17900 3.92700 32.08300
C  9.08200 4.36900 32.10900
C  8.88200 5.13200 33.42900
H  9.70800 4.66400 34.66900
N  5.75500 4.81500 26.85300
C  4.99100 5.36600 27.80200
C  3.92900 6.15800 27.25300
C  4.16100 6.17700 25.82900
C  5.23300 5.13000 25.64800
C  3.09200 7.10700 28.13500
C  3.47800 6.93100 24.80300
O  3.83500 6.76700 23.66500
C  2.38900 7.88500 25.07000
N  7.32200 2.97700 25.02300
C  6.65900 3.72400 24.08000
C  6.94900 3.18900 22.65200
C  8.18000 2.21600 22.84000
C  8.11400 2.06100 24.37700
C  5.75900 2.53800 21.90100
C  9.51900 2.85300 22.30800
C  9.79700 2.28700 20.89700
N  8.86700 1.95400 27.37200
C  9.36500 1.12000 26.45600
C  10.31900 0.23100 27.03000
C  10.32600 0.62800 28.42600
C  9.41000 1.68600 28.53200
C  10.93300 -0.97100 26.43200
C  10.84100 0.37100 29.73600
O  11.67100 -0.48100 30.08900
C  10.13300 1.30600 30.73600
C  9.54000 0.57000 31.95100
O  8.62300 -0.22700 31.92500
O  10.20000 1.00100 33.10900
C  9.81000 0.33600 34.45200
H  4.68100 5.59500 29.93800
H  5.29600 4.99400 23.43300
H  9.49300 0.47800 24.35000
H  7.62000 2.76100 32.23700
H  6.67100 5.39900 31.57100
H  5.44000 3.17500 32.82800
H  4.44500 3.62900 31.33400
H  4.80900 4.80600 32.61000
H  9.37000 5.02800 31.29100
H  9.93400 3.71100 32.27800
H  7.90600 5.08200 33.91100
H  9.17400 6.16600 33.24400
H  3.68200 7.37000 29.01300
H  2.24700 6.49300 28.44800
H  2.76600 7.99600 27.59500
H  2.05700 8.24200 24.09500
H  2.96300 8.68500 25.53600
H  1.56100 7.48900 25.65900
H  7.19700 4.08900 22.09000
H  8.09800 1.21600 22.41600
H  4.88100 2.81600 22.48400
H  5.86400 1.45300 21.88600
H  5.57700 2.98600 20.92400
H  10.31900 2.60800 23.00700
H  9.48700 3.94200 22.27300
H  9.63900 2.91800 20.02200
H  9.12900 1.46000 20.65700
H  10.81100 1.88900 20.85600
H  11.39600 -1.45300 27.29200
H  11.71200 -0.60100 25.76500
H  10.25000 -1.59600 25.85600
H  10.84700 2.05100 31.08700
H  8.97300 -0.35000 34.32200
H  9.48800 1.11600 35.14200
H  10.67800 -0.11800 34.93000
Mg 10.55700 46.77300 25.51400
C  8.39900 47.22700 28.11100
C  13.13500 47.80300 27.47400
C  12.55000 46.35400 22.87800
C  7.83300 46.09500 23.38500
N  10.67400 47.70400 27.49100
C  9.77700 47.48000 28.44900
C  10.36400 47.67000 29.81100
C  11.81100 48.27000 29.50300
C  11.86100 47.87200 28.05000
C  11.86800 49.78300 29.75400
C  10.37400 46.27200 30.62900
C  11.29300 45.93100 31.78200
H  10.60100 45.12100 32.84500
N  12.53200 46.97400 25.21800
C  13.49100 47.36400 26.13100
C  14.87000 47.15100 25.65900
C  14.70400 46.60900 24.38400
C  13.17500 46.59900 24.09500
C  16.09000 47.64200 26.38000
C  15.69800 46.27900 23.33700
O  15.42500 45.82100 22.21300
C  17.17600 46.36000 23.69500
N  10.20500 46.45200 23.32200
C  11.23800 46.26100 22.46100
C  10.84000 46.05700 21.04900
C  9.29500 45.92100 21.22000
C  9.03200 46.18200 22.72600
C  11.26200 47.21700 20.24300
C  8.78400 44.54900 20.69300
C  8.23200 44.60100 19.23000
N  8.50200 46.72400 25.66600
C  7.48300 46.34600 24.73400
C  6.22300 46.35000 25.39500
C  6.52700 46.63000 26.75700
C  7.90700 46.87200 26.85800
C  4.84800 46.19300 24.88500
C  5.96700 46.69500 28.04400
O  4.78500 46.54900 28.45600
C  7.17000 46.95900 28.96000
C  7.27100 45.64400 29.78200
O  7.90800 44.66900 29.38400
O  6.59400 45.76300 31.00300
C  6.68000 44.49800 31.85400
H  14.01200 48.05200 28.07500
H  13.25400 46.40900 22.04500
H  6.88200 46.01400 22.85300
H  9.70000 48.44000 30.20300
H  12.57200 47.68200 30.01700
H  10.87400 50.22200 29.67700
H  12.41600 50.29300 28.96200
H  12.16700 50.03000 30.77300
H  10.36700 45.33800 30.06800
H  9.37100 46.37800 31.04300
H  11.67000 46.83900 32.25300
H  12.23400 45.47100 31.48100
H  16.00500 47.49300 27.45700
H  16.06800 48.71700 26.20000
H  17.04400 47.23300 26.04800
H  17.94600 46.15800 22.95100
H  17.28300 45.57900 24.44800
H  17.30800 47.40100 23.99100
H  11.23200 45.12600 20.63900
H  8.77500 46.71100 20.67800
H  12.15400 46.97000 19.66800
H  11.59500 48.08900 20.80600
H  10.46300 47.39500 19.52300
H  7.93400 44.11900 21.22200
H  9.50600 43.74300 20.82700
H  7.87400 45.60500 19.00100
H  7.43500 43.87500 19.06500
H  8.96600 44.27200 18.49500
H  4.90900 46.58400 23.86900
H  4.03600 46.76400 25.33600
H  4.53900 45.14900 24.83200
H  7.01300 47.63000 29.80500
H  7.63600 43.99700 31.70000
H  5.93900 43.73200 31.62500
H  6.50900 44.64800 32.92000

