158

Mg 34.89400 3.30800 29.15800
C  32.79200 4.19400 31.82500
C  37.46300 3.05400 31.41800
C  36.83500 2.76900 26.54100
C  32.12500 3.77100 26.96800
N  35.01900 3.53200 31.36700
C  34.04700 3.82200 32.28800
C  34.56700 3.90900 33.72400
C  36.09000 3.74500 33.49200
C  36.21300 3.44400 31.98900
C  36.98500 4.96800 33.86600
C  33.98700 2.83800 34.69900
C  34.75000 2.62600 36.03800
H  35.54300 3.70200 36.71800
N  36.88800 2.97100 29.03800
C  37.76400 2.89400 30.03700
C  39.03500 2.46200 29.49000
C  38.85100 2.31600 28.08800
C  37.49400 2.79000 27.81300
C  40.25200 2.17600 30.34300
C  39.85900 1.81700 27.06700
O  39.65600 1.98900 25.88400
C  41.17800 1.22500 27.50800
N  34.46800 3.35500 27.01600
C  35.45600 3.02400 26.17700
C  34.97100 3.14800 24.72000
C  33.41400 3.12600 24.95500
C  33.29300 3.47600 26.39200
C  35.58700 4.52900 24.19000
C  32.74100 1.76400 24.59400
C  31.45500 1.73400 23.83400
N  32.84700 3.81800 29.29500
C  31.89400 3.93300 28.36900
C  30.66500 4.29500 28.94600
C  30.94100 4.42400 30.33700
C  32.29900 4.12200 30.48800
C  29.43200 4.52500 28.22500
C  30.41300 4.76900 31.61500
O  29.31300 5.18500 31.88300
C  31.53100 4.48300 32.68500
C  31.66900 5.53600 33.64500
O  32.27200 6.57300 33.48500
O  30.96600 5.19700 34.80300
C  30.84300 6.16300 35.91800
H  38.23700 2.95500 32.18100
H  37.49700 2.54600 25.70100
H  31.21300 3.89100 26.38000
H  34.30300 4.92900 34.00200
H  36.38400 2.86100 34.05700
H  36.47000 5.64000 34.55200
H  37.22400 5.56700 32.98800
H  37.92700 4.63800 34.30500
H  34.00500 1.91000 34.12600
H  32.97200 3.20600 34.84700
H  35.33600 1.72000 35.88600
H  34.01700 2.28200 36.76700
H  40.33100 1.08900 30.31500
H  40.12800 2.48700 31.38100
H  41.14600 2.73200 30.05900
H  41.84900 1.18500 26.65100
H  40.93200 0.25000 27.93000
H  41.70600 1.78500 28.28000
H  35.27600 2.33400 24.06200
H  32.98200 3.85600 24.26900
H  35.77300 5.22200 25.01000
H  34.97600 5.00600 23.42400
H  36.55900 4.31100 23.74800
H  32.59000 1.13300 25.46900
H  33.40300 1.29600 23.86500
H  30.81100 2.57900 24.07800
H  30.99000 0.78700 24.10700
H  31.56500 1.67100 22.75200
H  29.35300 5.45800 27.66600
H  28.65000 4.52400 28.98500
H  29.25500 3.67000 27.57200
H  31.26500 3.63600 33.31800
H  31.11200 7.16500 35.58400
H  31.55300 5.97600 36.72400
H  29.78600 6.23200 36.17200
Mg 9.45000 47.84400 26.16400
C  7.74700 47.97800 29.20600
C  12.13200 49.37100 27.83400
C  11.25300 47.54400 23.37900
C  6.55300 46.96300 24.58500
N  9.84100 48.68700 28.27800
C  9.07100 48.38700 29.36100
C  9.70400 48.84800 30.67100
C  11.00600 49.62600 30.19100
C  10.95500 49.27900 28.68600
C  11.04100 51.13200 30.55200
C  10.00500 47.50000 31.51100
C  9.88900 47.77300 33.15300
H  9.89000 46.52600 34.08700
N  11.41000 48.37100 25.68900
C  12.35800 48.83200 26.48600
C  13.68100 48.78500 25.87000
C  13.47100 48.32000 24.56100
C  11.99400 48.02000 24.48600
C  14.92000 49.21400 26.68800
C  14.46800 48.29900 23.40500
O  14.11700 48.02200 22.30800
C  15.86400 48.76900 23.66800
N  8.96100 47.35600 24.28800
C  9.86300 47.30500 23.22800
C  9.28800 46.64900 21.98200
C  7.87400 46.13800 22.53600
C  7.73100 46.90100 23.87300
C  9.42600 47.41500 20.66100
C  7.72000 44.62600 22.75900
C  8.80900 43.89900 23.55000
N  7.48500 47.65700 26.73400
C  6.42200 47.28800 26.00000
C  5.26600 47.19300 26.81800
C  5.70400 47.42800 28.15200
C  7.09100 47.72400 28.00700
C  3.87100 46.68300 26.34800
C  5.42000 47.41500 29.57500
O  4.38400 47.20600 30.15100
C  6.79200 47.72200 30.29900
C  6.99400 46.38100 31.00000
O  7.04800 45.24600 30.48500
O  7.14300 46.59300 32.37700
C  6.92500 45.50700 33.42100
H  12.93200 49.97300 28.27000
H  11.92900 47.35700 22.54200
H  5.66000 46.48000 24.18400
H  9.07100 49.51400 31.25700
H  11.92800 49.19800 30.58600
H  10.13900 51.49700 31.04200
H  11.14500 51.65800 29.60300
H  11.92900 51.52300 31.04800
H  11.07900 47.33800 31.42400
H  9.51300 46.61500 31.10800
H  8.94600 48.27100 33.37700
H  10.60000 48.56100 33.40000
H  14.84100 48.97100 27.74800
H  15.04900 50.27700 26.48500
H  15.87000 48.74700 26.42700
H  16.39400 49.08500 22.77000
H  16.42800 48.04600 24.25800
H  15.91700 49.70100 24.23000
H  9.84600 45.73800 21.76400
H  7.08900 46.51300 21.88000
H  8.42400 47.83600 20.58100
H  9.67400 46.77100 19.81700
H  10.23400 48.12500 20.83800
H  7.35800 44.09500 21.87900
H  6.89000 44.58100 23.46300
H  8.54000 43.71800 24.59000
H  9.77400 44.40500 23.52100
H  9.05900 42.93700 23.10200
H  3.41900 46.11500 27.16100
H  4.11200 45.99900 25.53500
H  3.30300 47.54200 25.98900
H  6.67700 48.53800 31.01300
H  7.25200 46.01700 34.32700
H  7.49900 44.59300 33.26500
H  5.88200 45.19300 33.44100

