158

Mg 24.28400 -6.43300 47.47100
C  26.96700 -4.37900 46.55400
C  22.26200 -4.90700 45.14100
C  22.03200 -8.73900 48.06700
C  26.67500 -8.34100 49.38100
N  24.66600 -4.89100 46.02500
C  25.80600 -4.12500 45.83300
C  25.54500 -3.15900 44.59700
C  23.97400 -3.13400 44.51200
C  23.53100 -4.42000 45.29000
C  23.37500 -1.90800 45.15000
C  26.33300 -3.73100 43.34800
C  26.76500 -2.60100 42.47700
H  25.99600 -2.36100 41.20300
N  22.33000 -6.71300 46.76300
C  21.65300 -5.98300 45.85200
C  20.27800 -6.38100 45.80100
C  20.12800 -7.59400 46.70800
C  21.50900 -7.77400 47.18500
C  19.14900 -5.63300 45.06500
C  18.92200 -8.44700 46.86600
O  17.94200 -8.18600 46.21900
C  18.88500 -9.53200 47.79700
N  24.34400 -8.32000 48.43500
C  23.25800 -8.96700 48.67800
C  23.47000 -10.26100 49.61700
C  24.96400 -10.02600 50.18400
C  25.37300 -8.84900 49.24400
C  22.34500 -10.54500 50.65400
C  25.79700 -11.28700 50.36100
C  26.60500 -11.73500 49.14600
N  26.33500 -6.36700 48.04000
C  27.15400 -7.19900 48.77900
C  28.53500 -6.69900 48.72900
C  28.45200 -5.52300 47.97600
C  27.13900 -5.45500 47.47700
C  29.65900 -7.29800 49.49100
C  29.23300 -4.44100 47.50900
O  30.42800 -4.17900 47.71300
C  28.28300 -3.59200 46.50700
C  28.08800 -2.22000 46.93600
O  27.37400 -1.81100 47.86100
O  28.68300 -1.42500 45.98100
C  28.03100 -0.14300 45.91000
H  21.74200 -4.20400 44.48800
H  21.36900 -9.54400 48.39000
H  27.36200 -8.87400 50.04100
H  25.99800 -2.20400 44.86300
H  23.65400 -3.27400 43.48000
H  24.00700 -1.51700 45.94800
H  22.36300 -1.93700 45.55300
H  23.32000 -1.20500 44.31800
H  25.67600 -4.40800 42.80200
H  27.24000 -4.25800 43.64300
H  27.74900 -2.92900 42.14300
H  26.99000 -1.68900 43.02900
H  18.60500 -6.25700 44.35600
H  19.45900 -4.72200 44.55400
H  18.36300 -5.28300 45.73500
H  19.22700 -9.24900 48.79300
H  19.48200 -10.40800 47.54700
H  17.83800 -9.82400 47.87800
H  23.35900 -11.10100 48.93100
H  24.81800 -9.69800 51.21300
H  22.70900 -10.71300 51.66700
H  21.85000 -11.50900 50.53900
H  21.59800 -9.75100 50.68600
H  25.14600 -12.12500 50.60900
H  26.34600 -11.08600 51.28100
H  26.25200 -11.19600 48.26700
H  26.36600 -12.76100 48.86600
H  27.66600 -11.49800 49.22400
H  30.62200 -6.85400 49.23900
H  29.70500 -8.38200 49.39100
H  29.34600 -7.10900 50.51800
H  28.67200 -3.59300 45.48900
H  28.39800 0.42500 46.76400
H  26.95000 -0.21100 45.78800
H  28.32600 0.30900 44.96300
Mg 35.60500 49.45200 25.48000
C  35.56400 47.46000 28.33700
C  34.34700 52.07000 27.24200
C  35.32100 51.05300 22.54300
C  36.61200 46.65600 23.66500
N  35.05500 49.68000 27.53000
C  35.22400 48.81900 28.58800
C  34.79700 49.39700 29.91300
C  34.42100 50.90700 29.49500
C  34.59900 50.90900 27.94400
C  32.97900 51.36800 29.98800
C  36.00800 49.37600 30.95200
C  35.68800 48.92100 32.37100
H  34.24400 49.12300 32.85800
N  35.04700 51.34800 24.96400
C  34.57500 52.29800 25.86200
C  34.22200 53.49900 25.13400
C  34.53100 53.21800 23.74500
C  35.00400 51.83800 23.69900
C  33.49000 54.70600 25.87900
C  34.34600 54.17300 22.59800
O  34.50800 53.81000 21.50000
C  34.22900 55.64000 22.81900
N  35.85000 48.92100 23.42900
C  35.66400 49.73100 22.38200
C  36.13000 49.10900 20.96000
C  36.69900 47.77000 21.36600
C  36.41500 47.80500 22.93900
C  34.93500 49.06500 19.94100
C  38.24700 47.50900 20.99700
C  38.60500 46.25000 20.28700
N  35.93200 47.42800 25.86500
C  36.37900 46.46500 25.05300
C  36.52000 45.18400 25.81100
C  36.30300 45.55400 27.12100
C  35.90000 46.94200 27.10700
C  37.01500 43.84000 25.22500
C  36.29000 45.13100 28.48400
O  36.59300 44.03800 28.90800
C  35.70400 46.28400 29.34400
C  34.41600 45.91300 29.99800
O  33.30900 45.98800 29.53400
O  34.66600 45.46700 31.30500
C  33.46200 45.02700 32.08100
H  33.95600 52.85900 27.88900
H  35.44400 51.48600 21.54800
H  36.89700 45.72900 23.16200
H  33.90700 48.85600 30.23600
H  35.17300 51.61800 29.83800
H  32.17200 51.55400 29.27900
H  32.98600 52.16400 30.73200
H  32.59500 50.53100 30.57100
H  36.20000 50.43500 31.12600
H  36.92300 48.89800 30.60200
H  36.49000 49.45800 32.87900
H  36.08700 47.90700 32.35400
H  33.80600 55.67000 25.48000
H  33.68500 54.67700 26.95100
H  32.41800 54.56200 25.73900
H  33.27300 56.06600 23.12200
H  34.48400 56.15900 21.89600
H  35.00300 56.00100 23.49700
H  36.85100 49.87200 20.66600
H  35.97300 47.02700 21.03700
H  35.36100 49.47300 19.02400
H  34.07000 49.64700 20.25900
H  34.62200 48.04100 19.74200
H  38.96400 47.82400 21.75500
H  38.38100 48.14800 20.12500
H  39.30800 45.70000 20.91300
H  39.01100 46.39300 19.28600
H  37.70800 45.63100 20.26200
H  37.52900 43.29900 26.01900
H  37.62600 44.00200 24.33800
H  36.18700 43.27900 24.79100
H  36.40400 46.42000 30.16700
H  33.81300 44.47100 32.95000
H  32.80400 44.39900 31.48000
H  32.92100 45.80800 32.61400

