158

Mg 1.44700 42.71600 24.70400
C  2.40600 42.87600 27.98300
C  -1.69200 41.56400 25.73400
C  0.63100 41.78500 21.44900
C  4.60300 43.50400 23.59400
N  0.53600 42.15700 26.68700
C  1.03900 42.50300 27.87100
C  -0.04800 42.30400 28.93000
C  -1.28700 41.80000 28.16500
C  -0.80300 41.76300 26.81000
C  -1.79600 40.37900 28.64300
C  -0.20200 43.59900 29.73800
C  -0.49300 43.38600 31.24300
H  -1.08600 42.05100 31.76600
N  -0.30200 41.93200 23.70900
C  -1.45200 41.56400 24.33900
C  -2.46000 41.25100 23.36600
C  -1.82300 41.35800 22.06800
C  -0.44700 41.72700 22.34500
C  -3.93300 40.92300 23.74700
C  -2.37100 41.18200 20.68400
O  -1.71700 41.24600 19.66500
C  -3.83000 40.67800 20.59500
N  2.43900 42.64500 22.76800
C  1.94600 42.17900 21.65600
C  3.05800 42.03100 20.55400
C  4.16400 43.04200 21.11400
C  3.70400 43.16500 22.55000
C  3.50400 40.56700 20.47700
C  4.13700 44.46100 20.54900
C  4.92300 44.59700 19.23000
N  3.21600 43.06100 25.59700
C  4.42500 43.39700 25.08200
C  5.29200 43.68600 26.17200
C  4.57800 43.50200 27.35000
C  3.32600 43.09800 26.92300
C  6.68600 44.15600 26.13500
C  4.68200 43.50100 28.85100
O  5.56500 43.73900 29.66700
C  3.23000 43.00400 29.28000
C  3.42000 41.70200 30.01100
O  4.51600 41.03600 30.01800
O  2.36000 41.27300 30.78600
C  2.42000 40.17500 31.71500
H  -2.68400 41.33900 26.13100
H  0.47800 41.35600 20.45700
H  5.51700 43.85000 23.10700
H  0.30000 41.50900 29.58900
H  -2.06400 42.54100 28.35300
H  -1.48200 39.65700 27.89000
H  -2.87900 40.46200 28.73200
H  -1.34100 40.05800 29.58000
H  -1.00600 44.21900 29.34000
H  0.64500 44.28000 29.64900
H  -1.05000 44.28300 31.51500
H  0.45200 43.47100 31.77900
H  -4.59600 41.72300 23.41600
H  -4.09300 40.74400 24.81000
H  -4.20700 39.98500 23.26300
H  -4.19200 40.82200 19.57700
H  -4.58500 41.13300 21.23700
H  -3.80900 39.59800 20.74100
H  2.64400 42.26000 19.57200
H  5.18000 42.64900 21.15000
H  4.47900 40.49800 20.95900
H  3.55100 40.30700 19.41900
H  2.85500 39.83900 20.96400
H  4.66400 44.99300 21.34200
H  3.12500 44.86000 20.48800
H  4.97700 45.63600 18.90500
H  4.65000 43.96000 18.38900
H  5.94300 44.30900 19.48300
H  7.36400 43.35000 25.85500
H  6.91100 44.72800 27.03400
H  6.76400 44.72100 25.20600
H  2.65500 43.68400 29.90800
H  2.46500 39.24400 31.15100
H  1.39500 40.08800 32.07400
H  3.19600 40.35900 32.45800
Mg -12.51300 16.60100 41.71400
C  -9.41200 14.94100 41.20700
C  -10.98300 19.44600 40.49500
C  -15.46300 17.91200 41.47000
C  -13.83400 13.50800 42.52100
N  -10.42700 17.05200 40.79600
C  -9.28300 16.29200 40.79900
C  -7.98000 17.15600 40.57700
C  -8.58800 18.56300 40.54900
C  -10.12700 18.34800 40.58400
C  -8.00900 19.53100 41.64300
C  -7.06800 16.82000 39.33500
C  -5.57700 16.53400 39.30400
H  -5.20900 15.29000 38.51500
N  -13.13100 18.42100 41.08300
C  -12.37400 19.48300 40.58600
C  -13.27900 20.68500 40.35100
C  -14.59400 20.18000 40.63200
C  -14.41800 18.79000 41.07300
C  -12.72300 21.95100 39.87500
C  -15.88800 21.04200 40.59700
O  -15.79500 22.15600 40.14500
C  -17.23100 20.50200 40.93100
N  -14.43700 15.70400 41.74400
C  -15.45600 16.59800 41.86900
C  -16.72400 15.83900 42.16700
C  -16.23700 14.41200 42.62400
C  -14.73200 14.55000 42.41600
C  -17.88000 16.47400 42.96800
C  -16.83600 13.08800 41.87200
C  -17.43700 11.99600 42.75200
N  -11.78200 14.62200 41.94500
C  -12.47200 13.45100 42.25800
C  -11.56300 12.32100 42.28900
C  -10.33800 12.87300 41.91600
C  -10.52800 14.22500 41.67900
C  -12.00000 10.87700 42.60200
C  -8.93000 12.58900 41.69000
O  -8.28600 11.54900 41.68800
C  -8.21200 13.91000 41.27300
C  -7.15900 14.30000 42.21200
O  -7.30800 14.90200 43.25500
O  -5.95700 13.96300 41.58600
C  -4.73800 14.25500 42.39800
H  -10.37700 20.33200 40.29200
H  -16.51100 18.22100 41.45100
H  -14.23400 12.56100 42.88900
H  -7.42700 17.07300 41.51300
H  -8.39700 19.03100 39.58400
H  -7.78000 20.46100 41.12100
H  -7.09800 19.17700 42.12400
H  -8.70300 19.77400 42.44700
H  -7.08700 17.73300 38.73900
H  -7.52700 16.04800 38.71800
H  -5.10600 16.48700 40.28500
H  -5.07600 17.34900 38.78100
H  -13.16200 22.81900 40.36600
H  -12.99200 22.01800 38.82100
H  -11.63900 21.98500 39.99200
H  -17.23600 20.24100 41.98900
H  -17.43700 19.67700 40.24900
H  -17.91400 21.30400 40.65000
H  -17.18600 15.64300 41.20000
H  -16.41000 14.29800 43.69400
H  -18.22100 15.88800 43.82200
H  -18.75900 16.61500 42.33900
H  -17.63300 17.48400 43.29800
H  -16.19000 12.78100 41.05000
H  -17.68900 13.44900 41.29800
H  -17.09400 11.07600 42.27900
H  -18.52400 12.04000 42.81900
H  -17.11000 12.22900 43.76600
H  -12.05500 10.41400 41.61600
H  -12.95600 10.78000 43.11700
H  -11.26900 10.27400 43.14000
H  -7.75200 13.77900 40.29400
H  -4.85900 15.24400 42.84100
H  -3.87700 14.29200 41.73100
H  -4.51800 13.41300 43.05500

