158

Mg 25.08200 1.49700 28.92400
C  27.05600 1.09600 31.82900
C  22.28500 1.70800 30.86100
C  23.41400 1.64300 26.10900
C  27.99000 0.63100 27.11100
N  24.74200 1.31500 31.12200
C  25.67600 1.32000 32.09100
C  24.99800 1.61400 33.46600
C  23.46800 1.59400 33.11600
C  23.43800 1.57100 31.60500
C  22.77600 0.33400 33.70700
C  25.43800 2.89800 34.18000
C  26.02100 2.70900 35.55300
H  25.84400 3.82800 36.58800
N  23.13800 1.55800 28.55300
C  22.10000 1.64000 29.44400
C  20.88200 1.63500 28.74000
C  21.15600 1.59200 27.38200
C  22.59300 1.54700 27.26400
C  19.57100 1.66100 29.46900
C  20.21100 1.47300 26.19900
O  20.59100 1.17400 25.11000
C  18.74300 1.68800 26.37400
N  25.67700 1.25500 26.93200
C  24.81600 1.51200 25.93600
C  25.53500 1.43800 24.58400
C  27.01900 1.34800 24.91600
C  26.89200 1.05400 26.41400
C  24.94500 0.33000 23.62600
C  27.86500 2.57600 24.62600
C  27.16700 3.95900 24.94500
N  27.16700 0.99200 29.32900
C  28.18800 0.67800 28.48500
C  29.37800 0.43200 29.26300
C  29.01600 0.67000 30.62700
C  27.65400 0.96800 30.56100
C  30.68200 -0.02800 28.66300
C  29.53400 0.76000 31.92500
O  30.65300 0.65100 32.41700
C  28.24100 1.10800 32.81200
C  28.13900 0.15600 33.94700
O  27.40700 -0.81300 34.00400
O  28.89500 0.51300 34.96200
C  28.77500 -0.10200 36.22700
H  21.42100 1.93400 31.49000
H  22.89000 1.78500 25.16200
H  28.80500 0.30000 26.46500
H  25.31100 0.76400 34.07200
H  22.94100 2.49700 33.42500
H  21.83800 0.51300 34.23300
H  23.51200 -0.24600 34.26200
H  22.53200 -0.44200 32.98100
H  24.59900 3.57200 34.35000
H  26.27000 3.36500 33.65200
H  27.09000 2.69800 35.33800
H  25.57400 1.79100 35.93400
H  18.84900 1.10400 28.87300
H  19.21700 2.68500 29.59200
H  19.62500 1.10900 30.40700
H  18.41100 1.58300 25.34100
H  18.52500 2.72600 26.62700
H  18.16100 1.10000 27.08300
H  25.33100 2.36700 24.05200
H  27.50300 0.51500 24.40600
H  24.75200 0.85000 22.68700
H  23.99600 -0.02300 24.02900
H  25.63300 -0.51400 23.62200
H  28.07100 2.57900 23.55500
H  28.89600 2.42300 24.94600
H  26.83900 4.33300 23.97500
H  27.84200 4.66800 25.42400
H  26.32200 3.81900 25.62000
H  30.92400 0.48000 27.72900
H  30.53700 -1.09100 28.47200
H  31.49900 0.13400 29.36600
H  28.42300 2.09900 33.22700
H  27.77300 0.09400 36.60800
H  29.43500 0.38600 36.94500
H  29.09100 -1.14500 36.26100
Mg 48.41200 35.25200 27.71600
C  46.14500 33.67700 29.90600
C  48.49700 38.03100 29.99100
C  50.16300 37.10200 25.43000
C  47.48500 33.02200 25.23900
N  47.45500 35.71500 29.71000
C  46.70900 34.90900 30.45300
C  46.70400 35.28700 31.88300
C  46.84300 36.89000 31.63600
C  47.69000 36.92500 30.39800
C  45.44400 37.65700 31.52800
C  47.75700 34.62600 32.81300
C  47.63100 34.78900 34.32600
H  46.80400 35.98400 34.84300
N  49.41900 37.15800 27.82400
C  49.33200 38.12300 28.81500
C  50.25800 39.17500 28.48500
C  50.81300 38.91500 27.17000
C  50.16300 37.65900 26.72200
C  50.41100 40.37000 29.35200
C  51.74900 39.75100 26.32900
O  52.19100 39.33300 25.24800
C  52.31100 41.05500 26.79600
N  48.79800 35.09500 25.58400
C  49.59500 35.90600 24.91100
C  49.77300 35.41100 23.47500
C  49.03500 34.07000 23.47100
C  48.38300 34.07300 24.87600
C  49.34300 36.44400 22.47700
C  49.89300 32.86800 23.13100
C  49.97900 32.41700 21.60700
N  47.06600 33.68800 27.52900
C  46.80500 32.85700 26.49500
C  45.86600 31.80000 26.87200
C  45.54100 32.12700 28.20300
C  46.28700 33.34300 28.54700
C  45.40700 30.69200 26.04900
C  44.77900 31.71700 29.42800
O  44.06600 30.74800 29.59600
C  45.00400 32.85200 30.46300
C  45.11100 32.35900 31.80700
O  45.92400 31.55700 32.19300
O  44.26000 32.93100 32.68900
C  44.16300 32.46600 34.06600
H  48.43400 38.86800 30.69000
H  50.74300 37.65100 24.68500
H  47.33500 32.21000 24.52400
H  45.71700 35.08000 32.29600
H  47.47600 37.28900 32.42900
H  44.58700 37.04100 31.80000
H  45.40600 37.95500 30.48000
H  45.37700 38.49400 32.22200
H  48.72700 35.07900 32.60900
H  47.83000 33.61500 32.41100
H  48.63400 34.90900 34.73400
H  47.20400 33.85400 34.69100
H  51.38400 40.31300 29.84000
H  49.68800 40.34400 30.16700
H  50.45500 41.35100 28.87900
H  53.02400 41.39200 26.04400
H  52.78200 41.02500 27.77800
H  51.61300 41.89200 26.83000
H  50.86200 35.36700 23.44700
H  48.15300 34.11800 22.83300
H  48.35700 36.84900 22.70800
H  49.29400 36.13100 21.43400
H  49.94900 37.34500 22.56000
H  49.75500 31.94200 23.69000
H  50.95400 33.07600 23.26900
H  49.35800 33.14000 21.07900
H  49.71200 31.38500 21.37700
H  50.90900 32.38200 21.03800
H  44.60600 31.17900 25.49200
H  45.10900 29.89000 26.72300
H  46.22600 30.41100 25.38600
H  44.09200 33.44800 30.50000
H  44.85600 31.67100 34.34200
H  43.11500 32.17200 34.10600
H  44.25400 33.27700 34.78900

