158

Mg 49.20200 47.45100 43.43000
C  45.85100 47.38000 42.81400
C  49.47400 44.35900 41.80400
C  52.59500 47.70000 43.55000
C  48.94200 50.75400 44.47600
N  47.80700 46.04400 42.29500
C  46.49000 46.23900 42.26300
C  45.79400 45.06900 41.55700
C  46.96400 43.99400 41.47600
C  48.15400 44.80000 41.88100
C  46.77200 42.73000 42.24700
C  45.15600 45.45100 40.13900
C  43.64800 45.34000 39.86900
H  43.17000 45.21300 38.40800
N  50.83800 46.12600 42.79000
C  50.71500 44.91600 42.15900
C  52.04700 44.33100 41.98200
C  52.95900 45.28700 42.45900
C  52.17500 46.47300 42.99000
C  52.21200 42.98100 41.30700
C  54.46400 45.14200 42.45400
O  54.95800 44.26200 41.75700
C  55.48300 46.09100 43.15700
N  50.56700 48.98100 43.90900
C  51.88700 48.83700 43.86300
C  52.61100 49.99400 44.55400
C  51.46000 51.07400 44.64100
C  50.21800 50.20200 44.33700
C  53.14900 49.48000 45.87500
C  51.65700 52.35800 43.74200
C  51.88400 53.73500 44.38600
N  47.68600 48.84000 43.77500
C  47.69100 50.11800 44.20600
C  46.27500 50.55600 44.29800
C  45.52500 49.51800 43.82600
C  46.43600 48.51700 43.43200
C  45.90500 51.94900 44.76000
C  44.18100 48.99600 43.63100
O  43.08300 49.45300 43.89900
C  44.31000 47.69000 42.78500
C  43.52300 46.57500 43.31800
O  43.79600 45.91700 44.31000
O  42.32400 46.50800 42.66100
C  41.52600 45.31300 42.87700
H  49.67900 43.38700 41.34900
H  53.68300 47.78900 43.57900
H  48.82000 51.74100 44.92800
H  45.04600 44.60500 42.20100
H  47.03900 43.68000 40.43500
H  47.36400 42.77200 43.16200
H  47.27500 41.91500 41.72700
H  45.78400 42.52300 42.65900
H  45.68000 44.94100 39.33000
H  45.35600 46.51000 39.97500
H  43.25300 46.30500 40.18700
H  43.15600 44.68200 40.58500
H  52.26000 43.17800 40.23600
H  51.41600 42.30400 41.61700
H  53.16700 42.49600 41.50800
H  55.52900 47.07600 42.69100
H  56.49300 45.68500 43.21500
H  55.03200 46.16300 44.14600
H  53.34700 50.41200 43.86700
H  51.44600 51.30000 45.70700
H  52.54800 49.55900 46.78100
H  54.06600 50.05600 46.00000
H  53.32600 48.41600 45.72300
H  50.69700 52.52600 43.25500
H  52.39300 52.13200 42.97100
H  51.07100 54.43100 44.18000
H  52.86100 54.14100 44.12500
H  51.90200 53.39400 45.42100
H  46.00200 52.03300 45.84300
H  44.85400 52.08800 44.50700
H  46.51200 52.71700 44.28200
H  43.93500 47.94700 41.79400
H  42.18500 44.47000 43.09000
H  40.97100 45.00200 41.99200
H  40.83200 45.43400 43.70900
Mg 29.52600 57.67900 40.35800
C  26.73900 55.94600 39.25700
C  31.47700 55.12900 39.25300
C  32.12400 59.81100 40.61300
C  27.31000 60.37700 41.15800
N  29.16000 55.73500 39.30600
C  27.92700 55.24000 39.04200
C  28.12700 53.90700 38.30500
C  29.52500 53.47300 38.85100
C  30.11700 54.83900 39.14000
C  29.36100 52.72500 40.21700
C  28.16300 54.17700 36.75000
C  26.94300 53.74400 35.89300
H  26.40900 54.83600 34.91900
N  31.53900 57.55600 39.86600
C  32.17300 56.34100 39.56000
C  33.53600 56.67600 39.50800
C  33.73900 58.04900 39.89600
C  32.43500 58.57500 40.08700
C  34.55900 55.72200 39.01000
C  35.10700 58.66600 39.86800
O  36.11600 57.96200 39.64200
C  35.35900 60.14800 39.92100
N  29.69700 59.84000 40.81100
C  30.88900 60.44000 40.93500
C  30.73800 61.93100 41.12500
C  29.29000 61.94900 41.68000
C  28.70200 60.65500 41.18000
C  31.71700 62.50700 42.25900
C  28.51200 63.21800 41.33200
C  27.56600 63.73100 42.44700
N  27.46100 58.09800 40.31900
C  26.72500 59.23600 40.65000
C  25.29100 58.95900 40.56500
C  25.20700 57.66100 39.95100
C  26.54900 57.18100 39.85000
C  24.12000 59.81700 40.99600
C  24.26200 56.66800 39.39200
O  23.12600 56.67700 39.24500
C  25.25700 55.52500 38.82400
C  24.91700 54.20000 39.34000
O  25.42300 53.74300 40.37800
O  24.24300 53.46300 38.38500
C  23.94500 52.01800 38.75300
H  32.16900 54.30600 39.06400
H  33.03500 60.30300 40.96100
H  26.60200 61.18100 41.36700
H  27.30400 53.20500 38.43900
H  30.07800 52.96100 38.06300
H  28.37500 52.27300 40.31500
H  29.64700 53.32500 41.08100
H  30.11300 51.93700 40.26100
H  29.05900 53.69300 36.36300
H  28.22000 55.24900 36.56100
H  26.16400 53.23000 36.45600
H  27.27700 52.84500 35.37400
H  34.81100 56.17200 38.05000
H  34.18500 54.73300 38.74500
H  35.43500 55.55300 39.63700
H  34.52600 60.76300 39.58200
H  36.30000 60.37700 39.42000
H  35.52600 60.42000 40.96300
H  30.92200 62.51700 40.22500
H  29.25700 61.72100 42.74600
H  32.20800 61.67700 42.76700
H  31.16400 63.08800 42.99600
H  32.46600 63.19200 41.86100
H  27.81900 63.08800 40.50100
H  29.31300 63.93100 41.13500
H  27.45000 63.02600 43.26900
H  26.55600 63.90400 42.07700
H  28.03900 64.56800 42.96100
H  23.97800 60.70700 40.38200
H  24.09000 59.99500 42.07100
H  23.24900 59.17900 40.84700
H  25.10100 55.50900 37.74600
H  22.86700 51.87600 38.82300
H  24.35200 51.58900 39.66900
H  24.18800 51.30600 37.96400

