158

Mg 43.37500 5.07200 47.03500
C  40.93100 7.45900 46.96500
C  40.83000 2.63700 46.75800
C  45.68100 2.72100 46.58000
C  45.82000 7.52000 47.21100
N  41.09200 5.04100 46.79200
C  40.32100 6.16800 46.85300
C  38.90100 5.82100 46.88000
C  38.86200 4.26700 46.91600
C  40.34800 3.92900 46.81800
C  38.25000 3.62200 48.21000
C  38.10200 6.36000 45.67500
C  38.71200 6.09300 44.23100
H  38.94500 7.32600 43.23200
N  43.27600 2.98600 46.80200
C  42.13000 2.18600 46.73400
C  42.55200 0.79000 46.70800
C  43.99100 0.73900 46.70800
C  44.40400 2.16000 46.74700
C  41.63800 -0.47100 46.59400
C  44.87000 -0.52200 47.00500
O  44.45800 -1.64000 47.03600
C  46.35300 -0.37600 47.19300
N  45.51700 5.14200 47.09400
C  46.20400 4.03500 46.71500
C  47.76000 4.41900 46.42300
C  47.79800 5.82500 46.88200
C  46.30200 6.21700 47.08100
C  48.84500 3.52400 47.21000
C  48.63100 6.85300 45.97900
C  49.85600 7.43500 46.64900
N  43.37700 7.11300 47.14700
C  44.42600 7.96000 47.19100
C  43.88100 9.35400 47.06600
C  42.50200 9.15600 46.94600
C  42.27800 7.79000 47.10000
C  44.82800 10.54600 46.92900
C  41.36400 9.81500 46.85700
O  41.22100 11.03300 46.69300
C  40.21000 8.78800 46.86700
C  39.29200 9.00900 47.98000
O  39.53800 8.67000 49.14900
O  38.12200 9.63300 47.48800
C  37.14900 9.99200 48.59800
H  40.06900 1.86600 46.89800
H  46.44700 2.00200 46.28200
H  46.57600 8.30800 47.18300
H  38.36900 6.18400 47.75900
H  38.42100 3.96800 45.96500
H  38.86000 2.79700 48.58000
H  37.20400 3.43600 47.96600
H  38.22300 4.38500 48.98700
H  38.02000 7.43900 45.80600
H  37.12000 5.88900 45.67900
H  38.01200 5.47300 43.67100
H  39.62900 5.50900 44.30000
H  41.88500 -1.08000 45.72500
H  40.60900 -0.13100 46.47900
H  41.79600 -1.09700 47.47300
H  46.40500 0.31700 48.03300
H  46.84900 -0.01200 46.29400
H  46.68100 -1.34600 47.56800
H  47.90200 4.25600 45.35500
H  48.20300 5.83200 47.89400
H  49.30900 2.79400 46.54600
H  48.26600 2.94600 47.93000
H  49.67300 4.07200 47.65800
H  48.16600 7.81300 45.75800
H  48.94800 6.36900 45.05500
H  49.92900 8.51900 46.55300
H  50.79100 7.02800 46.26300
H  50.05100 7.14600 47.68100
H  45.64800 10.38900 46.22800
H  45.24900 10.78800 47.90500
H  44.19700 11.39100 46.65500
H  39.69000 8.92700 45.92000
H  36.80800 9.06700 49.06200
H  36.27600 10.46400 48.14600
H  37.69800 10.63200 49.28800
Mg 16.73400 51.60200 26.57600
C  18.63900 50.25000 29.20900
C  14.12700 52.12100 28.94600
C  14.85400 52.89500 24.18300
C  19.02100 50.50800 24.27800
N  16.55700 51.24800 28.83300
C  17.45900 50.81500 29.71700
C  17.02000 51.00400 31.17200
C  15.43200 51.19300 30.92900
C  15.39300 51.59800 29.44000
C  14.45600 50.03900 31.20300
C  17.75700 52.24100 31.73100
C  17.47800 52.74100 33.15100
H  16.76900 51.69800 34.06300
N  14.84800 52.50000 26.59200
C  13.85200 52.51100 27.58100
C  12.69300 53.33500 27.17000
C  12.95900 53.75800 25.82000
C  14.27600 53.06000 25.47100
C  11.56200 53.71100 28.05400
C  12.28900 54.75900 24.83700
O  12.72600 55.00400 23.73200
C  11.00500 55.44300 25.14800
N  16.80500 51.44700 24.45900
C  15.98100 52.21500 23.71300
C  16.46000 52.17000 22.21900
C  17.80900 51.43900 22.25800
C  17.89100 51.11700 23.74100
C  15.48500 51.60100 21.06500
C  18.99200 52.11300 21.54000
C  19.75300 53.21700 22.26400
N  18.46400 50.43800 26.63600
C  19.34900 50.07200 25.55700
C  20.48000 49.46100 26.20400
C  20.22300 49.40800 27.60800
C  19.01800 50.12100 27.83100
C  21.59100 48.86600 25.37000
C  20.71900 48.90000 28.90000
O  21.65300 48.19000 29.18300
C  19.82300 49.55900 29.96900
C  19.29500 48.53900 30.93000
O  18.42100 47.71100 30.55600
O  19.80400 48.76100 32.17900
C  19.14800 48.05100 33.26500
H  13.30100 52.31700 29.63300
H  14.30800 53.26400 23.31300
H  19.83600 50.29600 23.58300
H  17.14700 50.14300 31.82900
H  15.09000 52.02000 31.55000
H  13.52700 50.42000 31.62800
H  14.86900 49.29600 31.88400
H  14.17400 49.40500 30.36300
H  17.37600 53.03100 31.08400
H  18.80000 52.05900 31.47100
H  16.84900 53.62800 33.07900
H  18.41500 53.05200 33.61300
H  11.62300 53.41200 29.10100
H  10.67500 53.31400 27.56100
H  11.35200 54.78000 28.09600
H  10.44900 55.66400 24.23700
H  11.03400 56.33800 25.76900
H  10.45700 54.74400 25.78000
H  16.63700 53.19700 21.89900
H  17.75700 50.46400 21.77400
H  14.67400 51.16200 21.64600
H  15.85500 50.81400 20.40800
H  14.99700 52.38700 20.48800
H  18.55800 52.41900 20.58800
H  19.61100 51.22400 21.41800
H  20.67300 52.67400 22.47800
H  19.20800 53.44000 23.18100
H  19.96200 54.11500 21.68200
H  21.86400 49.31100 24.41200
H  21.20200 47.86800 25.16800
H  22.48900 48.84000 25.98700
H  20.45400 50.26000 30.51500
H  19.25100 46.97100 33.15900
H  18.07700 48.16500 33.09300
H  19.46600 48.46900 34.22000

