158

Mg 8.55800 4.35600 27.52900
C  9.79300 2.52700 30.37800
C  6.64900 6.22700 29.43700
C  7.38700 5.92400 24.72100
C  10.45000 2.09100 25.47900
N  8.23900 4.27400 29.70500
C  9.03400 3.62500 30.68000
C  8.64400 4.14500 32.05900
C  7.57500 5.22100 31.73400
C  7.48500 5.29600 30.19500
C  6.14500 4.98600 32.44700
C  9.78500 4.51600 33.06200
C  9.35300 4.70500 34.48700
H  10.16600 3.94100 35.55300
N  7.09700 5.81000 27.15100
C  6.55500 6.56600 28.06100
C  5.69400 7.64000 27.53200
C  5.85200 7.50600 26.11300
C  6.82500 6.41500 25.89200
C  4.80300 8.55300 28.38200
C  5.24900 8.28700 24.93700
O  5.42900 8.08600 23.72500
C  4.46900 9.49200 25.26900
N  8.82500 3.98800 25.43700
C  8.31600 4.80700 24.46500
C  8.91300 4.56100 23.03400
C  9.83700 3.34000 23.31500
C  9.76700 3.13000 24.84600
C  7.80000 4.30400 22.00700
C  11.30300 3.65900 22.95400
C  12.09500 2.47500 22.44700
N  9.91200 2.71900 27.77800
C  10.50800 1.85300 26.83900
C  11.25400 0.79300 27.51100
C  10.96000 1.02200 28.89200
C  10.12500 2.15800 29.04100
C  12.05600 -0.23800 26.87900
C  11.24300 0.53100 30.23700
O  11.84100 -0.45900 30.65700
C  10.54900 1.54800 31.20400
C  9.67900 0.94100 32.26800
O  8.75100 0.17400 32.04400
O  10.24500 1.27900 33.48800
C  9.54400 0.63300 34.61300
H  6.18900 6.86900 30.19100
H  7.21500 6.45900 23.78500
H  11.08000 1.45800 24.85100
H  8.13600 3.30000 32.52200
H  7.80800 6.21200 32.12500
H  5.60900 4.20900 31.90200
H  5.62100 5.94100 32.40500
H  6.29800 4.65800 33.47500
H  10.19400 5.45500 32.68900
H  10.65900 3.86600 33.05900
H  8.32400 4.35200 34.55800
H  9.42800 5.76500 34.72800
H  4.72300 8.36200 29.45200
H  3.78400 8.27000 28.11500
H  4.82400 9.62400 28.17900
H  4.13200 10.09700 24.42700
H  5.07700 10.19000 25.84500
H  3.58500 9.23900 25.85400
H  9.49400 5.47000 22.87300
H  9.45100 2.48500 22.76100
H  6.79300 4.52500 22.36000
H  7.70300 3.23400 21.82100
H  8.02900 4.89600 21.12200
H  11.84500 3.95800 23.85100
H  11.29100 4.47100 22.22700
H  11.59300 1.50800 22.44900
H  12.91900 2.30400 23.14000
H  12.41400 2.53600 21.40700
H  13.05500 0.18200 26.76400
H  11.75200 -0.50300 25.86700
H  12.10600 -1.09900 27.54600
H  11.39500 2.04400 31.67900
H  8.67400 1.14600 35.02500
H  10.38600 0.74300 35.29600
H  9.31600 -0.40200 34.35700
Mg 26.36100 50.28400 26.02800
C  24.81300 51.34500 28.97200
C  29.03600 49.23000 27.92700
C  27.93800 49.48200 23.21100
C  23.74400 51.62500 24.24400
N  26.86600 50.29600 28.28900
C  26.02700 50.70200 29.27100
C  26.62100 50.30200 30.64600
C  28.09100 49.88400 30.31600
C  28.03600 49.73300 28.77800
C  29.12800 51.02300 30.69600
C  25.78400 49.22200 31.43200
C  25.05400 49.63200 32.72900
H  25.88400 50.14900 33.92500
N  28.22500 49.50400 25.62100
C  29.17200 49.09900 26.56800
C  30.21200 48.25200 25.95300
C  29.87200 48.26200 24.54600
C  28.69600 49.18500 24.39600
C  31.31400 47.44700 26.65400
C  30.46000 47.45700 23.39600
O  29.96400 47.46400 22.29500
C  31.64800 46.55600 23.67500
N  25.87600 50.63700 24.04000
C  26.69400 50.09100 23.03800
C  26.07700 50.32300 21.69600
C  24.67600 50.92700 22.06700
C  24.76000 51.16100 23.53000
C  26.95200 51.10000 20.70900
C  23.45600 49.96600 21.65800
C  22.33300 50.65100 20.86800
N  24.59100 51.25100 26.39200
C  23.60600 51.67000 25.62900
C  22.58000 52.25800 26.41300
C  23.00500 52.13500 27.75800
C  24.21800 51.47400 27.66800
C  21.25600 52.91200 26.02100
C  22.66000 52.40700 29.12500
O  21.66400 52.94800 29.62200
C  23.77900 51.79200 30.00600
C  24.28400 52.87200 30.94500
O  25.38100 53.37300 30.82600
O  23.38400 53.02800 31.92500
C  24.01300 53.54500 33.15800
H  29.95600 48.94300 28.44200
H  28.51200 49.14600 22.34400
H  22.94500 52.03200 23.62100
H  26.65900 51.20200 31.25900
H  28.31000 48.89900 30.72700
H  28.68600 51.77700 31.34700
H  29.52800 51.53800 29.82200
H  29.97900 50.47300 31.09600
H  26.38300 48.34000 31.65600
H  25.01200 48.85900 30.75400
H  24.50700 48.74700 33.05400
H  24.44900 50.52600 32.58100
H  31.12300 46.38200 26.52600
H  31.34200 47.71000 27.71200
H  32.26200 47.78000 26.23100
H  31.48600 45.77600 24.41900
H  32.45500 47.21700 23.99300
H  32.02900 46.18700 22.72300
H  26.05400 49.30100 21.32000
H  24.40800 51.92300 21.71300
H  27.69300 51.63700 21.30000
H  26.48500 51.88800 20.11800
H  27.39500 50.36900 20.03200
H  22.95300 49.49200 22.50100
H  23.80900 49.11900 21.07100
H  21.44200 50.67000 21.49700
H  22.02500 50.16100 19.94400
H  22.47200 51.69700 20.59600
H  20.91500 52.63500 25.02400
H  21.35600 53.98800 26.16600
H  20.55300 52.51000 26.75000
H  23.19000 51.02000 30.50100
H  24.00200 54.63100 33.07500
H  24.99000 53.10800 33.37000
H  23.39300 53.23100 33.99800

