158

Mg 9.21500 4.56400 27.26700
C  10.54100 2.94500 30.00600
C  6.88200 6.04000 29.54300
C  7.51500 5.90600 24.74100
C  10.83700 2.31300 25.13200
N  8.64200 4.39600 29.53400
C  9.52600 3.86000 30.42100
C  9.10600 4.22600 31.85200
C  7.85700 5.06900 31.61600
C  7.76000 5.14900 30.15200
C  6.55900 4.76000 32.45000
C  10.21300 4.95200 32.61900
C  9.85600 5.38000 34.06100
H  10.70200 4.81100 35.23300
N  7.56100 5.93400 27.11200
C  6.74900 6.37200 28.16900
C  5.82200 7.31900 27.64300
C  6.07300 7.41600 26.29900
C  7.08700 6.37300 25.98900
C  4.71900 8.09300 28.52900
C  5.51400 8.38700 25.29900
O  5.82000 8.26300 24.12600
C  4.50800 9.40200 25.77500
N  9.12600 4.09100 25.28800
C  8.38900 4.90000 24.40400
C  8.73200 4.67600 22.93200
C  9.93800 3.62400 23.08300
C  10.04600 3.30500 24.53000
C  7.61300 4.34100 21.92500
C  11.27300 4.25800 22.72300
C  11.56300 5.62600 23.33400
N  10.50100 3.02000 27.41700
C  11.10300 2.15200 26.49300
C  11.92900 1.19800 27.15000
C  11.71800 1.55100 28.52700
C  10.83900 2.56800 28.66600
C  12.94700 0.20200 26.59000
C  12.19100 1.17300 29.78700
O  12.94200 0.25800 30.11800
C  11.38400 2.01800 30.84500
C  10.56900 1.07600 31.67500
O  9.36600 0.73400 31.50700
O  11.35000 0.65600 32.73200
C  10.58300 0.14500 33.92100
H  6.09000 6.46800 30.16100
H  6.99900 6.30900 23.86600
H  11.37000 1.54800 24.56400
H  8.86900 3.32200 32.41300
H  8.04500 6.08800 31.95500
H  5.77600 4.24400 31.89400
H  6.09200 5.68400 32.79000
H  6.88800 4.15500 33.29500
H  10.56300 5.79500 32.02400
H  11.03100 4.23300 32.57900
H  8.81700 5.22000 34.35000
H  10.04300 6.44800 33.94900
H  4.55500 7.47600 29.41200
H  3.74300 8.12600 28.04500
H  5.01400 9.10300 28.81300
H  4.17100 10.08400 24.99500
H  4.98900 10.02200 26.53200
H  3.59500 8.99600 26.21000
H  9.13800 5.59700 22.51300
H  9.71400 2.74500 22.47900
H  7.77300 3.43700 21.33800
H  7.46800 5.19600 21.26400
H  6.69600 4.10600 22.46500
H  11.32800 4.42900 21.64800
H  12.06800 3.55800 22.98100
H  10.75400 5.96200 23.98300
H  11.65800 6.40000 22.57200
H  12.45500 5.69400 23.95600
H  13.33800 0.29100 25.57700
H  12.52800 -0.79400 26.73700
H  13.82600 0.30500 27.22500
H  12.10500 2.48100 31.51900
H  11.30900 0.02900 34.72700
H  9.99700 -0.74700 33.70000
H  9.93700 1.00100 34.11500
Mg 41.26100 9.09500 30.67400
C  42.79800 10.49500 33.42600
C  38.76700 7.92700 32.73600
C  39.65000 8.03500 27.93300
C  44.09200 9.79700 28.62000
N  40.71700 9.31300 32.80100
C  41.54300 9.84700 33.72800
C  40.93200 9.72600 35.17200
C  39.78800 8.72200 34.96500
C  39.80000 8.54200 33.41300
C  39.93900 7.39300 35.76400
C  40.48900 11.12400 35.81000
C  40.07000 11.12100 37.20800
H  41.02300 11.81300 38.24100
N  39.42400 8.24600 30.41200
C  38.59600 7.69500 31.36900
C  37.41600 7.10300 30.71600
C  37.58900 7.33100 29.32500
C  38.91200 7.90300 29.14300
C  36.48700 6.31300 31.53200
C  36.72800 6.87100 28.16000
O  37.01000 6.88300 26.96200
C  35.39200 6.46300 28.52600
N  41.77000 8.92300 28.59400
C  40.92500 8.46400 27.60700
C  41.52000 8.33400 26.22700
C  42.94100 9.06200 26.48700
C  42.97300 9.23200 27.98500
C  41.68400 6.92100 25.70700
C  43.23900 10.37700 25.77000
C  42.24700 11.46500 25.88500
N  43.08200 9.92200 30.92600
C  44.11800 10.18200 30.03600
C  45.05200 10.97300 30.73700
C  44.58900 11.14100 32.07100
C  43.39200 10.44000 32.13200
C  46.20200 11.56300 30.05500
C  45.02500 11.65600 33.32100
O  46.03000 12.25300 33.74400
C  43.84400 11.20000 34.25400
C  44.48200 10.33600 35.34800
O  45.11900 9.30600 35.16600
O  44.08400 10.82700 36.61400
C  44.45100 9.95700 37.72200
H  37.98800 7.59000 33.42300
H  39.09800 7.79700 27.02200
H  44.99500 10.11000 28.09300
H  41.61600 9.25800 35.88000
H  38.78600 9.11500 35.14000
H  40.53800 7.45300 36.67300
H  40.43500 6.76500 35.02300
H  38.88600 7.23200 35.99100
H  39.67700 11.60300 35.26400
H  41.39300 11.71800 35.67500
H  39.93700 10.07900 37.49800
H  39.08100 11.55500 37.35800
H  36.97400 5.99600 32.45400
H  36.26500 5.36600 31.04100
H  35.51000 6.74700 31.74500
H  34.95100 7.05700 29.32600
H  35.53400 5.42100 28.81100
H  34.71800 6.47100 27.66900
H  40.89600 8.87700 25.51800
H  43.78100 8.48700 26.09700
H  41.33700 6.08100 26.30900
H  42.72300 6.74200 25.43000
H  41.09400 6.81100 24.79700
H  43.32500 10.26800 24.68900
H  44.14500 10.72400 26.26700
H  41.48200 11.61500 25.12300
H  42.54100 12.47700 26.16500
H  41.65800 11.12400 26.73700
H  46.34200 12.56200 30.46900
H  46.00900 11.53400 28.98200
H  47.05500 10.91700 30.26200
H  43.47700 12.14200 34.66100
H  44.54700 8.89500 37.49700
H  43.67000 9.94400 38.48300
H  45.36600 10.36800 38.14900

