158

Mg -12.02600 37.97400 42.37500
C  -9.46600 35.61000 41.76300
C  -10.32600 40.18000 40.58100
C  -14.78800 39.88400 42.21200
C  -13.77700 35.40100 43.92400
N  -10.16200 37.79000 41.26100
C  -9.29500 36.75900 41.09100
C  -8.21400 37.07600 40.05700
C  -8.33300 38.64900 39.94600
C  -9.68900 38.90700 40.63600
C  -7.19600 39.56400 40.59600
C  -8.26000 36.21800 38.76600
C  -6.85600 35.54100 38.46600
H  -5.99000 36.30400 37.47300
N  -12.44800 39.81300 41.61100
C  -11.59700 40.60900 41.03000
C  -12.08800 41.94700 40.97300
C  -13.38000 41.86300 41.43800
C  -13.64500 40.48500 41.73200
C  -11.27800 43.18700 40.58900
C  -14.26700 43.09800 41.75300
O  -13.72100 44.18600 41.59200
C  -15.78800 43.03900 42.11700
N  -14.01700 37.74000 42.93400
C  -14.97000 38.66300 42.82000
C  -16.27200 38.24300 43.38500
C  -15.98000 36.79200 43.97600
C  -14.48300 36.63600 43.61100
C  -16.90600 39.05900 44.51300
C  -16.92100 35.70000 43.45100
C  -17.34700 34.63900 44.46300
N  -11.65800 35.96400 42.96600
C  -12.47500 35.00300 43.54900
C  -11.73200 33.73000 43.76000
C  -10.50400 33.98400 43.06300
C  -10.59400 35.26100 42.53300
C  -12.08400 32.60000 44.65100
C  -9.30000 33.33100 42.69000
O  -8.98400 32.18000 42.89400
C  -8.54100 34.42900 41.80500
C  -7.27600 34.68700 42.60300
O  -6.42500 33.78600 42.71400
O  -7.06800 35.99300 43.00400
C  -5.66100 36.20100 43.49200
H  -9.71900 40.85000 39.96900
H  -15.72000 40.45200 42.24700
H  -14.34900 34.62300 44.43200
H  -7.30300 36.85100 40.61200
H  -8.42000 39.03900 38.93200
H  -6.88500 40.31400 39.86800
H  -6.31000 38.96900 40.81400
H  -7.48100 39.94800 41.57500
H  -8.59200 36.77800 37.89200
H  -9.02100 35.46600 38.97400
H  -7.06000 34.58700 37.98000
H  -6.26400 35.33600 39.35800
H  -11.23500 43.84700 41.45500
H  -11.81700 43.74000 39.81900
H  -10.22500 42.99000 40.39000
H  -16.27700 42.59000 41.25200
H  -16.15800 44.05000 42.28700
H  -16.01700 42.54100 43.06000
H  -16.87500 38.19400 42.47800
H  -15.84300 36.77500 45.05700
H  -17.65800 39.63200 43.97200
H  -16.21900 39.73300 45.02600
H  -17.40300 38.49700 45.30400
H  -16.42700 35.17200 42.63500
H  -17.83600 36.19100 43.11700
H  -17.34900 33.64700 44.00900
H  -18.38700 34.92300 44.62200
H  -16.68300 34.68400 45.32600
H  -13.03700 32.84200 45.12100
H  -11.32500 32.42700 45.41300
H  -12.30800 31.71400 44.05700
H  -8.28800 33.84000 40.92300
H  -5.13900 36.30600 42.54100
H  -5.22100 35.48100 44.18200
H  -5.71000 37.17800 43.97400
Mg 0.38400 44.37500 24.24500
C  2.34700 43.87100 27.24300
C  -2.44700 43.89500 26.28300
C  -1.31000 44.21800 21.54700
C  3.44900 44.13700 22.46900
N  0.02300 43.57700 26.40900
C  0.95900 43.72100 27.47000
C  0.21300 43.66100 28.83100
C  -1.25800 43.34000 28.41300
C  -1.26100 43.62500 26.91700
C  -1.75800 41.92900 28.81900
C  0.34000 44.97100 29.64000
C  0.76000 44.90100 31.12700
H  0.43100 43.55400 31.81300
N  -1.65800 44.28100 23.94100
C  -2.61500 44.22900 24.91900
C  -3.87300 44.39500 24.19300
C  -3.57000 44.54400 22.78200
C  -2.16200 44.35500 22.68300
C  -5.18900 44.34800 25.02900
C  -4.52200 44.70500 21.64000
O  -4.20200 44.54800 20.44800
C  -5.97300 45.03100 21.93200
N  1.07200 44.18300 22.32500
C  0.15700 44.14500 21.35000
C  0.72400 43.82500 19.93200
C  2.17400 44.37900 20.23400
C  2.24000 44.22800 21.75400
C  0.61000 42.27000 19.68300
C  2.49700 45.83800 19.73000
C  3.80500 45.97300 19.00300
N  2.48800 44.13300 24.73200
C  3.61300 44.08400 23.92600
C  4.79200 44.04100 24.72100
C  4.38100 43.99800 25.99800
C  2.95000 44.01700 25.97700
C  6.17200 43.97400 24.27900
C  4.79100 43.90300 27.36500
O  5.93000 43.74200 27.80500
C  3.53500 43.94500 28.25200
C  3.56100 42.77700 29.22000
O  3.11900 41.64900 29.01100
O  4.21600 43.21100 30.37700
C  4.52600 42.26800 31.43000
H  -3.36300 43.84900 26.87700
H  -1.83700 44.32300 20.59700
H  4.35500 44.10400 21.86100
H  0.71100 42.81600 29.30800
H  -2.03800 43.93700 28.88400
H  -0.92400 41.46100 29.34300
H  -2.00300 41.32300 27.94700
H  -2.49700 42.10800 29.60100
H  -0.54900 45.59700 29.56600
H  1.07200 45.57000 29.09700
H  0.17500 45.67000 31.63200
H  1.82400 45.13500 31.15900
H  -6.09100 44.69200 24.52300
H  -5.18100 44.98900 25.91100
H  -5.37100 43.34200 25.40800
H  -6.48700 44.13100 22.26900
H  -6.41600 45.45100 21.02900
H  -5.94800 45.79000 22.71400
H  0.15700 44.43300 19.22700
H  2.84400 43.62100 19.82700
H  0.56000 41.82000 20.67400
H  1.48100 41.79500 19.23200
H  -0.26400 42.07800 19.05900
H  2.46300 46.54700 20.55700
H  1.66900 46.03200 19.04800
H  4.37300 45.07000 19.22600
H  4.18200 46.89200 19.45400
H  3.67900 46.05000 17.92400
H  6.48600 43.05800 23.77700
H  6.82100 44.07600 25.14900
H  6.35200 44.82400 23.62100
H  3.48800 44.84400 28.86700
H  4.14700 41.26900 31.21500
H  4.01900 42.68300 32.30200
H  5.61400 42.28400 31.49300

