158

Mg 2.22900 -1.68200 44.48800
C  5.75600 -1.12600 44.28700
C  1.81700 0.93700 42.35700
C  -0.98000 -2.57100 44.20100
C  2.91500 -4.75500 46.04000
N  3.69400 -0.28700 43.47200
C  5.05600 -0.25200 43.50800
C  5.57600 0.74500 42.37100
C  4.23800 1.53800 41.92700
C  3.14700 0.64700 42.62200
C  4.16500 3.04700 42.43100
C  6.16800 -0.09500 41.16800
C  7.58600 0.25700 40.76400
H  7.91400 0.69200 39.36300
N  0.66700 -0.82200 43.62700
C  0.64500 0.16700 42.70300
C  -0.71900 0.47100 42.27800
C  -1.59100 -0.39100 42.92000
C  -0.65100 -1.30900 43.66600
C  -1.10300 1.64800 41.27900
C  -3.05000 -0.41200 42.84000
O  -3.58200 0.44500 42.15200
C  -3.96900 -1.36300 43.59800
N  1.16700 -3.48400 44.90500
C  -0.18200 -3.61800 44.76800
C  -0.75000 -5.03600 45.19800
C  0.49200 -5.61100 45.90700
C  1.57100 -4.57400 45.60900
C  -1.98600 -4.86800 46.15300
C  0.93600 -7.04300 45.41100
C  1.50700 -7.10500 44.05000
N  3.95200 -2.65300 45.17800
C  4.02400 -3.91600 45.78700
C  5.39300 -4.16300 46.10300
C  6.11000 -3.10000 45.53800
C  5.17300 -2.22400 45.00400
C  5.94300 -5.33000 46.82200
C  7.49200 -2.56100 45.42600
O  8.49100 -3.03500 45.92400
C  7.23900 -1.29500 44.46400
C  7.85500 -0.09900 45.17200
O  7.38100 0.50600 46.13200
O  9.03000 0.32800 44.49700
C  9.49000 1.69400 44.95400
H  1.62200 1.85300 41.79700
H  -1.99300 -2.97700 44.16500
H  3.04600 -5.64400 46.66100
H  6.31400 1.34500 42.90300
H  4.08500 1.44300 40.85200
H  3.26700 3.06100 43.04800
H  3.97800 3.70700 41.58400
H  5.02700 3.31300 43.04100
H  5.58300 0.08000 40.26500
H  6.03600 -1.14000 41.44900
H  8.16100 -0.66000 40.89500
H  7.95400 0.99600 41.47600
H  -1.78800 2.33200 41.77900
H  -1.69700 1.23900 40.46200
H  -0.20000 2.10900 40.87700
H  -3.70200 -1.25500 44.64900
H  -3.72000 -2.38400 43.30900
H  -5.00100 -1.25500 43.26500
H  -1.05100 -5.57200 44.29800
H  0.32900 -5.55000 46.98300
H  -1.85200 -5.35100 47.12100
H  -2.91800 -5.20800 45.70200
H  -2.01900 -3.79300 46.33100
H  0.03600 -7.65300 45.49600
H  1.75300 -7.29900 46.08600
H  2.59000 -7.18900 44.14900
H  1.38300 -6.21600 43.43200
H  1.09500 -7.91900 43.45400
H  6.45300 -6.06200 46.19600
H  5.13300 -5.80800 47.37200
H  6.56200 -5.03100 47.66800
H  7.76600 -1.45700 43.52300
H  10.26200 2.19000 44.36600
H  9.78800 1.64600 46.00200
H  8.66100 2.40100 45.00700
Mg 47.61400 25.60500 28.45000
C  48.41500 27.75300 31.14900
C  45.87700 23.51600 30.76200
C  47.22000 23.35300 26.01800
C  49.47800 27.69000 26.32200
N  47.26600 25.66600 30.72900
C  47.51200 26.75500 31.55600
C  46.84300 26.54800 32.95500
C  46.21600 25.06800 32.82400
C  46.47600 24.70000 31.34300
C  46.57500 24.05800 33.94800
C  45.90700 27.64700 33.37500
C  45.91100 28.22000 34.83500
H  46.45500 27.40600 36.02600
N  46.65100 23.72600 28.33800
C  45.98400 23.08300 29.36100
C  45.48600 21.83400 28.86800
C  45.94600 21.64000 27.51700
C  46.61800 22.94700 27.22600
C  44.67100 20.83200 29.68600
C  45.76700 20.51900 26.60000
O  46.28900 20.55600 25.50300
C  45.00800 19.27900 26.77200
N  48.19700 25.52900 26.49900
C  47.99600 24.48100 25.68800
C  48.60100 24.71300 24.27300
C  49.05400 26.17300 24.29500
C  48.99900 26.47600 25.79400
C  49.67800 23.66300 23.98400
C  48.18400 27.20800 23.52000
C  49.02300 28.11900 22.65400
N  48.78200 27.33500 28.66200
C  49.55000 28.05700 27.69700
C  50.06900 29.24300 28.29800
C  49.67700 29.09400 29.64100
C  48.87100 27.99600 29.78900
C  50.69900 30.39300 27.56500
C  49.74800 29.70000 31.01200
O  50.37300 30.76400 31.30200
C  48.89200 28.86900 31.93700
C  49.73400 28.55100 33.10100
O  50.55400 27.62500 33.18500
O  49.41400 29.31400 34.17200
C  50.39100 29.32900 35.33600
H  45.40100 22.84100 31.47700
H  47.05100 22.70300 25.15700
H  50.03300 28.39800 25.70400
H  47.59700 26.41900 33.73200
H  45.12700 25.09300 32.77900
H  47.24800 24.55800 34.64400
H  47.02500 23.17500 33.49300
H  45.72900 23.66500 34.51300
H  44.92900 27.16700 33.37600
H  45.91200 28.47500 32.66600
H  44.87800 28.45700 35.09100
H  46.60100 29.06300 34.79100
H  43.83500 20.59400 29.02900
H  44.29200 21.28400 30.60300
H  45.23200 19.92700 29.91500
H  45.21200 18.74600 27.70000
H  45.23400 18.52800 26.01500
H  43.95700 19.53100 26.63200
H  47.85400 24.58800 23.48900
H  50.12800 26.21800 24.11700
H  50.58100 24.25900 23.85000
H  49.37900 23.14300 23.07400
H  49.69700 22.93100 24.79200
H  47.64100 27.84400 24.21800
H  47.38800 26.74300 22.93900
H  50.07800 27.88700 22.79900
H  48.79200 29.17500 22.79600
H  48.79000 27.84600 21.62500
H  50.17100 30.73800 26.67600
H  51.61800 29.96200 27.16800
H  50.90500 31.17800 28.29400
H  47.98800 29.37200 32.28000
H  49.90000 28.75400 36.12100
H  50.59800 30.32000 35.74100
H  51.36700 28.89700 35.11500

