158

Mg 47.55200 16.19800 28.71400
C  45.35300 15.93900 31.36500
C  49.55600 18.22900 30.57000
C  49.59100 16.54500 26.12300
C  45.23200 14.51300 26.78200
N  47.51100 16.92300 30.74800
C  46.55300 16.60900 31.64500
C  46.92800 17.22100 33.08100
C  48.07900 18.22900 32.65100
C  48.45100 17.72600 31.26000
C  47.71300 19.70600 32.71800
C  47.39200 16.14100 34.10600
C  47.50600 16.58900 35.61500
H  47.01300 17.99300 36.00300
N  49.46000 17.03000 28.51800
C  50.05200 17.89200 29.34200
C  51.27100 18.38600 28.71400
C  51.36800 17.72100 27.52700
C  50.10200 17.03600 27.33100
C  52.22000 19.32800 29.45200
C  52.48100 17.78300 26.51400
O  52.36200 17.24300 25.42700
C  53.70600 18.52800 26.76500
N  47.35600 15.66300 26.65900
C  48.39300 15.88000 25.80700
C  48.15900 15.21700 24.46200
C  46.80700 14.44200 24.72800
C  46.42300 14.91100 26.13600
C  48.25100 16.11300 23.19600
C  46.72700 12.92300 24.45000
C  45.52800 12.45400 23.62800
N  45.60600 15.40500 28.97900
C  44.83300 14.71000 28.06300
C  43.55000 14.37600 28.67700
C  43.70800 14.79900 29.91800
C  44.96200 15.39100 30.10300
C  42.48800 13.50800 28.12500
C  43.07100 14.86500 31.19100
O  41.97100 14.50000 31.61000
C  44.18100 15.51700 32.24000
C  43.51600 16.53500 33.01900
O  42.99300 17.54800 32.59300
O  43.44200 16.17400 34.31100
C  42.80800 17.19200 35.14400
H  50.17500 18.90700 31.16200
H  50.23300 16.58400 25.24000
H  44.45500 13.94600 26.26500
H  46.09700 17.77000 33.52400
H  48.93400 18.09600 33.31300
H  48.02200 20.22200 31.80900
H  48.17400 20.27600 33.52400
H  46.63000 19.77800 32.61100
H  48.32300 15.84200 33.62400
H  46.79900 15.23100 34.00600
H  48.57600 16.39800 35.69800
H  46.91200 15.91000 36.22600
H  53.18900 18.83300 29.51600
H  51.89100 19.57500 30.46200
H  52.42200 20.22600 28.86800
H  53.56800 19.58300 27.00100
H  54.29800 18.57100 25.85100
H  54.29900 18.03100 27.53300
H  48.84800 14.38600 24.31400
H  46.18500 14.86900 23.94100
H  48.05100 17.14700 23.47500
H  47.48100 15.78400 22.49800
H  49.24600 16.08000 22.75300
H  46.62700 12.50800 25.45200
H  47.58500 12.42300 24.00000
H  45.94800 11.87800 22.80300
H  44.95500 13.27400 23.19600
H  44.88100 11.83200 24.24800
H  42.87100 12.86200 27.33500
H  41.78600 14.13100 27.57200
H  41.93200 12.88200 28.82400
H  44.54200 14.69800 32.86200
H  41.73100 17.28100 34.99800
H  43.26800 18.17900 35.17200
H  42.95000 16.77400 36.14100
Mg -1.71700 34.83100 26.81300
C  -3.21600 32.93500 29.38500
C  -0.67600 37.08300 29.13200
C  -0.57000 36.69500 24.25900
C  -3.25000 32.65800 24.46400
N  -1.91800 34.99200 28.98700
C  -2.52300 34.07100 29.83300
C  -2.37000 34.52100 31.34900
C  -1.67300 35.88700 31.16700
C  -1.42900 36.00400 29.65400
C  -2.45900 37.04600 31.75000
C  -1.41900 33.51300 32.07000
C  -1.90200 32.88200 33.37300
H  -0.85800 32.79500 34.48900
N  -0.66500 36.61600 26.66500
C  -0.29500 37.39100 27.77100
C  0.44800 38.51900 27.32800
C  0.46500 38.41200 25.87900
C  -0.28800 37.22600 25.49600
C  0.99400 39.59500 28.18000
C  1.13300 39.45400 24.87200
O  1.19000 39.18300 23.64800
C  1.92300 40.61100 25.38000
N  -1.94000 34.78300 24.60400
C  -1.31100 35.63900 23.80100
C  -1.53400 35.24000 22.34900
C  -2.33200 33.88000 22.41600
C  -2.52500 33.75200 23.94700
C  -2.31200 36.38300 21.53200
C  -1.81100 32.54600 21.73600
C  -0.50800 32.08600 22.29400
N  -3.03300 33.21300 26.81400
C  -3.58800 32.44500 25.81600
C  -4.38600 31.37500 26.40600
C  -4.27900 31.52700 27.78600
C  -3.42400 32.58200 28.06100
C  -5.18900 30.32600 25.60000
C  -4.68900 30.92500 29.11400
O  -5.38200 29.99400 29.37300
C  -3.87200 31.81400 30.18800
C  -4.96500 32.23900 31.12900
O  -5.52700 33.35300 31.08000
O  -5.10800 31.31700 32.17300
C  -6.08700 31.59400 33.20000
H  -0.50600 37.88400 29.85400
H  -0.05200 37.13400 23.40300
H  -3.73500 31.97400 23.76500
H  -3.39600 34.57600 31.71100
H  -0.65200 35.96500 31.54200
H  -3.31900 36.60400 32.25300
H  -2.88400 37.58300 30.90200
H  -1.80700 37.60500 32.42000
H  -0.42000 33.89900 32.27300
H  -1.25100 32.69200 31.37300
H  -2.05200 31.82300 33.16600
H  -2.83500 33.30200 33.75200
H  2.06000 39.65500 27.95900
H  0.88400 39.34500 29.23500
H  0.53700 40.54900 27.91900
H  1.14300 41.27200 25.75800
H  2.48000 40.96100 24.51100
H  2.61000 40.28600 26.16100
H  -0.56500 34.90600 21.97900
H  -3.31700 34.14600 22.03300
H  -2.73900 37.01800 22.30800
H  -3.07100 35.87000 20.94100
H  -1.55600 36.93300 20.97200
H  -1.67000 32.65300 20.66100
H  -2.57700 31.78700 21.89700
H  0.26200 32.08000 21.52200
H  -0.54100 31.06300 22.66900
H  -0.15800 32.73600 23.09600
H  -6.04300 30.70500 25.04000
H  -5.55300 29.51200 26.22700
H  -4.47500 29.87400 24.91100
H  -3.13300 31.23700 30.74400
H  -5.76200 32.43400 33.81500
H  -6.13600 30.73600 33.87100
H  -7.05300 31.90700 32.80300

