158

Mg 48.48300 34.77000 26.53500
C  46.60400 33.58300 29.19400
C  48.96500 37.62900 28.28500
C  50.17200 36.04300 23.84900
C  47.84300 31.88300 24.75500
N  47.92300 35.39700 28.56200
C  47.14100 34.82900 29.48700
C  46.86200 35.72900 30.74500
C  47.47500 37.10200 30.28800
C  48.19300 36.70500 28.98200
C  46.55200 38.30200 30.02800
C  47.35000 35.07900 32.05400
C  47.89300 35.89800 33.25900
H  47.01300 36.37800 34.36600
N  49.51800 36.58400 26.13300
C  49.60500 37.60000 27.03900
C  50.52200 38.59000 26.52200
C  50.98200 38.08100 25.24000
C  50.24100 36.87100 25.05900
C  50.91600 39.81100 27.29300
C  51.93600 38.62000 24.34500
O  52.32000 38.01600 23.33600
C  52.70900 39.97800 24.64600
N  48.78500 34.14700 24.56400
C  49.50200 34.89000 23.62400
C  50.02400 33.99500 22.45800
C  49.36200 32.58800 22.81500
C  48.60600 32.86600 24.12200
C  49.70600 34.58000 21.09800
C  50.41900 31.43800 22.95300
C  50.34500 30.29100 21.90900
N  47.46500 33.04500 26.88000
C  47.22900 31.92600 26.05100
C  46.43300 30.92500 26.87500
C  46.13200 31.60000 28.08200
C  46.78900 32.83200 28.04900
C  46.06200 29.60500 26.35700
C  45.39100 31.47800 29.32900
O  44.69700 30.57300 29.78900
C  45.54900 32.90800 30.04000
C  45.85000 32.46200 31.44800
O  46.78500 31.67000 31.67200
O  44.87900 32.87700 32.33900
C  44.83600 31.95800 33.53300
H  49.00100 38.58800 28.80800
H  50.82300 36.34100 23.02400
H  47.89500 30.91900 24.24500
H  45.78900 35.89900 30.82800
H  48.14400 37.50000 31.05100
H  45.61700 38.29300 30.58800
H  46.31200 38.28800 28.96500
H  47.09600 39.24300 30.11600
H  47.99700 34.21400 31.91000
H  46.49600 34.69500 32.61100
H  48.33500 36.85700 32.99100
H  48.76500 35.37500 33.65200
H  51.99200 39.80200 27.46700
H  50.36000 40.02200 28.20700
H  50.78800 40.72200 26.70900
H  51.90800 40.71400 24.71800
H  53.36100 40.18600 23.79700
H  53.34500 39.87200 25.52500
H  51.08300 33.80500 22.63200
H  48.51400 32.42400 22.15000
H  49.40100 33.71300 20.51200
H  50.49800 35.08600 20.54800
H  48.79500 35.17800 21.07100
H  50.31400 31.19600 24.01100
H  51.44300 31.81200 22.96300
H  51.15400 30.34400 21.18100
H  49.40200 30.30300 21.36300
H  50.40900 29.30800 22.37500
H  45.77800 29.68200 25.30700
H  45.24900 29.08000 26.85700
H  47.00100 29.05300 26.41300
H  44.64700 33.50000 30.19800
H  45.47500 32.41600 34.28900
H  45.10400 30.96300 33.17800
H  43.83200 31.93700 33.95600
Mg 35.50100 48.65100 25.54400
C  35.64800 47.00800 28.53700
C  33.99700 51.37100 27.15400
C  35.16200 50.30200 22.58100
C  36.50100 45.81700 24.00700
N  34.81300 49.07400 27.53600
C  35.21400 48.34400 28.66400
C  35.04500 49.05400 30.00400
C  34.17800 50.29600 29.54500
C  34.31700 50.26800 27.98100
C  32.71000 50.20700 29.95700
C  36.45000 49.26100 30.72900
C  36.44500 49.26800 32.29200
H  35.05900 48.98600 33.00300
N  34.75100 50.55700 24.94600
C  34.23400 51.53300 25.78200
C  33.98300 52.72400 25.04500
C  34.31200 52.47400 23.72400
C  34.70500 51.02500 23.65600
C  33.39100 54.01400 25.54300
C  34.27700 53.38600 22.49200
O  34.39100 52.96300 21.35600
C  33.91900 54.89000 22.56400
N  35.71700 48.04600 23.57100
C  35.65200 48.94900 22.55700
C  36.20500 48.35300 21.32100
C  36.77700 46.96300 21.83200
C  36.33500 46.95700 23.20500
C  35.27100 48.34900 20.04100
C  38.33600 46.80600 21.73900
C  39.03900 46.71200 20.42100
N  35.96000 46.74300 26.08200
C  36.31400 45.64400 25.32200
C  36.59500 44.52100 26.17900
C  36.30600 44.99300 27.46100
C  35.93400 46.34000 27.34300
C  36.98800 43.11600 25.69900
C  36.27900 44.64800 28.81900
O  36.47600 43.56700 29.36400
C  35.91300 45.99500 29.63000
C  34.78500 45.64800 30.57500
O  33.60100 45.99300 30.49000
O  35.31500 44.90200 31.53200
C  34.38900 44.42300 32.54200
H  33.54100 52.25800 27.60000
H  35.36200 50.89400 21.68500
H  36.78800 44.91200 23.46800
H  34.51500 48.35900 30.65500
H  34.68800 51.23200 29.77300
H  31.96600 50.37400 29.17800
H  32.51100 51.00200 30.67600
H  32.44900 49.27100 30.45200
H  36.95600 50.17200 30.40900
H  37.12800 48.52600 30.29600
H  36.69900 50.30600 32.50600
H  37.19100 48.56700 32.66500
H  32.48400 54.10300 24.94500
H  34.07600 54.78100 25.18300
H  33.17000 54.14600 26.60200
H  32.85700 55.13200 22.60500
H  34.35500 55.17100 21.60500
H  34.55100 55.47700 23.23100
H  37.09400 48.96000 21.14900
H  36.32300 46.20700 21.19200
H  35.85000 48.64700 19.16700
H  34.34700 48.92300 20.11500
H  34.87400 47.35100 19.85900
H  38.66700 45.95100 22.32900
H  38.78300 47.68200 22.21000
H  40.03300 47.14700 20.52500
H  38.33000 47.04300 19.66200
H  39.19300 45.64200 20.28300
H  36.22700 42.90200 24.94800
H  36.98300 42.42900 26.54500
H  37.94300 43.14600 25.17400
H  36.67100 46.26500 30.36500
H  33.70500 43.69400 32.10700
H  33.88200 45.24700 33.04300
H  35.01800 43.89900 33.26100

