158

Mg 47.89000 15.57900 28.44300
C  45.77600 15.29700 31.28700
C  50.27600 17.14500 30.47100
C  49.86400 16.25100 25.65800
C  45.27700 14.40900 26.44300
N  47.97100 16.25100 30.57600
C  46.93400 15.98600 31.56200
C  47.47300 16.47700 32.88600
C  48.65300 17.43800 32.48400
C  49.04100 16.88400 31.09400
C  48.33400 18.97200 32.48900
C  47.90300 15.21100 33.73400
C  48.11400 15.44700 35.26000
H  48.02300 16.85700 35.89000
N  49.86300 16.34200 28.12700
C  50.63000 16.91800 29.11600
C  51.99400 17.25800 28.55900
C  51.86400 17.13800 27.12400
C  50.50600 16.50900 26.90700
C  53.17400 17.87600 29.30800
C  52.86600 17.39900 26.00100
O  52.63000 17.31300 24.77600
C  54.27500 17.85200 26.35700
N  47.58200 15.38700 26.40400
C  48.51200 15.82500 25.47000
C  47.90700 15.59500 24.06200
C  46.63300 14.82800 24.36800
C  46.44000 14.89100 25.85200
C  47.76800 16.82800 23.16300
C  46.57700 13.33600 23.87800
C  47.04100 12.19900 24.81700
N  46.02500 14.91800 28.78600
C  45.11700 14.42800 27.83800
C  44.00700 13.82700 28.61200
C  44.15400 14.22900 29.94800
C  45.44300 14.88600 30.02400
C  42.80300 13.19900 27.98000
C  43.51600 14.30300 31.31000
O  42.40000 14.01600 31.65600
C  44.63700 14.87300 32.27200
C  44.01500 15.89700 33.13500
O  43.79300 17.00900 32.76800
O  43.63100 15.38900 34.30800
C  42.72500 16.22800 35.04300
H  51.04900 17.54400 31.13200
H  50.43900 16.52900 24.77200
H  44.61500 13.85300 25.77600
H  46.70900 16.99600 33.46400
H  49.51400 17.36900 33.14800
H  48.79500 19.44300 33.35800
H  47.26700 19.18100 32.57500
H  48.77600 19.42100 31.60000
H  48.83100 14.83500 33.30500
H  47.14600 14.43200 33.63500
H  49.10700 15.05400 35.47700
H  47.36400 14.88100 35.81200
H  52.98400 17.85700 30.38100
H  53.33200 18.89700 28.96200
H  54.05500 17.25100 29.16200
H  54.14400 18.83400 26.81200
H  54.96800 17.95600 25.52200
H  54.68600 17.05000 26.97100
H  48.62800 15.00200 23.49900
H  45.75600 15.27800 23.90300
H  46.71800 17.09800 23.04700
H  48.17800 16.62500 22.17300
H  48.36000 17.63500 23.59400
H  47.16300 13.22900 22.96500
H  45.55100 13.06900 23.62500
H  46.18800 11.64900 25.21400
H  47.60400 12.62400 25.64800
H  47.58100 11.44200 24.24900
H  41.86500 13.43800 28.48100
H  42.93100 12.12300 27.85700
H  42.63200 13.54000 26.95900
H  45.09100 14.17000 32.97000
H  41.85500 16.30800 34.39100
H  43.04300 17.21300 35.38300
H  42.32800 15.68300 35.89900
Mg 47.62100 33.95500 26.39000
C  45.82900 32.53000 29.07100
C  48.14800 36.80100 28.45100
C  49.10200 35.42700 23.80500
C  46.67700 31.18900 24.39700
N  46.98400 34.56500 28.44000
C  46.45300 33.73000 29.43300
C  46.58100 34.34300 30.80300
C  46.93100 35.83000 30.48500
C  47.35700 35.77000 29.04300
C  45.76800 36.82700 30.66700
C  47.70000 33.58700 31.65400
C  47.28700 33.38600 33.07600
H  46.26000 34.34600 33.69500
N  48.42800 35.87500 26.14400
C  48.67100 36.83800 27.09500
C  49.64200 37.79600 26.56000
C  49.70600 37.51900 25.17500
C  49.09800 36.20200 24.94500
C  50.24200 38.95800 27.37000
C  50.45900 38.28300 24.07500
O  50.62800 37.86200 22.94400
C  51.09300 39.61600 24.28900
N  47.83100 33.47100 24.34600
C  48.49900 34.25500 23.49900
C  48.46300 33.54600 22.07200
C  48.16500 32.16000 22.57400
C  47.47300 32.26100 23.83000
C  47.37600 34.12100 21.06900
C  49.34300 31.26700 22.80700
C  49.41800 29.96700 21.92400
N  46.39500 32.34000 26.56200
C  46.08100 31.28000 25.66300
C  45.28700 30.31100 26.34200
C  45.11700 30.81000 27.62600
C  45.81000 32.01200 27.72800
C  44.89800 28.97000 25.79700
C  44.50700 30.53400 28.87700
O  43.75100 29.61000 29.14200
C  44.95300 31.59600 29.87800
C  45.54900 30.86800 31.00800
O  46.25300 29.92000 30.94500
O  44.87300 31.18600 32.18500
C  45.18000 30.34500 33.29000
H  48.24900 37.70500 29.05500
H  49.51900 35.88000 22.90400
H  46.50000 30.36700 23.70100
H  45.59100 34.21500 31.24200
H  47.77500 36.18800 31.07300
H  45.24200 37.25600 29.81400
H  46.00500 37.58500 31.41400
H  44.94800 36.30800 31.16400
H  48.65600 34.08800 31.50700
H  47.81800 32.58000 31.25200
H  48.26800 33.40600 33.55100
H  47.06200 32.33500 33.25600
H  50.10200 38.72400 28.42500
H  49.80900 39.88100 26.98500
H  51.30100 39.15000 27.19400
H  51.52800 39.89600 23.32900
H  51.86800 39.41800 25.03000
H  50.33500 40.29600 24.67700
H  49.45100 33.66500 21.62800
H  47.54600 31.71800 21.79300
H  47.32700 35.18900 21.27800
H  46.41600 33.61800 21.18900
H  47.68700 34.05400 20.02700
H  49.49200 31.04000 23.86300
H  50.18800 31.92200 22.59500
H  50.43000 29.73900 21.59000
H  48.74300 30.07800 21.07500
H  49.11000 29.12400 22.54300
H  45.88100 28.50500 25.71900
H  44.24500 28.98200 24.92400
H  44.52200 28.33300 26.59800
H  44.05600 32.11600 30.21400
H  44.86900 29.34500 32.98800
H  44.78400 30.64300 34.26000
H  46.25900 30.30400 33.43600

