158

Mg 43.06100 41.57500 27.34200
C  42.23000 43.81300 29.77400
C  43.71400 39.19100 29.80800
C  44.40100 39.44100 24.93400
C  42.78600 44.06700 24.97200
N  43.09500 41.50400 29.55900
C  42.55800 42.53000 30.29400
C  42.42600 42.05800 31.78200
C  43.26000 40.76200 31.81100
C  43.42300 40.46500 30.28900
C  44.72800 41.04100 32.46600
C  40.90400 41.86600 32.11600
C  40.33900 42.76400 33.27100
H  39.80500 42.26500 34.66100
N  43.87000 39.59600 27.36000
C  43.95300 38.81000 28.47100
C  44.43800 37.51800 27.99600
C  44.64700 37.49200 26.61000
C  44.29100 38.89300 26.24800
C  44.74700 36.38800 28.93300
C  45.08800 36.32300 25.73100
O  45.36400 36.53200 24.55200
C  45.16400 34.93600 26.15900
N  43.31000 41.69800 25.26100
C  43.96800 40.69700 24.44700
C  44.05800 41.14400 22.96300
C  43.30000 42.49600 23.02500
C  43.05500 42.79100 24.53700
C  45.49200 41.14400 22.32100
C  42.00600 42.49500 22.17000
C  40.75400 41.66600 22.56500
N  42.60400 43.53900 27.34100
C  42.48700 44.43400 26.28600
C  41.98700 45.72400 26.76800
C  41.81400 45.56200 28.15300
C  42.30500 44.22300 28.43200
C  41.78500 46.99700 25.94400
C  41.42900 46.09500 29.40800
O  40.99000 47.18200 29.73300
C  41.67000 44.98900 30.48300
C  42.64800 45.52300 31.57100
O  43.88200 45.75100 31.59700
O  41.92000 45.53900 32.76400
C  42.71700 46.14100 33.92800
H  44.01300 38.45200 30.55400
H  44.89500 38.75100 24.24600
H  42.60700 44.86800 24.25100
H  42.93700 42.78500 32.41200
H  42.69100 39.98800 32.32600
H  45.55900 40.65100 31.87800
H  44.82000 40.52800 33.42300
H  44.94200 42.11000 32.48100
H  40.67000 40.81500 32.28400
H  40.27500 42.03500 31.24200
H  39.60200 43.35700 32.73000
H  41.18300 43.33600 33.65500
H  43.94000 35.65600 28.97400
H  44.81000 36.82100 29.93100
H  45.72800 35.99500 28.66600
H  46.00400 34.38400 26.58000
H  44.78600 34.54700 25.21300
H  44.26100 34.83400 26.76000
H  43.44100 40.43400 22.41200
H  43.97500 43.22000 22.56900
H  45.39100 40.66000 21.34900
H  46.05800 40.57200 23.05600
H  46.01700 42.09900 22.29800
H  42.40100 42.18000 21.20500
H  41.70600 43.53800 22.07000
H  40.45400 40.93200 21.81700
H  39.95000 42.38400 22.72500
H  40.92800 41.01400 23.42100
H  42.02300 47.89600 26.51200
H  40.73500 47.01000 25.65000
H  42.29800 46.91300 24.98600
H  40.72700 44.69800 30.94600
H  42.73300 47.19200 33.64000
H  43.68700 45.69400 34.14400
H  42.17200 46.09800 34.87200
Mg -1.91000 33.27100 27.59000
C  -3.87000 31.57900 29.99200
C  -0.81300 35.33300 30.13000
C  -0.30300 35.05300 25.22600
C  -3.31400 31.23200 25.11200
N  -2.32400 33.46400 29.82500
C  -3.11900 32.64100 30.59000
C  -3.06000 33.00100 32.03500
C  -2.29600 34.36600 31.99700
C  -1.73600 34.41200 30.53200
C  -3.07200 35.65000 32.41300
C  -2.26500 31.93600 32.87800
C  -3.09200 31.31000 33.95000
H  -2.42600 31.24400 35.35700
N  -0.59600 34.89700 27.68500
C  -0.24400 35.57700 28.83900
C  0.57200 36.68400 28.46200
C  0.83900 36.56400 27.03700
C  -0.03600 35.45100 26.58300
C  1.13700 37.57300 29.54500
C  1.78300 37.38300 26.22700
O  1.96100 37.17200 25.03300
C  2.56000 38.47700 26.91600
N  -1.76500 33.14800 25.51500
C  -1.14200 34.03000 24.75800
C  -1.49900 33.83700 23.30900
C  -2.11900 32.40600 23.25500
C  -2.42200 32.20500 24.74700
C  -2.49000 34.76600 22.75500
C  -1.22300 31.31300 22.62400
C  -0.31500 30.29900 23.38600
N  -3.33800 31.75100 27.52000
C  -3.79600 31.03400 26.42900
C  -4.65700 30.02200 26.89700
C  -4.82900 30.21300 28.29800
C  -3.87200 31.22100 28.60100
C  -5.35100 29.00700 26.14400
C  -5.44500 29.70400 29.47100
O  -6.10800 28.73300 29.65000
C  -4.79800 30.54700 30.71700
C  -5.89800 31.23500 31.51300
O  -6.51000 32.23300 31.20200
O  -6.26000 30.48000 32.64800
C  -7.35600 31.05900 33.45000
H  -0.47800 35.92500 30.98400
H  0.08200 35.82500 24.55600
H  -3.77800 30.67100 24.29800
H  -3.99900 33.29400 32.50500
H  -1.39900 34.30000 32.61300
H  -2.61500 35.93500 33.36100
H  -4.16100 35.64800 32.43300
H  -2.89000 36.48800 31.73900
H  -1.41000 32.44900 33.31800
H  -1.91900 31.14600 32.21200
H  -3.30800 30.31700 33.55600
H  -4.03500 31.84700 34.04300
H  0.72900 38.56900 29.37300
H  2.21300 37.57000 29.37100
H  0.93400 37.26600 30.57200
H  1.90400 39.06400 27.55800
H  2.70400 39.16400 26.08200
H  3.44700 38.04600 27.38000
H  -0.62600 33.91900 22.66200
H  -3.03700 32.44800 22.66800
H  -1.89400 35.49100 22.20100
H  -3.01400 35.32600 23.52900
H  -3.14600 34.30900 22.01400
H  -0.64300 31.86900 21.88700
H  -1.97600 30.73700 22.08600
H  -0.58300 29.29300 23.06400
H  -0.30400 30.35400 24.47400
H  0.64900 30.32700 22.87700
H  -6.30800 29.34000 25.74200
H  -5.57500 28.14100 26.76700
H  -4.77200 28.68700 25.27700
H  -4.34400 29.82600 31.39600
H  -6.89000 31.70600 34.19300
H  -7.82000 30.23500 33.99100
H  -8.13800 31.53900 32.86100

