158

Mg 24.00300 -5.67400 45.78200
C  26.13400 -3.34500 44.38400
C  21.55000 -4.74100 43.47900
C  22.16800 -8.66900 46.19000
C  26.74300 -7.24800 47.32400
N  23.88100 -4.17000 44.16500
C  24.85100 -3.29100 43.76300
C  24.42600 -2.27300 42.68900
C  22.86500 -2.49800 42.81200
C  22.74800 -3.98600 43.48200
C  22.15400 -1.47200 43.69700
C  25.16600 -2.62400 41.28800
C  26.09400 -1.52800 40.59800
H  26.01900 -1.26200 39.08300
N  21.96600 -6.50700 45.10600
C  21.20800 -5.86600 44.18100
C  19.97600 -6.62200 44.07800
C  20.11800 -7.83400 44.80900
C  21.40800 -7.72600 45.52300
C  18.75400 -6.23700 43.20400
C  19.01100 -8.89100 44.89100
O  17.88700 -8.69700 44.36300
C  19.16900 -10.13200 45.79100
N  24.36300 -7.60500 46.63400
C  23.49700 -8.64300 46.69000
C  23.99700 -9.84000 47.53600
C  25.43700 -9.40200 47.87500
C  25.56500 -8.01600 47.26400
C  23.05800 -10.23100 48.66400
C  26.53200 -10.44800 47.42700
C  26.95000 -11.46100 48.55400
N  25.99700 -5.23900 46.03700
C  27.01000 -5.96700 46.68700
C  28.25300 -5.23400 46.58900
C  28.02300 -4.15100 45.61800
C  26.59300 -4.30300 45.38400
C  29.51300 -5.52800 47.22200
C  28.56000 -3.04400 44.82800
O  29.63700 -2.56700 44.69500
C  27.35900 -2.44500 44.03100
C  27.19700 -0.95500 44.22000
O  26.68200 -0.46100 45.19400
O  27.75200 -0.30400 43.19800
C  27.70500 1.09500 43.07900
H  20.78000 -4.44800 42.76300
H  21.56900 -9.55100 46.42500
H  27.58900 -7.65700 47.87900
H  24.86600 -1.33400 43.02700
H  22.52500 -2.47000 41.77700
H  22.83000 -0.96900 44.38700
H  21.40500 -2.00800 44.28000
H  21.62900 -0.76900 43.04900
H  24.47100 -3.08400 40.58500
H  25.84500 -3.43700 41.54800
H  27.10800 -1.78200 40.90600
H  25.74700 -0.63500 41.11800
H  18.62800 -6.97100 42.40900
H  18.79400 -5.25900 42.72500
H  17.95900 -6.10300 43.93800
H  19.24500 -9.86300 46.84400
H  19.99500 -10.71400 45.38200
H  18.24400 -10.70500 45.85700
H  23.89600 -10.61200 46.77400
H  25.56600 -9.28700 48.95100
H  23.57400 -10.43100 49.60300
H  22.50700 -11.14200 48.43200
H  22.31000 -9.48000 48.92100
H  27.47000 -10.05200 47.03700
H  26.09200 -11.08500 46.66000
H  26.98200 -12.37800 47.96700
H  26.19700 -11.36300 49.33700
H  27.97000 -11.20100 48.83700
H  29.88000 -4.67800 47.79700
H  30.27000 -5.72500 46.46200
H  29.54700 -6.40900 47.86200
H  27.65500 -2.64100 43.00000
H  28.68200 1.57800 43.06500
H  27.29500 1.52700 43.99200
H  27.07000 1.42400 42.25600
Mg 53.48600 24.33000 44.68400
C  50.72700 26.26000 44.16000
C  51.55200 21.58400 43.67800
C  56.26800 22.38500 44.20600
C  55.37300 27.06600 45.23100
N  51.32400 23.91700 44.07900
C  50.44500 24.95400 43.81500
C  49.11600 24.41300 43.19500
C  49.27100 22.95600 43.61700
C  50.79300 22.80300 43.76100
C  48.40100 22.60200 44.80500
C  49.10100 24.62600 41.68500
C  47.66700 24.83500 41.19500
H  47.41500 24.47700 39.74800
N  53.85400 22.28000 44.23800
C  52.92200 21.33400 43.86100
C  53.49500 20.10000 43.74200
C  54.83600 20.16400 43.99100
C  55.05200 21.65300 44.22200
C  52.66300 18.91500 43.36100
C  55.80100 19.13500 43.99900
O  55.52600 17.98800 43.64500
C  57.10800 19.42600 44.43100
N  55.58500 24.61000 44.61700
C  56.54500 23.72400 44.38100
C  57.96400 24.43900 44.34700
C  57.63700 25.91600 44.65700
C  56.14400 25.88600 44.91200
C  58.91100 23.78800 45.43000
C  57.90500 26.84000 43.38200
C  59.00300 27.95000 43.73500
N  53.10500 26.20600 44.89500
C  53.98300 27.22600 45.21900
C  53.21600 28.39600 45.50000
C  51.84300 28.09500 45.12000
C  51.89200 26.72000 44.67800
C  53.70900 29.74100 45.94300
C  50.59900 28.63100 44.85300
O  50.08300 29.71200 45.19100
C  49.81300 27.48300 44.22200
C  49.20200 27.96900 42.90600
O  49.70700 27.97600 41.76000
O  47.93600 28.33500 43.10100
C  47.22900 28.88900 41.91600
H  50.89300 20.74800 43.43300
H  57.10500 21.75700 43.89300
H  55.96500 27.94100 45.50700
H  48.22800 24.90800 43.58700
H  48.91400 22.42300 42.73500
H  47.68300 21.80400 44.61800
H  47.92900 23.48200 45.24300
H  49.10300 22.36200 45.60300
H  49.48300 23.73000 41.19700
H  49.72600 25.45700 41.35700
H  47.38500 25.88100 41.30900
H  47.00100 24.23600 41.81500
H  52.31000 18.85600 42.33100
H  51.84900 18.99400 44.08100
H  53.18500 17.96400 43.47300
H  57.79900 19.70400 43.63500
H  57.48900 18.43500 44.67800
H  57.20200 20.07600 45.30000
H  58.45400 24.30800 43.38200
H  58.09300 26.33100 45.55700
H  59.95100 23.81100 45.10500
H  58.61100 22.80500 45.79400
H  58.86800 24.40200 46.33000
H  56.97600 27.28300 43.02200
H  58.24000 26.25500 42.52600
H  59.81500 27.61500 44.38000
H  58.62100 28.74600 44.37500
H  59.40000 28.37000 42.81100
H  53.20500 30.62700 45.55800
H  54.76100 29.82700 45.66800
H  53.43700 29.89800 46.98700
H  48.94900 27.28300 44.85500
H  46.94200 27.95800 41.42600
H  47.74200 29.47200 41.15100
H  46.39800 29.50600 42.25600

