158

Mg 27.66800 58.65100 42.21700
C  25.74500 56.15900 40.54200
C  30.42200 57.42300 40.65000
C  29.23900 61.17200 43.55000
C  24.48400 60.07200 43.22600
N  27.97100 57.05500 40.64200
C  27.10400 56.09500 40.18300
C  27.87300 54.94000 39.45000
C  29.33600 55.28400 39.76300
C  29.24900 56.70000 40.44800
C  30.21500 54.17100 40.43900
C  27.54300 54.85200 37.90800
C  27.14600 53.55800 37.17400
H  26.82600 53.55800 35.65100
N  29.63600 59.26900 42.12000
C  30.62900 58.63700 41.41000
C  31.83700 59.31600 41.64200
C  31.60900 60.41000 42.57600
C  30.15700 60.39800 42.80100
C  33.21100 58.89300 41.04500
C  32.60600 61.35400 43.15200
O  33.81900 61.18300 43.05600
C  32.14800 62.61400 43.86800
N  26.94100 60.33600 43.29500
C  27.87300 61.27000 43.58900
C  27.09800 62.50300 44.24700
C  25.58200 62.15900 44.19600
C  25.64700 60.77200 43.50200
C  27.49900 62.90600 45.70300
C  24.63000 63.18500 43.54500
C  23.96100 64.12100 44.51600
N  25.51000 58.21700 42.03600
C  24.38200 58.84900 42.53500
C  23.18700 58.11600 42.15800
C  23.69500 57.11700 41.34800
C  25.09500 57.21900 41.31600
C  21.80300 58.24200 42.66900
C  23.30400 55.90500 40.66000
O  22.17000 55.41300 40.48200
C  24.60200 55.20200 40.17700
C  24.75700 53.87800 40.86900
O  24.98900 53.66300 42.04300
O  24.54800 52.76200 40.00300
C  24.35700 51.43900 40.49400
H  31.37200 57.00600 40.31000
H  29.75500 61.96700 44.09100
H  23.49700 60.49100 43.43100
H  27.54700 54.08600 40.04400
H  29.82400 55.47400 38.80700
H  31.26800 54.30900 40.19400
H  29.89500 53.16300 40.17300
H  30.14900 54.18600 41.52700
H  28.32700 55.34400 37.33200
H  26.62100 55.41500 37.76300
H  26.33300 53.09600 37.73400
H  27.85300 52.73000 37.22600
H  33.78100 58.15400 41.60700
H  33.86000 59.75300 40.88200
H  32.91200 58.49600 40.07500
H  31.49500 63.16500 43.19100
H  32.89200 63.35700 44.15400
H  31.60700 62.35400 44.77800
H  27.35600 63.34200 43.60100
H  25.24900 62.01600 45.22400
H  28.06400 63.83700 45.74500
H  28.06700 62.16000 46.25900
H  26.66100 63.02500 46.38900
H  23.92700 62.67200 42.88900
H  25.13600 63.81500 42.81300
H  24.05500 65.14600 44.16000
H  24.50100 64.03100 45.45900
H  22.97000 63.70100 44.69100
H  21.13300 58.75500 41.97900
H  21.71100 58.79600 43.60300
H  21.37500 57.25100 42.82600
H  24.66700 55.00800 39.10700
H  24.13200 50.73800 39.69000
H  23.49600 51.35700 41.15700
H  25.23100 50.96800 40.94400
Mg -12.02800 37.89400 43.10800
C  -10.10600 35.19700 42.21800
C  -10.09100 39.76800 40.97000
C  -14.30300 40.40500 43.13000
C  -14.19400 35.76900 44.63000
N  -10.28900 37.50800 41.68300
C  -9.65100 36.32900 41.60600
C  -8.36400 36.52500 40.82500
C  -8.42200 37.94400 40.25100
C  -9.67700 38.45900 41.00500
C  -7.12600 38.87400 40.41400
C  -8.11700 35.47200 39.67200
C  -6.64100 35.05200 39.49800
H  -5.83500 35.57500 38.27600
N  -12.12100 39.88700 42.28200
C  -11.15700 40.48000 41.51400
C  -11.49400 41.88700 41.30900
C  -12.67200 42.11800 42.00000
C  -13.13100 40.77500 42.49800
C  -10.68300 42.76600 40.41400
C  -13.33000 43.42500 42.11800
O  -12.73200 44.42000 41.73800
C  -14.69000 43.65000 42.67200
N  -13.90200 38.02900 43.71400
C  -14.63700 39.19100 43.74100
C  -16.07600 38.99700 44.27500
C  -16.07500 37.45400 44.56800
C  -14.59100 37.03800 44.35600
C  -16.35300 40.00500 45.42500
C  -17.15300 36.67600 43.71900
C  -17.77500 35.45500 44.39600
N  -12.12400 35.85900 43.48300
C  -13.06700 35.15300 44.17000
C  -12.60100 33.77000 44.30300
C  -11.35900 33.75200 43.58000
C  -11.25300 35.02900 43.00800
C  -13.27900 32.63400 45.05100
C  -10.21900 32.93300 43.20500
O  -9.92300 31.78300 43.44000
C  -9.42400 33.77600 42.28100
C  -8.06500 33.84300 42.85900
O  -7.14200 33.23400 42.43600
O  -7.99600 34.72500 43.88800
C  -6.57000 34.90400 44.41700
H  -9.51100 40.49200 40.39500
H  -14.95800 41.25600 43.32900
H  -14.94400 35.13900 45.11200
H  -7.51000 36.32700 41.47300
H  -8.61500 38.00600 39.18000
H  -7.34600 39.72300 41.06200
H  -6.80700 39.21900 39.43000
H  -6.24800 38.31100 40.73200
H  -8.40000 35.96100 38.74000
H  -8.88500 34.70500 39.77100
H  -6.60000 33.97900 39.30800
H  -6.13300 35.05200 40.46200
H  -11.37500 43.39800 39.85700
H  -9.97000 42.40700 39.67200
H  -10.03700 43.47900 40.92500
H  -15.33900 43.07100 42.01500
H  -14.96800 44.67300 42.42000
H  -14.74500 43.38700 43.72800
H  -16.76100 39.10100 43.43300
H  -16.41000 37.41100 45.60400
H  -15.44200 40.33000 45.92700
H  -16.98300 39.53200 46.17800
H  -16.90200 40.90500 45.14800
H  -16.52300 36.38300 42.87900
H  -17.92300 37.38000 43.40600
H  -18.82100 35.68100 44.60400
H  -17.23700 35.10900 45.27900
H  -17.77300 34.63400 43.67900
H  -14.35100 32.60700 44.85800
H  -13.05100 32.71400 46.11400
H  -12.76600 31.77900 44.61100
H  -9.46200 33.31500 41.29400
H  -6.39300 35.70800 45.13200
H  -5.84400 35.10800 43.63000
H  -6.24300 33.97400 44.88100

