158

Mg 49.53700 45.62000 41.45800
C  46.17900 45.72200 40.32600
C  49.55900 42.17500 40.57000
C  52.89000 45.61600 41.47300
C  49.44600 49.17200 41.60100
N  48.04900 44.18200 40.50200
C  46.82200 44.49200 40.15000
C  46.19900 43.30100 39.47700
C  46.91200 42.12900 40.14100
C  48.29600 42.87400 40.40900
C  46.23500 41.42500 41.31100
C  46.23800 43.36500 37.83800
C  44.88600 43.24300 37.16900
H  44.68800 44.26200 36.02100
N  51.00900 44.09000 41.07000
C  50.86300 42.72100 40.81200
C  52.11900 42.06700 40.79000
C  53.06500 43.05200 41.08600
C  52.33100 44.37600 41.17800
C  52.24700 40.62100 40.49200
C  54.53100 42.74500 41.12700
O  54.95600 41.61800 40.82800
C  55.51500 43.78100 41.52100
N  50.99600 47.22300 41.49600
C  52.32400 46.90600 41.64600
C  53.17400 48.15500 41.71400
C  52.06500 49.30800 41.81500
C  50.75000 48.59500 41.62800
C  54.17000 48.05400 42.87800
C  52.27300 50.52900 40.90000
C  52.13900 51.93500 41.56500
N  48.09800 47.13900 41.37700
C  48.19900 48.56900 41.51000
C  46.87900 49.15900 41.40500
C  46.09400 48.04800 40.89800
C  46.82500 46.84900 40.97500
C  46.65700 50.68000 41.45500
C  44.75500 47.69200 40.39300
O  43.75900 48.40700 40.13200
C  44.78300 46.17500 40.02200
C  43.71200 45.61600 40.84400
O  43.61700 45.52000 42.06000
O  42.68000 45.32000 39.93400
C  41.38200 45.16800 40.52300
H  49.38200 41.10800 40.42100
H  53.98000 45.60800 41.41900
H  49.50800 50.24700 41.78400
H  45.19600 43.36800 39.89800
H  47.13600 41.30700 39.46200
H  45.19000 41.71800 41.21600
H  46.62300 41.70100 42.29100
H  46.16400 40.35400 41.11800
H  46.78600 42.50400 37.45500
H  46.80200 44.24700 37.53500
H  44.13500 43.54000 37.90000
H  44.60400 42.23900 36.85200
H  52.73500 40.60200 39.51800
H  51.31500 40.06100 40.42500
H  52.92800 40.05800 41.13200
H  55.15200 44.20800 42.45600
H  55.64900 44.57900 40.79100
H  56.51000 43.33800 41.56400
H  53.74700 48.32900 40.80300
H  52.09000 49.72200 42.82300
H  54.02100 47.07700 43.33800
H  54.24200 48.92900 43.52300
H  55.11500 48.22500 42.36200
H  51.53200 50.60400 40.10500
H  53.23700 50.43100 40.40100
H  53.14000 52.12800 41.95000
H  51.49200 51.85600 42.43900
H  51.86100 52.72500 40.86800
H  46.54800 51.08900 42.45900
H  45.67500 50.72100 40.98500
H  47.45600 51.13900 40.87300
H  44.77200 46.07100 38.93700
H  41.31000 44.27800 41.14900
H  40.65300 45.04200 39.72200
H  41.18100 46.03600 41.15000
Mg 29.30900 57.18000 40.89100
C  26.38900 55.27800 40.18000
C  31.10100 54.80200 39.33500
C  31.97400 59.33100 41.08000
C  27.18400 59.74600 41.93100
N  28.73800 55.29100 39.79700
C  27.57200 54.63200 39.67500
C  27.61100 53.30700 38.90300
C  29.16300 53.04100 39.12600
C  29.75100 54.45600 39.47600
C  29.58700 52.09500 40.23400
C  26.91200 53.05300 37.48800
C  26.44200 54.24700 36.73900
H  26.66100 54.17600 35.22900
N  31.29800 57.02000 40.33400
C  31.88800 55.92000 39.75300
C  33.29500 56.18000 39.41800
C  33.47600 57.52400 39.84800
C  32.25800 58.02800 40.55000
C  34.17100 55.22900 38.62400
C  34.76800 58.37200 39.51000
O  35.75300 57.93900 38.97800
C  34.98000 59.90300 39.73700
N  29.56700 59.23500 41.58400
C  30.76800 59.90300 41.55100
C  30.55500 61.40000 41.80800
C  29.08600 61.53300 42.07200
C  28.54300 60.10700 41.90300
C  31.44300 62.02500 42.95200
C  28.23200 62.49400 41.18300
C  27.20400 63.35300 41.87800
N  27.30300 57.46400 41.07200
C  26.53400 58.55200 41.51000
C  25.08700 58.30800 41.45100
C  25.02000 56.98300 41.02000
C  26.38500 56.53700 40.72900
C  23.96300 59.33700 41.70500
C  24.07000 55.99000 40.66100
O  22.88800 55.86400 40.77600
C  24.95900 54.78700 40.18000
C  24.69800 53.52700 40.99700
O  23.59700 52.97500 41.03800
O  25.79600 53.20200 41.76000
C  25.65600 51.92200 42.48000
H  31.66400 53.89800 39.09200
H  32.78200 60.06400 41.09600
H  26.49100 60.51600 42.27700
H  27.12700 52.61700 39.59500
H  29.65900 52.68700 38.22200
H  30.56500 52.38600 40.61800
H  29.85600 51.16700 39.73000
H  28.87600 52.05600 41.05900
H  26.03700 52.43400 37.68700
H  27.54500 52.45600 36.83100
H  27.10100 54.98700 37.19200
H  25.40200 54.50000 36.94300
H  34.59400 55.68500 37.72900
H  33.60900 54.31900 38.40900
H  34.96100 54.84100 39.26600
H  34.81300 60.09700 40.79600
H  34.21700 60.51700 39.25800
H  36.00100 60.20600 39.50600
H  30.71200 61.96600 40.89000
H  28.93600 61.70300 43.13800
H  32.09700 61.33100 43.48000
H  30.78200 62.52700 43.65900
H  32.09700 62.80300 42.55800
H  27.67900 62.01100 40.37700
H  29.00000 63.19100 40.84800
H  27.53400 64.38600 41.77200
H  27.05300 63.12300 42.93300
H  26.24500 63.29200 41.36400
H  23.02900 58.93100 41.31900
H  24.20400 60.30100 41.25800
H  23.89100 59.35600 42.79300
H  24.67600 54.50200 39.16700
H  26.66600 51.51400 42.43800
H  24.94200 51.27400 41.97200
H  25.27000 51.95700 43.49900

