158

Mg 24.07400 -4.97000 45.66400
C  26.20500 -2.52400 44.25600
C  21.62700 -3.87500 43.60900
C  22.45100 -8.01000 46.17200
C  26.89400 -6.28500 47.29300
N  23.94000 -3.32300 44.20600
C  24.88900 -2.48400 43.79300
C  24.40400 -1.52900 42.62600
C  22.76900 -1.77800 42.79500
C  22.74400 -3.04500 43.61900
C  22.12400 -0.61300 43.59000
C  24.96700 -2.04100 41.26100
C  25.10300 -0.94400 40.18100
H  24.73700 -1.23900 38.69900
N  22.25700 -5.79900 45.03200
C  21.35600 -5.15400 44.21800
C  20.14100 -5.99500 44.14000
C  20.35000 -7.10300 45.01500
C  21.76300 -7.02000 45.47600
C  19.07600 -5.63000 43.30500
C  19.23200 -8.06200 45.37900
O  18.12000 -7.90300 44.90200
C  19.35900 -9.08300 46.41000
N  24.60600 -7.00400 46.46400
C  23.72000 -7.95300 46.70000
C  24.43400 -9.11600 47.45900
C  25.88200 -8.54400 47.78500
C  25.80900 -7.15500 47.19200
C  23.52800 -9.66100 48.61400
C  27.12000 -9.38000 47.31200
C  27.92700 -9.90600 48.49400
N  26.12500 -4.46100 45.88700
C  27.06200 -5.09600 46.63900
C  28.21900 -4.27600 46.62300
C  28.02400 -3.26500 45.61200
C  26.69700 -3.44600 45.19100
C  29.53900 -4.42100 47.50800
C  28.52300 -2.12500 44.92000
O  29.56400 -1.50600 45.06400
C  27.38100 -1.70400 43.82700
C  27.23800 -0.23600 43.82100
O  26.96300 0.53000 44.73600
O  27.41500 0.17900 42.54900
C  27.16300 1.64600 42.43300
H  20.70500 -3.46100 43.19300
H  22.05500 -9.02700 46.21800
H  27.72200 -6.70200 47.86900
H  24.62700 -0.46200 42.66100
H  22.24300 -1.99500 41.86600
H  21.41300 -0.11800 42.92900
H  22.83200 0.04000 44.10100
H  21.56500 -1.03000 44.42800
H  24.36500 -2.81700 40.78800
H  25.91400 -2.57000 41.37100
H  26.16300 -0.72200 40.29800
H  24.58500 -0.04500 40.51500
H  19.40400 -5.74000 42.27200
H  18.87300 -4.56100 43.36500
H  18.19300 -6.26900 43.26600
H  18.36300 -9.40100 46.72100
H  19.90300 -8.68900 47.26900
H  19.94700 -9.87600 45.94800
H  24.67200 -10.01200 46.88600
H  25.98100 -8.55800 48.87100
H  23.97900 -9.41400 49.57500
H  23.36300 -10.73800 48.59800
H  22.52600 -9.25200 48.48000
H  27.80500 -8.78900 46.70400
H  26.82500 -10.23500 46.70500
H  27.49300 -10.84700 48.83300
H  27.95200 -9.18700 49.31200
H  28.91800 -10.20000 48.14900
H  30.39700 -4.47600 46.83800
H  29.47300 -5.32200 48.11800
H  29.77400 -3.59800 48.18200
H  27.74400 -2.08200 42.87100
H  27.29200 2.25100 43.33000
H  26.19800 1.73700 41.93300
H  27.98000 1.97600 41.79100
Mg 10.65700 47.09100 25.95100
C  8.42400 47.49200 28.57500
C  13.03400 48.55200 27.92700
C  12.79600 46.71800 23.43800
C  7.95200 46.18700 23.85700
N  10.66400 47.95100 28.02400
C  9.73500 47.84200 29.01800
C  10.32600 48.28900 30.34200
C  11.60600 49.06000 29.87200
C  11.79100 48.47100 28.50800
C  11.32900 50.54400 29.76000
C  10.54400 47.18100 31.32700
C  9.98300 47.58500 32.68600
H  9.95500 46.55700 33.81200
N  12.59700 47.51100 25.75500
C  13.44400 48.04500 26.67300
C  14.82100 47.92800 26.24300
C  14.77800 47.53700 24.93300
C  13.33000 47.23200 24.66100
C  15.94500 48.35600 27.16800
C  15.90900 47.42400 23.83700
O  15.70200 46.89000 22.76900
C  17.19400 48.00500 24.15400
N  10.32500 46.67500 23.88800
C  11.42100 46.49400 23.06200
C  10.95100 46.08200 21.68700
C  9.40900 45.75400 21.82500
C  9.22100 46.27400 23.26900
C  11.41900 46.99800 20.50800
C  9.05300 44.32700 21.40800
C  9.43100 43.12800 22.31400
N  8.58800 46.99200 26.06900
C  7.63600 46.56500 25.13400
C  6.34500 46.53400 25.75600
C  6.57500 46.82000 27.15900
C  7.98900 47.18100 27.25900
C  5.01200 46.06500 25.09400
C  5.99600 46.89600 28.46400
O  4.87900 46.72600 28.85100
C  7.16300 47.22500 29.47700
C  7.29100 46.08400 30.41300
O  8.04400 45.15600 30.21500
O  6.50400 46.20000 31.53900
C  6.53300 45.09100 32.49900
H  13.80800 49.04900 28.51700
H  13.43500 46.57500 22.56400
H  7.14300 45.91100 23.17800
H  9.66100 49.01900 30.80400
H  12.40400 48.96200 30.60800
H  10.26800 50.79000 29.74400
H  11.76500 50.91200 28.83100
H  11.74200 51.06800 30.62200
H  11.62900 47.10800 31.39500
H  9.98900 46.26300 31.13700
H  8.96300 47.94500 32.55200
H  10.57600 48.44700 32.99300
H  16.76200 47.65200 27.32800
H  15.56300 48.66300 28.14200
H  16.32200 49.24900 26.67000
H  17.77200 47.24800 24.68400
H  17.09900 48.89500 24.77600
H  17.65500 48.30100 23.21100
H  11.43900 45.13400 21.46100
H  8.88100 46.38400 21.10800
H  11.59100 47.99800 20.90700
H  10.57800 47.11300 19.82500
H  12.28000 46.68500 19.91800
H  9.44200 44.10500 20.41500
H  7.96500 44.37300 21.35800
H  9.51900 43.39500 23.36700
H  10.39900 42.78300 21.94900
H  8.68300 42.33900 22.23700
H  5.17000 45.44300 24.21300
H  4.50200 46.98700 24.81700
H  4.37500 45.48700 25.76300
H  7.06600 48.22100 29.90900
H  5.65200 44.48300 32.29400
H  6.51700 45.43600 33.53300
H  7.36300 44.39600 32.37800

