158

Mg 47.49800 34.47800 27.68400
C  46.03000 32.77900 30.34800
C  47.77100 37.22800 29.60100
C  48.77200 36.00700 24.97400
C  46.50000 31.72500 25.58100
N  47.11700 34.86300 29.76700
C  46.62100 34.02200 30.69600
C  46.62300 34.68400 32.04100
C  46.65100 36.22500 31.69500
C  47.13400 36.15100 30.24500
C  45.39500 37.12300 31.79800
C  47.83300 34.11500 32.80500
C  48.21000 34.51100 34.25200
H  47.10900 35.21300 35.11800
N  48.35000 36.37300 27.35200
C  48.39100 37.34000 28.23600
C  49.03700 38.46900 27.63900
C  49.40000 38.11700 26.26100
C  48.82300 36.77500 26.10600
C  49.18200 39.79200 28.39000
C  50.07700 38.89200 25.25200
O  50.38700 38.42100 24.19500
C  50.62900 40.33000 25.50600
N  47.54300 33.95800 25.50700
C  48.17100 34.76600 24.66000
C  48.24400 34.09800 23.28200
C  47.41200 32.78800 23.42300
C  47.11700 32.80200 24.93200
C  47.84900 35.04000 22.13900
C  48.10200 31.54300 22.96600
C  47.18900 30.51800 22.24800
N  46.45600 32.71500 27.84700
C  46.21600 31.63000 26.93400
C  45.61000 30.49800 27.66400
C  45.52600 30.88500 29.02200
C  46.05300 32.22300 29.05200
C  45.32200 29.14500 27.12000
C  45.15800 30.51700 30.38900
O  44.64700 29.48100 30.81300
C  45.13900 31.84700 31.16200
C  45.23600 31.72000 32.62000
O  46.24400 31.27900 33.17400
O  44.04400 32.13300 33.19300
C  43.96300 32.24800 34.61500
H  47.80000 38.15000 30.18600
H  49.24000 36.48900 24.11300
H  46.14000 30.93200 24.92200
H  45.67900 34.36800 32.48600
H  47.50400 36.63000 32.23900
H  45.13600 37.36300 32.83000
H  44.51700 36.60900 31.40500
H  45.43000 38.09600 31.30900
H  48.73500 34.46100 32.29900
H  47.89400 33.03400 32.68100
H  49.11500 35.10200 34.39500
H  48.38900 33.61700 34.84900
H  50.18900 39.93600 28.78200
H  48.49000 39.83700 29.23100
H  49.01100 40.69000 27.79700
H  51.19700 40.65700 24.63400
H  51.08900 40.35400 26.49400
H  49.75600 40.97700 25.59400
H  49.28500 33.84900 23.07700
H  46.47700 32.89200 22.87200
H  47.09900 35.78700 22.40000
H  47.31100 34.46100 21.38800
H  48.73000 35.58900 21.80900
H  48.52400 30.91200 23.74800
H  48.97800 31.65800 22.32800
H  46.53100 30.92500 21.48000
H  46.53900 30.12400 23.03000
H  47.72700 29.65400 21.85800
H  45.46300 29.15400 26.03900
H  44.27300 28.92100 27.31700
H  46.00000 28.44400 27.60700
H  44.13300 32.22600 30.98000
H  44.51800 31.44800 35.10600
H  42.91700 32.27300 34.92100
H  44.55400 33.11800 34.90000
Mg 30.07100 58.97800 38.64400
C  27.28200 56.92100 38.07200
C  32.03100 56.26200 37.76100
C  32.69200 61.01300 38.30000
C  27.93900 61.69600 38.81900
N  29.64900 56.74600 38.23600
C  28.45200 56.20800 37.87600
C  28.67500 54.88400 37.24700
C  30.18500 54.52800 37.60000
C  30.67300 55.91400 37.90500
C  30.42500 53.52500 38.83700
C  28.36800 54.82900 35.65100
C  27.16000 53.93600 35.19400
H  26.14400 54.55700 34.27600
N  32.13400 58.68900 38.28100
C  32.71600 57.46200 37.95700
C  34.11700 57.56400 37.96600
C  34.42600 58.97100 38.10600
C  33.11700 59.66000 38.26600
C  35.09400 56.43700 37.79800
C  35.84600 59.57500 38.20000
O  36.91500 58.95500 38.20100
C  35.89000 61.10400 38.28200
N  30.28600 61.04800 38.53600
C  31.50900 61.63800 38.55400
C  31.37700 63.23900 38.78500
C  29.80600 63.37400 38.79300
C  29.26100 61.96000 38.58500
C  32.17500 63.77700 40.01900
C  29.10700 64.42600 37.89000
C  28.38500 65.54800 38.61400
N  28.08000 59.30700 38.55300
C  27.34000 60.40100 38.79900
C  25.92800 60.06000 38.78600
C  25.87000 58.72000 38.51200
C  27.19800 58.27300 38.38900
C  24.76100 60.95300 38.87600
C  24.96800 57.62400 38.29900
O  23.74300 57.48600 38.37300
C  25.84100 56.43100 37.93800
C  25.63500 55.25000 38.78900
O  26.20100 55.01200 39.81300
O  24.63900 54.54300 38.25800
C  24.47400 53.27200 39.00000
H  32.71100 55.45300 37.48200
H  33.56700 61.65900 38.19900
H  27.27300 62.54900 38.96800
H  28.05800 54.21000 37.84200
H  30.69400 54.12300 36.72500
H  29.48600 53.06600 39.14600
H  30.84100 54.08600 39.67500
H  31.17100 52.78000 38.56000
H  29.24600 54.56800 35.06000
H  28.10500 55.84000 35.33900
H  26.64000 53.55800 36.07400
H  27.51600 53.06400 34.64500
H  34.75600 55.46100 38.14500
H  36.04800 56.67800 38.26800
H  35.34100 56.39400 36.73700
H  36.93300 61.42000 38.25700
H  35.40800 61.38500 39.21900
H  35.46100 61.54700 37.38300
H  31.65900 63.80700 37.89800
H  29.59400 63.68300 39.81600
H  32.58700 62.93000 40.56700
H  31.57300 64.44500 40.63400
H  33.05100 64.27700 39.60800
H  28.43400 63.85500 37.25100
H  29.90000 64.88300 37.29700
H  27.33000 65.65400 38.36200
H  28.85200 66.49800 38.35500
H  28.49400 65.41900 39.69100
H  25.01900 61.99000 38.65900
H  24.30900 60.91300 39.86700
H  24.04200 60.74000 38.08500
H  25.60200 56.04900 36.94600
H  24.26200 53.51400 40.04100
H  25.41300 52.71900 39.01700
H  23.64700 52.63100 38.69500

