158

Mg 54.67400 22.91600 45.10100
C  52.40500 25.15000 43.73700
C  52.50300 20.31600 44.04900
C  57.10800 20.69200 45.57800
C  56.78800 25.62100 45.83100
N  52.74700 22.85800 44.06700
C  51.98700 23.83600 43.59100
C  50.65000 23.36000 43.00100
C  50.52000 21.87100 43.57500
C  52.04200 21.66900 43.95900
C  49.53700 21.67200 44.78300
C  50.47000 23.47200 41.47800
C  49.08700 23.88400 40.96600
H  48.59000 23.21100 39.66600
N  54.82200 20.75200 44.84200
C  53.84800 19.92000 44.34600
C  54.34600 18.55900 44.41600
C  55.73300 18.63100 44.91800
C  55.97000 20.08700 45.13900
C  53.59500 17.40400 43.82100
C  56.59800 17.45200 45.08900
O  56.23200 16.32300 44.76400
C  58.05900 17.61900 45.42700
N  56.79200 23.15000 45.36800
C  57.51600 22.05300 45.74100
C  58.80400 22.50700 46.46900
C  58.60500 24.08800 46.70100
C  57.36600 24.34200 45.77700
C  59.25400 21.76000 47.78800
C  59.83900 24.99600 46.30300
C  60.48200 25.80800 47.45700
N  54.59800 25.05500 45.01400
C  55.51400 26.05700 45.29300
C  54.85300 27.25200 45.23200
C  53.64500 26.94100 44.60400
C  53.59400 25.59800 44.41500
C  55.25600 28.62800 45.62500
C  52.44000 27.54900 44.10100
O  52.03100 28.72000 43.97500
C  51.63100 26.41800 43.50300
C  51.56400 26.73600 42.08100
O  52.50600 26.68400 41.33900
O  50.34700 27.22100 41.75500
C  50.24500 27.53300 40.29800
H  51.78400 19.49500 44.06700
H  57.97100 20.05900 45.79400
H  57.32900 26.52200 46.12800
H  49.82900 23.92600 43.44100
H  50.22200 21.11000 42.85300
H  49.94800 21.04000 45.57100
H  48.60500 21.17000 44.52200
H  49.35700 22.65100 45.22700
H  50.66800 22.52700 40.97200
H  51.19200 24.21200 41.13500
H  48.90800 24.92300 40.68700
H  48.38300 23.68000 41.77200
H  52.78500 17.70900 43.15800
H  53.26500 16.67600 44.56300
H  54.32400 16.95400 43.14700
H  58.60700 18.19900 44.68400
H  58.52900 16.64100 45.32800
H  58.25100 17.90900 46.46000
H  59.67500 22.38800 45.82500
H  58.33000 24.31500 47.73100
H  59.40700 22.45000 48.61800
H  60.23000 21.29700 47.64900
H  58.54300 20.97100 48.03300
H  59.66100 25.69900 45.48900
H  60.63300 24.35400 45.92200
H  60.37900 26.86500 47.21300
H  61.52600 25.62100 47.71100
H  59.89900 25.65800 48.36500
H  55.36200 28.72000 46.70600
H  54.51100 29.32800 45.24600
H  56.22900 28.87600 45.20200
H  50.63200 26.43500 43.93700
H  51.02600 28.15600 39.86300
H  49.30300 27.89700 39.88700
H  50.33800 26.58400 39.76900
Mg 35.22700 48.61000 24.95500
C  35.52100 47.16500 28.21400
C  33.83800 51.34500 26.51800
C  34.74400 49.87500 22.01800
C  36.21900 45.55500 23.67100
N  34.75400 49.11500 27.11500
C  35.10400 48.50000 28.26400
C  34.79500 49.33100 29.47100
C  34.08700 50.57000 28.88600
C  34.11900 50.30700 27.39600
C  32.61700 50.89200 29.40900
C  36.01100 49.61100 30.41600
C  35.82500 49.20600 31.82200
H  34.58700 49.48400 32.62400
N  34.64700 50.43500 24.39100
C  34.06000 51.43400 25.14500
C  33.71900 52.55900 24.33500
C  33.96800 52.12600 23.00200
C  34.52900 50.78200 23.09300
C  33.49400 53.99800 24.89400
C  33.70200 52.96900 21.75300
O  34.11700 52.64400 20.63500
C  33.16300 54.34300 21.83500
N  35.34000 47.74400 23.02800
C  35.15100 48.53200 21.95300
C  35.92300 47.83600 20.71900
C  36.50500 46.47700 21.30000
C  36.05700 46.61400 22.78400
C  34.93600 47.83500 19.53000
C  38.04700 46.24800 21.14400
C  38.58200 45.94800 19.75300
N  35.60800 46.65400 25.73600
C  36.02000 45.55800 25.09200
C  36.26300 44.42600 25.94200
C  36.04100 45.01300 27.26200
C  35.70800 46.38200 27.04700
C  36.59700 43.07800 25.51400
C  36.01200 44.76800 28.71300
O  36.24500 43.70800 29.29000
C  35.64800 46.19700 29.35500
C  34.36600 45.92800 30.03500
O  33.25100 45.87500 29.51400
O  34.68200 45.61000 31.34600
C  33.56400 45.03900 32.10400
H  33.28900 52.12400 27.05300
H  34.73700 50.36200 21.04100
H  36.63900 44.63500 23.26000
H  34.03000 48.80500 30.04300
H  34.76700 51.41300 29.01000
H  32.12500 50.02000 29.83900
H  32.04400 51.39400 28.62900
H  32.80500 51.61000 30.20800
H  36.33000 50.65300 30.38500
H  36.85700 49.02900 30.05200
H  36.66800 49.40200 32.48400
H  35.89400 48.11800 31.80000
H  34.28500 54.66100 24.54500
H  33.61700 54.11300 25.97100
H  32.55100 54.45500 24.59200
H  33.90200 55.04100 22.23000
H  32.14200 54.42000 22.20900
H  33.13400 54.70600 20.80800
H  36.79100 48.48400 20.59800
H  35.90400 45.63500 20.95700
H  33.89300 47.80300 19.84600
H  35.23300 46.98600 18.91500
H  35.02200 48.73000 18.91300
H  38.24100 45.34500 21.72200
H  38.60500 47.04600 21.63500
H  39.44700 46.61100 19.77800
H  37.89600 46.20600 18.94700
H  39.02000 44.95300 19.67800
H  36.30900 42.85000 24.48800
H  36.14100 42.34800 26.18200
H  37.67900 42.94900 25.54700
H  36.52600 46.36800 29.97800
H  33.52100 45.38100 33.13800
H  33.73200 43.96300 32.09000
H  32.64300 45.30300 31.58400

