158

Mg 44.92600 4.70900 45.98100
C  43.31400 7.76900 46.04500
C  41.85900 3.17800 45.32800
C  46.63900 1.91200 45.31000
C  48.02000 6.56300 45.82400
N  42.86200 5.43400 45.44800
C  42.36500 6.74900 45.77200
C  40.91200 6.87200 45.51400
C  40.50900 5.32600 45.54000
C  41.82700 4.53100 45.52800
C  39.44700 4.94700 46.64800
C  40.65600 7.60400 44.21100
C  41.49900 7.15200 42.99700
H  40.76700 6.71900 41.72100
N  44.30200 2.79100 45.43400
C  43.01600 2.34000 45.17100
C  43.00600 0.95600 44.79000
C  44.41600 0.54800 44.88200
C  45.18900 1.75600 45.37500
C  41.81100 0.18000 44.46200
C  44.84500 -0.85900 44.52200
O  44.10400 -1.72200 44.07800
C  46.25900 -1.28300 44.64500
N  47.13700 4.33400 45.60500
C  47.50500 2.99300 45.44300
C  49.02600 2.93200 45.23400
C  49.38100 4.43200 45.62800
C  48.09400 5.18000 45.69000
C  49.70700 1.85100 46.19600
C  50.52900 5.09100 44.84400
C  51.57900 5.73900 45.74000
N  45.55800 6.74400 45.90100
C  46.80000 7.34100 45.94900
C  46.71900 8.74000 46.07200
C  45.30000 8.94400 46.16400
C  44.66100 7.70100 46.05100
C  47.71500 9.78700 46.09400
C  44.34800 9.94400 46.47200
O  44.53500 11.15800 46.69600
C  42.97800 9.21100 46.31400
C  42.13200 9.39600 47.52000
O  41.97600 8.54000 48.38600
O  41.38800 10.60300 47.46600
C  40.44400 10.66100 48.59300
H  40.85400 2.78800 45.15600
H  47.12500 0.96600 45.06000
H  48.96600 7.09600 45.93400
H  40.40600 7.27500 46.39100
H  39.96900 5.00200 44.65100
H  38.68200 5.69400 46.86300
H  39.93500 4.58800 47.55400
H  38.97900 4.07700 46.18800
H  40.72400 8.68600 44.32000
H  39.63000 7.30000 44.00300
H  42.20700 6.33700 43.15100
H  42.07600 7.99500 42.61800
H  41.87100 -0.60400 43.70700
H  40.95200 0.77700 44.15400
H  41.64000 -0.28200 45.43400
H  46.22600 -2.29100 44.23300
H  46.54800 -1.34000 45.69500
H  46.81000 -0.56600 44.03600
H  49.33200 2.60500 44.24000
H  49.64400 4.33700 46.68100
H  49.96500 0.97600 45.59900
H  48.98200 1.52100 46.94000
H  50.58100 2.26800 46.69600
H  50.15900 5.87300 44.18000
H  51.07000 4.42600 44.17000
H  51.52300 5.35800 46.75900
H  51.40300 6.81500 45.72200
H  52.54900 5.50600 45.30100
H  48.59100 9.31400 45.65000
H  47.95500 10.08600 47.11500
H  47.31200 10.68200 45.61900
H  42.49500 9.59100 45.41400
H  41.02500 10.77600 49.50800
H  39.73100 9.83700 48.57300
H  39.90800 11.60900 48.53400
Mg 43.08700 42.36900 27.18900
C  42.19000 44.58900 29.66200
C  43.92200 40.01200 29.48200
C  44.54500 40.49900 24.80600
C  42.75500 45.05600 24.89500
N  43.13900 42.38100 29.25300
C  42.51100 43.29000 30.06200
C  42.49100 42.85500 31.58500
C  43.17600 41.46100 31.49600
C  43.39400 41.22000 29.97900
C  44.47800 41.22200 32.31400
C  41.02700 42.81600 32.12200
C  40.74900 43.72800 33.34200
H  40.48000 43.06200 34.71500
N  43.93500 40.50500 27.17300
C  44.21800 39.67000 28.21800
C  44.95900 38.48700 27.76900
C  45.05800 38.59500 26.31200
C  44.49200 39.89800 26.03900
C  45.47900 37.40900 28.64900
C  45.63500 37.59500 25.36100
O  45.87100 37.79300 24.19100
C  45.80900 36.20600 25.86500
N  43.45400 42.69500 25.16600
C  44.13000 41.76900 24.41600
C  44.02600 42.17000 22.93400
C  43.50700 43.63500 22.99800
C  43.15400 43.84300 24.40100
C  45.39100 42.02800 22.10100
C  42.55000 44.10400 21.93800
C  41.07100 44.31100 22.30800
N  42.55800 44.44600 27.19500
C  42.44800 45.37800 26.23200
C  41.91100 46.60100 26.77200
C  41.83300 46.32800 28.14700
C  42.25100 44.96700 28.32700
C  41.46100 47.88000 26.01900
C  41.64200 46.95700 29.43800
O  41.38800 48.09400 29.78300
C  41.73400 45.75300 30.52200
C  42.70000 46.13000 31.56900
O  43.93900 46.17700 31.51200
O  42.02600 46.48600 32.66300
C  42.79500 47.05200 33.78200
H  44.15800 39.20600 30.18000
H  45.11700 39.98400 24.03100
H  42.60500 45.86500 24.17600
H  42.99300 43.65400 32.13200
H  42.50200 40.68500 31.86000
H  44.64200 42.18000 32.80800
H  45.30600 40.94200 31.66300
H  44.42800 40.32200 32.92700
H  40.77900 41.78300 32.36700
H  40.39300 43.01500 31.25800
H  39.93600 44.41000 33.09400
H  41.61400 44.33100 33.61700
H  45.46400 37.58700 29.72400
H  46.51100 37.39100 28.29900
H  45.09000 36.40000 28.51400
H  46.06000 35.49200 25.08000
H  44.83700 35.87900 26.23400
H  46.58400 36.26300 26.63000
H  43.31500 41.61000 22.32600
H  44.36400 44.29800 22.88700
H  46.14700 41.89700 22.87600
H  45.66900 42.87500 21.47400
H  45.55100 41.21500 21.39200
H  42.54100 43.38700 21.11600
H  42.95600 45.02300 21.51500
H  40.92500 43.96400 23.33000
H  40.36500 43.83300 21.62900
H  40.78700 45.36200 22.24800
H  41.48100 47.80200 24.93200
H  42.05500 48.76700 26.23900
H  40.44100 48.08600 26.34500
H  40.75400 45.60300 30.97300
H  43.12600 48.05900 33.52500
H  43.66400 46.45700 34.06000
H  42.21100 47.04400 34.70200

