158

Mg 43.41000 3.84900 47.23000
C  41.35400 6.62900 46.73300
C  40.82100 1.79900 46.62200
C  45.48400 1.23100 47.26700
C  46.06300 5.95200 47.65000
N  41.28100 4.21500 46.68700
C  40.64800 5.40800 46.57500
C  39.18800 5.19300 46.29500
C  39.07600 3.62100 46.42000
C  40.44700 3.17100 46.60900
C  38.17400 3.04700 47.57300
C  38.72900 5.84500 44.93600
C  37.35900 5.28300 44.52100
H  37.52200 4.62300 43.19900
N  43.17900 1.77000 46.82200
C  41.98700 1.08900 46.61100
C  42.21900 -0.33600 46.41900
C  43.63800 -0.52000 46.61100
C  44.17500 0.83800 46.93900
C  41.09600 -1.32000 45.99400
C  44.27900 -1.84100 46.56900
O  43.62800 -2.84800 46.35400
C  45.77500 -2.06200 46.75500
N  45.50800 3.59900 47.20700
C  46.05300 2.43000 47.41500
C  47.59300 2.58100 47.54100
C  47.79400 4.09900 47.56100
C  46.34300 4.57700 47.49600
C  48.28800 1.72800 48.65900
C  48.69600 4.60900 46.40300
C  50.17900 4.44500 46.61900
N  43.64100 5.87600 47.30000
C  44.82000 6.61300 47.38100
C  44.58000 8.03100 47.40200
C  43.21300 8.07600 47.21000
C  42.69900 6.73200 47.02700
C  45.53100 9.14900 47.66500
C  42.07000 9.01200 46.98400
O  42.08000 10.23800 47.06100
C  40.75300 8.07500 46.86700
C  39.98300 8.34900 48.09500
O  39.83100 7.60000 49.06900
O  39.24700 9.45700 47.76500
C  38.05900 9.60000 48.58000
H  39.97900 1.10700 46.55600
H  46.17700 0.40500 47.44200
H  46.98700 6.50400 47.83400
H  38.65800 5.68100 47.11300
H  38.71600 3.13000 45.51700
H  38.70200 2.78700 48.49000
H  37.79100 2.05000 47.36000
H  37.34600 3.73200 47.75900
H  39.53700 5.64500 44.23200
H  38.50900 6.90700 45.04100
H  36.63600 6.09700 44.45700
H  36.97200 4.55000 45.22900
H  40.86900 -2.11800 46.70100
H  41.34400 -1.93700 45.13000
H  40.09600 -0.91200 45.84400
H  46.19900 -1.31800 46.07900
H  46.10800 -3.08600 46.58600
H  45.99400 -1.70500 47.76100
H  47.92800 2.15900 46.59400
H  48.22300 4.31200 48.54100
H  47.62100 1.23300 49.36400
H  49.07500 2.32000 49.12600
H  48.85600 0.93800 48.16600
H  48.54800 5.68800 46.44500
H  48.51500 4.25800 45.38700
H  50.67300 5.38800 46.38600
H  50.66700 3.62500 46.09200
H  50.37700 4.17300 47.65500
H  46.44400 8.90500 47.12200
H  45.60900 9.22400 48.74900
H  45.04100 10.00100 47.19200
H  40.12600 8.38100 46.02900
H  38.17300 10.45100 49.25100
H  37.78500 8.71500 49.15300
H  37.21600 9.82900 47.92800
Mg 41.02100 7.79500 29.52100
C  42.92200 9.22400 32.08100
C  38.65000 6.80200 31.81800
C  39.54900 5.99500 27.12500
C  43.81600 8.03900 27.34700
N  40.86700 7.90700 31.74900
C  41.68500 8.73200 32.54700
C  41.03000 8.81000 33.96300
C  39.82000 7.86200 33.95300
C  39.75700 7.40000 32.43800
C  39.75300 6.64200 34.85000
C  40.72900 10.35900 34.16900
C  40.03500 10.72600 35.47400
H  40.75200 11.67200 36.45700
N  39.35800 6.61000 29.54600
C  38.41300 6.44800 30.50800
C  37.31200 5.70100 30.02700
C  37.51800 5.41500 28.66400
C  38.91100 5.93600 28.41000
C  36.09600 5.36000 30.93100
C  36.62000 4.72600 27.63300
O  36.98600 4.49600 26.45400
C  35.10300 4.44400 27.95800
N  41.58500 7.07500 27.48900
C  40.75300 6.41700 26.74500
C  41.31700 6.07000 25.39400
C  42.50100 7.05700 25.35200
C  42.72100 7.28900 26.83300
C  41.60100 4.64500 25.04900
C  42.23200 8.39600 24.58200
C  43.43500 9.38800 24.16200
N  42.95000 8.47700 29.63600
C  43.96800 8.47000 28.66400
C  45.07100 9.17300 29.17200
C  44.72500 9.45000 30.51800
C  43.45100 9.01500 30.74800
C  46.27600 9.66300 28.42600
C  45.15100 10.11100 31.77000
O  46.20100 10.65500 32.06700
C  43.98600 10.00900 32.85600
C  44.48800 9.31400 34.06400
O  44.92300 8.16300 34.04900
O  44.39700 10.08800 35.20700
C  44.38300 9.28500 36.45000
H  37.84300 6.69100 32.54600
H  39.07200 5.40800 26.33700
H  44.69300 8.13500 26.70300
H  41.76900 8.48400 34.69400
H  38.85400 8.35100 34.07500
H  39.97300 5.73800 34.28200
H  38.89700 6.59600 35.52400
H  40.54400 6.67600 35.59900
H  40.23200 10.80400 33.30800
H  41.64000 10.95500 34.22600
H  39.87400 9.77300 35.97700
H  39.15500 11.33400 35.26300
H  35.17100 5.75700 30.51400
H  36.15300 5.61200 31.99000
H  36.01200 4.27400 30.95600
H  35.07200 3.80800 28.84300
H  34.56700 3.95500 27.14400
H  34.55400 5.36900 28.13600
H  40.63300 6.44200 24.63100
H  43.31900 6.58300 24.81000
H  41.06500 3.86700 25.59300
H  42.66800 4.54900 25.24600
H  41.44900 4.51500 23.97700
H  41.64100 8.92800 25.32700
H  41.56700 8.07300 23.78100
H  43.39100 9.48900 23.07800
H  44.30900 8.85400 24.53600
H  43.33500 10.39200 24.57600
H  45.86700 9.90400 27.44500
H  47.01000 8.86500 28.31800
H  46.67100 10.62300 28.75900
H  43.79300 11.03700 33.16200
H  45.42900 9.13000 36.71700
H  43.81200 8.37000 36.29300
H  43.90200 9.78800 37.28800

