158

Mg 1.58900 7.61600 25.43800
C  1.68200 9.21200 28.35300
C  1.53400 4.50600 27.10300
C  1.30300 5.83000 22.41800
C  2.34800 10.33300 23.63400
N  1.52700 6.91700 27.58500
C  1.54300 7.83500 28.61900
C  1.62500 7.04800 29.97600
C  1.79500 5.56400 29.49500
C  1.59600 5.63200 27.97000
C  3.17500 4.92400 29.79800
C  0.44400 7.32200 30.86200
C  0.53300 7.05200 32.35900
H  1.96200 6.72400 33.09700
N  1.33400 5.49600 24.84600
C  1.42700 4.42500 25.70500
C  1.40500 3.21300 24.97800
C  1.27200 3.55300 23.56200
C  1.29600 4.99400 23.54200
C  1.65800 1.83700 25.60300
C  1.07500 2.67800 22.31000
O  1.10000 3.11800 21.18600
C  1.12000 1.13600 22.62500
N  1.43400 8.01200 23.34100
C  1.36000 7.17800 22.30600
C  1.60700 7.90600 20.93700
C  1.69600 9.38900 21.34200
C  1.88500 9.24200 22.85500
C  2.89000 7.36600 20.17800
C  0.52600 10.35200 20.90000
C  -0.82500 10.13700 21.71900
N  1.94400 9.37700 25.87300
C  2.31600 10.43600 25.07000
C  2.42600 11.66600 25.76500
C  2.18300 11.31500 27.13400
C  1.87800 9.87500 27.07200
C  2.73000 13.01400 25.12200
C  2.12700 11.69000 28.46600
O  2.29900 12.85200 28.88700
C  1.78500 10.36900 29.32000
C  2.87600 10.26300 30.31600
O  3.99500 9.74800 30.10500
O  2.49700 10.83400 31.54100
C  3.63900 10.79800 32.47500
H  1.35700 3.66300 27.77400
H  1.28100 5.35600 21.43400
H  2.57900 11.27500 23.13300
H  2.38100 7.53100 30.59500
H  1.08800 5.00600 30.11000
H  3.02000 3.94000 30.24200
H  3.81500 5.53200 30.43700
H  3.65300 4.97900 28.82000
H  -0.42200 6.72500 30.57500
H  0.12000 8.34800 30.69000
H  -0.22200 6.33500 32.68200
H  0.21300 7.97100 32.84900
H  2.48800 1.36500 25.07900
H  0.73200 1.26600 25.66600
H  2.02100 1.80800 26.63100
H  0.35000 0.79400 23.31700
H  2.06100 0.87400 23.10900
H  0.99100 0.66700 21.65000
H  0.72500 7.59200 20.37900
H  2.62200 9.76300 20.90600
H  3.65300 6.88700 20.79200
H  3.37100 8.18100 19.63800
H  2.58300 6.59400 19.47200
H  0.28800 10.04000 19.88400
H  0.90400 11.37000 20.80600
H  -0.68800 9.39300 22.50400
H  -1.69700 9.96300 21.08900
H  -1.02800 11.11300 22.16000
H  3.75600 13.27600 25.38000
H  1.91500 13.57000 25.58500
H  2.50800 13.14700 24.06300
H  0.83000 10.50100 29.82800
H  4.51400 11.27000 32.02700
H  3.93600 9.75900 32.61500
H  3.54200 11.12300 33.51100
Mg 41.03400 8.88600 29.02800
C  43.10700 9.91500 31.66200
C  38.96500 7.54500 31.29000
C  39.22400 7.70000 26.46000
C  43.62800 9.73200 26.89500
N  41.06000 8.84100 31.16500
C  41.94600 9.32900 32.05800
C  41.45500 9.24300 33.52700
C  40.11700 8.51100 33.36300
C  40.09600 8.19200 31.88100
C  39.92600 7.23100 34.20500
C  41.42800 10.67100 34.19300
C  40.24200 11.10500 35.14000
H  40.67700 11.68900 36.49900
N  39.27700 7.86400 28.86400
C  38.60600 7.32000 29.93800
C  37.39200 6.70600 29.43100
C  37.44100 6.66200 28.01700
C  38.67300 7.49300 27.71500
C  36.42500 5.98400 30.38500
C  36.47500 5.99700 26.96200
O  36.78800 5.86300 25.76300
C  35.10200 5.49300 27.39700
N  41.43100 8.67200 27.04700
C  40.49900 8.19400 26.13500
C  41.03100 8.27300 24.70100
C  42.45000 8.97000 24.84900
C  42.48800 9.23300 26.35800
C  41.05400 6.93400 24.01000
C  42.59700 10.14500 23.87600
C  42.24300 11.63400 24.30600
N  43.02000 9.68700 29.17900
C  43.98200 10.00400 28.24800
C  45.19500 10.63900 28.75700
C  44.86000 10.70100 30.18600
C  43.59700 10.03700 30.34500
C  46.52600 11.01900 28.00600
C  45.22200 11.14500 31.50100
O  46.19200 11.82000 31.81200
C  44.14600 10.64000 32.48100
C  44.70100 9.71500 33.44200
O  44.59700 8.50800 33.41800
O  45.20400 10.40000 34.47200
C  45.40700 9.50200 35.63500
H  38.11800 7.38100 31.95900
H  38.66700 7.30100 25.61000
H  44.37200 10.01800 26.14800
H  42.12800 8.51300 33.97600
H  39.23000 9.13000 33.49600
H  38.97600 6.93400 34.64900
H  40.62800 7.05500 35.02000
H  40.11900 6.34700 33.59800
H  41.38300 11.42300 33.40600
H  42.37000 10.74200 34.73700
H  39.56400 10.28300 35.36700
H  39.68200 11.84500 34.56800
H  35.48900 6.54100 30.33500
H  36.82800 5.85700 31.39000
H  36.11600 5.01500 29.99300
H  35.35500 4.57200 27.92300
H  34.53500 5.24700 26.49900
H  34.47000 6.05500 28.08400
H  40.24900 8.89700 24.26900
H  43.30600 8.31600 24.68000
H  42.11000 6.74100 23.82000
H  40.27000 6.96900 23.25400
H  40.80000 6.13100 24.70200
H  41.87300 9.91100 23.09600
H  43.56400 10.05300 23.38100
H  41.39200 11.98800 23.72400
H  43.07600 12.27700 24.02200
H  42.20700 11.54100 25.39100
H  46.32500 12.04100 27.68600
H  46.69700 10.36700 27.14900
H  47.39300 11.06400 28.66500
H  43.66600 11.56500 32.80200
H  45.99400 8.59900 35.47000
H  44.55700 9.19500 36.24500
H  45.87200 10.21400 36.31800

