158

Mg 46.68800 16.84700 28.72900
C  44.64900 16.66600 31.48900
C  48.79400 18.91500 30.56900
C  48.40300 17.52300 25.97500
C  44.19400 15.27500 26.82500
N  46.66100 17.71500 30.78800
C  45.76100 17.47800 31.72100
C  46.11800 17.91500 33.11300
C  47.41600 18.81800 32.75100
C  47.62300 18.56800 31.22100
C  47.46400 20.32000 33.12300
C  46.38800 16.77700 34.07200
C  46.55400 17.06100 35.54000
H  46.29500 18.45300 36.02600
N  48.39300 18.02900 28.36000
C  49.08100 18.75000 29.21100
C  50.24400 19.33100 28.52500
C  50.13600 19.00000 27.15100
C  48.94300 18.12200 27.12700
C  51.35000 20.12700 29.20500
C  50.95300 19.34400 25.95200
O  50.70600 18.97600 24.78200
C  52.23300 20.10800 26.20700
N  46.36800 16.47600 26.73500
C  47.23900 16.79000 25.80800
C  46.89200 16.40000 24.43300
C  45.61100 15.49100 24.66200
C  45.36600 15.74800 26.16400
C  46.72300 17.67200 23.54300
C  45.74400 13.97500 24.21800
C  44.83400 13.63800 22.97000
N  44.75500 16.03100 29.01800
C  43.82800 15.49300 28.17200
C  42.70800 15.06300 28.87400
C  42.90900 15.52100 30.24500
C  44.23700 16.04100 30.22600
C  41.54500 14.40800 28.32600
C  42.43700 15.66200 31.54600
O  41.32600 15.48400 31.97000
C  43.52000 16.31900 32.47100
C  42.86000 17.47000 33.21800
O  42.64600 18.59500 32.76800
O  42.45000 17.07800 34.46500
C  42.02300 18.04900 35.42600
H  49.53100 19.41600 31.20100
H  49.01800 17.58000 25.07400
H  43.38900 14.77400 26.28300
H  45.21600 18.46500 33.38200
H  48.28900 18.41900 33.26800
H  47.44800 20.89300 32.19600
H  48.37300 20.31500 33.72400
H  46.56200 20.48900 33.71200
H  47.29900 16.28600 33.72900
H  45.59100 16.03400 34.07800
H  47.48500 16.62900 35.90600
H  45.79000 16.53900 36.11600
H  51.23000 21.14300 28.82900
H  52.28000 19.57000 29.08700
H  51.17600 20.20800 30.27800
H  51.95500 21.12500 26.48500
H  52.78700 20.03400 25.27200
H  52.76400 19.61700 27.02200
H  47.71500 15.75300 24.12700
H  44.76500 16.00000 24.20100
H  46.78800 18.44900 24.30500
H  45.71400 17.79400 23.14900
H  47.38400 17.73200 22.67900
H  45.27900 13.38300 25.00600
H  46.76200 13.73200 23.91400
H  45.45100 13.01100 22.32700
H  44.43300 14.49100 22.42200
H  44.04400 12.95300 23.27700
H  41.71400 13.33200 28.29700
H  41.38600 14.79100 27.31800
H  40.58400 14.59300 28.80500
H  43.73800 15.54500 33.20600
H  41.11300 18.49600 35.02600
H  42.79400 18.78500 35.65400
H  41.61400 17.75500 36.39300
Mg -11.70000 16.29000 41.91600
C  -9.00300 14.11400 41.30100
C  -10.23800 18.64600 39.91500
C  -14.54800 17.97800 41.79300
C  -13.61100 13.37600 42.73700
N  -9.82000 16.37800 40.80000
C  -8.84900 15.45000 40.75200
C  -7.56800 15.88700 39.89400
C  -7.94600 17.38700 39.58700
C  -9.47000 17.46400 40.07900
C  -6.92900 18.39600 40.18900
C  -7.27700 15.03600 38.62900
C  -5.77400 14.92700 38.45900
H  -5.32200 15.77800 37.25400
N  -12.16500 18.12200 41.26500
C  -11.41000 18.98700 40.48200
C  -12.10800 20.19800 40.19900
C  -13.34700 20.04200 40.93600
C  -13.41700 18.68400 41.46200
C  -11.70400 21.33900 39.21500
C  -14.49300 21.03900 41.08800
O  -14.34200 22.11400 40.53900
C  -15.67600 20.95200 42.03000
N  -13.84200 15.76300 42.14000
C  -14.77300 16.65600 42.15400
C  -16.16000 16.08400 42.30800
C  -15.90200 14.60500 42.54300
C  -14.39900 14.51200 42.48100
C  -17.09300 16.88500 43.33600
C  -16.56700 13.59200 41.54600
C  -18.11800 13.56000 41.49000
N  -11.38200 14.23200 42.08400
C  -12.24400 13.16100 42.47400
C  -11.53200 11.89700 42.66800
C  -10.22000 12.23200 42.19500
C  -10.25500 13.61900 41.78200
C  -12.01000 10.49000 43.08000
C  -8.86400 11.73100 41.90900
O  -8.34200 10.60400 41.83900
C  -8.04800 12.95300 41.37600
C  -6.85900 13.34800 42.23800
O  -6.86700 13.42900 43.45800
O  -5.79300 13.58500 41.35900
C  -4.54600 13.73700 42.13300
H  -9.65500 19.27000 39.23600
H  -15.53200 18.45300 41.78200
H  -14.10700 12.47200 43.09700
H  -6.77300 15.88500 40.63900
H  -7.95700 17.49500 38.50200
H  -7.58700 19.00200 40.81100
H  -6.47900 18.91000 39.34000
H  -6.15100 17.92400 40.79000
H  -7.73800 15.62800 37.83800
H  -7.67800 14.02300 38.65100
H  -5.42300 13.91700 38.24900
H  -5.29900 15.27800 39.37500
H  -12.47700 21.51200 38.46600
H  -10.70800 21.15100 38.81600
H  -11.71700 22.18500 39.90200
H  -16.04700 21.96300 42.19800
H  -15.27700 20.54500 42.95900
H  -16.46400 20.31100 41.63500
H  -16.68200 16.22700 41.36200
H  -16.30800 14.33000 43.51700
H  -17.52800 16.11300 43.97200
H  -17.94200 17.33500 42.82300
H  -16.50300 17.56900 43.94600
H  -16.37500 12.59300 41.93600
H  -16.06600 13.61700 40.57800
H  -18.42500 14.31100 42.21700
H  -18.62200 12.60800 41.66200
H  -18.33100 13.86200 40.46400
H  -12.03800 9.78700 42.24800
H  -12.99100 10.44800 43.55400
H  -11.28300 10.04200 43.75800
H  -7.65600 12.60400 40.42000
H  -4.43200 14.56700 42.83000
H  -3.82300 13.86300 41.32800
H  -4.38000 12.83800 42.72800

