158

Mg 1.28300 -2.83000 44.01800
C  4.55800 -2.30000 43.27200
C  0.35500 -0.13800 42.04100
C  -1.93300 -3.62700 44.41800
C  2.28100 -5.76600 45.71500
N  2.33100 -1.46200 42.75900
C  3.67100 -1.38900 42.72200
C  4.13500 -0.29700 41.75700
C  2.76500 0.54400 41.52500
C  1.74600 -0.42300 42.09400
C  2.77100 1.88900 42.30100
C  4.75500 -0.82400 40.44000
C  5.91500 0.04900 39.97400
H  5.80400 0.59100 38.52500
N  -0.59100 -2.01300 43.19800
C  -0.76400 -0.86900 42.46900
C  -2.16300 -0.60400 42.23400
C  -2.89400 -1.62200 42.96400
C  -1.83000 -2.52300 43.51500
C  -2.64800 0.60400 41.58300
C  -4.44400 -1.65500 43.17100
O  -5.20600 -0.79700 42.72000
C  -5.20300 -2.72000 43.96600
N  0.33200 -4.51300 44.95900
C  -1.02000 -4.53800 44.98000
C  -1.52000 -5.85200 45.66900
C  -0.13300 -6.51100 46.18800
C  0.92700 -5.60300 45.64200
C  -2.82700 -5.75900 46.63200
C  0.10300 -7.92200 45.62800
C  0.84500 -8.92500 46.56400
N  3.08200 -3.79200 44.55800
C  3.33300 -4.97400 45.28300
C  4.74500 -5.23800 45.31800
C  5.26300 -4.14700 44.60200
C  4.22000 -3.34300 44.11700
C  5.38300 -6.40700 46.03000
C  6.49000 -3.54100 44.25300
O  7.65300 -3.79900 44.64100
C  6.12100 -2.36200 43.24900
C  6.75200 -1.02600 43.66400
O  7.40500 -0.31500 42.85100
O  6.49500 -0.64500 44.98900
C  6.84000 0.70900 45.31800
H  0.00800 0.67800 41.40400
H  -2.98700 -3.90600 44.47500
H  2.53100 -6.68800 46.24500
H  4.86900 0.37600 42.20000
H  2.52600 0.81300 40.49600
H  3.72800 2.03700 42.80100
H  1.94700 1.84700 43.01200
H  2.67500 2.71700 41.59800
H  3.96500 -0.77400 39.69100
H  5.15600 -1.82300 40.61200
H  6.82400 -0.55000 40.03000
H  6.10900 0.90900 40.61500
H  -3.72100 0.77700 41.49600
H  -2.10000 0.65200 40.64200
H  -2.25400 1.48800 42.08400
H  -4.80900 -3.04300 44.92900
H  -5.16300 -3.61500 43.34500
H  -6.26600 -2.50400 44.07800
H  -2.02200 -6.36900 44.85100
H  -0.05500 -6.38100 47.26700
H  -2.49000 -6.23700 47.55200
H  -3.71600 -6.19400 46.17600
H  -2.92500 -4.70000 46.87200
H  0.72300 -7.78200 44.74200
H  -0.89900 -8.29800 45.41800
H  0.18600 -9.65600 47.03200
H  1.09200 -8.34500 47.45400
H  1.72900 -9.38800 46.12500
H  6.24900 -6.04200 46.58300
H  5.61500 -7.25700 45.38800
H  4.74700 -6.67900 46.87200
H  6.47100 -2.63700 42.25400
H  6.03100 0.86600 46.03200
H  6.65100 1.41800 44.51300
H  7.80700 0.72700 45.82100
Mg 24.42400 -5.67200 45.61800
C  26.35600 -3.18500 44.17300
C  21.91200 -4.74800 43.47600
C  22.82000 -8.63000 46.25400
C  27.28100 -6.87400 47.30300
N  24.19000 -4.12900 43.94300
C  25.05100 -3.12200 43.72100
C  24.46600 -2.00100 42.78200
C  22.97500 -2.49200 42.63800
C  22.99400 -3.92000 43.42400
C  21.83700 -1.54900 43.21300
C  25.33800 -1.72100 41.47100
C  25.44900 -0.30800 40.81000
H  24.79800 -0.16300 39.42500
N  22.54500 -6.53000 45.01300
C  21.68300 -5.94800 44.18900
C  20.48000 -6.74200 44.11700
C  20.63300 -7.82600 45.08200
C  22.05200 -7.70400 45.53700
C  19.34700 -6.31200 43.33400
C  19.53200 -8.75200 45.52000
O  18.34400 -8.52000 45.20800
C  19.89900 -9.79000 46.54700
N  24.90600 -7.47100 46.63500
C  24.07000 -8.56400 46.78600
C  24.81400 -9.77500 47.43100
C  26.09600 -9.08500 47.95800
C  26.11900 -7.68200 47.29100
C  23.92200 -10.46400 48.46100
C  27.32800 -9.97700 47.66300
C  28.19300 -10.08300 48.93000
N  26.39200 -5.12600 45.84600
C  27.40500 -5.61400 46.65000
C  28.64700 -4.90800 46.41700
C  28.24600 -3.90300 45.49900
C  26.87100 -4.08200 45.16000
C  29.98600 -5.18000 47.10100
C  28.72200 -2.72700 44.75600
O  29.86200 -2.29800 44.66500
C  27.57700 -2.22800 43.87500
C  27.33700 -0.84500 44.40700
O  26.54000 -0.54800 45.28100
O  27.92600 0.08000 43.61900
C  27.39800 1.48500 43.64600
H  21.09600 -4.43100 42.82400
H  22.41000 -9.58500 46.59100
H  28.21600 -7.21800 47.75000
H  24.41100 -1.14300 43.45300
H  22.74600 -2.83900 41.63000
H  22.38600 -0.62700 43.40500
H  21.36400 -1.91100 44.12600
H  21.00500 -1.37500 42.53000
H  24.75800 -2.23800 40.70600
H  26.30100 -2.20600 41.62700
H  26.46400 0.06200 40.66500
H  24.81100 0.29300 41.45800
H  18.64600 -7.09400 43.04200
H  19.66000 -5.80800 42.41900
H  18.88800 -5.51100 43.91400
H  19.06400 -10.26600 47.06000
H  20.49900 -9.52800 47.41900
H  20.51500 -10.56000 46.08300
H  25.11000 -10.50200 46.67400
H  26.04400 -8.95400 49.03900
H  22.94700 -9.98200 48.52300
H  24.20700 -10.56700 49.50800
H  23.62500 -11.47000 48.16300
H  27.94000 -9.45700 46.92600
H  27.03800 -10.97000 47.32100
H  28.47500 -9.06500 49.19700
H  29.15800 -10.51300 48.66200
H  27.68100 -10.64000 49.71400
H  30.63900 -4.30800 47.09000
H  30.54000 -6.08800 46.86400
H  29.75000 -5.45100 48.13000
H  27.95600 -2.24400 42.85300
H  28.24500 2.10300 43.94500
H  26.68900 1.70600 44.44400
H  27.07200 1.78000 42.64900

