158

Mg -2.50800 35.39800 26.41000
C  -4.29600 33.99200 29.16600
C  -1.41700 37.74900 28.53000
C  -0.82300 36.83900 23.84000
C  -3.71900 33.00800 24.39700
N  -2.93300 35.82000 28.62000
C  -3.47300 35.05700 29.62000
C  -3.38200 35.67200 30.98600
C  -2.43300 36.87100 30.75300
C  -2.23500 36.82100 29.19600
C  -2.88900 38.15400 31.46100
C  -3.01100 34.63600 32.02700
C  -3.98200 34.62100 33.30500
H  -3.46400 34.19900 34.77000
N  -1.23300 37.06600 26.21500
C  -0.94900 37.88100 27.23400
C  0.04100 38.85900 26.72800
C  0.46800 38.37500 25.43000
C  -0.53100 37.35200 25.08200
C  0.57500 40.05100 27.51400
C  1.56700 38.93800 24.60100
O  1.76100 38.53300 23.47100
C  2.49000 40.00900 25.20600
N  -2.50000 35.13000 24.38600
C  -1.67700 35.78800 23.53500
C  -1.54000 35.09300 22.25400
C  -2.51800 33.81000 22.41600
C  -2.90900 33.96600 23.82600
C  -1.78200 35.97400 21.00700
C  -1.81500 32.46200 22.05200
C  -2.66400 31.38000 21.47900
N  -3.96900 33.95800 26.54600
C  -4.30400 32.99800 25.63500
C  -5.31300 32.12000 26.19900
C  -5.40300 32.51200 27.59500
C  -4.45600 33.58600 27.75000
C  -6.16600 31.03000 25.49600
C  -6.00700 32.13300 28.84600
O  -6.72600 31.18900 29.19200
C  -5.27000 33.08000 29.93000
C  -6.38400 33.91200 30.53700
O  -6.71400 35.07500 30.30300
O  -7.02600 33.22300 31.59200
C  -8.02800 33.99600 32.44300
H  -1.00400 38.50000 29.20600
H  -0.18800 37.25700 23.05500
H  -4.04200 32.19000 23.74900
H  -4.41200 35.96900 31.18500
H  -1.58100 36.47500 31.30500
H  -2.05500 38.52900 32.05400
H  -3.70000 37.81900 32.10800
H  -3.34700 38.88200 30.79200
H  -1.95500 34.69600 32.29200
H  -3.04200 33.69000 31.48600
H  -4.70100 33.83700 33.06900
H  -4.53400 35.56100 33.29400
H  1.64000 40.09700 27.73800
H  0.09100 40.12400 28.48800
H  0.41800 40.97600 26.95900
H  3.33700 40.27100 24.57200
H  2.97700 39.77100 26.15200
H  1.88300 40.90600 25.32700
H  -0.53700 34.68300 22.13300
H  -3.47900 33.85000 21.90300
H  -2.78800 35.77300 20.64000
H  -1.02200 35.93900 20.22600
H  -1.89800 36.99800 21.36300
H  -1.27700 31.94100 22.84400
H  -0.99200 32.58500 21.34800
H  -3.18300 30.85600 22.28100
H  -2.06800 30.75100 20.81800
H  -3.40700 31.79800 20.80000
H  -7.21600 31.32400 25.51200
H  -5.96300 30.09300 26.01500
H  -5.87600 31.07900 24.44700
H  -4.79200 32.54000 30.74700
H  -7.56500 34.75300 33.07600
H  -8.49200 33.24200 33.07800
H  -8.74800 34.46200 31.76900
Mg -5.71300 25.61900 26.16300
C  -4.78800 27.20800 29.22400
C  -7.67800 23.61900 27.96600
C  -6.44700 24.11000 23.37600
C  -3.35400 27.64000 24.55300
N  -6.11200 25.45200 28.29900
C  -5.69100 26.17800 29.37600
C  -6.37400 25.73900 30.65900
C  -7.05600 24.34300 30.32600
C  -6.92600 24.40700 28.71900
C  -6.41600 23.12300 30.93600
C  -7.35800 26.68700 31.34700
C  -7.09800 26.97800 32.84200
H  -6.49000 25.92200 33.74900
N  -6.90700 24.05300 25.71300
C  -7.76300 23.43200 26.58400
C  -8.74400 22.56100 25.87900
C  -8.28100 22.68700 24.53900
C  -7.17400 23.63200 24.48200
C  -10.06400 21.96500 26.42500
C  -8.81500 21.99800 23.31700
O  -8.36700 22.23800 22.16900
C  -10.06500 21.13400 23.40300
N  -4.92400 25.79400 24.30200
C  -5.42600 25.08800 23.26700
C  -4.68200 25.30600 21.96900
C  -3.58200 26.43700 22.30000
C  -3.92100 26.63000 23.83600
C  -4.12000 24.03600 21.37600
C  -3.79600 27.69700 21.34800
C  -3.13300 27.46900 19.96900
N  -4.32900 27.14000 26.64600
C  -3.44400 27.94100 25.88900
C  -2.92700 28.97500 26.73900
C  -3.39200 28.77300 28.08300
C  -4.23600 27.61900 28.02000
C  -1.98000 30.12400 26.30100
C  -3.29000 29.14200 29.51500
O  -2.54800 29.99300 30.02400
C  -4.25800 28.25500 30.26300
C  -3.41200 27.65800 31.37400
O  -2.48300 26.87000 31.19200
O  -3.85100 28.10900 32.60000
C  -2.91700 27.75700 33.68400
H  -8.33500 22.92800 28.49800
H  -6.63400 23.74400 22.36400
H  -2.67100 28.38900 24.14700
H  -5.55800 25.69100 31.38000
H  -8.10000 24.22000 30.61300
H  -6.28700 22.46800 30.07400
H  -7.13100 22.80100 31.69300
H  -5.42700 23.26100 31.37300
H  -8.36700 26.28900 31.23700
H  -7.27900 27.56500 30.70600
H  -8.04200 27.27800 33.29800
H  -6.43700 27.83300 32.98300
H  -10.96900 22.35400 25.95800
H  -10.31900 22.21400 27.45500
H  -9.99700 20.87800 26.44800
H  -9.82400 20.43700 24.20600
H  -10.21600 20.64500 22.44100
H  -11.02600 21.52500 23.73500
H  -5.43400 25.84200 21.39000
H  -2.61600 25.93400 22.25000
H  -3.07400 24.26000 21.16400
H  -4.61600 23.74400 20.45000
H  -4.19500 23.19100 22.05900
H  -3.44300 28.57600 21.88600
H  -4.86000 27.89200 21.21500
H  -3.36500 28.38800 19.43000
H  -3.69600 26.64000 19.54200
H  -2.04900 27.37500 19.89800
H  -2.12600 30.32100 25.23900
H  -1.00000 29.65000 26.34900
H  -2.02700 30.99700 26.95200
H  -5.06000 28.91600 30.59400
H  -2.39900 26.80000 33.62000
H  -3.45300 27.91500 34.62000
H  -2.12500 28.50500 33.66000

