158

Mg 8.88600 2.85300 27.02600
C  10.12700 1.48300 30.05000
C  6.96100 4.90000 28.75600
C  7.34100 3.61100 24.15800
C  10.67100 0.22500 25.31600
N  8.39000 2.88200 29.24200
C  9.14500 2.47900 30.29500
C  8.70700 3.09100 31.64900
C  7.64000 4.13300 31.17600
C  7.62900 3.98200 29.57400
C  6.22700 4.13800 31.87300
C  9.95800 3.58200 32.40000
C  9.92500 4.56000 33.59500
H  10.49000 3.98500 34.89800
N  7.39600 4.12200 26.53100
C  6.71000 4.89700 27.38400
C  5.80100 5.75400 26.64900
C  5.95200 5.40200 25.27700
C  6.89900 4.33100 25.25800
C  4.95700 6.80600 27.31200
C  5.22500 5.88500 24.08200
O  5.41300 5.50400 22.93800
C  4.18500 6.86000 24.28200
N  9.00700 1.99600 25.06600
C  8.30900 2.59300 24.00400
C  8.73700 2.01300 22.67100
C  9.65700 0.81200 23.11600
C  9.83800 1.07200 24.59100
C  7.63700 1.70600 21.54900
C  10.94200 0.67900 22.23800
C  10.93600 -0.27100 21.07600
N  10.19700 1.23900 27.53200
C  10.85700 0.34300 26.70200
C  11.69900 -0.54600 27.56400
C  11.46300 -0.14900 28.90500
C  10.46700 0.90500 28.82200
C  12.69700 -1.47900 27.08000
C  11.78600 -0.39100 30.25800
O  12.54900 -1.25700 30.74300
C  10.86900 0.57500 31.07700
C  9.99000 -0.21600 31.99100
O  8.96400 -0.79900 31.63400
O  10.48700 -0.18100 33.29900
C  9.51000 -0.73300 34.17100
H  6.43300 5.58400 29.42200
H  6.82600 3.83100 23.22100
H  11.18400 -0.61800 24.85000
H  8.19400 2.39500 32.31400
H  8.08400 5.10700 31.37900
H  6.39400 4.65300 32.81900
H  5.92000 3.11600 32.09300
H  5.43600 4.68500 31.35900
H  10.66700 4.08300 31.74200
H  10.41800 2.65500 32.74500
H  8.85600 4.71600 33.74300
H  10.47800 5.42300 33.22500
H  3.92100 6.48300 27.21600
H  5.07800 7.71500 26.72300
H  5.26800 7.05900 28.32600
H  3.72300 7.26700 23.38200
H  4.47500 7.79800 24.75600
H  3.45100 6.43400 24.96500
H  9.23600 2.91500 22.31500
H  8.96800 -0.02000 22.97000
H  6.71900 1.33100 22.00200
H  7.94700 1.00000 20.77800
H  7.35600 2.64200 21.06700
H  11.80400 0.45300 22.86600
H  11.13200 1.69500 21.89200
H  11.79000 -0.94700 21.11200
H  11.06200 0.23800 20.12100
H  10.00300 -0.83500 21.05200
H  12.95700 -1.18400 26.06300
H  12.41200 -2.52100 26.93500
H  13.56500 -1.43900 27.73800
H  11.45800 1.12100 31.81300
H  8.58400 -0.22600 33.90100
H  9.65400 -0.32600 35.17200
H  9.45200 -1.82000 34.13600
Mg 49.23200 44.58200 42.47400
C  45.86200 44.78600 41.64500
C  49.02300 41.21400 41.81800
C  52.65100 44.33500 42.75600
C  49.38800 48.03000 42.99200
N  47.71100 43.28400 41.56500
C  46.47900 43.58400 41.27400
C  45.72600 42.38800 40.82700
C  46.52900 41.24800 41.45400
C  47.87800 41.92000 41.59700
C  45.98400 40.85300 42.89600
C  45.54200 42.34300 39.31400
C  44.10900 42.71700 38.76700
H  44.17600 43.79000 37.68100
N  50.64500 42.99700 42.44700
C  50.33200 41.69300 42.16300
C  51.49700 40.91300 42.10900
C  52.64500 41.72900 42.47600
C  52.04900 43.09600 42.58700
C  51.57900 39.43900 41.75900
C  54.04600 41.32600 42.70300
O  54.34700 40.14200 42.88500
C  55.11800 42.26000 42.83400
N  50.79500 46.02000 42.54400
C  52.10200 45.66100 42.75800
C  53.04600 46.91100 42.89200
C  51.93200 48.01700 42.89800
C  50.60200 47.30300 42.88500
C  53.91400 47.06700 44.15900
C  52.14500 49.11800 41.77800
C  51.67900 50.52700 42.05200
N  47.99300 46.16000 42.38500
C  48.10300 47.46700 42.69800
C  46.83700 48.08800 42.57800
C  45.92500 47.04800 42.14500
C  46.67100 45.88300 42.06400
C  46.47600 49.50400 42.75200
C  44.56000 46.77500 41.96300
O  43.62500 47.60200 42.01700
C  44.48600 45.34600 41.60500
C  43.62200 44.61500 42.51900
O  42.42000 44.57200 42.35100
O  44.26400 44.08200 43.63600
C  43.33200 43.61000 44.72600
H  48.83700 40.14500 41.70000
H  53.73800 44.43700 42.75900
H  49.39300 49.08100 43.28700
H  44.72200 42.48100 41.24100
H  46.60500 40.45700 40.70800
H  45.05600 41.37000 43.14100
H  46.70200 41.12200 43.67100
H  45.89000 39.77000 42.82400
H  45.70600 41.37400 38.84100
H  46.27900 43.03200 38.90200
H  43.43600 43.07500 39.54600
H  43.69500 41.86300 38.23000
H  52.23400 39.28200 40.90300
H  50.56400 39.06200 41.63600
H  52.03100 38.92600 42.60800
H  55.20900 42.85300 41.92400
H  56.02700 41.65900 42.85800
H  55.04700 42.80300 43.77700
H  53.54800 46.85300 41.92600
H  51.91900 48.62700 43.80100
H  53.76600 46.26600 44.88300
H  53.62400 48.01800 44.60500
H  54.96400 47.05100 43.86800
H  51.79200 48.70100 40.83500
H  53.23000 49.20800 41.73700
H  51.69700 50.93100 43.06500
H  50.63600 50.59800 41.74400
H  52.24300 51.24200 41.45400
H  47.11500 50.05900 42.06600
H  46.79700 49.86000 43.73100
H  45.42700 49.65600 42.49600
H  44.00700 45.28700 40.62800
H  43.94400 43.41200 45.60600
H  42.88400 42.70000 44.32700
H  42.56200 44.33800 44.97900

