158

Mg 54.00700 24.70800 44.87600
C  51.51400 27.29200 44.18800
C  51.58400 22.48200 43.90300
C  56.44900 22.55400 44.61400
C  56.16900 27.39600 45.69800
N  51.90900 24.92200 43.83500
C  51.09900 26.03100 43.76700
C  49.65900 25.72700 43.40700
C  49.69600 24.13100 43.68400
C  51.10900 23.78100 43.76900
C  48.93500 23.65500 44.98000
C  49.15000 26.10500 41.91800
C  50.20900 25.99100 40.75400
H  49.66500 25.40700 39.38900
N  54.03200 22.79900 44.40400
C  52.95300 22.01800 44.04400
C  53.46100 20.67600 43.88500
C  54.82100 20.65600 44.09300
C  55.22400 22.04800 44.36000
C  52.56400 19.54800 43.46400
C  55.72100 19.46000 43.96000
O  55.23800 18.51900 43.32700
C  57.16300 19.34100 44.34200
N  56.03400 24.93500 45.18200
C  56.86900 23.81300 44.99500
C  58.33100 24.22400 45.24200
C  58.20900 25.71000 45.74900
C  56.72700 26.08600 45.42800
C  59.13100 23.21200 46.18700
C  59.23400 26.66700 44.93300
C  58.93600 26.84900 43.39900
N  53.87600 26.86300 45.09500
C  54.82600 27.80700 45.50100
C  54.21600 29.04500 45.69700
C  52.93800 28.98600 45.14700
C  52.72900 27.59400 44.81400
C  54.90700 30.23300 46.29700
C  51.72300 29.70100 44.86100
O  51.39300 30.85900 44.99400
C  50.75200 28.62000 44.22300
C  50.47200 29.08100 42.80900
O  51.31400 29.22800 41.93500
O  49.15400 29.33600 42.62100
C  48.73600 29.89000 41.38900
H  50.82000 21.72700 43.70500
H  57.31100 21.89200 44.50900
H  56.81400 28.21800 46.01400
H  49.04100 26.26500 44.12700
H  49.15500 23.71200 42.83600
H  48.48800 24.40400 45.63400
H  49.57100 23.01400 45.59200
H  48.12000 23.04200 44.59600
H  48.74500 27.11600 41.96100
H  48.26600 25.58100 41.55500
H  51.14800 25.50900 41.02600
H  50.50100 26.99400 40.44100
H  52.98500 19.29800 42.49100
H  51.53000 19.88200 43.38600
H  52.53200 18.68600 44.13000
H  57.49600 18.32300 44.54300
H  57.18200 19.82400 45.32000
H  57.86200 19.80800 43.64800
H  58.89700 24.34700 44.31900
H  58.31300 25.66100 46.83300
H  58.52600 22.33500 46.41700
H  59.49800 23.64000 47.12000
H  60.03700 22.97300 45.62900
H  60.17100 26.11600 45.00500
H  59.32800 27.63100 45.43300
H  59.65000 26.41400 42.70000
H  58.87800 27.91400 43.17400
H  57.91600 26.51300 43.21400
H  55.99000 30.16600 46.40400
H  54.52000 30.29600 47.31400
H  54.60300 31.14500 45.78400
H  49.84100 28.41300 44.78500
H  49.08600 29.28500 40.55300
H  49.15900 30.89500 41.39200
H  47.68700 30.11400 41.19700
Mg 26.51600 50.15300 26.17300
C  24.59800 51.34600 28.78500
C  28.75800 49.19500 28.59000
C  28.61500 49.30300 23.69400
C  24.18400 51.25000 23.86800
N  26.51400 50.12300 28.46800
C  25.63300 50.60700 29.34600
C  26.01400 50.43000 30.75500
C  27.59600 49.94800 30.65100
C  27.65400 49.79600 29.15000
C  28.83100 50.90700 31.21300
C  25.03300 49.40600 31.44000
C  24.43300 49.56600 32.81900
H  25.19600 50.25600 33.97900
N  28.40900 49.26900 26.12900
C  29.20600 48.88400 27.22600
C  30.42800 48.20600 26.71800
C  30.41000 48.42000 25.35200
C  29.10800 49.11300 24.93100
C  31.39600 47.41700 27.66200
C  31.60100 48.09900 24.42400
O  31.57200 48.47500 23.25800
C  32.86200 47.43700 24.87000
N  26.53100 50.38600 24.07100
C  27.42500 49.85900 23.20600
C  27.04600 49.96400 21.67900
C  25.57900 50.66200 21.87000
C  25.38500 50.68900 23.35900
C  28.03400 50.82000 20.90200
C  24.45500 49.87500 21.13400
C  24.13500 50.32900 19.76900
N  24.79700 51.18000 26.25800
C  23.86300 51.46100 25.28500
C  22.69000 52.20000 25.85300
C  22.91600 52.10300 27.24000
C  24.20700 51.53000 27.47200
C  21.52800 52.79300 25.14600
C  22.40300 52.50900 28.52300
O  21.39600 53.14900 28.80100
C  23.46100 51.92900 29.64600
C  23.90700 53.11000 30.47900
O  24.70900 53.92600 30.13500
O  23.33500 53.08700 31.68100
C  23.67400 54.18700 32.63900
H  29.48900 48.80600 29.30200
H  29.25400 48.87900 22.91600
H  23.48700 51.61400 23.11100
H  26.08500 51.39100 31.26600
H  27.61700 48.91800 31.00800
H  28.37800 51.60800 31.91300
H  29.41400 51.34800 30.40400
H  29.46200 50.13600 31.65500
H  25.45700 48.40800 31.32100
H  24.14600 49.30500 30.81400
H  24.29200 48.53300 33.13500
H  23.45300 50.04100 32.76800
H  31.47200 46.36400 27.39300
H  31.09100 47.42200 28.70800
H  32.35100 47.94300 27.66800
H  33.35100 48.11200 25.57300
H  33.47500 47.22000 23.99500
H  32.47000 46.50600 25.28000
H  26.92000 48.95200 21.29400
H  25.53700 51.69800 21.53100
H  28.86800 51.20200 21.49100
H  27.55400 51.65300 20.38800
H  28.37800 50.05300 20.20800
H  23.54200 50.02200 21.71000
H  24.70500 48.81400 21.11900
H  24.49700 49.62700 19.01800
H  24.76500 51.17900 19.50800
H  23.07800 50.56200 19.63700
H  20.59500 52.26200 25.33800
H  21.68000 52.66400 24.07400
H  21.45000 53.81700 25.51100
H  22.88700 51.20300 30.22200
H  24.01600 55.08000 32.11500
H  24.41700 53.74200 33.30100
H  22.83700 54.47900 33.27300

