158

Mg 8.76300 3.40500 27.42700
C  10.49000 2.14000 30.32400
C  7.64300 5.99100 29.14000
C  7.34200 4.39700 24.58600
C  10.16800 0.58900 25.65200
N  8.92800 3.99700 29.47600
C  9.71900 3.33400 30.50400
C  9.55000 4.09500 31.83900
C  8.47100 5.16500 31.54300
C  8.24700 5.01600 29.96900
C  7.07500 5.11200 32.20000
C  10.82600 4.47700 32.58300
C  10.65700 5.47300 33.71900
H  11.13700 4.92700 35.07100
N  7.70400 5.03200 26.84400
C  7.31400 5.99400 27.74300
C  6.58700 7.03700 26.95700
C  6.42300 6.53400 25.62600
C  7.18400 5.23700 25.67600
C  5.92000 8.17000 27.59800
C  5.80300 7.27600 24.42500
O  5.83500 6.74700 23.29800
C  5.07600 8.59600 24.64600
N  8.82600 2.65000 25.39500
C  7.99900 3.22200 24.45400
C  8.19100 2.57100 23.09900
C  8.93900 1.29100 23.42800
C  9.35100 1.49000 24.90600
C  6.91100 2.35200 22.18600
C  10.16600 1.05600 22.51900
C  9.94600 -0.03000 21.46400
N  10.03200 1.65700 27.88400
C  10.52900 0.65800 27.06000
C  11.36600 -0.27600 27.82900
C  11.37600 0.30800 29.11800
C  10.57400 1.46300 29.08400
C  12.17500 -1.35500 27.20700
C  11.95100 0.20300 30.49700
O  12.78000 -0.58800 30.98600
C  11.34500 1.39600 31.31000
C  10.61600 0.80000 32.50500
O  9.56000 0.19300 32.49700
O  11.46800 0.98200 33.56800
C  10.97200 0.47200 34.83600
H  7.22600 6.76300 29.79100
H  6.95400 4.67900 23.60500
H  10.61000 -0.20800 25.05000
H  9.06000 3.36300 32.48100
H  8.84700 6.13600 31.86600
H  6.34600 5.66300 31.60600
H  7.25900 5.45000 33.22000
H  6.86000 4.04700 32.12600
H  11.58900 4.78900 31.87000
H  11.21500 3.53300 32.96300
H  9.64900 5.83600 33.92300
H  11.36900 6.27500 33.52500
H  5.96500 8.15600 28.68700
H  4.83700 8.22400 27.47900
H  6.32400 9.12400 27.25900
H  4.27700 8.56400 25.38600
H  4.70000 8.98100 23.69800
H  5.84900 9.33100 24.87000
H  8.78600 3.24400 22.48100
H  8.31500 0.39700 23.43600
H  6.05100 2.69900 22.76000
H  6.85700 1.27700 22.01400
H  6.94400 2.96400 21.28500
H  10.98600 0.67800 23.13000
H  10.53400 1.97700 22.06700
H  8.90500 -0.30400 21.29500
H  10.40800 -0.98400 21.71900
H  10.41300 0.19300 20.50400
H  12.42300 -1.15800 26.16400
H  11.78300 -2.36000 27.35900
H  13.09600 -1.30500 27.78700
H  12.20400 1.97900 31.64300
H  11.60500 0.85100 35.63800
H  10.92700 -0.61100 34.94800
H  10.01200 0.98000 34.92700
Mg 0.08100 43.58900 26.16400
C  2.34700 42.88700 28.81300
C  -2.31100 42.17400 28.24800
C  -2.11500 43.54400 23.72100
C  2.70700 44.19600 23.99600
N  0.09100 42.76300 28.30100
C  1.07000 42.79600 29.27700
C  0.50700 42.31600 30.58600
C  -0.95300 41.94200 30.29100
C  -1.09100 42.32600 28.85600
C  -1.46000 40.48100 30.65300
C  0.47400 43.57500 31.57500
C  -0.19600 43.45000 32.97300
H  -0.55100 42.07100 33.54400
N  -2.05800 43.08600 26.01600
C  -2.79100 42.49000 26.95500
C  -4.18100 42.25500 26.49200
C  -4.14900 42.61500 25.14000
C  -2.76900 43.11900 24.90400
C  -5.24800 41.79900 27.41300
C  -5.32300 42.66400 24.11200
O  -5.22100 42.94000 22.93700
C  -6.70300 42.36400 24.56500
N  0.27400 43.91700 24.19100
C  -0.80200 43.95400 23.38700
C  -0.42900 44.21500 21.85000
C  1.05800 44.53400 22.02100
C  1.39600 44.21100 23.49800
C  -0.68700 42.97100 20.91600
C  1.53200 45.92800 21.69500
C  1.26100 47.14000 22.57900
N  2.16000 43.67800 26.34600
C  3.08900 43.92500 25.31900
C  4.43800 43.72400 25.95500
C  4.13500 43.42900 27.30300
C  2.77900 43.28900 27.47600
C  5.74300 43.93400 25.21400
C  4.86400 43.06200 28.49700
O  6.02200 42.94600 28.75200
C  3.63200 42.89500 29.62000
C  3.85600 41.74600 30.56500
O  3.68400 40.64700 30.20100
O  4.10200 42.16200 31.91800
C  4.29600 40.95800 32.83400
H  -3.06500 41.81100 28.95000
H  -2.75200 43.43800 22.84100
H  3.42800 44.58500 23.27500
H  1.11900 41.47900 30.92200
H  -1.55400 42.60100 30.91900
H  -0.71900 39.94600 31.24600
H  -1.77000 39.80100 29.85900
H  -2.32500 40.49900 31.31700
H  -0.05900 44.32500 30.99100
H  1.47800 43.96300 31.74800
H  -1.10600 44.03300 33.11200
H  0.54900 43.92900 33.60800
H  -5.64000 42.74000 27.79900
H  -4.95900 41.08100 28.18000
H  -6.11300 41.40000 26.88300
H  -6.95600 42.82400 25.52000
H  -6.71200 41.27800 24.66100
H  -7.48400 42.67600 23.87200
H  -1.02400 45.03500 21.44800
H  1.60800 43.84700 21.37800
H  0.23500 42.70600 20.39700
H  -1.55400 43.16700 20.28500
H  -0.95200 42.11100 21.53200
H  1.11600 46.24400 20.73800
H  2.60000 45.86500 21.48800
H  0.95500 47.95900 21.92900
H  2.23800 47.40200 22.98700
H  0.63100 46.95900 23.45100
H  5.50000 44.78600 24.57900
H  6.17800 43.16700 24.57300
H  6.50400 44.16700 25.95900
H  3.66300 43.79100 30.24000
H  3.68900 40.07100 32.65600
H  4.24300 41.24300 33.88500
H  5.32300 40.60700 32.73800

