158

Mg 41.69100 41.36800 26.16000
C  41.14500 43.64300 28.70000
C  42.65300 39.10800 28.60900
C  42.22400 39.12600 23.71100
C  41.49900 43.95200 23.89600
N  41.95400 41.41400 28.34800
C  41.58000 42.41300 29.21000
C  41.84900 42.12700 30.68600
C  42.51300 40.67600 30.63500
C  42.36400 40.37400 29.13400
C  44.00100 40.56300 31.06000
C  40.55000 42.12000 31.57300
C  40.47600 43.01100 32.78400
H  39.99800 42.26800 34.05400
N  42.40500 39.33500 26.20200
C  42.69300 38.60300 27.29900
C  43.04300 37.22100 26.88200
C  42.93500 37.21700 25.45400
C  42.50500 38.59900 25.02800
C  43.28500 36.09200 27.80800
C  43.16800 36.07800 24.49100
O  42.95000 36.24500 23.29400
C  43.69800 34.80400 24.98000
N  42.02100 41.53200 24.10200
C  42.06800 40.48600 23.22600
C  42.07500 40.85500 21.77300
C  42.00100 42.45200 21.82800
C  41.70500 42.67900 23.31600
C  43.25300 40.30800 21.00400
C  40.94400 43.05500 20.81200
C  41.37000 44.35200 20.14800
N  41.28600 43.32000 26.26500
C  41.13600 44.24000 25.22700
C  40.74800 45.52800 25.75400
C  40.69600 45.28600 27.13100
C  41.04900 43.96300 27.39900
C  40.66400 46.82200 25.00000
C  40.52100 46.04700 28.33300
O  40.23100 47.24200 28.51200
C  40.80000 44.97700 29.44400
C  41.93800 45.52400 30.19200
O  43.15100 45.56700 29.81600
O  41.48100 46.03200 31.36200
C  42.49700 46.53600 32.25100
H  43.19400 38.48700 29.32600
H  42.18200 38.44700 22.85700
H  41.43600 44.68700 23.09200
H  42.60900 42.79900 31.08500
H  41.97100 39.95100 31.24200
H  44.09400 40.06500 32.02500
H  44.38400 41.57300 31.20500
H  44.63200 40.11200 30.29400
H  40.27100 41.12600 31.92400
H  39.80600 42.52600 30.88800
H  39.77200 43.82900 32.63400
H  41.44300 43.49700 32.91400
H  44.33500 35.80800 27.74500
H  42.68600 35.25800 27.44200
H  43.10700 36.49600 28.80500
H  43.79800 34.03500 24.21500
H  42.92600 34.35600 25.60600
H  44.66800 34.97400 25.44800
H  41.17200 40.34800 21.43300
H  43.02800 42.76000 21.62900
H  43.99600 39.75500 21.57900
H  43.78700 41.15500 20.57400
H  42.88100 39.60500 20.25900
H  40.02300 43.20100 21.37700
H  40.69900 42.28700 20.07900
H  41.24700 44.02800 19.11400
H  42.45000 44.43400 20.26300
H  40.80500 45.25600 20.37400
H  39.68700 46.91500 24.52400
H  41.37000 46.75200 24.17300
H  40.73300 47.64400 25.71300
H  39.96100 44.95300 30.14000
H  42.83600 45.75300 32.92800
H  41.98000 47.31600 32.81000
H  43.30900 47.04900 31.73500
Mg 30.50600 57.97300 40.22200
C  27.86600 56.01000 38.77300
C  32.66700 55.68100 38.99400
C  32.91900 60.25400 40.62700
C  28.01000 60.44900 40.93800
N  30.28000 56.08000 38.93100
C  29.15200 55.45300 38.55600
C  29.52800 54.16000 37.75700
C  31.11000 54.01800 38.02200
C  31.37500 55.26600 38.79100
C  31.64000 52.72500 38.71900
C  29.26200 54.33200 36.22800
C  27.98700 53.66300 35.69400
H  27.11400 54.54300 34.85300
N  32.53100 57.97100 40.00100
C  33.18300 56.88000 39.51400
C  34.61900 57.25600 39.35800
C  34.69800 58.62800 39.77800
C  33.33100 59.03300 40.19000
C  35.78400 56.35800 38.81600
C  36.02800 59.52200 39.67900
O  37.08000 58.96900 39.41100
C  36.06200 60.96000 39.89600
N  30.47500 60.08400 40.62600
C  31.62600 60.72300 40.89200
C  31.35500 62.12700 41.37200
C  29.80100 62.16600 41.66700
C  29.35400 60.86100 41.06400
C  32.29100 62.66700 42.43800
C  29.10900 63.54200 41.13200
C  28.27400 64.40300 42.10400
N  28.34500 58.24600 39.98900
C  27.50400 59.21700 40.46500
C  26.10900 58.90200 40.18400
C  26.21800 57.59500 39.57400
C  27.58400 57.30000 39.42700
C  24.88700 59.75200 40.34400
C  25.47800 56.54800 38.93200
O  24.26200 56.52500 38.67200
C  26.48600 55.36300 38.48400
C  26.22500 54.11900 39.34900
O  27.00900 53.56100 40.13400
O  24.97000 53.66800 39.05600
C  24.48100 52.40800 39.67300
H  33.42100 54.99500 38.60300
H  33.68900 61.01300 40.78100
H  27.25800 61.17500 41.25300
H  28.96300 53.36800 38.24800
H  31.54700 54.14400 37.03200
H  30.84300 51.98500 38.79100
H  32.09100 52.87200 39.70100
H  32.51400 52.26000 38.26200
H  30.09900 53.88100 35.69500
H  29.22400 55.40200 36.02500
H  27.46500 53.44500 36.62700
H  28.14100 52.80600 35.03800
H  36.25500 56.70900 37.89800
H  35.44100 55.33600 38.65400
H  36.68700 56.34300 39.42600
H  35.20700 61.35800 39.35000
H  36.92500 61.47500 39.47600
H  36.02300 61.16300 40.96700
H  31.51500 62.62700 40.41700
H  29.67100 62.11100 42.74800
H  31.72000 63.30200 43.11500
H  33.05500 63.28300 41.96400
H  32.77400 61.88500 43.02400
H  28.47900 63.25400 40.29000
H  29.86500 64.17900 40.67100
H  27.24000 64.34700 41.76400
H  28.56100 65.45300 42.16000
H  28.36700 64.11600 43.15200
H  24.03600 59.55600 39.69200
H  25.02600 60.83300 40.31500
H  24.60700 59.51900 41.37100
H  26.12200 55.24900 37.46300
H  24.89400 51.60900 39.05700
H  23.40200 52.43800 39.82800
H  24.87900 52.26300 40.67800

