158

Mg 30.53600 57.92600 40.44500
C  27.66000 55.99400 39.64200
C  32.47700 55.24300 39.53700
C  33.04500 60.04800 40.22300
C  28.31700 60.64700 40.90700
N  30.04900 55.85500 39.87900
C  28.89500 55.29100 39.55100
C  29.19200 53.88900 38.93300
C  30.60000 53.51900 39.50300
C  31.12000 54.93800 39.72500
C  30.61400 52.76500 40.82900
C  29.12000 53.99300 37.40500
C  27.80400 53.35800 36.82700
H  26.90600 54.13900 35.88600
N  32.59400 57.61700 40.05500
C  33.16900 56.49900 39.61100
C  34.58900 56.75200 39.35700
C  34.80000 58.16800 39.60100
C  33.47500 58.70900 39.94900
C  35.64400 55.73300 38.95000
C  36.09300 59.03800 39.31900
O  37.07000 58.47000 38.99900
C  36.16400 60.50100 39.53600
N  30.62200 60.08500 40.39800
C  31.81600 60.69500 40.51200
C  31.74900 62.10400 40.97800
C  30.22000 62.29000 41.26300
C  29.63200 60.94500 40.81500
C  32.61300 62.43000 42.23800
C  29.54900 63.61300 40.54900
C  28.95600 64.73500 41.50300
N  28.39000 58.30000 40.40100
C  27.62100 59.45200 40.60500
C  26.23100 59.12300 40.49500
C  26.21400 57.78000 40.15000
C  27.52800 57.32700 40.07600
C  25.04300 60.04000 40.72900
C  25.31700 56.65900 39.85300
O  24.09900 56.55300 39.89400
C  26.27400 55.47000 39.58700
C  26.00100 54.43400 40.63900
O  26.73200 54.23500 41.59500
O  24.85300 53.67400 40.42100
C  24.85600 52.40100 41.13000
H  33.05000 54.39100 39.16400
H  33.93200 60.64700 40.44300
H  27.77800 61.55900 41.17100
H  28.38100 53.34100 39.41200
H  31.19600 53.02500 38.73600
H  31.38900 53.09900 41.51900
H  30.78500 51.75700 40.45300
H  29.66300 52.80300 41.35900
H  29.95800 53.55600 36.86200
H  29.10600 55.05400 37.15400
H  27.09200 53.10400 37.61200
H  28.08000 52.46800 36.26300
H  35.76500 55.57300 37.87800
H  35.35900 54.79700 39.43000
H  36.59300 56.01800 39.40500
H  36.02200 60.67800 40.60200
H  35.42800 61.10200 39.00200
H  37.15400 60.87100 39.26900
H  32.05800 62.67400 40.10200
H  30.11500 62.43700 42.33800
H  32.71100 63.51200 42.32200
H  33.60000 61.97500 42.31900
H  32.01100 62.14800 43.10200
H  28.75600 63.17000 39.94700
H  30.33300 64.10100 39.97000
H  28.73800 64.18700 42.42000
H  28.00900 65.20600 41.23800
H  29.71300 65.50700 41.64400
H  25.15900 60.65600 41.62100
H  24.05200 59.58600 40.74300
H  25.25200 60.86100 40.04300
H  26.07800 55.10300 38.58000
H  24.30200 51.66000 40.55400
H  24.47100 52.53100 42.14100
H  25.84500 51.99200 41.33400
Mg -11.91500 39.26300 42.07700
C  -10.20600 36.31100 41.33100
C  -9.52300 41.00500 40.47200
C  -13.88300 42.06200 42.42200
C  -14.56800 37.28600 43.15400
N  -10.13700 38.64300 41.01300
C  -9.58500 37.38200 40.80100
C  -8.39500 37.40200 39.81300
C  -8.08500 39.00600 39.78500
C  -9.38200 39.61500 40.39900
C  -6.75400 39.40700 40.41500
C  -8.58100 36.76000 38.42200
C  -7.41600 35.81200 38.03100
H  -6.24100 36.41400 37.27600
N  -11.60500 41.29800 41.60700
C  -10.53900 41.84400 40.97400
C  -10.72600 43.27600 40.87400
C  -11.92200 43.58500 41.64200
C  -12.52700 42.22400 41.92700
C  -9.69900 44.16500 40.15800
C  -12.39600 44.98600 41.86100
O  -11.77200 45.94200 41.35000
C  -13.69100 45.35400 42.64600
N  -13.93300 39.62800 42.67000
C  -14.52800 40.85500 42.72100
C  -15.96400 40.72200 43.16100
C  -16.21300 39.19600 43.41800
C  -14.82800 38.63700 42.98100
C  -16.45900 41.59200 44.33600
C  -17.38900 38.50100 42.71200
C  -18.63700 37.94400 43.51800
N  -12.30500 37.26800 42.43300
C  -13.40800 36.62300 42.86000
C  -13.17200 35.15900 42.83800
C  -11.90000 35.03700 42.27100
C  -11.45000 36.27300 42.03200
C  -14.15200 34.03400 43.27700
C  -10.87700 34.04900 41.80400
O  -10.95000 32.81800 41.80200
C  -9.70100 34.92600 41.17500
C  -8.55700 34.68400 42.04000
O  -8.30400 35.22800 43.12800
O  -7.60800 33.89900 41.40700
C  -6.23000 33.81800 41.83000
H  -8.89500 41.52900 39.74700
H  -14.62200 42.84700 42.59200
H  -15.36600 36.62200 43.49400
H  -7.44800 37.06200 40.23200
H  -8.09200 39.32400 38.74200
H  -6.58600 38.86300 41.34400
H  -6.90100 40.46600 40.62400
H  -5.96200 39.13700 39.71600
H  -8.59500 37.44200 37.57100
H  -9.51800 36.20800 38.49100
H  -7.80300 34.96600 37.46200
H  -7.07500 35.48900 39.01400
H  -9.53900 45.10800 40.68100
H  -10.14000 44.23700 39.16400
H  -8.78500 43.60400 39.96600
H  -14.47600 44.99500 41.98100
H  -13.80200 46.42300 42.82700
H  -13.64300 44.77400 43.56800
H  -16.56700 40.86600 42.26500
H  -16.34500 38.94000 44.46900
H  -17.04600 42.41400 43.92500
H  -15.61300 42.09800 44.80100
H  -17.05300 41.03100 45.05600
H  -16.98100 37.65900 42.15200
H  -17.86100 39.08600 41.92200
H  -18.66000 36.85400 43.52600
H  -19.52900 38.46100 43.16500
H  -18.54900 38.07800 44.59600
H  -15.10200 34.10500 42.74900
H  -14.40700 34.20500 44.32300
H  -13.67500 33.05500 43.23500
H  -9.51700 34.62900 40.14300
H  -5.55900 34.28800 41.11100
H  -5.92000 32.77400 41.88500
H  -6.00500 34.20000 42.82500

