158

Mg 7.03700 2.83300 27.37500
C  8.44000 1.65500 30.43400
C  4.91000 4.82000 29.06700
C  5.78500 3.83700 24.47500
C  8.94800 0.38000 25.66000
N  6.82200 3.24500 29.43100
C  7.43600 2.67000 30.53700
C  6.92600 3.21300 31.81500
C  5.67400 4.01400 31.44700
C  5.74700 3.99900 29.86000
C  4.29700 3.48100 32.02300
C  8.02500 3.99200 32.68100
C  8.11500 3.78700 34.14500
H  9.41900 3.63400 34.89700
N  5.54500 4.09500 26.83600
C  4.79400 4.79400 27.70300
C  3.90800 5.65600 26.94400
C  4.26100 5.52000 25.53600
C  5.19700 4.41700 25.57000
C  2.90000 6.55900 27.62800
C  3.66300 6.22700 24.28100
O  3.95600 5.94500 23.11700
C  2.67500 7.29200 24.54800
N  7.29400 2.13100 25.28800
C  6.67600 2.79700 24.29600
C  6.89400 2.15800 22.91800
C  7.99400 1.04700 23.27700
C  8.09900 1.12700 24.80900
C  5.59900 1.56600 22.23900
C  9.44700 1.25900 22.70700
C  10.53000 2.21900 23.38000
N  8.42500 1.25900 27.89500
C  9.14700 0.43400 27.06900
C  10.08400 -0.28000 27.86800
C  9.83300 0.12600 29.22700
C  8.80600 1.03900 29.17600
C  10.97000 -1.36500 27.44300
C  10.16300 -0.07900 30.62000
O  10.78100 -1.02900 31.07100
C  9.27800 0.96100 31.49700
C  8.49500 0.31000 32.57600
O  7.48300 -0.27800 32.46300
O  9.11900 0.40900 33.75700
C  8.50400 -0.19500 34.98600
H  4.34900 5.57200 29.62700
H  5.50300 4.18300 23.47800
H  9.62900 -0.34300 25.20600
H  6.59500 2.29700 32.30400
H  5.69100 5.07600 31.69000
H  4.35500 2.46700 32.41800
H  3.61900 3.35500 31.18000
H  3.88000 4.20100 32.72700
H  7.86600 5.05800 32.51900
H  9.01700 3.66600 32.36900
H  7.51300 2.92900 34.44200
H  7.63000 4.62400 34.64800
H  2.51200 6.10100 28.53800
H  2.00800 6.76200 27.03600
H  3.39500 7.47200 27.95800
H  1.67900 7.02900 24.90400
H  2.40200 7.70400 23.57600
H  3.16000 8.09700 25.09900
H  7.43300 2.84600 22.26700
H  7.72800 0.02300 23.01500
H  4.73900 1.47600 22.90300
H  5.60200 0.53400 21.88900
H  5.37400 2.17000 21.36000
H  9.25100 1.58400 21.68500
H  9.93000 0.29100 22.57200
H  10.07500 2.57600 24.30400
H  10.75100 2.95200 22.60500
H  11.44600 1.65100 23.54300
H  11.86300 -1.39000 28.06700
H  11.15800 -1.27600 26.37300
H  10.38300 -2.28000 27.52400
H  9.97900 1.65800 31.95500
H  9.03400 0.27000 35.81700
H  8.64100 -1.27600 35.02700
H  7.44100 0.03800 35.05800
Mg 47.44100 17.31500 28.73200
C  45.38300 17.31700 31.62200
C  49.74300 19.08500 30.42800
C  49.04700 17.59400 25.80400
C  44.65400 15.75500 27.02600
N  47.42000 18.36200 30.78900
C  46.56800 18.00200 31.81600
C  47.10800 18.47400 33.17400
C  48.48800 19.12000 32.71500
C  48.63400 18.80400 31.25200
C  48.61400 20.60700 33.16900
C  47.36200 17.39200 34.21300
C  46.92700 17.72500 35.62500
H  46.97600 19.19800 36.10900
N  49.15200 18.19300 28.22100
C  50.02800 18.84200 29.07000
C  51.20000 19.34700 28.33700
C  50.97600 18.85600 27.01400
C  49.73100 18.12300 26.96800
C  52.32200 20.24100 28.95300
C  51.90500 18.97500 25.78900
O  51.64700 18.49700 24.68700
C  53.20400 19.75100 25.90300
N  47.05100 16.48800 26.78000
C  47.86300 16.89200 25.71600
C  47.22500 16.52100 24.34400
C  45.90400 15.67600 24.81400
C  45.82300 16.03100 26.30100
C  46.81300 17.71500 23.50300
C  46.14200 14.16100 24.62100
C  45.14500 13.49300 23.61300
N  45.41900 16.70400 29.15400
C  44.38900 16.15200 28.37100
C  43.10700 16.14500 29.09700
C  43.50600 16.38100 30.38600
C  44.86800 16.73000 30.40300
C  41.76900 15.70300 28.47900
C  43.02600 16.51800 31.65500
O  41.88700 16.42200 32.09500
C  44.28200 16.99500 32.53200
C  43.84700 18.07400 33.44700
O  43.73000 19.27900 33.22500
O  43.35000 17.44100 34.53700
C  42.61400 18.35200 35.50900
H  50.57500 19.45300 31.03100
H  49.41900 17.82700 24.80400
H  43.80100 15.32600 26.49600
H  46.42900 19.25800 33.51100
H  49.34300 18.60500 33.15400
H  49.61700 20.67500 33.58800
H  47.91600 20.96500 33.92600
H  48.78900 21.30900 32.35400
H  48.42500 17.18500 34.33000
H  46.79800 16.52800 33.86200
H  47.43200 17.07700 36.34100
H  45.87700 17.43300 35.59800
H  52.07900 20.37200 30.00800
H  52.53500 21.13300 28.36400
H  53.22400 19.63900 29.05900
H  53.70100 19.59700 24.94500
H  53.83200 19.41400 26.72700
H  52.74400 20.73500 25.99900
H  47.83100 15.77700 23.82700
H  44.98600 15.95300 24.29600
H  47.60000 18.43100 23.73900
H  45.82600 18.11400 23.73900
H  47.03800 17.40600 22.48300
H  45.93100 13.71500 25.59300
H  47.12500 13.88400 24.24000
H  44.45500 14.18500 23.12900
H  44.55000 12.78100 24.18600
H  45.64200 12.82500 22.90900
H  41.65100 15.96300 27.42700
H  41.01200 16.27600 29.01300
H  41.66200 14.62700 28.61800
H  44.49000 16.12800 33.15900
H  42.51700 19.40400 35.23800
H  43.25900 18.34500 36.38700
H  41.59400 18.03100 35.71900

