158

Mg 8.34200 2.17900 27.49900
C  9.78000 0.97000 30.25200
C  6.41500 4.42200 29.35900
C  6.77700 3.17700 24.64900
C  9.86500 -0.39400 25.63100
N  8.20400 2.71400 29.55400
C  8.93200 2.04900 30.50400
C  8.62200 2.67800 31.93300
C  7.41000 3.67900 31.53400
C  7.26900 3.60500 30.02200
C  6.13400 3.35000 32.30000
C  9.84500 3.27100 32.57200
C  9.70500 3.50500 34.12300
H  10.61400 2.67300 35.16900
N  6.85300 3.65000 27.08600
C  6.21400 4.41900 27.96800
C  5.26900 5.29700 27.23100
C  5.34000 4.93600 25.87600
C  6.45100 3.96200 25.76800
C  4.41400 6.29400 27.93400
C  4.52700 5.47500 24.72300
O  4.71800 5.25300 23.55000
C  3.40200 6.44800 25.04000
N  8.28900 1.48600 25.45200
C  7.57800 2.03400 24.48700
C  7.78600 1.32000 23.17100
C  8.96500 0.35500 23.50100
C  9.03700 0.46600 24.92800
C  6.53100 0.53600 22.83400
C  10.33900 0.86500 22.85500
C  11.35900 -0.25800 22.30500
N  9.61100 0.49700 27.81200
C  10.13600 -0.47000 26.98300
C  11.08000 -1.25400 27.71200
C  11.05100 -0.70600 29.01000
C  10.07100 0.29200 29.04100
C  11.99800 -2.25700 27.05800
C  11.60300 -0.80100 30.25900
O  12.46100 -1.55900 30.69400
C  10.76700 0.22500 31.17900
C  10.03900 -0.59700 32.18300
O  9.35100 -1.60600 32.07500
O  10.23000 -0.05600 33.45700
C  9.66200 -0.77100 34.60000
H  5.79300 5.07800 29.97100
H  6.22300 3.40200 23.73500
H  10.40200 -1.16800 25.07800
H  8.26900 1.91600 32.62700
H  7.83800 4.64900 31.78900
H  5.79500 2.39300 31.90200
H  5.45300 4.19500 32.20400
H  6.42200 3.17200 33.33600
H  10.12100 4.24500 32.16900
H  10.70400 2.60800 32.46900
H  8.65300 3.47300 34.40900
H  9.99500 4.53100 34.35100
H  3.42400 5.86400 28.08900
H  4.35300 7.20400 27.33800
H  4.97100 6.64900 28.80100
H  2.97400 6.75000 24.08400
H  3.78100 7.40800 25.39100
H  2.68200 6.05800 25.76000
H  7.97800 1.99200 22.33400
H  8.78100 -0.66600 23.16700
H  6.00000 0.25500 23.74300
H  6.74400 -0.37600 22.27500
H  5.79800 1.20100 22.37700
H  10.76700 1.56900 23.56800
H  10.08400 1.50000 22.00600
H  11.13800 -1.27300 22.63600
H  12.40100 -0.11700 22.59400
H  11.36700 -0.26200 21.21500
H  12.69400 -1.70900 26.42400
H  11.47500 -2.90200 26.35200
H  12.48400 -2.82100 27.85400
H  11.43900 0.88500 31.72900
H  9.97900 -1.80800 34.70200
H  8.58400 -0.66400 34.72200
H  10.17300 -0.38900 35.48400
Mg 15.64200 51.63300 25.64900
C  17.69500 50.50700 28.23100
C  13.32600 52.49900 27.96600
C  13.56800 52.13500 23.05100
C  18.01000 50.41300 23.34400
N  15.49300 51.41500 27.84800
C  16.53800 51.03500 28.70300
C  16.22700 51.36500 30.20800
C  14.67600 51.91400 30.10300
C  14.50100 51.97700 28.56900
C  13.70400 50.80700 30.68000
C  17.24100 52.39100 30.92900
C  17.43500 52.34000 32.45200
H  16.58500 51.36600 33.23900
N  13.74000 52.30100 25.54400
C  12.93000 52.54400 26.63500
C  11.61100 53.04000 26.05800
C  11.71100 52.75100 24.63700
C  13.06600 52.37900 24.39700
C  10.48300 53.53800 26.90300
C  10.58700 52.81100 23.60400
O  10.62900 52.48100 22.43600
C  9.21800 53.27900 24.15900
N  15.77900 51.31300 23.55200
C  14.77500 51.63200 22.64400
C  15.28900 51.78400 21.17800
C  16.74400 51.28400 21.33400
C  16.84700 50.94400 22.80800
C  14.41900 50.90600 20.20100
C  17.87300 52.36000 20.87600
C  18.78700 51.73800 19.76900
N  17.53500 50.78500 25.68000
C  18.35200 50.31700 24.68100
C  19.59800 49.78500 25.28100
C  19.33400 49.80600 26.69800
C  18.08400 50.43000 26.86000
C  20.83800 49.31900 24.59000
C  19.86700 49.49600 27.99200
O  20.96400 49.03000 28.29200
C  18.82400 49.97900 29.04500
C  18.52200 48.97800 30.07100
O  17.96100 47.92100 29.88700
O  19.13500 49.32600 31.30300
C  19.10000 48.40000 32.37700
H  12.58400 52.86600 28.67800
H  12.92100 52.32400 22.19200
H  18.83300 50.16600 22.67000
H  16.42300 50.44600 30.75900
H  14.58700 52.84000 30.67100
H  13.24700 50.22400 29.88000
H  13.00600 51.36300 31.30600
H  14.39700 50.17500 31.23500
H  16.83400 53.36300 30.65200
H  18.18400 52.33700 30.38500
H  17.35700 53.32400 32.91400
H  18.43900 51.93700 32.58800
H  10.10800 54.49500 26.53800
H  10.83700 53.75000 27.91200
H  9.63300 52.85600 26.92500
H  8.44200 53.45200 23.41400
H  9.33800 54.24100 24.65800
H  8.95600 52.60100 24.97200
H  15.24900 52.86600 21.05500
H  16.89000 50.35100 20.79000
H  13.45600 50.61700 20.62200
H  14.93200 49.96500 20.00300
H  14.12700 51.36300 19.25600
H  18.49200 52.54400 21.75400
H  17.49300 53.35900 20.66500
H  18.62400 52.49100 18.99900
H  18.59700 50.69200 19.52600
H  19.82500 51.64800 20.09100
H  20.99500 49.80700 23.62800
H  20.66200 48.25800 24.41100
H  21.70200 49.61500 25.18400
H  19.33000 50.82600 29.50800
H  18.03700 48.35600 32.61500
H  19.57300 48.77900 33.28300
H  19.47000 47.38700 32.21700

