158

Mg -1.88100 17.40200 26.74500
C  -2.18200 14.97100 29.27600
C  -2.70000 19.96700 29.07700
C  -2.06000 19.63200 24.23900
C  -2.09200 14.62100 24.36400
N  -2.26300 17.39300 28.94000
C  -2.32700 16.30200 29.82800
C  -2.58900 16.74800 31.29000
C  -2.77900 18.34900 31.09100
C  -2.59400 18.63300 29.61700
C  -4.06700 18.94400 31.63900
C  -1.46000 16.39600 32.22900
C  -1.45300 17.14800 33.53500
H  -0.76700 16.48900 34.72200
N  -2.01300 19.51200 26.63900
C  -2.31000 20.38200 27.69500
C  -2.07000 21.76600 27.20900
C  -1.77700 21.64100 25.82600
C  -1.86200 20.25600 25.47600
C  -2.09700 22.98100 28.04900
C  -1.45400 22.76200 24.79500
O  -1.14200 22.51500 23.58400
C  -1.66500 24.18400 25.12500
N  -1.98200 17.12500 24.67200
C  -2.10000 18.25000 23.83300
C  -2.34300 17.80300 22.38600
C  -2.02000 16.24500 22.43100
C  -2.01700 15.93400 23.90000
C  -3.77500 18.14100 21.85300
C  -0.69700 15.79500 21.75900
C  0.68600 16.41400 22.25800
N  -2.13700 15.24800 26.75700
C  -2.09300 14.29800 25.75700
C  -2.01400 13.00000 26.36000
C  -2.03800 13.22500 27.74200
C  -2.17700 14.57500 27.93900
C  -2.06900 11.73200 25.62400
C  -2.03100 12.53900 29.11200
O  -1.91500 11.34100 29.36800
C  -2.26700 13.67800 30.13300
C  -1.11400 13.49200 31.04900
O  0.02800 13.90700 30.99100
O  -1.61500 12.75200 32.07000
C  -0.83000 12.64600 33.33900
H  -2.92100 20.78500 29.76600
H  -2.26400 20.36600 23.45700
H  -2.13900 13.80300 23.64200
H  -3.54100 16.30800 31.58600
H  -1.99800 18.87900 31.63500
H  -4.77100 19.29400 30.88300
H  -3.77200 19.79700 32.25000
H  -4.56400 18.20300 32.26500
H  -0.46400 16.44300 31.78900
H  -1.65700 15.39300 32.60900
H  -2.47800 17.36800 33.83500
H  -0.97900 18.12600 33.45600
H  -2.94300 23.65500 27.91600
H  -1.23300 23.64500 28.01200
H  -2.13800 22.70100 29.10200
H  -0.89300 24.46900 25.84000
H  -2.66300 24.22000 25.56100
H  -1.72900 24.81700 24.24000
H  -1.58500 18.30200 21.78200
H  -2.74800 15.65200 21.87700
H  -4.18300 18.95500 22.45300
H  -4.36800 17.23500 21.72600
H  -3.74600 18.61000 20.87000
H  -0.83600 16.14100 20.73500
H  -0.70500 14.70700 21.81200
H  1.37000 15.57100 22.35800
H  0.58800 17.08500 23.11200
H  0.99200 17.08900 21.45900
H  -1.56800 10.94900 26.19300
H  -1.39800 11.94100 24.79000
H  -3.02000 11.48000 25.15600
H  -3.17500 13.53400 30.72000
H  -0.13700 11.80700 33.27700
H  -1.42100 12.35100 34.20700
H  -0.24900 13.55200 33.51000
Mg 35.73200 48.54600 25.03400
C  35.77000 46.74300 28.06300
C  34.26100 51.14600 26.68500
C  35.33200 50.11000 22.10100
C  36.66000 45.52600 23.36900
N  35.07700 48.82100 27.18800
C  35.31000 48.01300 28.24500
C  35.00600 48.78000 29.58500
C  34.20900 50.04800 29.04100
C  34.52800 50.02100 27.57500
C  32.67500 50.03700 29.50200
C  36.28800 49.19400 30.42000
C  36.15500 48.86400 31.90200
H  34.71200 48.72100 32.42900
N  35.03800 50.39800 24.48400
C  34.52700 51.33700 25.30400
C  34.30200 52.59000 24.62100
C  34.61200 52.30300 23.21500
C  35.00000 50.88300 23.24200
C  33.82800 53.88200 25.35800
C  34.67700 53.18500 21.98900
O  35.05200 52.72900 20.88800
C  34.24600 54.61500 21.99900
N  36.03600 47.91000 23.06700
C  35.77000 48.76900 22.00200
C  35.89500 48.00000 20.65000
C  36.61600 46.66200 21.12500
C  36.45300 46.68100 22.61300
C  34.59200 47.76700 19.90800
C  38.04900 46.46100 20.57900
C  39.23400 47.15400 21.18600
N  36.13100 46.51000 25.55200
C  36.44900 45.39300 24.75500
C  36.81400 44.29600 25.62700
C  36.56000 44.80400 26.94100
C  36.10300 46.10200 26.81300
C  37.31500 42.94300 25.19100
C  36.52800 44.41300 28.31000
O  36.87100 43.35200 28.86400
C  36.10700 45.70900 29.16100
C  34.83900 45.23300 29.88900
O  33.71400 45.39900 29.47900
O  35.21100 44.69300 31.14500
C  34.03500 44.37600 32.06700
H  33.60800 51.91300 27.10600
H  35.07700 50.58000 21.14800
H  37.06400 44.67200 22.82100
H  34.36400 48.10300 30.14800
H  34.69400 50.91600 29.48800
H  32.48000 49.08200 29.99100
H  31.95800 50.21400 28.70000
H  32.51800 50.83600 30.22700
H  36.53600 50.24900 30.30400
H  37.06000 48.59700 29.93500
H  36.70000 49.48400 32.61400
H  36.69800 47.92300 31.99300
H  32.76100 53.76900 25.55400
H  33.93300 54.79800 24.77800
H  34.33100 53.95200 26.32300
H  33.17700 54.61200 22.21300
H  34.41800 54.97200 20.98400
H  34.89300 55.20100 22.65100
H  36.54500 48.51100 19.94000
H  36.03600 45.76900 20.88700
H  34.61700 46.86600 19.29500
H  34.40900 48.55300 19.17700
H  33.75000 47.74500 20.60000
H  37.99700 46.55800 19.49500
H  38.27500 45.43400 20.86600
H  39.97300 46.56500 21.72800
H  38.76400 47.85900 21.87300
H  39.65000 47.72400 20.35500
H  38.17600 42.60100 25.76300
H  37.63600 43.07800 24.15800
H  36.55900 42.16200 25.27100
H  36.93000 46.07300 29.77600
H  34.43400 43.88400 32.95400
H  33.18200 43.75500 31.79300
H  33.59000 45.30900 32.41300

