158

Mg 24.68600 1.27000 29.70900
C  26.88000 1.18400 32.36800
C  22.06600 1.20500 31.97100
C  22.48700 1.33100 27.13100
C  27.24900 0.57400 27.47700
N  24.56400 1.41200 31.91200
C  25.54000 1.41500 32.81700
C  25.08200 1.57900 34.28100
C  23.51500 1.48500 34.10200
C  23.34200 1.39400 32.54300
C  22.77700 0.42600 34.90900
C  25.58500 2.82600 35.07400
C  24.69700 3.14000 36.33600
H  25.37700 3.47900 37.68400
N  22.57500 1.27800 29.55400
C  21.65500 1.16800 30.61700
C  20.33900 1.17700 30.11000
C  20.47800 1.21400 28.69700
C  21.88700 1.27300 28.36100
C  19.17600 1.01400 31.06600
C  19.42600 1.14800 27.67500
O  19.55300 1.34100 26.40800
C  18.01400 0.95900 28.08100
N  24.93400 1.25400 27.67800
C  23.87600 1.37000 26.77500
C  24.35100 1.40400 25.31600
C  25.86500 1.16300 25.40600
C  26.03900 0.94600 26.89900
C  23.60800 0.47900 24.33100
C  26.75500 2.17200 24.63800
C  27.23400 3.40800 25.29800
N  26.67700 0.89700 29.82600
C  27.62500 0.60000 28.88000
C  28.91500 0.46400 29.52600
C  28.71900 0.75500 30.84700
C  27.32100 0.94700 30.98100
C  30.22800 0.16300 28.83400
C  29.28400 0.85500 32.14600
O  30.46900 0.69500 32.45300
C  28.14900 1.23500 33.17000
C  28.15400 0.23800 34.25100
O  27.95600 -1.00500 34.14600
O  28.53400 0.82700 35.40800
C  28.94400 -0.03600 36.54200
H  21.27400 1.12900 32.71800
H  21.82300 1.30300 26.26500
H  28.12200 0.40500 26.84300
H  25.42200 0.75100 34.90300
H  23.07600 2.43400 34.40900
H  21.85900 0.72900 35.41200
H  23.43500 0.16200 35.73700
H  22.57500 -0.44700 34.28900
H  25.27400 3.54200 34.31200
H  26.64000 2.92000 35.33000
H  24.00000 2.33300 36.55900
H  24.12400 4.04100 36.11200
H  18.52700 1.89000 31.09000
H  19.44700 0.89400 32.11500
H  18.64600 0.12600 30.72100
H  17.64600 1.86200 28.56800
H  18.00200 0.11200 28.76700
H  17.36300 0.79600 27.22200
H  24.16200 2.41600 24.95700
H  26.26100 0.27300 24.91700
H  23.06600 -0.23200 24.95400
H  24.27400 -0.01600 23.62400
H  22.88600 1.10800 23.81100
H  26.22800 2.54200 23.75800
H  27.61700 1.58800 24.31600
H  27.51100 3.22800 26.33700
H  26.45800 4.16300 25.17200
H  28.03900 3.82700 24.69500
H  30.36500 0.87000 28.01600
H  30.11800 -0.87700 28.52400
H  31.07100 0.28500 29.51400
H  28.32700 2.23700 33.56100
H  29.19600 -1.06200 36.27300
H  28.18500 -0.12000 37.31900
H  29.89000 0.28300 36.98000
Mg 36.58100 49.21300 25.55000
C  36.49400 47.24900 28.52700
C  35.25800 51.84700 27.41700
C  36.32200 50.98700 22.68700
C  37.45300 46.36700 23.81400
N  35.88100 49.42000 27.64600
C  36.14700 48.55200 28.70000
C  35.96200 49.29000 30.06300
C  35.31500 50.65400 29.69800
C  35.50800 50.64200 28.18600
C  33.84100 50.86300 30.10300
C  37.32500 49.46400 30.92900
C  37.20200 49.65500 32.48200
H  35.81300 49.70000 33.01000
N  35.93400 51.16200 25.09600
C  35.43400 52.10200 25.99300
C  35.33300 53.35200 25.28800
C  35.65300 53.15800 23.90800
C  36.05900 51.73800 23.84000
C  34.87200 54.55000 26.00100
C  35.80200 54.24000 22.72600
O  36.19600 53.89600 21.64100
C  35.64200 55.72000 22.86500
N  36.66900 48.66100 23.52300
C  36.63700 49.64100 22.50900
C  36.99500 49.03300 21.16500
C  37.57600 47.66700 21.67300
C  37.23200 47.54500 23.04700
C  35.77800 49.14600 20.15300
C  39.10900 47.55300 21.31300
C  40.16600 48.34400 22.06100
N  36.86500 47.14300 26.01700
C  37.24700 46.14200 25.17600
C  37.59900 44.99900 26.04000
C  37.31800 45.38500 27.36800
C  36.82300 46.67000 27.31100
C  38.28400 43.77200 25.66800
C  37.29300 44.89900 28.71900
O  37.74500 43.83800 29.25700
C  36.65100 46.07200 29.51400
C  35.25700 45.80000 30.01600
O  34.28700 45.72500 29.31000
O  35.24200 45.83900 31.39500
C  33.94400 45.37600 31.97300
H  34.87100 52.67000 28.02100
H  36.27500 51.48900 21.71800
H  37.87700 45.41000 23.50500
H  35.30800 48.69000 30.69600
H  35.91000 51.48900 30.06700
H  33.81100 51.78600 30.68300
H  33.50800 50.03100 30.72300
H  33.14800 50.98300 29.27000
H  37.90100 50.29900 30.53100
H  37.92900 48.56500 30.80700
H  37.84900 50.47600 32.79000
H  37.66000 48.79100 32.96400
H  35.63400 55.30600 26.19400
H  34.33500 54.37600 26.93300
H  34.11000 55.06600 25.41700
H  35.16800 56.19100 23.72600
H  35.04100 56.00300 22.00100
H  36.66600 56.08600 22.79300
H  37.86300 49.58100 20.79800
H  37.03400 46.81700 21.25800
H  35.67300 48.17800 19.66400
H  36.03900 49.88800 19.39800
H  34.92400 49.46200 20.75200
H  39.04500 47.74000 20.24100
H  39.27500 46.48000 21.40300
H  39.82100 49.13800 22.72400
H  40.93100 48.75600 21.40200
H  40.71700 47.65100 22.69700
H  38.80100 43.97500 24.73100
H  37.58200 42.94200 25.59000
H  39.14000 43.58100 26.31600
H  37.19200 46.47000 30.37200
H  33.85400 45.71800 33.00400
H  34.02000 44.29200 32.05500
H  33.10300 45.74100 31.38300

