158

Mg 16.36400 -1.19800 28.18500
C  15.16000 0.68200 30.79400
C  18.37300 -2.90500 30.42000
C  17.79400 -2.90800 25.61900
C  14.62600 0.80000 25.95400
N  16.72800 -1.08000 30.43700
C  16.12000 -0.17600 31.29800
C  16.58300 -0.42300 32.72900
C  17.85400 -1.38600 32.52400
C  17.55700 -1.93500 31.10400
C  19.21600 -0.70100 32.57300
C  15.51200 -1.13200 33.64300
C  15.37200 -0.45700 35.03000
H  16.57800 0.23400 35.63100
N  17.85200 -2.72000 28.01300
C  18.43300 -3.37000 29.08300
C  19.22000 -4.53800 28.63600
C  19.13100 -4.48300 27.22500
C  18.26700 -3.35200 26.87600
C  20.02900 -5.50200 29.46100
C  19.86000 -5.39300 26.20200
O  19.93200 -5.03800 25.05300
C  20.54100 -6.70600 26.65700
N  16.40500 -0.87800 26.12800
C  17.02200 -1.78700 25.33400
C  16.75100 -1.32900 23.83800
C  15.52200 -0.45100 23.97400
C  15.50900 -0.21900 25.43900
C  17.96700 -0.56700 23.27900
C  14.23700 -1.14800 23.43600
C  13.79100 -0.73800 21.99700
N  15.15400 0.48900 28.32300
C  14.50100 1.19900 27.30400
C  13.62100 2.15900 27.90200
C  13.78700 2.00800 29.25400
C  14.82900 1.07300 29.46500
C  12.91200 3.19400 27.22300
C  13.45100 2.51600 30.59500
O  12.61500 3.36800 30.92300
C  14.31500 1.60500 31.64700
C  15.16900 2.50800 32.56100
O  16.30800 2.94400 32.18900
O  14.49100 2.81900 33.68400
C  15.02400 3.92200 34.46200
H  18.85500 -3.46700 31.22300
H  18.12400 -3.44000 24.72500
H  14.02800 1.18300 25.12400
H  16.95500 0.50500 33.16500
H  17.83700 -2.20500 33.24200
H  19.65300 -0.84200 31.58400
H  19.86700 -1.21800 33.27700
H  19.00700 0.33600 32.83500
H  15.59800 -2.21700 33.69700
H  14.53300 -1.01300 33.18000
H  15.05400 -1.25400 35.70100
H  14.64500 0.35500 35.02200
H  19.58000 -6.46800 29.22900
H  19.96900 -5.23300 30.51500
H  21.03400 -5.52500 29.04000
H  21.53000 -6.59600 27.10300
H  20.69100 -7.28800 25.74800
H  19.83200 -7.14600 27.35900
H  16.59200 -2.21900 23.23000
H  15.61600 0.56700 23.59500
H  18.80800 -0.40800 23.95300
H  17.65500 0.42200 22.94100
H  18.38500 -1.24000 22.53000
H  13.48000 -0.81800 24.14700
H  14.34900 -2.23200 23.47000
H  12.70300 -0.70400 21.95700
H  14.22300 -1.35400 21.20800
H  14.24800 0.24600 21.88800
H  13.00800 3.25500 26.13900
H  13.34300 4.13000 27.57800
H  11.84800 3.19900 27.45900
H  13.63400 1.08200 32.31900
H  14.81000 4.86700 33.96300
H  16.08800 3.79200 34.66200
H  14.60400 3.96400 35.46700
Mg 47.15900 16.89900 28.34600
C  45.03700 16.52300 31.12400
C  49.23400 18.64300 30.19800
C  48.64200 17.63000 25.46600
C  44.50700 15.34200 26.36700
N  46.98200 17.66600 30.40600
C  46.14500 17.24300 31.38300
C  46.75700 17.65100 32.83100
C  47.86800 18.61500 32.39000
C  48.09100 18.30600 30.90700
C  47.52300 20.10000 32.69100
C  47.17100 16.40700 33.68000
C  46.68000 16.41000 35.18500
H  46.36800 17.75300 35.78100
N  48.85600 17.89200 27.95000
C  49.64500 18.48300 28.83400
C  50.84300 18.89900 28.18200
C  50.68500 18.57700 26.80600
C  49.35600 18.06600 26.67200
C  51.89500 19.39100 29.02100
C  51.61900 18.76200 25.63300
O  51.29600 18.64400 24.46400
C  52.88900 19.46100 25.92400
N  46.68000 16.52300 26.22700
C  47.51000 16.97600 25.21200
C  46.95300 16.58800 23.80000
C  45.72800 15.73500 24.14800
C  45.63000 15.82200 25.67500
C  46.88400 17.85600 22.81900
C  45.71600 14.26400 23.53700
C  44.79000 14.09400 22.29600
N  45.07600 16.11900 28.61100
C  44.24600 15.51200 27.71900
C  43.01900 15.08800 28.44500
C  43.27500 15.45000 29.83300
C  44.57800 16.04800 29.81400
C  41.75200 14.55400 27.85500
C  42.87700 15.40100 31.24500
O  41.90600 14.91700 31.74400
C  43.93100 16.11900 32.09600
C  43.21900 17.21800 32.84300
O  43.04200 18.35300 32.40800
O  42.68700 16.78900 34.03900
C  41.87100 17.75900 34.75900
H  49.90700 19.18700 30.86400
H  49.17200 17.80900 24.52800
H  43.79800 14.76600 25.76700
H  45.92400 18.25400 33.19200
H  48.75500 18.32900 32.95500
H  48.39300 20.64300 33.05900
H  46.82200 20.19100 33.52000
H  47.18700 20.53800 31.75000
H  48.24200 16.21000 33.64700
H  46.64700 15.57400 33.21300
H  47.42000 15.82300 35.73000
H  45.75000 15.84100 35.19800
H  52.86200 19.40500 28.51900
H  52.10100 18.77600 29.89600
H  51.55500 20.39900 29.26000
H  52.71900 20.33200 26.55600
H  53.15300 19.87700 24.95200
H  53.53700 18.76100 26.45200
H  47.71700 15.88500 23.46800
H  44.81900 16.22800 23.80300
H  45.95000 17.76100 22.26600
H  47.67100 17.92800 22.06900
H  46.92900 18.78400 23.39000
H  45.44300 13.53200 24.29800
H  46.71800 14.07300 23.15500
H  45.33500 13.50800 21.55600
H  44.53000 15.05000 21.84200
H  43.93100 13.45700 22.50700
H  40.96700 14.95300 28.49900
H  41.70900 13.46500 27.85800
H  41.76000 15.02300 26.87100
H  44.31300 15.40800 32.82800
H  41.01200 18.13500 34.20400
H  42.49400 18.57600 35.12300
H  41.37000 17.38800 35.65300

