158

Mg 54.40200 24.38100 44.53300
C  52.12500 26.88500 43.76600
C  52.11900 22.00200 43.90800
C  56.87700 22.22400 44.64300
C  56.63400 27.00200 45.46700
N  52.39000 24.52500 43.82100
C  51.58000 25.60800 43.58000
C  50.19300 25.10600 43.23100
C  50.14700 23.62600 43.73300
C  51.65600 23.34200 43.88000
C  49.44700 23.44600 45.11000
C  49.58200 25.41100 41.80600
C  48.01800 25.52300 41.78600
H  47.61200 24.51200 40.68700
N  54.45900 22.36000 44.16300
C  53.43300 21.51900 43.96400
C  53.92100 20.20900 43.97200
C  55.28100 20.23700 44.15900
C  55.61200 21.63000 44.38100
C  53.07100 18.93100 43.83400
C  56.12800 18.96000 44.35900
O  55.58500 17.81500 44.38700
C  57.64900 19.05600 44.76900
N  56.47800 24.66500 44.86200
C  57.27300 23.50000 44.83600
C  58.72200 23.89700 44.96800
C  58.61700 25.48600 45.16500
C  57.21300 25.72000 45.27900
C  59.50100 23.23600 46.10700
C  59.41500 26.23200 44.05900
C  58.61200 26.86000 42.85700
N  54.47300 26.57500 44.56800
C  55.36700 27.42000 45.11200
C  54.85800 28.72400 45.17400
C  53.51700 28.59200 44.69100
C  53.37800 27.21800 44.32400
C  55.58700 29.98600 45.54300
C  52.24900 29.28000 44.36100
O  51.93500 30.47900 44.43700
C  51.33300 28.18800 43.74400
C  50.99400 28.51900 42.34600
O  51.89200 28.44600 41.53900
O  49.75900 29.04600 42.11100
C  49.36000 29.05700 40.68100
H  51.31500 21.26400 43.86500
H  57.69300 21.49900 44.67100
H  57.39500 27.76300 45.64800
H  49.53600 25.57600 43.96300
H  49.65900 23.00700 42.98000
H  49.18400 24.37100 45.62400
H  50.14000 22.87300 45.72500
H  48.52700 22.86200 45.08500
H  49.94000 24.70300 41.05900
H  49.93200 26.34200 41.36000
H  47.64400 26.47400 41.40500
H  47.66500 25.17100 42.75500
H  53.41800 18.08800 43.23700
H  52.14500 19.08100 43.27900
H  52.86900 18.59500 44.85100
H  57.89700 18.03000 45.04300
H  57.59700 19.65700 45.67700
H  58.31100 19.46500 44.00500
H  59.23100 23.61000 44.04700
H  58.96900 25.80500 46.14600
H  60.11200 23.99900 46.59000
H  60.07300 22.42300 45.65900
H  58.73000 22.93500 46.81600
H  60.13800 25.53700 43.63100
H  59.94300 26.99300 44.63600
H  57.57000 26.54900 42.78600
H  59.07700 26.61400 41.90200
H  58.70900 27.93700 42.99900
H  56.64700 29.73400 45.53300
H  55.29400 30.31400 46.54000
H  55.42300 30.75000 44.78300
H  50.34600 28.19600 44.20700
H  49.46000 30.10600 40.40200
H  48.35100 28.68100 40.51100
H  49.97700 28.51000 39.96800
Mg 48.66100 35.01700 26.89700
C  46.79300 33.73600 29.53900
C  49.04000 37.92000 28.53300
C  49.70000 36.33900 23.92800
C  47.74600 32.04100 24.96300
N  48.01100 35.65000 28.88900
C  47.37600 34.96300 29.89900
C  47.33200 35.77200 31.23200
C  47.77600 37.23700 30.70300
C  48.40900 36.88300 29.33300
C  46.63900 38.31600 30.61300
C  48.49300 35.25700 32.19900
C  48.07900 35.20200 33.67800
H  48.43700 36.42100 34.55100
N  49.52400 36.77600 26.40200
C  49.61200 37.90800 27.25600
C  50.23400 39.00200 26.57700
C  50.47100 38.53300 25.22200
C  49.91600 37.14400 25.09400
C  50.60300 40.31400 27.25300
C  51.06400 39.32100 24.07900
O  51.20400 38.89700 22.92500
C  51.58100 40.76800 24.40000
N  48.82700 34.18600 24.79000
C  49.31600 34.96200 23.75200
C  49.27500 34.21700 22.37100
C  48.88100 32.77800 22.78000
C  48.50000 32.99500 24.27600
C  48.28800 34.94300 21.47200
C  50.03100 31.75000 22.57700
C  49.63700 30.60300 21.59700
N  47.48000 33.28800 27.11500
C  47.25700 32.11800 26.31800
C  46.59100 31.13800 27.11300
C  46.29700 31.85000 28.26000
C  46.90400 33.11500 28.30400
C  46.12700 29.77900 26.73900
C  45.64900 31.58600 29.50500
O  45.06400 30.58700 29.84100
C  45.83700 32.84700 30.42400
C  46.26500 32.50400 31.74300
O  47.38800 32.07600 31.98900
O  45.19600 32.56200 32.65100
C  45.50800 32.38400 34.07200
H  49.15800 38.81000 29.15400
H  49.93700 36.82000 22.97700
H  47.43300 31.17900 24.36900
H  46.36300 35.80300 31.73100
H  48.64900 37.64800 31.21100
H  47.03700 39.23700 31.03900
H  45.75700 38.08800 31.21100
H  46.35600 38.53500 29.58300
H  49.35500 35.91900 32.11400
H  48.96100 34.34100 31.83700
H  48.52800 34.36400 34.21200
H  47.03100 34.93000 33.79900
H  51.68900 40.33500 27.16800
H  50.48100 40.31600 28.33600
H  50.23200 41.22400 26.78000
H  52.13700 41.17300 23.55500
H  52.25900 40.61500 25.24000
H  50.68000 41.31200 24.68500
H  50.22700 34.27400 21.84300
H  47.99400 32.50000 22.21100
H  47.35800 35.23600 21.95900
H  48.05400 34.30800 20.61800
H  48.81400 35.84100 21.14600
H  50.31600 31.32100 23.53700
H  50.90400 32.21600 22.11900
H  49.94400 29.61900 21.95200
H  50.34800 30.67400 20.77500
H  48.61000 30.68000 21.23900
H  46.89400 29.06600 27.04100
H  45.88000 29.74500 25.67800
H  45.23400 29.56900 27.32800
H  44.90300 33.40600 30.47600
H  44.85500 31.62400 34.50100
H  45.24700 33.30800 34.58800
H  46.52900 32.14900 34.37200

