158

Mg 55.03800 23.36200 44.39800
C  52.30800 25.61300 43.70800
C  52.94300 20.70900 43.28800
C  57.67600 21.27300 44.42600
C  57.03100 26.04600 45.22000
N  52.89400 23.23700 43.49000
C  52.02900 24.30100 43.37000
C  50.71600 23.72700 42.71400
C  50.82300 22.23000 43.03900
C  52.34300 21.97500 43.37300
C  49.84300 21.78600 44.18700
C  50.65400 23.90100 41.14800
C  49.36200 24.56800 40.61300
H  48.98900 24.17600 39.15000
N  55.24700 21.27300 43.89400
C  54.31700 20.39000 43.37100
C  54.92700 19.12200 43.09300
C  56.26800 19.20400 43.64400
C  56.45700 20.60600 44.04200
C  54.23300 17.95600 42.47600
C  57.21300 18.09600 43.70000
O  56.88800 16.98500 43.26400
C  58.57700 18.21500 44.38500
N  57.01800 23.59400 44.82700
C  57.95700 22.57900 44.78000
C  59.38100 23.05600 45.06600
C  59.17800 24.59400 45.36200
C  57.69100 24.77900 45.01900
C  60.14400 22.31600 46.18100
C  60.09700 25.62400 44.60000
C  61.46200 25.14700 44.12500
N  54.75700 25.42600 44.59900
C  55.65100 26.34400 44.96400
C  54.97500 27.62800 45.08700
C  53.68500 27.40000 44.59900
C  53.57300 26.00800 44.31200
C  55.55100 28.93600 45.37800
C  52.41600 28.06900 44.30200
O  52.12800 29.26500 44.30400
C  51.43200 26.88800 43.65600
C  51.24600 27.43300 42.23100
O  52.12800 27.53700 41.38000
O  49.97600 27.73100 41.97000
C  49.56400 28.34500 40.68200
H  52.28300 19.84500 43.19000
H  58.66000 20.81000 44.32600
H  57.74100 26.84700 45.43800
H  49.84500 24.12300 43.23700
H  50.40400 21.66100 42.20800
H  49.89500 20.70000 44.26700
H  48.82300 22.16200 44.11800
H  50.27900 22.21200 45.09100
H  50.93200 23.01900 40.57100
H  51.40700 24.65600 40.92200
H  49.51700 25.64500 40.67500
H  48.48200 24.23600 41.16500
H  53.37300 18.36000 41.94200
H  53.85500 17.29000 43.25100
H  54.87200 17.46000 41.74500
H  59.21900 18.84300 43.76700
H  59.11400 17.26800 44.33300
H  58.41500 18.65800 45.36800
H  59.88800 23.03200 44.10100
H  59.22500 24.84000 46.42300
H  61.19000 22.13200 45.93400
H  59.65400 21.39400 46.49400
H  60.29700 22.96100 47.04600
H  60.14900 26.48600 45.26500
H  59.51500 26.04100 43.77800
H  62.22400 25.91000 44.28900
H  61.49500 25.00800 43.04400
H  61.63800 24.22500 44.67800
H  55.26300 29.25200 46.38100
H  55.18100 29.66000 44.65200
H  56.62500 29.03500 45.22500
H  50.43300 26.74000 44.06600
H  49.68600 27.69000 39.82000
H  50.18700 29.21700 40.48200
H  48.59000 28.83400 40.68700
Mg 29.82000 58.06700 41.65400
C  26.96000 56.64000 39.99500
C  31.73300 55.99400 39.89800
C  32.34400 60.28300 42.22200
C  27.50800 60.66700 42.91800
N  29.40100 56.69200 40.06600
C  28.19600 56.16000 39.60100
C  28.36700 55.02700 38.64300
C  29.88300 54.64200 38.87600
C  30.36800 55.88900 39.65500
C  30.35100 53.26700 39.46500
C  27.99400 55.28800 37.11100
C  26.88000 54.46600 36.48100
H  26.16600 54.97400 35.25100
N  31.85700 57.97400 41.34600
C  32.45900 56.99100 40.59800
C  33.93700 57.19400 40.73600
C  34.09600 58.43700 41.44400
C  32.71900 58.98000 41.72100
C  34.82800 56.14400 40.11000
C  35.46800 59.17400 41.70500
O  36.52000 58.60100 41.48000
C  35.61500 60.57300 42.24900
N  29.89700 60.30600 42.38700
C  31.08200 60.92000 42.54800
C  30.90900 62.32800 43.07100
C  29.39200 62.34800 43.42100
C  28.85200 61.05500 42.84600
C  31.95800 62.88800 44.06800
C  28.60000 63.66200 43.12100
C  27.86500 64.35100 44.23300
N  27.65700 58.46900 41.71200
C  26.95400 59.55500 42.18000
C  25.56700 59.33400 41.90600
C  25.58600 58.14800 41.14100
C  26.85500 57.72300 40.92600
C  24.39600 60.05000 42.41500
C  24.73700 57.31800 40.42100
O  23.53200 57.43700 40.32100
C  25.55600 56.29200 39.66900
C  25.25700 54.96800 40.19100
O  25.51500 54.56200 41.34100
O  24.51300 54.20500 39.32300
C  23.76700 53.03000 39.77400
H  32.33200 55.14900 39.55200
H  33.15500 61.01200 42.28900
H  26.76300 61.37800 43.28300
H  27.69600 54.20800 38.89900
H  30.45700 54.74100 37.95500
H  30.59200 53.24400 40.52700
H  31.24000 52.93800 38.92600
H  29.52600 52.61500 39.17600
H  28.88500 55.03500 36.53700
H  27.71300 56.33700 37.01900
H  26.16000 54.32600 37.28600
H  27.30300 53.51400 36.16100
H  34.79400 55.21900 40.68600
H  35.82800 56.56700 40.02000
H  34.50700 55.96000 39.08500
H  35.27400 61.24000 41.45600
H  36.63100 60.79100 42.57800
H  34.93000 60.68100 43.09000
H  30.95100 62.97200 42.19200
H  29.29600 62.09400 44.47700
H  31.65700 62.75600 45.10700
H  32.14000 63.94700 43.88400
H  32.97300 62.50900 43.94800
H  27.82900 63.29300 42.44400
H  29.16600 64.42500 42.58600
H  27.92800 65.43000 44.08900
H  28.31500 64.15700 45.20700
H  26.81300 64.07000 44.18200
H  24.20900 59.69600 43.42900
H  23.48300 60.01900 41.81900
H  24.69300 61.08300 42.59500
H  25.22800 56.34200 38.63000
H  22.70100 53.22900 39.66900
H  23.95900 52.64400 40.77600
H  23.99300 52.21600 39.08600

