158

Mg -0.15100 6.74300 26.06100
C  1.00800 9.08500 28.53600
C  -0.36100 4.31700 28.56100
C  -1.41900 4.65100 23.82800
C  0.70900 8.97500 23.52500
N  0.12800 6.80400 28.31100
C  0.68000 7.82700 29.12200
C  0.84200 7.39500 30.60600
C  0.73100 5.80600 30.44000
C  0.18300 5.55700 28.98000
C  2.10500 5.06400 30.73800
C  -0.18900 8.28700 31.52600
C  -0.60300 7.53000 32.83800
H  0.34600 7.61700 34.02500
N  -0.98200 4.77700 26.24300
C  -0.89600 3.96200 27.27600
C  -1.70200 2.81100 27.02800
C  -2.06600 2.83800 25.70400
C  -1.47300 4.09400 25.19000
C  -1.95400 1.73300 28.05900
C  -3.04900 1.91100 25.04500
O  -3.40500 2.08300 23.87100
C  -3.55400 0.66700 25.62400
N  -0.15500 6.71900 23.96000
C  -0.86900 5.79700 23.28000
C  -1.04300 6.16700 21.81600
C  -0.27700 7.54500 21.72300
C  0.15000 7.77500 23.14700
C  -0.48700 5.00400 20.90800
C  -1.16600 8.81100 21.18800
C  -0.45400 9.67500 20.14200
N  0.72700 8.57600 26.01400
C  0.91000 9.40700 24.91000
C  1.27100 10.73700 25.40000
C  1.44800 10.62800 26.76100
C  1.01600 9.30400 27.12000
C  1.54500 11.98400 24.47900
C  1.83600 11.31200 28.00200
O  2.28400 12.43600 28.17600
C  1.49600 10.31400 29.19900
C  2.78700 10.13500 29.87300
O  3.69200 9.39400 29.51800
O  2.81300 10.99000 30.97000
C  4.13000 11.23100 31.48500
H  -0.41700 3.53000 29.31600
H  -1.99400 4.04700 23.12400
H  0.90000 9.74000 22.77000
H  1.88100 7.67400 30.77800
H  -0.03300 5.42600 31.11800
H  2.10100 4.62400 31.73500
H  2.95400 5.74500 30.67800
H  2.29800 4.26000 30.02800
H  -1.00800 8.65600 30.90800
H  0.41500 9.14100 31.83300
H  -0.81500 6.46700 32.72300
H  -1.58100 7.94400 33.08600
H  -1.09200 1.59600 28.71100
H  -2.04600 0.75500 27.58700
H  -2.80200 1.93300 28.71300
H  -4.24400 0.21300 24.91300
H  -4.05800 0.79000 26.58300
H  -2.78400 -0.10300 25.67600
H  -2.08700 6.22300 21.50600
H  0.65000 7.42000 21.16400
H  -0.27700 4.10000 21.48000
H  0.45000 5.37000 20.48900
H  -1.12200 4.79800 20.04600
H  -1.46100 9.41300 22.04800
H  -2.02600 8.33500 20.71600
H  -0.98000 9.65600 19.18800
H  0.59700 9.39900 20.05800
H  -0.33500 10.67800 20.55200
H  0.72200 12.46000 23.94600
H  2.20900 11.62800 23.69100
H  2.10800 12.68900 25.09100
H  0.82100 10.86900 29.85100
H  4.92300 10.60900 31.07000
H  4.13000 11.06800 32.56200
H  4.31500 12.26800 31.20400
Mg 25.47700 51.29600 26.38800
C  23.20300 51.99600 29.10000
C  27.65300 50.19500 28.88000
C  27.82200 51.13100 24.07100
C  23.17400 52.44900 24.11300
N  25.44200 51.21700 28.79500
C  24.40700 51.51400 29.65900
C  24.77500 51.25400 31.15400
C  26.24100 50.68600 31.02200
C  26.44000 50.66000 29.47700
C  27.22500 51.58200 31.60900
C  23.78300 50.31400 31.82200
C  23.44600 50.55700 33.34100
H  24.45800 51.29900 34.24500
N  27.43900 50.68800 26.45600
C  28.14900 50.24500 27.53300
C  29.50000 49.75400 27.03800
C  29.55000 50.13500 25.71000
C  28.23400 50.64000 25.34900
C  30.59000 49.21200 27.96700
C  30.76300 49.99400 24.77400
O  30.73600 50.32900 23.59700
C  32.12800 49.60100 25.27200
N  25.55200 51.72700 24.39700
C  26.62700 51.65400 23.62600
C  26.27100 51.76300 22.05300
C  24.74300 52.18800 22.08300
C  24.43700 52.12500 23.64500
C  27.22100 52.77000 21.33500
C  23.89300 51.28400 21.15800
C  23.51300 49.86300 21.51400
N  23.65800 52.07200 26.55000
C  22.78600 52.42700 25.50800
C  21.55700 52.77900 26.07200
C  21.70000 52.65000 27.42400
C  22.95500 52.18400 27.72600
C  20.35400 53.23700 25.40900
C  20.98500 52.84700 28.69000
O  19.84600 53.23800 28.90000
C  21.91500 52.40100 29.84000
C  22.08300 53.66600 30.62100
O  22.56200 54.69800 30.24000
O  21.58100 53.47600 31.94800
C  21.93100 54.50400 32.95100
H  28.35800 49.92500 29.67000
H  28.52400 50.78300 23.31100
H  22.41300 52.71600 23.37700
H  24.62100 52.20200 31.67000
H  26.43800 49.66600 31.35400
H  26.86500 52.11200 32.49100
H  27.41000 52.48500 31.02900
H  28.19200 51.16200 31.88700
H  24.27300 49.34100 31.84900
H  22.88600 50.30900 31.20400
H  23.22900 49.58800 33.79000
H  22.61600 51.26300 33.33100
H  30.21100 49.15300 28.98700
H  31.42600 49.91100 27.93300
H  30.89300 48.19800 27.70400
H  32.25900 48.74700 25.93700
H  32.54000 50.41800 25.86500
H  32.81800 49.33100 24.47200
H  26.44500 50.79700 21.58100
H  24.53500 53.14300 21.60300
H  28.19000 52.93300 21.80600
H  26.77600 53.75200 21.49600
H  27.27900 52.57100 20.26500
H  24.43000 51.26800 20.20900
H  22.97000 51.77900 20.85800
H  23.87000 49.20400 20.72200
H  22.43300 49.74900 21.42100
H  23.67100 49.55000 22.54600
H  20.25400 54.32200 25.37300
H  19.51200 52.81600 25.95900
H  20.23000 52.88600 24.38500
H  21.29800 51.78600 30.49500
H  21.70100 54.19500 33.97000
H  21.34900 55.38400 32.67700
H  22.95300 54.85800 32.81400

