158

Mg 47.42700 24.91600 28.50200
C  48.37600 27.11800 31.04300
C  46.42200 22.64000 31.00300
C  47.19600 22.59400 26.10700
C  49.17200 26.96500 26.20400
N  47.41700 24.97500 30.75500
C  47.72100 25.98400 31.53500
C  47.42600 25.66400 32.95400
C  47.00900 24.18400 32.96100
C  46.86700 23.87500 31.46500
C  47.90900 23.22200 33.72500
C  46.30200 26.64800 33.58100
C  46.64600 27.27400 34.97200
H  45.55200 27.17100 36.02100
N  46.66700 22.97200 28.53200
C  46.31900 22.21700 29.65400
C  45.84500 20.89400 29.15400
C  45.99800 20.96400 27.73300
C  46.66900 22.17900 27.42200
C  45.34700 19.80200 30.02800
C  45.62000 19.87700 26.69700
O  45.53200 19.98000 25.48500
C  45.24600 18.52200 27.22600
N  48.24200 24.72100 26.47000
C  47.96800 23.64500 25.69600
C  48.27200 23.83900 24.22800
C  48.86400 25.35700 24.23700
C  48.75200 25.73500 25.72000
C  49.25800 22.78200 23.70300
C  48.17300 26.31400 23.25100
C  46.81400 26.91900 23.66100
N  48.56400 26.71100 28.54100
C  49.15600 27.41500 27.52600
C  49.51300 28.72300 27.97800
C  49.39200 28.62600 29.39200
C  48.80500 27.33600 29.67100
C  49.85500 29.92000 27.14700
C  49.48200 29.35800 30.61700
O  49.88400 30.47000 30.80600
C  48.79800 28.39800 31.78200
C  49.85400 28.17500 32.74000
O  50.71900 27.28800 32.70600
O  49.63800 28.99200 33.82800
C  50.64900 28.80500 34.91300
H  46.13500 21.94500 31.79600
H  46.96200 21.92600 25.27500
H  49.73800 27.64500 25.56400
H  48.37400 25.83600 33.46300
H  46.00600 24.10200 33.37900
H  48.75600 23.72000 34.19700
H  48.33500 22.42300 33.11900
H  47.24000 22.76100 34.45200
H  45.39500 26.08200 33.79300
H  46.06900 27.53400 32.99100
H  46.75400 28.35100 34.84600
H  47.62400 26.94400 35.32200
H  45.86400 18.85800 29.85100
H  44.31800 19.70300 29.68300
H  45.33200 20.11500 31.07200
H  44.86000 17.84400 26.46500
H  44.37500 18.54500 27.88000
H  46.15600 18.07500 27.62800
H  47.34400 23.74500 23.66400
H  49.90600 25.30300 23.92200
H  48.86100 22.41600 22.75600
H  49.61800 21.93600 24.28800
H  50.20400 23.28800 23.50500
H  47.98800 25.74400 22.34100
H  48.90600 27.08000 22.99900
H  46.03000 26.66100 22.95000
H  46.88200 28.00600 23.71500
H  46.47700 26.56000 24.63300
H  49.82900 30.83000 27.74600
H  49.08400 29.91900 26.37700
H  50.86600 29.73800 26.78200
H  47.96100 28.92200 32.24400
H  50.46600 27.77400 35.21700
H  50.57600 29.52400 35.72900
H  51.67800 28.83500 34.55500
Mg 31.58600 58.64300 40.81700
C  28.92400 56.82100 39.55800
C  33.72500 56.09800 39.64100
C  34.14300 60.69700 41.18900
C  29.27000 61.48000 40.86000
N  31.33200 56.68200 39.72100
C  30.17700 56.15500 39.30300
C  30.35900 54.89400 38.52300
C  31.84800 54.55200 38.74900
C  32.35900 55.82200 39.42600
C  32.21800 53.21300 39.50300
C  29.93200 54.96600 37.01500
C  28.71700 54.08000 36.56500
H  27.60500 54.79900 35.63600
N  33.68200 58.30800 40.74000
C  34.41800 57.22900 40.21500
C  35.82100 57.44500 40.30200
C  35.98600 58.72700 40.84000
C  34.59400 59.31500 40.98900
C  36.85400 56.44100 39.90800
C  37.31800 59.36200 41.09900
O  38.39900 58.82400 40.85400
C  37.34100 60.67400 41.64700
N  31.66200 60.78100 41.20200
C  32.89600 61.37400 41.31200
C  32.74300 62.91500 41.31800
C  31.20800 63.18300 41.02300
C  30.67800 61.72400 40.99000
C  33.23600 63.73100 42.50500
C  30.90300 64.06300 39.81400
C  29.93000 65.17200 40.08100
N  29.48700 59.10000 40.45800
C  28.68000 60.21500 40.80100
C  27.27500 59.81000 40.65800
C  27.39900 58.47300 40.28800
C  28.70000 58.12100 40.06800
C  26.10700 60.72600 40.74800
C  26.59100 57.32100 39.86100
O  25.39400 57.13000 39.66000
C  27.54300 56.26600 39.46400
C  27.31400 55.06700 40.35500
O  27.61500 55.08800 41.53700
O  26.58200 53.99800 39.78600
C  26.03800 53.09900 40.76500
H  34.37800 55.32000 39.23800
H  34.95400 61.35500 41.50800
H  28.78900 62.44900 40.70900
H  29.82600 54.10000 39.04600
H  32.42300 54.65100 37.82900
H  32.97200 52.80500 38.82900
H  31.43500 52.48400 39.29300
H  32.57900 53.14300 40.53000
H  30.73400 54.75400 36.30700
H  29.52800 55.96000 36.82500
H  28.29700 53.59400 37.44600
H  29.01400 53.21300 35.97400
H  37.52900 56.74200 39.10800
H  36.40300 55.50600 39.57400
H  37.52800 56.28800 40.75100
H  36.81300 60.61400 42.59900
H  36.99700 61.42100 40.93200
H  38.35200 60.80000 42.03400
H  33.24500 63.28600 40.42400
H  30.70200 63.61000 41.88900
H  32.71900 63.38400 43.40000
H  33.00600 64.79500 42.44100
H  34.30300 63.52700 42.59900
H  30.33100 63.60100 39.01000
H  31.74600 64.55800 39.33100
H  30.30600 66.05700 39.56800
H  29.84300 65.23500 41.16600
H  28.99100 64.78200 39.69000
H  26.10100 61.36400 39.86400
H  26.17700 61.47200 41.53900
H  25.16800 60.18600 40.86700
H  27.38400 56.03000 38.41200
H  26.57700 52.18400 41.01100
H  25.20900 52.70400 40.17800
H  25.55700 53.55700 41.63000

