158

Mg 54.08400 24.52700 44.10200
C  51.05800 26.10600 43.40700
C  52.86400 21.56100 42.78100
C  57.30300 23.20100 43.99600
C  55.37300 27.60400 44.99000
N  52.30900 24.01100 43.05500
C  51.16600 24.76800 42.90700
C  50.08200 23.97200 42.08200
C  50.56500 22.51100 42.35300
C  51.99000 22.69900 42.80200
C  49.79800 21.69900 43.49500
C  49.86400 24.50900 40.62600
C  48.43900 24.55700 40.06400
H  48.03900 23.71900 38.79800
N  54.97300 22.62600 43.50800
C  54.24800 21.52800 43.15800
C  55.11900 20.42000 43.08200
C  56.41200 20.85000 43.46300
C  56.27700 22.30100 43.67100
C  54.66700 19.08900 42.58200
C  57.59400 19.90700 43.49300
O  57.40900 18.66900 43.23800
C  58.98700 20.38400 43.82200
N  56.09000 25.30100 44.40600
C  57.25400 24.59200 44.29300
C  58.43000 25.33700 44.72500
C  57.81800 26.79500 44.94100
C  56.31400 26.54400 44.81600
C  59.05000 24.81400 46.00400
C  58.43600 27.77300 43.94200
C  59.41100 28.74700 44.53900
N  53.40500 26.40300 44.30500
C  54.01200 27.52000 44.76000
C  53.06600 28.58200 44.90700
C  51.86200 28.03900 44.45000
C  52.13500 26.70500 44.01300
C  53.29200 29.87200 45.57100
C  50.42700 28.29800 44.23400
O  49.62300 29.23600 44.45900
C  49.91000 27.10500 43.53400
C  49.55600 27.60800 42.13900
O  50.32800 28.04800 41.29700
O  48.14800 27.80300 42.07200
C  47.77900 28.54600 40.81700
H  52.46400 20.60800 42.43100
H  58.27000 22.78800 44.29200
H  55.75900 28.56100 45.34800
H  49.19200 24.13300 42.69100
H  50.56800 21.98200 41.40000
H  48.96100 22.27400 43.89200
H  50.35200 21.35700 44.36900
H  49.51700 20.75500 43.02900
H  50.34000 23.82800 39.92100
H  50.31600 25.49100 40.48600
H  48.18400 25.59800 39.86400
H  47.65200 24.26400 40.75800
H  53.68500 19.05100 42.10900
H  54.65000 18.41300 43.43600
H  55.38400 18.71200 41.85300
H  59.29600 21.21500 43.18700
H  59.59400 19.48500 43.71700
H  58.95200 20.70200 44.86400
H  59.23300 25.38400 43.99000
H  57.95600 27.15600 45.96000
H  59.87200 25.43200 46.36400
H  59.53200 23.87200 45.74300
H  58.35900 24.67700 46.83600
H  57.61500 28.23800 43.39700
H  58.97400 27.38600 43.07600
H  60.41100 28.32000 44.61100
H  59.05300 28.92900 45.55200
H  59.34900 29.73900 44.09200
H  53.22500 29.55900 46.61300
H  52.37400 30.44000 45.41700
H  54.24500 30.30400 45.26800
H  49.14700 26.58300 44.11300
H  46.71100 28.39100 40.66300
H  48.29000 28.16100 39.93500
H  47.98700 29.59900 41.00600
Mg 8.81000 47.51100 27.57000
C  6.82100 47.20500 30.44000
C  11.52700 47.93400 29.44600
C  10.44900 48.29100 24.72000
C  5.72900 47.59400 25.63700
N  9.10300 47.55700 29.62400
C  8.21300 47.34200 30.63700
C  8.85100 47.25600 32.02800
C  10.28700 47.70100 31.68200
C  10.33400 47.69500 30.14000
C  10.78900 49.10500 32.17600
C  8.82000 45.87600 32.76000
C  9.95600 45.42100 33.73600
H  9.51900 44.89300 35.11000
N  10.77400 48.01000 27.16600
C  11.80100 48.10600 28.08100
C  13.05600 48.20200 27.39900
C  12.71300 48.41100 26.00800
C  11.25600 48.29800 25.91600
C  14.37700 48.20900 28.14800
C  13.69600 48.46400 24.88400
O  13.34600 48.65400 23.70800
C  15.21000 48.43300 25.11000
N  8.10400 47.83200 25.50000
C  9.05100 48.07400 24.52800
C  8.44700 48.44200 23.13900
C  6.97000 47.92800 23.36300
C  6.90700 47.68400 24.92000
C  8.54900 49.97500 22.84500
C  6.63800 46.55900 22.54700
C  5.51300 46.75500 21.55100
N  6.73100 47.36600 27.95100
C  5.62600 47.51000 27.06700
C  4.35900 47.39300 27.80000
C  4.82900 47.25000 29.18300
C  6.24000 47.24600 29.17400
C  2.94400 47.64300 27.20700
C  4.45000 47.06100 30.56900
O  3.34900 46.95100 31.13500
C  5.70300 46.86700 31.42300
C  5.75200 45.48400 31.86000
O  6.07700 44.52000 31.13600
O  5.30600 45.35400 33.17600
C  5.48400 43.99900 33.75800
H  12.49100 48.02400 29.94900
H  11.07500 48.66900 23.91000
H  4.80200 47.54500 25.06100
H  8.43200 48.01600 32.68800
H  11.00300 46.89200 31.82100
H  10.12900 49.46900 32.96400
H  10.69000 49.92100 31.46100
H  11.78300 49.07600 32.62400
H  8.80900 45.10900 31.98500
H  7.97300 45.70100 33.42400
H  10.54400 46.31900 33.92200
H  10.58500 44.75600 33.14400
H  15.00400 47.51900 27.58300
H  14.31200 47.87400 29.18300
H  14.72600 49.24200 28.13600
H  15.53100 48.94600 26.01600
H  15.54700 48.93000 24.20000
H  15.57300 47.40600 25.06200
H  9.01000 47.93200 22.35700
H  6.25300 48.71800 23.14100
H  8.70800 50.43100 23.82300
H  7.62400 50.36600 22.41900
H  9.39400 50.14900 22.17900
H  6.34900 45.78700 23.26000
H  7.54000 46.14300 22.09900
H  5.04200 47.73300 21.45300
H  4.67500 46.13700 21.87400
H  5.92900 46.39500 20.61000
H  2.35000 46.82800 27.62100
H  2.86000 47.78100 26.12900
H  2.51000 48.48600 27.74400
H  5.68800 47.56400 32.26100
H  6.51000 43.70500 33.53600
H  4.69500 43.28100 33.53500
H  5.60100 44.05600 34.84000

