158

Mg 9.53500 48.08100 25.93500
C  7.75200 48.33100 28.93300
C  12.37500 49.17800 27.58900
C  11.31000 47.80100 23.08800
C  6.62300 47.51800 24.17900
N  9.98800 48.69300 27.86500
C  9.15400 48.58500 28.99200
C  9.88300 48.87800 30.29500
C  11.20100 49.63600 29.78600
C  11.19100 49.14100 28.30600
C  11.27100 51.19700 30.00600
C  10.12800 47.65100 31.21500
C  9.66000 47.83600 32.65400
H  10.11500 46.70500 33.60300
N  11.64200 48.38000 25.43600
C  12.62200 48.83500 26.27200
C  13.88500 48.76300 25.61800
C  13.64900 48.21800 24.35000
C  12.16100 48.07100 24.22500
C  15.16500 49.04800 26.31700
C  14.59500 47.86800 23.24300
O  14.22900 47.50800 22.15000
C  16.08300 47.99500 23.42000
N  9.07000 47.73500 23.96100
C  9.93100 47.74400 22.90900
C  9.29800 47.26700 21.62200
C  7.84700 47.65600 21.90000
C  7.81300 47.59000 23.42500
C  9.91000 47.79700 20.28100
C  6.83400 46.71600 21.08600
C  5.80500 47.37000 20.19700
N  7.51500 48.05300 26.38900
C  6.49700 47.71800 25.57000
C  5.26600 47.68900 26.37800
C  5.65900 47.83700 27.73900
C  7.06900 48.08200 27.67900
C  3.83300 47.56000 26.01900
C  5.21600 47.89700 29.11800
O  4.10500 47.82100 29.63800
C  6.56900 48.11100 29.90700
C  6.73800 46.83200 30.67000
O  7.31300 45.83600 30.25500
O  6.21900 46.87600 31.90700
C  6.43700 45.72300 32.88500
H  13.22100 49.54300 28.17500
H  11.88700 47.54400 22.19700
H  5.67000 47.15400 23.79100
H  9.22400 49.53100 30.86600
H  11.98300 49.13300 30.35400
H  12.13800 51.50300 30.59200
H  10.34500 51.58500 30.42900
H  11.48700 51.86300 29.17100
H  11.17300 47.34300 31.18100
H  9.46000 46.87900 30.83300
H  8.57800 47.90000 32.76500
H  10.09600 48.77600 32.99300
H  15.15700 48.97000 27.40400
H  15.57800 49.99800 25.97700
H  15.96000 48.33900 26.08400
H  16.31800 47.18000 24.10500
H  16.54000 48.89700 23.82700
H  16.53100 47.84000 22.43900
H  9.33700 46.17900 21.67200
H  7.62900 48.67100 21.56900
H  10.74200 48.44800 20.55000
H  9.29300 48.45200 19.66400
H  10.35500 46.99300 19.69500
H  6.28000 46.06200 21.75900
H  7.30000 46.00600 20.40300
H  6.04500 47.14000 19.15900
H  5.88100 48.43700 20.40500
H  4.83500 46.96000 20.47700
H  3.67000 46.61600 25.49800
H  3.49700 48.42800 25.45200
H  3.16600 47.60500 26.88000
H  6.42000 49.01000 30.50600
H  5.49700 45.23800 33.14700
H  6.80400 46.14100 33.82300
H  7.20400 45.04200 32.51600
Mg -5.47300 25.33400 25.79300
C  -4.38000 26.47000 28.98300
C  -7.54400 23.03100 27.43200
C  -5.88100 23.82800 22.81100
C  -2.91000 27.34900 24.36400
N  -5.73200 24.78000 27.94300
C  -5.30600 25.42800 29.05100
C  -5.81500 24.83700 30.36200
C  -6.71400 23.64700 29.82200
C  -6.70800 23.85700 28.27000
C  -6.03100 22.25600 30.34400
C  -6.60300 25.89900 31.18500
C  -6.16900 26.17100 32.63100
H  -5.54000 25.03200 33.31200
N  -6.63700 23.72400 25.18900
C  -7.49100 22.92600 25.97000
C  -8.26800 22.10800 25.06000
C  -7.78300 22.29600 23.76600
C  -6.73800 23.36900 23.86600
C  -9.41600 21.28300 25.57400
C  -8.26100 21.60700 22.46700
O  -7.89800 22.01000 21.33400
C  -9.17000 20.46800 22.48000
N  -4.54400 25.57700 23.81200
C  -4.88400 24.83900 22.72300
C  -4.13400 25.23300 21.45400
C  -3.37000 26.50300 21.93500
C  -3.54400 26.48200 23.47200
C  -3.41700 24.21200 20.64100
C  -3.87700 27.84800 21.30700
C  -5.19800 28.39600 21.86700
N  -4.01300 26.71200 26.47100
C  -3.11300 27.51400 25.74200
C  -2.46800 28.39300 26.65500
C  -2.97500 28.10800 27.96100
C  -3.81600 26.98500 27.77600
C  -1.54100 29.56800 26.29600
C  -2.90800 28.54500 29.37900
O  -2.36200 29.48500 29.96300
C  -3.79900 27.46300 30.11300
C  -2.69700 26.66300 30.87400
O  -1.93500 25.74200 30.48600
O  -2.58800 27.29700 32.08500
C  -1.40400 27.02000 32.81100
H  -8.18000 22.41500 28.07100
H  -6.14100 23.22100 21.94100
H  -2.12500 27.91300 23.85700
H  -4.95300 24.49300 30.93500
H  -7.76100 23.63800 30.12500
H  -5.66200 21.75400 29.44900
H  -6.63700 21.51700 30.86900
H  -5.23000 22.51000 31.03900
H  -7.62500 25.52300 31.23700
H  -6.67200 26.86500 30.68500
H  -7.02400 26.48800 33.22800
H  -5.45800 26.99500 32.57900
H  -9.21200 20.21200 25.59900
H  -10.28800 21.54600 24.97400
H  -9.66700 21.58600 26.59000
H  -8.72000 19.52400 22.78600
H  -9.65400 20.31300 21.51500
H  -10.06000 20.72400 23.05500
H  -4.83300 25.68000 20.74700
H  -2.32300 26.36700 21.66500
H  -2.34400 24.36800 20.53500
H  -3.96900 24.19100 19.70200
H  -3.50400 23.26700 21.17600
H  -3.98300 27.72400 20.22900
H  -3.05700 28.56500 21.34200
H  -5.87000 28.69600 21.06200
H  -5.08300 29.28600 22.48500
H  -5.67900 27.63300 22.47900
H  -1.31900 30.28200 27.08900
H  -2.22300 30.06600 25.60800
H  -0.66900 29.10900 25.83000
H  -4.59400 27.91400 30.70700
H  -0.56900 27.06700 32.11100
H  -1.46200 26.00200 33.19500
H  -1.33400 27.68300 33.67300

