158

Mg 35.91300 1.13400 29.50400
C  33.46400 1.97100 31.79200
C  38.28000 1.15300 31.69800
C  38.25400 0.92900 26.97300
C  33.38100 1.46600 26.91700
N  35.83500 1.66700 31.51500
C  34.73100 1.82700 32.32300
C  35.20300 1.97900 33.84900
C  36.77800 1.92500 33.69100
C  36.97400 1.48600 32.24400
C  37.54000 3.19100 34.07400
C  34.64900 0.79100 34.77200
C  34.18000 1.24200 36.12000
H  34.96000 2.33400 36.83200
N  37.99900 0.91500 29.38000
C  38.79100 0.85100 30.43700
C  40.07200 0.36900 30.07000
C  40.04500 0.34000 28.63000
C  38.75700 0.74500 28.25000
C  41.12100 -0.13300 31.07200
C  41.15900 -0.05700 27.70600
O  41.02100 -0.10700 26.50100
C  42.54100 -0.51000 28.25200
N  35.84500 1.44100 27.20700
C  36.97100 1.11800 26.47500
C  36.64400 1.28100 24.99500
C  35.08000 1.34000 24.96400
C  34.69300 1.47400 26.42600
C  37.31100 2.52200 24.21500
C  34.33800 0.25000 24.15600
C  34.24600 -1.12700 24.96300
N  33.86700 1.61600 29.37600
C  33.00200 1.64100 28.30700
C  31.66400 1.93700 28.73300
C  31.78600 2.12700 30.11600
C  33.16600 1.88100 30.42900
C  30.50300 2.04700 27.88200
C  31.08800 2.59300 31.29700
O  29.91100 2.96200 31.57900
C  32.20200 2.40700 32.41400
C  32.41500 3.70600 33.10400
O  32.97200 4.72200 32.65300
O  31.77100 3.71600 34.30700
C  31.90600 4.89000 35.19500
H  39.05800 1.10700 32.46400
H  39.04300 0.74600 26.24000
H  32.58400 1.58500 26.18000
H  34.81800 2.89400 34.30100
H  37.09200 1.09100 34.31900
H  38.21000 3.53300 33.28600
H  38.01300 3.17300 35.05600
H  36.84500 4.01900 34.21600
H  35.26400 -0.07600 35.01500
H  33.84000 0.40700 34.15000
H  34.14800 0.42600 36.84100
H  33.14500 1.58200 36.09500
H  41.94200 0.58200 31.13200
H  41.58800 -1.09600 30.86400
H  40.68100 -0.17800 32.06800
H  43.29800 -0.68200 27.48700
H  42.40300 -1.51200 28.65600
H  42.82300 0.18500 29.04300
H  37.08600 0.40600 24.51800
H  34.69700 2.30000 24.61900
H  37.66700 3.30800 24.88100
H  36.69800 3.05400 23.48800
H  38.11200 2.11500 23.59800
H  34.89900 0.14800 23.22700
H  33.32400 0.62000 24.00100
H  33.55500 -0.88600 25.77100
H  35.18500 -1.44700 25.41600
H  33.77600 -1.91600 24.37600
H  30.54700 2.80800 27.10300
H  29.64100 2.30500 28.49800
H  30.32000 1.06700 27.44100
H  31.80400 1.63400 33.07300
H  32.84600 5.44200 35.20600
H  31.92200 4.42200 36.17900
H  31.13100 5.65000 35.10500
Mg 9.11100 48.41800 25.61800
C  7.21200 48.39900 28.54700
C  11.83200 49.42500 27.39200
C  10.74300 48.68200 22.78500
C  6.28700 47.56300 23.94000
N  9.45100 48.80900 27.74600
C  8.50700 48.75400 28.78800
C  9.27000 49.12200 30.03600
C  10.55500 49.83600 29.52200
C  10.68300 49.21800 28.14600
C  10.43900 51.39100 29.44900
C  9.50300 47.99100 31.11700
C  8.99300 48.28700 32.57500
H  8.58300 47.14700 33.52800
N  11.12700 48.93400 25.14300
C  12.06500 49.26600 26.03200
C  13.33800 49.33600 25.35200
C  13.07300 49.10100 23.97900
C  11.60800 49.02000 23.88200
C  14.58300 49.59900 26.06600
C  14.08800 48.99700 22.81100
O  13.63300 48.92800 21.67600
C  15.56900 48.86700 23.01300
N  8.51300 48.44800 23.58000
C  9.44500 48.32800 22.57900
C  8.77000 48.07800 21.19600
C  7.37900 47.42800 21.68500
C  7.43800 47.82000 23.20200
C  8.43100 49.25200 20.19800
C  7.31100 45.88900 21.45400
C  6.19400 45.47100 20.39600
N  7.13600 47.99300 26.07400
C  6.10800 47.68700 25.28200
C  4.87700 47.44300 26.06500
C  5.27800 47.69600 27.35400
C  6.60700 48.06600 27.27000
C  3.49300 47.03000 25.55800
C  4.79400 47.72100 28.69500
O  3.77300 47.41500 29.24200
C  6.03500 48.28400 29.55000
C  6.17200 47.31700 30.69000
O  6.60800 46.21300 30.67100
O  5.50300 47.87400 31.76500
C  4.90000 46.92500 32.76700
H  12.67600 49.94700 27.84800
H  11.27100 48.65000 21.83000
H  5.41300 47.15300 23.43000
H  8.61900 49.89100 30.45100
H  11.42100 49.46400 30.06900
H  10.79200 51.75700 28.48500
H  11.01800 51.83600 30.25800
H  9.39700 51.70800 29.49600
H  10.57600 47.84900 31.24100
H  9.07100 47.03800 30.81000
H  8.16900 48.99300 32.46600
H  9.84000 48.81200 33.01700
H  14.56200 49.77000 27.14300
H  15.00900 50.46400 25.55800
H  15.19300 48.72200 25.84900
H  15.83400 47.81000 22.98000
H  16.01600 49.23900 23.93500
H  16.07300 49.31300 22.15500
H  9.42700 47.32800 20.75500
H  6.48000 47.94500 21.34800
H  8.83500 49.02900 19.21100
H  8.69300 50.21100 20.64500
H  7.37700 49.30900 19.92400
H  7.11100 45.37800 22.39500
H  8.21000 45.38100 21.10400
H  5.49600 46.30600 20.34200
H  5.83000 44.59700 20.93700
H  6.63100 45.27000 19.41800
H  3.58900 45.95000 25.43800
H  3.10600 47.60300 24.71500
H  2.79700 47.35100 26.33300
H  5.70900 49.22000 30.00400
H  5.77600 46.57700 33.31500
H  4.29700 46.21000 32.20800
H  4.27700 47.44800 33.49200

