158

Mg 47.91000 44.90100 43.26300
C  44.56300 44.29700 42.49500
C  48.62100 41.57800 43.01000
C  51.09400 45.67200 43.61400
C  47.09000 48.36400 43.20700
N  46.80500 43.16600 42.55000
C  45.37500 43.13300 42.48700
C  44.91800 41.70500 42.21300
C  46.19800 40.84300 42.42700
C  47.31500 41.92300 42.75500
C  46.26200 39.89300 43.61700
C  44.26200 41.59300 40.81400
C  44.68800 42.33200 39.53900
H  43.91200 41.94200 38.20900
N  49.67000 43.70700 43.29100
C  49.74900 42.39500 43.24300
C  51.09000 42.02400 43.44800
C  51.87300 43.21100 43.55400
C  50.87500 44.28100 43.52500
C  51.45100 40.52100 43.46500
C  53.30800 43.30500 43.85600
O  53.98700 42.27100 43.85600
C  54.05200 44.52900 44.14600
N  48.94700 46.78200 43.27300
C  50.24300 46.78300 43.51900
C  50.74700 48.23300 43.68900
C  49.38700 49.07000 43.73500
C  48.40200 48.00000 43.36400
C  51.63200 48.42000 45.03100
C  49.46000 50.35200 42.88400
C  49.48600 51.65300 43.75200
N  46.13100 46.16800 42.95800
C  45.96300 47.52200 42.98300
C  44.58100 47.87000 42.79700
C  43.97300 46.60500 42.63100
C  44.97100 45.63600 42.70800
C  43.95500 49.23100 42.88200
C  42.63700 45.95600 42.45800
O  41.54800 46.46400 42.35000
C  42.99400 44.44300 42.29600
C  42.23200 43.81100 43.39400
O  41.32400 42.98300 43.27200
O  42.71800 44.18200 44.62200
C  41.99000 43.75200 45.85800
H  48.68300 40.49000 43.07900
H  52.12600 45.93900 43.85100
H  46.79900 49.41100 43.31600
H  44.17900 41.46700 42.97800
H  46.53500 40.30000 41.54500
H  46.90100 40.28900 44.40700
H  46.78500 38.96800 43.37600
H  45.26000 39.65200 43.97300
H  43.18200 41.61100 40.96000
H  44.45300 40.56500 40.50500
H  45.67500 41.90100 39.37000
H  44.54500 43.41300 39.51300
H  52.50400 40.28000 43.31700
H  50.90500 40.00900 42.67300
H  51.12000 40.02500 44.37700
H  54.17800 45.16200 43.26800
H  55.11400 44.38100 44.34000
H  53.61500 45.09300 44.97000
H  51.30300 48.34300 42.75900
H  49.17400 49.27000 44.78500
H  51.68900 49.43900 45.41300
H  52.63400 48.08000 44.76900
H  51.20000 47.65300 45.67300
H  48.63700 50.43300 42.17400
H  50.33200 50.38700 42.23100
H  50.25800 52.39500 43.54800
H  49.69500 51.44700 44.80200
H  48.47600 52.05500 43.66400
H  44.19100 49.88900 42.04500
H  44.29400 49.87000 43.69700
H  42.87200 49.20500 43.00500
H  42.68600 44.07400 41.31800
H  41.76800 42.68500 45.86700
H  41.02000 44.22500 46.01200
H  42.65500 43.94000 46.70100
Mg 6.62900 53.44400 41.46400
C  6.38600 49.95700 41.63900
C  9.89600 52.91500 40.28000
C  6.67000 56.59200 40.41500
C  3.17400 53.62600 42.21700
N  7.89400 51.61100 40.87500
C  7.57900 50.30300 41.11400
C  8.72400 49.37100 40.73900
C  9.97200 50.35400 40.70100
C  9.25300 51.70700 40.62700
C  11.06100 50.12900 41.82700
C  8.54900 48.46200 39.50600
C  7.89300 49.05500 38.24300
H  6.78900 48.26600 37.52800
N  8.06300 54.59600 40.57700
C  9.32400 54.19500 40.19500
C  10.05000 55.45600 39.73300
C  9.16100 56.56700 39.77900
C  7.92700 55.98600 40.28300
C  11.51500 55.45200 39.22300
C  9.42600 58.03000 39.39000
O  10.47700 58.42000 38.89800
C  8.43000 59.09500 39.45100
N  5.00300 54.78200 41.12400
C  5.40400 56.08300 40.85600
C  4.19100 57.00200 41.03600
C  3.09100 56.10200 41.68300
C  3.71300 54.77000 41.66300
C  4.45900 58.27300 41.87500
C  1.72300 55.92300 40.88500
C  0.42700 56.29000 41.62100
N  5.07900 52.16700 42.03600
C  3.73200 52.34400 42.38600
C  3.23700 51.07800 42.91900
C  4.27800 50.15200 42.68500
C  5.35200 50.83700 42.05700
C  1.91700 50.94700 43.56900
C  4.62200 48.74900 42.82900
O  4.02900 47.86100 43.39300
C  5.92200 48.58700 42.03400
C  5.53300 47.65000 40.92700
O  4.78100 47.97600 40.00300
O  5.89200 46.36700 41.25900
C  5.64500 45.28900 40.26300
H  10.95600 52.80200 40.04300
H  6.54400 57.66000 40.22400
H  2.16700 53.69300 42.63500
H  8.83600 48.65400 41.55300
H  10.47200 50.20600 39.74400
H  11.24200 50.98200 42.48100
H  11.93600 49.86400 41.23500
H  10.93900 49.20700 42.39500
H  8.09800 47.53600 39.86300
H  9.53900 48.15400 39.17000
H  8.69700 48.97700 37.51100
H  7.60800 50.10200 38.34900
H  12.23100 54.94400 39.86900
H  12.00700 56.42100 39.30100
H  11.69300 55.10900 38.20400
H  8.19000 59.35300 40.48300
H  7.54000 58.69000 38.97100
H  8.78700 59.94800 38.87400
H  3.82300 57.39300 40.08700
H  2.81000 56.37200 42.70100
H  4.13900 59.17400 41.35100
H  5.53500 58.27500 42.05000
H  3.95000 58.33600 42.83600
H  1.59500 54.94400 40.42400
H  1.80500 56.61200 40.04400
H  0.49000 56.21900 42.70700
H  -0.26800 55.48300 41.38800
H  0.14500 57.30500 41.33900
H  1.23000 50.74300 42.74700
H  1.56200 51.90900 43.93800
H  1.87400 50.11600 44.27300
H  6.75200 48.06200 42.50600
H  4.62000 45.37100 39.90300
H  5.76100 44.33500 40.77800
H  6.36100 45.46600 39.46000

