158

Mg 25.81500 0.68800 28.75000
C  27.98300 0.51300 31.50400
C  23.19200 1.30900 30.89800
C  23.86600 0.38500 26.23000
C  28.58900 -0.14300 26.73800
N  25.60500 0.95200 30.97500
C  26.65000 0.86000 31.90000
C  26.10800 1.13400 33.25800
C  24.49700 1.03900 33.05300
C  24.41600 1.16100 31.56800
C  23.89300 -0.25900 33.64300
C  26.67500 2.43900 33.92100
C  25.93500 3.20500 34.96900
H  26.42200 2.78200 36.39600
N  23.77800 0.97000 28.56700
C  22.85400 1.33800 29.54500
C  21.53000 1.47900 28.90400
C  21.70100 1.15900 27.54500
C  23.17200 0.80000 27.35100
C  20.31200 1.79100 29.69100
C  20.67400 1.16400 26.43300
O  20.87400 0.65600 25.33300
C  19.31500 1.70600 26.72900
N  26.14800 0.03600 26.80800
C  25.20200 0.14300 25.85800
C  25.72200 -0.04700 24.45200
C  27.32600 0.13200 24.70500
C  27.37300 0.02000 26.20000
C  25.34500 -1.45200 23.83000
C  27.77900 1.62200 24.35400
C  29.21900 1.76200 23.71400
N  27.85300 0.23500 29.04900
C  28.88700 -0.02700 28.19200
C  30.20200 -0.16200 28.83200
C  29.86700 -0.00600 30.20800
C  28.43900 0.28300 30.22800
C  31.35100 -0.73800 28.16100
C  30.36400 -0.03600 31.56200
O  31.50600 -0.20100 32.02400
C  29.14900 0.30500 32.49200
C  29.00600 -0.85400 33.44000
O  28.81200 -2.03400 33.22600
O  29.10300 -0.29300 34.66100
C  29.16200 -1.14300 35.82500
H  22.48200 1.55600 31.69000
H  23.25000 0.20400 25.34600
H  29.45600 -0.13700 26.07400
H  26.53800 0.34800 33.87800
H  23.81300 1.82400 33.37500
H  23.35700 -0.12500 34.58300
H  24.80700 -0.85200 33.66700
H  23.26700 -0.89200 33.01500
H  26.85300 3.16700 33.13000
H  27.65800 2.26000 34.35700
H  24.90100 2.86700 34.89600
H  25.99700 4.25900 34.69800
H  20.42800 2.01700 30.75100
H  19.79100 0.83400 29.71200
H  19.80800 2.66000 29.26700
H  18.69200 1.12200 27.40600
H  18.74100 1.84600 25.81300
H  19.42500 2.67700 27.21400
H  25.24200 0.77800 23.92500
H  27.91200 -0.59100 24.13700
H  24.86300 -2.04400 24.60800
H  26.23500 -1.98600 23.49800
H  24.56600 -1.39500 23.07000
H  27.90900 2.24400 25.24000
H  27.04200 2.10300 23.71100
H  29.12900 2.09500 22.68000
H  29.74700 0.80900 23.71500
H  29.87200 2.39200 24.31800
H  31.16600 -1.14500 27.16700
H  31.87900 -1.51600 28.71300
H  32.12400 0.03100 28.16300
H  29.37200 1.30200 32.87200
H  30.11500 -0.90700 36.29900
H  28.92700 -2.18400 35.60200
H  28.35700 -1.03600 36.55100
Mg 6.80600 54.44900 40.23600
C  6.28300 51.04400 39.85400
C  10.11900 53.94600 39.14000
C  6.99100 57.73300 39.40500
C  3.26600 54.84000 40.39600
N  8.03700 52.76200 39.54500
C  7.58500 51.42600 39.58000
C  8.75200 50.48200 39.12600
C  9.98900 51.37600 39.29900
C  9.35100 52.83000 39.22200
C  10.66200 51.32200 40.69500
C  8.66400 49.92500 37.68700
C  8.23100 50.85600 36.57900
H  6.89900 50.60800 35.84500
N  8.36000 55.66400 39.38400
C  9.68600 55.31600 39.19200
C  10.49000 56.48400 38.92100
C  9.61700 57.59500 39.06700
C  8.25400 57.04200 39.24200
C  11.93300 56.43400 38.48900
C  10.06600 59.12900 39.04100
O  11.20600 59.46400 38.79200
C  9.05400 60.21000 39.29300
N  5.31600 56.07300 39.91300
C  5.71300 57.28900 39.65900
C  4.54700 58.25800 39.98700
C  3.38100 57.34500 40.32500
C  4.04200 56.01600 40.15300
C  4.89400 59.38800 41.04700
C  2.12200 57.54500 39.37400
C  0.74200 57.37900 40.04400
N  5.04000 53.16200 40.35200
C  3.71600 53.47600 40.40100
C  2.95900 52.26000 40.50400
C  3.96500 51.25600 40.33000
C  5.18600 51.90200 40.12700
C  1.43400 52.21800 40.69800
C  4.17000 49.81700 40.29400
O  3.39700 48.90400 40.37000
C  5.64300 49.63800 39.86700
C  5.59700 48.92800 38.62700
O  5.01300 49.30300 37.63400
O  6.32200 47.73500 38.69200
C  6.14300 46.83100 37.47900
H  11.17800 53.70800 39.01700
H  6.96200 58.82500 39.39300
H  2.22000 55.07500 40.60500
H  8.67000 49.68100 39.86000
H  10.84100 51.22400 38.63600
H  10.89200 52.31200 41.08800
H  11.64700 50.86600 40.59800
H  10.06400 50.68000 41.34000
H  7.99800 49.06300 37.65500
H  9.59700 49.51400 37.30400
H  8.90500 50.81800 35.72300
H  8.17600 51.85900 37.00100
H  12.13200 56.99100 37.57400
H  12.21500 55.43700 38.14900
H  12.56700 56.83300 39.28000
H  9.52300 61.19300 39.27600
H  8.50800 59.88300 40.17800
H  8.35900 60.35600 38.46600
H  4.28600 58.84000 39.10300
H  3.03100 57.48400 41.34700
H  5.88800 59.37900 41.49300
H  4.25600 59.28200 41.92400
H  4.69300 60.40100 40.69700
H  2.17500 56.81200 38.56900
H  1.98500 58.55600 38.99000
H  0.38100 56.38100 39.79400
H  0.10800 58.17400 39.65300
H  0.62000 57.44700 41.12500
H  1.04600 52.32800 39.68500
H  1.14900 53.13200 41.21900
H  1.06800 51.30700 41.17000
H  6.12700 48.99200 40.60000
H  5.16600 46.35600 37.39300
H  6.85800 46.06100 37.76800
H  6.35700 47.28500 36.51200

