158

Mg 24.89600 -5.18000 45.83500
C  27.13900 -2.93200 44.27500
C  22.44000 -4.05800 43.63700
C  22.94700 -7.82800 46.68900
C  27.62300 -6.64700 47.47200
N  24.79200 -3.82900 43.98500
C  25.80000 -2.87600 43.76400
C  25.24100 -1.86500 42.69400
C  23.66300 -1.91000 42.96600
C  23.61000 -3.32100 43.59800
C  23.08300 -0.76400 43.82600
C  25.67100 -2.18400 41.15500
C  26.15800 -0.92300 40.40300
H  26.11400 -1.08500 38.88700
N  22.97900 -5.85200 45.27900
C  22.13800 -5.27700 44.33600
C  20.95300 -6.06900 44.18900
C  21.01100 -7.12600 45.12300
C  22.39500 -6.93600 45.77700
C  19.88500 -5.69500 43.17900
C  19.91900 -8.12800 45.34300
O  18.84200 -8.10500 44.71200
C  19.92300 -9.13900 46.48700
N  25.20600 -6.93900 46.91600
C  24.22800 -7.84100 47.25200
C  24.78700 -9.02400 48.14900
C  26.15300 -8.46100 48.48600
C  26.35500 -7.27200 47.56000
C  23.88100 -9.49000 49.30800
C  27.23300 -9.55400 48.26000
C  28.52800 -9.46800 49.07800
N  26.94900 -4.81800 45.97600
C  27.96000 -5.58700 46.59100
C  29.23300 -4.96300 46.28200
C  28.95000 -3.95200 45.31800
C  27.54000 -3.91300 45.16300
C  30.55700 -5.41100 46.74300
C  29.59200 -2.88500 44.58900
O  30.78500 -2.51800 44.55400
C  28.34400 -2.13100 43.81400
C  28.34800 -0.70700 44.28000
O  27.65700 -0.21000 45.18800
O  29.37200 -0.07800 43.66000
C  29.92900 1.02900 44.39300
H  21.73200 -3.54700 42.98100
H  22.31300 -8.67900 46.94800
H  28.38500 -6.89900 48.21200
H  25.64400 -0.88100 42.93400
H  23.04800 -1.89500 42.06600
H  22.67400 -1.11700 44.77300
H  22.23400 -0.35400 43.27900
H  23.87700 -0.04200 44.01400
H  24.77300 -2.53600 40.64600
H  26.38100 -3.00900 41.21800
H  27.12900 -0.57000 40.75200
H  25.41000 -0.23100 40.79000
H  20.27700 -4.95500 42.48200
H  19.15800 -5.07900 43.70900
H  19.60200 -6.65300 42.74300
H  20.69200 -9.85400 46.19700
H  18.98400 -9.66300 46.66100
H  20.12000 -8.51700 47.36100
H  25.00000 -9.86100 47.48400
H  26.28000 -8.08500 49.50100
H  23.56900 -10.53300 49.24300
H  23.01500 -8.83300 49.39100
H  24.50900 -9.37100 50.19100
H  27.47900 -9.60400 47.20000
H  26.88300 -10.51200 48.64600
H  28.72600 -10.29000 49.76500
H  28.45200 -8.66000 49.80600
H  29.42900 -9.33100 48.48000
H  30.69700 -4.92000 47.70600
H  31.43700 -5.11600 46.17100
H  30.60500 -6.49900 46.71700
H  28.44800 -2.05700 42.73200
H  30.41000 1.61100 43.60700
H  30.74000 0.52400 44.91700
H  29.19800 1.64100 44.92200
Mg -12.15300 39.06700 41.45100
C  -10.17400 36.27600 40.54100
C  -9.68400 41.10000 40.01300
C  -14.34000 41.49000 41.49800
C  -14.78400 36.74400 42.16200
N  -10.21100 38.64200 40.27600
C  -9.58800 37.46300 40.10100
C  -8.14300 37.66100 39.53600
C  -7.94900 39.19000 39.71100
C  -9.36400 39.69900 39.99000
C  -6.89600 39.74500 40.76400
C  -8.01300 37.03800 38.11300
C  -7.26500 35.72300 37.92000
H  -6.08600 35.77900 36.91500
N  -12.01100 41.07200 40.95000
C  -10.95100 41.72600 40.38000
C  -11.30000 43.17900 40.27800
C  -12.66000 43.23900 40.81900
C  -13.08000 41.88800 41.01900
C  -10.42800 44.25400 39.81800
C  -13.39400 44.57000 41.00100
O  -12.87600 45.59600 40.49000
C  -14.81900 44.65800 41.56800
N  -14.26000 39.07700 41.66600
C  -14.90700 40.27400 41.77700
C  -16.42000 40.01900 41.90100
C  -16.57000 38.51200 42.05600
C  -15.10600 38.06000 42.00400
C  -17.07100 40.93800 42.98100
C  -17.39900 37.69300 41.01000
C  -18.49200 36.82600 41.73600
N  -12.42200 37.01000 41.58300
C  -13.53100 36.17800 41.95300
C  -13.14300 34.80500 41.92400
C  -11.82900 34.84000 41.44200
C  -11.44300 36.14100 41.16800
C  -14.00700 33.62100 42.31500
C  -10.77400 33.99500 41.09000
O  -10.60300 32.77900 41.31500
C  -9.70600 34.91900 40.43700
C  -8.38200 34.69500 41.09900
O  -7.50500 33.90400 40.75900
O  -8.18300 35.52100 42.17000
C  -6.98900 35.31900 43.10000
H  -8.84300 41.75100 39.76300
H  -15.17600 42.18200 41.37600
H  -15.56800 36.00600 42.34500
H  -7.45100 37.19700 40.24000
H  -7.53100 39.48100 38.74700
H  -7.25100 40.71800 41.10300
H  -5.91900 39.75400 40.27900
H  -6.90800 38.98800 41.54800
H  -7.60100 37.75300 37.40100
H  -9.05800 36.93900 37.82200
H  -8.00200 34.96800 37.64700
H  -6.78300 35.36900 38.83200
H  -10.46300 45.11000 40.49100
H  -10.66900 44.29500 38.75600
H  -9.39700 43.90800 39.74200
H  -15.61900 44.37500 40.88500
H  -15.04400 45.64400 41.97400
H  -14.84600 44.02400 42.45400
H  -16.72600 40.23800 40.87800
H  -16.93600 38.24700 43.04800
H  -17.71400 41.59700 42.39700
H  -16.29700 41.50800 43.49500
H  -17.58700 40.41400 43.78500
H  -16.85200 36.97500 40.39900
H  -17.98800 38.33600 40.35600
H  -19.43100 37.33900 41.52700
H  -18.40300 36.74500 42.82000
H  -18.53400 35.86500 41.22400
H  -14.87800 33.88900 42.91300
H  -13.45700 32.78700 42.75100
H  -14.43800 33.25400 41.38300
H  -9.47400 34.73600 39.38800
H  -7.31600 35.67900 44.07500
H  -6.07300 35.82700 42.79800
H  -6.76500 34.25200 43.10400

