158

Mg 41.56600 7.87900 30.02100
C  43.18700 9.52700 32.57400
C  39.25600 6.75500 32.22200
C  40.25300 6.33300 27.44200
C  44.45800 8.61000 28.01400
N  41.40000 8.05100 32.17000
C  42.12300 8.81400 33.02000
C  41.49600 8.78000 34.43700
C  40.27100 7.85400 34.26100
C  40.31600 7.48100 32.82900
C  40.34200 6.66400 35.18600
C  41.30000 10.09900 35.08300
C  40.28000 10.11900 36.27200
H  40.64200 11.15600 37.33700
N  39.89600 6.74700 29.85800
C  39.07800 6.33700 30.85800
C  37.99600 5.56500 30.28100
C  38.23600 5.54000 28.88800
C  39.52000 6.20900 28.64300
C  37.00000 4.75200 31.07600
C  37.35900 4.89400 27.78700
O  37.56100 4.94900 26.57900
C  36.12000 4.16900 28.17300
N  42.33100 7.39700 27.95000
C  41.49100 6.87300 27.10200
C  42.05700 6.83600 25.69500
C  43.44900 7.67600 25.83700
C  43.45200 7.90900 27.34300
C  42.15700 5.40200 25.05500
C  43.62800 8.96700 24.97800
C  42.72900 10.18000 25.43700
N  43.38600 8.90300 30.16100
C  44.48800 9.08500 29.32000
C  45.52300 9.93700 29.97100
C  44.91000 10.21500 31.18400
C  43.75200 9.49900 31.29100
C  46.75400 10.52400 29.31100
C  45.14300 10.92000 32.42500
O  46.16900 11.59100 32.70600
C  43.95800 10.48400 33.44400
C  44.64200 9.71400 34.52600
O  45.02300 8.51300 34.46100
O  44.74800 10.60200 35.56300
C  45.28600 9.95500 36.79300
H  38.37700 6.57400 32.84500
H  39.67300 5.91400 26.61700
H  45.26800 8.99500 27.39200
H  42.14800 8.22900 35.11600
H  39.40000 8.49100 34.40900
H  40.27100 5.77300 34.56300
H  39.46000 6.65400 35.82600
H  41.17600 6.52200 35.87400
H  41.10300 10.82600 34.29600
H  42.25700 10.46000 35.46100
H  40.16900 9.16100 36.78000
H  39.24500 10.31700 35.99200
H  36.00000 5.12800 30.85800
H  37.09900 5.09800 32.10500
H  36.95900 3.66900 30.95800
H  35.29400 4.08200 27.46700
H  35.61100 4.76300 28.93300
H  36.51100 3.19900 28.47800
H  41.38500 7.42300 25.06900
H  44.29700 7.00900 25.68900
H  41.50200 4.69900 25.57000
H  43.16700 4.99800 24.97800
H  41.73800 5.51600 24.05500
H  43.27900 8.65900 23.99300
H  44.62200 9.33300 24.72100
H  41.89600 10.17100 26.14000
H  42.36300 10.82300 24.63700
H  43.47600 10.82300 25.90500
H  47.48100 10.68700 30.10600
H  46.61000 11.43300 28.72700
H  47.18200 9.71200 28.72400
H  43.45300 11.36500 33.84100
H  46.32700 9.70600 36.58800
H  44.80700 9.00000 37.00700
H  45.30100 10.53900 37.71300
Mg -4.55600 25.72400 25.76800
C  -3.34700 27.06600 28.62300
C  -6.21500 23.32400 27.85300
C  -6.01300 24.28500 23.07600
C  -2.70700 27.67400 23.87500
N  -4.88800 25.30600 28.10100
C  -4.29900 26.05800 28.98200
C  -4.77000 25.65200 30.33800
C  -5.58900 24.30300 30.12000
C  -5.55600 24.29600 28.62800
C  -5.00300 22.98500 30.77000
C  -5.58700 26.80500 31.02500
C  -5.69400 27.00900 32.57900
H  -5.28600 25.85300 33.56100
N  -5.84000 24.06800 25.47900
C  -6.29100 23.19200 26.42100
C  -7.10700 22.18400 25.79600
C  -7.08700 22.40500 24.35500
C  -6.29000 23.62000 24.22600
C  -7.84600 21.01900 26.58800
C  -7.62900 21.51300 23.28400
O  -7.43000 21.67800 22.06800
C  -8.55700 20.32900 23.62100
N  -4.30400 25.81700 23.71400
C  -5.13200 25.40300 22.84500
C  -5.06700 26.05700 21.47300
C  -3.93300 27.09700 21.66400
C  -3.64300 26.86800 23.19800
C  -4.71000 24.94700 20.29800
C  -4.18100 28.44700 21.20100
C  -4.70500 28.62300 19.78700
N  -3.26200 27.10000 26.09900
C  -2.52600 27.80700 25.24900
C  -1.73300 28.79400 25.99800
C  -1.96600 28.44200 27.32700
C  -2.96100 27.49200 27.32200
C  -0.89000 29.91300 25.40000
C  -1.72100 28.84800 28.63400
O  -1.08800 29.84000 29.04800
C  -2.61200 28.03000 29.53300
C  -1.80500 27.28900 30.43800
O  -1.10200 26.42200 30.08600
O  -2.01800 27.69300 31.70700
C  -1.36700 26.90300 32.77000
H  -6.77400 22.60300 28.45300
H  -6.54500 23.93200 22.19000
H  -2.20900 28.33600 23.16300
H  -3.99200 25.42000 31.06500
H  -6.57200 24.30100 30.59100
H  -4.69300 23.14800 31.80200
H  -4.06400 22.72100 30.28300
H  -5.73900 22.18200 30.75700
H  -6.59100 26.76200 30.60200
H  -5.18000 27.75300 30.67400
H  -6.73400 27.22600 32.82300
H  -5.17500 27.93600 32.81900
H  -7.83900 20.12900 25.95900
H  -8.87100 21.30200 26.82700
H  -7.29200 20.89100 27.51800
H  -7.81900 19.57700 23.90100
H  -9.16000 20.09900 22.74300
H  -9.25600 20.65600 24.39000
H  -6.03700 26.51800 21.28200
H  -3.04900 26.70200 21.16300
H  -4.04000 24.21200 20.74300
H  -4.21800 25.42000 19.44900
H  -5.61800 24.48400 19.91100
H  -3.24400 29.00200 21.25400
H  -4.94100 28.92300 21.82000
H  -4.92200 27.70000 19.25000
H  -3.96800 29.20400 19.23300
H  -5.58800 29.26200 19.75300
H  -1.17500 30.04600 24.35600
H  0.17400 29.68200 25.44000
H  -1.04900 30.83800 25.95500
H  -3.26600 28.73700 30.04400
H  -0.45500 27.39800 33.10500
H  -1.19400 25.87500 32.45100
H  -1.95100 26.76300 33.67900

