158

Mg 47.20400 34.41600 27.67700
C  45.53700 32.62600 30.13100
C  47.51200 37.07900 29.95400
C  48.27500 36.25700 25.24700
C  46.24300 31.84500 25.36700
N  46.59300 34.74600 29.82300
C  45.96400 33.79900 30.63800
C  45.96400 34.25400 32.04900
C  46.32500 35.82400 31.95800
C  46.95100 35.86800 30.51900
C  45.15000 36.85000 32.20300
C  46.97000 33.41400 32.94300
C  46.72800 33.35600 34.50100
H  45.88200 34.51200 35.13700
N  47.77700 36.36400 27.58700
C  47.99400 37.31900 28.64000
C  48.60400 38.47100 28.13100
C  48.95500 38.16700 26.77300
C  48.33800 36.90000 26.49900
C  49.03400 39.63700 29.10300
C  49.77500 38.94200 25.83000
O  49.95400 38.68300 24.63000
C  50.43100 40.25000 26.29100
N  47.23700 34.07300 25.61100
C  47.73300 35.07300 24.80500
C  47.69500 34.57800 23.31200
C  46.94500 33.21300 23.34900
C  46.79200 33.00700 24.84400
C  47.04900 35.64500 22.45200
C  47.60600 32.04600 22.56900
C  48.73900 31.25900 23.31300
N  46.37200 32.46900 27.67900
C  45.95800 31.58600 26.74000
C  45.41600 30.39000 27.33600
C  45.14000 30.84000 28.65300
C  45.70800 32.10200 28.81000
C  44.96900 29.09200 26.67800
C  44.42200 30.50800 29.82400
O  43.79400 29.53400 30.10100
C  44.42100 31.70800 30.74400
C  44.38100 31.27700 32.12900
O  45.22700 30.58400 32.64400
O  43.21800 31.73800 32.70700
C  43.17000 31.75300 34.21300
H  47.43400 37.87500 30.69700
H  48.74800 36.74300 24.39100
H  46.06600 30.96700 24.74300
H  44.93400 34.19100 32.40200
H  47.09700 36.14700 32.65700
H  44.18500 36.34500 32.22700
H  44.99800 37.53300 31.36800
H  45.42300 37.29700 33.16000
H  48.01500 33.71600 32.86900
H  46.92800 32.40700 32.52700
H  47.68000 33.44400 35.02500
H  46.09400 32.52600 34.81500
H  48.54200 40.55100 28.77000
H  50.11700 39.76100 29.11600
H  48.79000 39.46800 30.15200
H  49.79100 40.86800 26.91900
H  50.63200 40.99100 25.51700
H  51.39500 40.00000 26.73600
H  48.73300 34.47600 22.99500
H  45.91800 33.37100 23.02000
H  47.84700 36.19400 21.95200
H  46.32600 36.22300 23.02900
H  46.50200 35.15300 21.64800
H  48.04800 32.45200 21.65900
H  46.90100 31.35500 22.10800
H  48.39800 30.29200 23.68100
H  49.19800 31.76900 24.16000
H  49.72100 31.23800 22.84100
H  44.37200 29.39100 25.81700
H  44.48200 28.46200 27.42300
H  45.87600 28.66000 26.25500
H  43.42100 32.06200 30.49400
H  42.33800 31.12500 34.53100
H  42.90300 32.77800 34.47000
H  44.07500 31.49800 34.76600
Mg -10.27700 39.81300 42.51600
C  -9.27600 36.57400 41.50700
C  -7.30100 41.00800 41.32900
C  -11.55700 42.88900 42.53900
C  -13.44700 38.37800 42.85400
N  -8.67200 38.88900 41.30100
C  -8.41800 37.59800 41.08400
C  -6.95700 37.29800 40.45900
C  -6.33900 38.77100 40.49100
C  -7.51100 39.60000 41.18900
C  -4.95700 38.83900 41.16900
C  -6.90900 36.53000 39.08700
C  -5.66200 35.66400 38.90500
H  -4.83200 36.10000 37.73400
N  -9.48800 41.69500 42.09300
C  -8.21200 42.00200 41.65900
C  -7.97600 43.40200 41.73700
C  -9.16300 43.94200 42.21600
C  -10.13000 42.84500 42.30300
C  -6.70200 44.06400 41.30900
C  -9.39900 45.35000 42.66600
O  -8.50100 46.22400 42.55300
C  -10.67500 45.76200 43.39600
N  -12.21600 40.52700 42.75300
C  -12.49800 41.82200 42.63700
C  -14.02200 42.05100 42.83300
C  -14.65200 40.65600 43.00300
C  -13.40200 39.77600 42.78400
C  -14.37100 43.04900 43.94300
C  -15.77000 40.44800 41.95900
C  -16.91100 39.48400 42.32000
N  -11.19900 37.88600 42.56400
C  -12.47600 37.44200 42.87000
C  -12.49900 35.94500 43.00500
C  -11.24400 35.59600 42.52400
C  -10.52700 36.80400 42.20600
C  -13.66700 35.05500 43.16500
C  -10.32500 34.44400 42.14600
O  -10.51000 33.28300 42.17600
C  -9.02600 35.07300 41.53600
C  -7.83000 34.74100 42.43900
O  -7.52600 35.29600 43.46100
O  -7.06500 33.79500 41.79800
C  -5.79900 33.45600 42.56600
H  -6.28300 41.28500 41.04800
H  -11.97000 43.88500 42.36900
H  -14.44600 37.93700 42.87700
H  -6.48700 36.70900 41.24700
H  -6.27500 39.15300 39.47200
H  -4.26300 39.13700 40.38300
H  -4.67000 37.85500 41.53700
H  -4.84700 39.54000 41.99600
H  -6.80000 37.25100 38.27700
H  -7.74200 35.87600 38.83000
H  -5.98200 34.63200 38.75900
H  -5.15000 35.61100 39.86500
H  -6.66900 45.02000 40.78600
H  -6.31200 43.38900 40.54700
H  -5.93000 44.14800 42.07300
H  -11.44100 45.99600 42.65700
H  -10.42000 46.66100 43.95700
H  -10.94200 45.05700 44.18400
H  -14.29100 42.54100 41.89700
H  -15.04000 40.38100 43.98400
H  -13.68800 43.18000 44.78200
H  -15.18400 42.50800 44.42700
H  -14.71500 43.98700 43.50800
H  -15.29700 40.12600 41.03100
H  -16.31300 41.38700 41.85300
H  -17.89500 39.95200 42.34600
H  -16.81000 39.19700 43.36700
H  -16.99100 38.64100 41.63400
H  -13.41100 34.49600 44.06500
H  -13.83900 34.36700 42.33700
H  -14.53300 35.64700 43.45900
H  -8.91500 34.67700 40.52700
H  -5.17800 34.30400 42.27400
H  -5.28100 32.57700 42.18200
H  -5.99400 33.45100 43.63800

