158

Mg 48.76000 34.62400 25.76700
C  46.78100 33.24200 28.27300
C  48.96900 37.48600 27.63000
C  50.40300 36.01500 23.27600
C  48.15200 31.72900 23.90300
N  47.92100 35.29300 27.73400
C  47.25900 34.52500 28.59500
C  47.11100 35.22600 29.98000
C  47.54400 36.68100 29.59800
C  48.13800 36.55700 28.20100
C  46.41100 37.78300 29.67300
C  48.13800 34.60000 31.04400
C  47.70400 34.41100 32.42400
H  46.49600 35.24900 32.92000
N  49.75600 36.44900 25.56200
C  49.69400 37.54700 26.38000
C  50.61000 38.55900 25.90900
C  51.10100 38.08200 24.68900
C  50.36500 36.81300 24.44900
C  51.00200 39.74700 26.83400
C  52.28100 38.52200 23.88400
O  52.72000 37.85300 23.02800
C  52.81800 39.89200 24.18800
N  49.22200 33.98600 23.83500
C  49.80800 34.76200 22.95600
C  50.16400 33.96100 21.66200
C  49.51600 32.53700 21.91200
C  48.89300 32.74600 23.33200
C  49.92600 34.65700 20.24900
C  50.44100 31.35500 21.85900
C  51.70100 31.40700 22.74400
N  47.60000 32.87900 25.89200
C  47.54400 31.73800 25.12800
C  46.64400 30.76600 25.71800
C  46.33100 31.30700 26.96800
C  46.86000 32.62100 26.97200
C  46.31700 29.48000 25.18600
C  45.72600 31.03000 28.20700
O  45.16800 30.06500 28.59200
C  46.09600 32.25400 29.09800
C  46.65000 31.70200 30.32600
O  47.78300 31.31900 30.41100
O  45.65800 31.50800 31.27300
C  46.11300 30.60600 32.32300
H  49.05300 38.38300 28.24700
H  51.06100 36.46700 22.53100
H  48.04000 30.89400 23.20800
H  46.11000 35.19700 30.41000
H  48.33400 37.05900 30.24600
H  46.16200 38.41000 28.81700
H  46.79000 38.48400 30.41700
H  45.49400 37.27200 29.96800
H  49.01800 35.24200 31.07000
H  48.47100 33.63500 30.66100
H  48.56800 34.46600 33.08700
H  47.43700 33.37100 32.61400
H  50.54700 39.82100 27.82200
H  50.70000 40.61700 26.25000
H  52.07200 39.83700 27.02100
H  53.62300 39.71300 24.90000
H  52.17700 40.66900 24.60400
H  53.24400 40.33400 23.28700
H  51.23100 33.84700 21.85600
H  48.75200 32.32500 21.16500
H  49.26500 35.51800 20.34200
H  49.52200 33.98400 19.49300
H  50.90300 34.97600 19.88600
H  50.77200 31.26200 20.82500
H  49.98300 30.37200 21.97400
H  51.74100 32.40400 23.18300
H  52.59800 31.25400 22.14400
H  51.90000 30.65400 23.50600
H  46.71100 28.71900 25.86000
H  46.78900 29.36200 24.21100
H  45.23200 29.44500 25.08500
H  45.10900 32.67800 29.28200
H  45.36200 30.72900 33.10300
H  47.01000 30.96000 32.83100
H  46.16300 29.57700 31.96700
Mg -10.17700 39.31100 40.24400
C  -9.38100 35.99400 39.13400
C  -7.01900 40.26200 39.29700
C  -11.38000 42.49100 40.14200
C  -13.52600 38.28100 40.92500
N  -8.46100 38.21000 39.09800
C  -8.32000 36.90900 38.94700
C  -6.91700 36.58700 38.53000
C  -6.08700 37.90500 38.90200
C  -7.27600 38.83800 39.15600
C  -5.22900 37.83600 40.14800
C  -6.86400 36.23100 36.99700
C  -7.49300 37.11100 35.94200
H  -8.68200 36.55700 35.16100
N  -9.30100 41.15600 39.90100
C  -7.97600 41.35000 39.51600
C  -7.79100 42.80100 39.29100
C  -8.98500 43.48100 39.55700
C  -9.96400 42.39500 39.96800
C  -6.43800 43.31600 38.73200
C  -9.16800 44.98100 39.19500
O  -8.22300 45.61700 38.74200
C  -10.48500 45.67400 39.31300
N  -12.11600 40.17900 40.53500
C  -12.34500 41.51600 40.42000
C  -13.86300 41.84900 40.68100
C  -14.49400 40.42500 40.81300
C  -13.32400 39.60600 40.79000
C  -14.03700 42.80700 41.90900
C  -15.67600 40.14300 39.72800
C  -17.07200 40.54100 40.15800
N  -11.23200 37.59000 40.15900
C  -12.58800 37.26500 40.49200
C  -12.81500 35.86700 40.31400
C  -11.62100 35.35400 39.81900
C  -10.64200 36.42200 39.68600
C  -14.03000 35.08000 40.89800
C  -10.87700 34.11800 39.33800
O  -11.28900 32.96200 39.13100
C  -9.48200 34.55000 38.95200
C  -8.44800 33.66400 39.62800
O  -8.34200 33.61600 40.87000
O  -7.50100 33.25100 38.73400
C  -6.33200 32.57100 39.23900
H  -6.00000 40.55300 39.03400
H  -11.82500 43.48800 40.11000
H  -14.47100 37.87300 41.29200
H  -6.47300 35.72700 39.03200
H  -5.47400 38.22400 38.06000
H  -4.29700 38.35000 39.91300
H  -5.08200 36.77700 40.36200
H  -5.70200 38.28100 41.02300
H  -7.27100 35.22400 36.90600
H  -5.78800 36.13600 36.85500
H  -6.69900 37.17700 35.19900
H  -7.56000 38.10100 36.39400
H  -6.42600 43.28200 37.64300
H  -5.73500 42.57400 39.11100
H  -6.24600 44.32200 39.10400
H  -10.83700 45.69000 40.34500
H  -11.28700 45.14500 38.79900
H  -10.50900 46.65300 38.83500
H  -14.21900 42.27500 39.74300
H  -14.93000 40.31400 41.80600
H  -13.03600 43.01700 42.28700
H  -14.61000 42.30400 42.68800
H  -14.46700 43.78500 41.69600
H  -15.61700 39.15100 39.28100
H  -15.48900 40.83900 38.90900
H  -17.67100 39.63300 40.10100
H  -17.46100 41.34500 39.53300
H  -17.21200 40.80700 41.20600
H  -14.93100 35.18000 40.29300
H  -14.29100 35.31900 41.92900
H  -13.65500 34.05800 40.94300
H  -9.22200 34.32900 37.91700
H  -6.58600 32.05600 40.16600
H  -5.48800 33.22700 39.44800
H  -6.10100 31.81500 38.48900

