158

Mg 42.71100 41.65100 26.68800
C  41.62100 43.67100 29.19300
C  43.98000 39.50800 28.97500
C  43.64700 39.73900 24.07100
C  41.95700 44.19800 24.20200
N  42.87500 41.66700 28.83600
C  42.06400 42.40200 29.64300
C  42.13900 41.95900 31.09000
C  43.07400 40.75800 30.98800
C  43.40900 40.68300 29.51200
C  44.29000 40.79900 31.96800
C  40.75400 41.70400 31.73200
C  40.45200 42.46800 33.05900
H  39.67400 41.80300 34.14700
N  43.66400 39.82900 26.48700
C  44.05800 39.06800 27.62400
C  44.49100 37.77200 27.10700
C  44.31500 37.77800 25.69800
C  43.88300 39.17800 25.36500
C  45.12100 36.76100 27.98800
C  44.52000 36.67900 24.69700
O  44.32800 36.83300 23.49300
C  44.95800 35.24200 25.18600
N  42.89000 41.96300 24.46100
C  43.32500 41.03700 23.68000
C  43.08400 41.29600 22.21800
C  42.60400 42.79500 22.22300
C  42.44500 43.01200 23.74400
C  44.34500 41.04700 21.41200
C  41.40700 42.92400 21.34700
C  40.11600 42.49700 22.06800
N  42.08200 43.52800 26.64900
C  41.73700 44.44800 25.60000
C  41.17500 45.64300 26.18900
C  41.10700 45.38500 27.59600
C  41.65500 44.11100 27.81800
C  40.54000 46.83800 25.47000
C  40.66000 45.93700 28.82200
O  40.13400 47.01200 29.07500
C  40.93300 44.79700 29.93600
C  41.79200 45.44100 30.95600
O  42.97500 45.54500 30.90000
O  41.05100 45.92400 31.97100
C  41.52600 46.60600 33.17300
H  44.35200 38.82500 29.74200
H  43.93300 39.12000 23.21900
H  41.65300 44.93700 23.45900
H  42.64200 42.80100 31.56500
H  42.52300 39.85100 31.23600
H  44.11100 41.47700 32.80300
H  45.10100 41.18000 31.34700
H  44.61600 39.79900 32.25300
H  40.67000 40.67900 32.09400
H  39.94100 41.77600 31.00900
H  39.87100 43.36500 32.84600
H  41.42600 42.83500 33.38200
H  44.42000 35.94400 28.15900
H  45.39400 37.21200 28.94200
H  45.96700 36.40900 27.39800
H  45.96500 35.07200 25.56800
H  44.78500 34.76100 24.22300
H  44.19400 34.91700 25.89300
H  42.34200 40.57600 21.87000
H  43.33800 43.53000 21.89400
H  45.22200 40.92300 22.04800
H  44.64900 41.93900 20.86400
H  44.19200 40.24300 20.69200
H  41.62500 42.33500 20.45600
H  41.37600 43.95600 20.99900
H  39.70700 41.76500 21.37200
H  39.46800 43.36700 22.17500
H  40.23900 41.95100 23.00300
H  39.84500 46.44100 24.73000
H  41.23900 47.54100 25.01800
H  39.99800 47.43300 26.20600
H  40.03500 44.55500 30.50400
H  42.08000 45.86900 33.75400
H  40.63200 47.01000 33.64700
H  42.31200 47.33900 32.98700
Mg 36.10400 49.08500 25.60800
C  36.46500 47.14600 28.47400
C  34.82300 51.61100 27.62600
C  35.37900 50.84500 22.81600
C  37.08900 46.31700 23.57000
N  35.50100 49.16500 27.77500
C  35.95900 48.42400 28.79000
C  35.86900 49.10200 30.14000
C  35.09200 50.40800 29.77500
C  35.16200 50.40400 28.28500
C  33.60600 50.46600 30.27400
C  37.20600 49.22700 30.97400
C  37.09200 49.24400 32.50600
H  35.71100 49.53600 33.10500
N  35.23200 50.93600 25.29500
C  34.86700 51.86200 26.24400
C  34.48600 53.10300 25.60600
C  34.43100 52.80800 24.20400
C  35.02400 51.46400 24.04400
C  34.25300 54.40000 26.43600
C  34.03500 53.73600 23.08400
O  34.19400 53.45800 21.91600
C  33.47900 55.14200 23.38100
N  36.46500 48.74000 23.48700
C  35.96800 49.60100 22.53100
C  36.10600 49.04100 21.08200
C  36.80600 47.62900 21.27200
C  36.78100 47.53900 22.82500
C  34.71200 49.02500 20.39300
C  38.29700 47.55400 20.70800
C  38.72900 46.22900 19.94000
N  36.74200 47.22600 25.90100
C  37.06900 46.19300 25.02300
C  37.50700 45.02800 25.72900
C  37.20900 45.36000 27.05800
C  36.73100 46.70000 27.17700
C  38.24500 43.88200 25.22700
C  37.19800 44.84000 28.45100
O  37.61900 43.75800 28.78700
C  36.62500 45.98100 29.37300
C  35.39500 45.55300 30.00700
O  34.27000 45.28600 29.53900
O  35.56400 45.74200 31.35300
C  34.40100 45.47000 32.28100
H  34.49600 52.43700 28.26100
H  35.32500 51.43700 21.90000
H  37.29700 45.41000 22.99800
H  35.13400 48.47200 30.64000
H  35.50500 51.38100 30.04400
H  33.43700 51.47800 30.64100
H  33.29100 49.74600 31.02900
H  32.92100 50.28000 29.44700
H  37.59700 50.22900 30.79900
H  37.91300 48.48800 30.59600
H  37.78900 49.98900 32.89100
H  37.49600 48.25700 32.73200
H  33.18200 54.58500 26.50800
H  34.66300 55.17000 25.78100
H  34.82500 54.41800 27.36400
H  34.35900 55.77800 23.48000
H  32.65800 55.09900 24.09600
H  32.99100 55.49300 22.47100
H  36.77100 49.74600 20.58300
H  36.17200 46.79600 20.96800
H  34.72800 49.68200 19.52300
H  33.84700 49.18900 21.03700
H  34.59000 48.06400 19.89500
H  39.09000 47.60100 21.45400
H  38.42300 48.41500 20.05100
H  39.40900 45.59000 20.50300
H  39.15100 46.54700 18.98700
H  37.87500 45.61900 19.64600
H  38.74200 43.55400 26.14000
H  38.85400 44.18500 24.37500
H  37.55500 43.07800 24.96900
H  37.48200 46.15400 30.02400
H  33.54500 44.95300 31.84800
H  34.06200 46.39100 32.75700
H  34.77100 44.81500 33.07000

