158

Mg 40.66000 40.91500 26.88800
C  40.15900 43.35400 29.32500
C  41.54500 38.67400 29.31200
C  41.29100 38.80100 24.52500
C  40.07500 43.43100 24.36800
N  41.05900 41.07600 29.08600
C  40.60500 42.13500 29.88400
C  40.64300 41.67600 31.38900
C  41.31300 40.26400 31.34100
C  41.26300 39.93700 29.80300
C  42.82000 40.31400 31.72600
C  39.28800 41.72900 32.12400
C  39.13900 42.62400 33.41300
H  38.39900 42.07100 34.71800
N  41.25500 38.98700 26.86500
C  41.61500 38.23400 27.93600
C  41.97900 36.90100 27.47900
C  41.76900 36.93300 26.13600
C  41.31600 38.26200 25.76100
C  42.50500 35.92300 28.47700
C  41.96400 35.81400 25.22600
O  41.72500 35.86900 24.01400
C  42.59000 34.51300 25.78300
N  40.71800 41.15700 24.71500
C  41.00300 40.04200 24.03100
C  40.84000 40.25300 22.50100
C  40.11100 41.68800 22.49300
C  40.35400 42.14900 23.91200
C  42.12900 40.14500 21.63000
C  38.54500 41.64400 22.14900
C  37.72400 40.46700 22.68500
N  40.16600 42.98500 26.87600
C  39.97500 43.87900 25.74800
C  39.68700 45.22300 26.23200
C  39.74900 45.04200 27.63000
C  40.06900 43.72000 27.91500
C  39.20100 46.41700 25.47600
C  39.53700 45.73000 28.82900
O  39.22100 46.91500 29.05800
C  39.71400 44.60700 30.08200
C  40.57900 45.15900 31.14100
O  41.79500 45.15500 31.07200
O  39.83500 45.52900 32.20000
C  40.47500 46.21400 33.37400
H  41.68400 37.88800 30.05700
H  41.54800 38.06400 23.76200
H  39.82600 44.25100 23.69100
H  41.28300 42.33900 31.97100
H  40.83500 39.48000 31.92800
H  43.15400 41.31700 31.99400
H  43.60900 40.01000 31.03800
H  42.91900 39.61400 32.55500
H  38.96000 40.75000 32.47400
H  38.54400 42.13600 31.43900
H  38.37000 43.34600 33.13800
H  40.08900 43.11400 33.62600
H  42.31400 34.88100 28.22000
H  42.25100 36.02600 29.53200
H  43.57800 36.09500 28.39400
H  42.79200 33.91800 24.89300
H  41.86100 34.09200 26.47600
H  43.54700 34.70000 26.27100
H  40.10900 39.55100 22.10000
H  40.57500 42.36600 21.77600
H  41.81000 39.38500 20.91600
H  43.00900 39.77400 22.15500
H  42.23600 41.04500 21.02500
H  38.44600 41.59000 21.06500
H  38.09000 42.59100 22.43900
H  36.86300 40.92600 23.17000
H  38.28500 39.94000 23.45600
H  37.45600 39.73000 21.92700
H  38.38200 46.36000 24.75900
H  40.11700 46.68800 24.95100
H  38.89400 47.22300 26.14300
H  38.68700 44.47300 30.42300
H  40.65300 45.51100 34.18800
H  39.80900 46.96900 33.79000
H  41.46500 46.63700 33.20700
Mg 5.88500 54.52500 40.99100
C  5.54000 50.98100 40.95300
C  9.12500 53.97200 39.75200
C  6.32800 57.80100 40.44700
C  2.63000 54.85000 41.68000
N  7.06700 52.73300 40.14300
C  6.71800 51.38600 40.31600
C  7.91400 50.44600 39.95000
C  9.10300 51.50500 40.05800
C  8.39700 52.82100 39.96200
C  10.18100 51.22200 41.19100
C  7.68700 49.80100 38.53600
C  8.18000 50.62200 37.29200
H  7.44100 50.33400 35.97100
N  7.40800 55.69900 40.03500
C  8.69800 55.26500 39.66900
C  9.48900 56.38300 39.20700
C  8.69300 57.50800 39.49400
C  7.36400 57.03000 39.98900
C  10.97900 56.39900 38.79400
C  9.11900 59.02000 39.39400
O  10.23200 59.31500 38.94700
C  8.12500 60.19500 39.65900
N  4.63300 56.12500 40.94100
C  5.05800 57.35800 40.95000
C  4.10500 58.28400 41.79900
C  2.86500 57.39000 41.96500
C  3.37300 56.05800 41.48600
C  4.74600 58.73600 43.16000
C  1.61100 57.99400 41.29900
C  0.26300 57.49300 41.79600
N  4.32000 53.19700 41.22300
C  3.05400 53.52500 41.61500
C  2.39000 52.24800 42.00100
C  3.38900 51.21000 41.84200
C  4.47900 51.89500 41.33500
C  0.96100 52.18400 42.40500
C  3.63700 49.81100 41.94500
O  2.93700 48.89200 42.33300
C  5.07000 49.55600 41.29000
C  4.86300 48.70000 40.10800
O  4.25000 48.95900 39.06800
O  5.45200 47.47100 40.37300
C  5.38900 46.51500 39.27900
H  10.16300 53.77200 39.47700
H  6.36400 58.86500 40.69300
H  1.61300 55.09700 41.99200
H  7.98000 49.68500 40.72700
H  9.75500 51.51900 39.18400
H  11.14900 51.00700 40.73900
H  9.81900 50.40100 41.80900
H  10.47700 52.04600 41.84000
H  6.60600 49.88000 38.42100
H  7.93000 48.74200 38.61700
H  9.25500 50.51600 37.14400
H  7.97200 51.67300 37.49500
H  11.38100 55.42700 38.50700
H  11.47300 56.71100 39.71400
H  10.96500 56.99900 37.88300
H  8.62500 61.09900 39.31200
H  7.93300 60.35100 40.72100
H  7.20100 59.96500 39.12900
H  3.93700 59.21200 41.25200
H  2.60000 57.24600 43.01200
H  5.66700 58.22700 43.44300
H  3.95800 58.61300 43.90300
H  5.00300 59.79500 43.12400
H  1.73100 57.94800 40.21700
H  1.63700 59.03200 41.63100
H  -0.40100 58.28400 42.14500
H  0.37000 56.77300 42.60800
H  -0.27100 56.99300 40.98800
H  0.98100 52.37000 43.47900
H  0.61200 51.17300 42.19300
H  0.29500 52.87600 41.89100
H  5.82800 49.17600 41.97500
H  5.60200 45.57700 39.79300
H  6.05100 46.74900 38.44600
H  4.33900 46.43900 38.99900

