158

Mg -0.81100 7.66000 25.17200
C  -0.05500 9.47900 28.23400
C  -0.82100 4.75600 27.09600
C  -1.13900 5.94800 22.40900
C  -0.08700 10.61400 23.40800
N  -0.44500 7.20600 27.44500
C  -0.21400 8.11800 28.48300
C  -0.30500 7.49000 29.83700
C  -0.36900 5.88900 29.52500
C  -0.55300 5.92500 27.92600
C  0.80100 5.09000 30.14800
C  -1.42400 7.89100 30.82500
C  -1.08300 7.95900 32.31000
H  0.06600 7.16500 32.95800
N  -0.94500 5.67600 24.77900
C  -0.91600 4.57000 25.68500
C  -1.16500 3.35900 24.99800
C  -1.22900 3.69700 23.65100
C  -1.07500 5.17200 23.51300
C  -1.28300 2.04600 25.73800
C  -1.39300 2.80200 22.40600
O  -1.49400 3.28600 21.30300
C  -1.59100 1.31100 22.63000
N  -0.52700 8.26900 23.25000
C  -0.86900 7.35200 22.25300
C  -0.82200 7.94800 20.86800
C  -0.51400 9.39500 21.16800
C  -0.35200 9.46800 22.69300
C  0.06500 7.27900 19.78500
C  -1.46200 10.49000 20.67000
C  -2.75700 10.68500 21.49500
N  -0.18300 9.72100 25.65500
C  0.05300 10.80000 24.83000
C  0.48100 11.93100 25.62000
C  0.46000 11.47700 26.95500
C  0.02300 10.13900 26.94800
C  0.73900 13.40300 25.20500
C  0.68800 11.87400 28.35900
O  1.05600 12.99400 28.77400
C  0.29300 10.57600 29.25200
C  1.44800 10.29300 30.17000
O  2.31600 9.43900 29.94200
O  1.30900 11.06700 31.31000
C  2.51500 10.98900 32.18500
H  -0.83100 3.83900 27.68800
H  -1.47000 5.57400 21.43800
H  0.09100 11.51200 22.81100
H  0.59900 7.74100 30.39200
H  -1.30600 5.42900 29.84000
H  1.53900 5.69000 30.68000
H  1.24300 4.67000 29.24500
H  0.42900 4.31800 30.82200
H  -2.26000 7.19200 30.79000
H  -1.69000 8.92600 30.61200
H  -2.00400 7.61200 32.77900
H  -0.92200 8.99500 32.60800
H  -0.84100 2.18800 26.72500
H  -0.66500 1.29900 25.24000
H  -2.35100 1.82600 25.73800
H  -2.49800 1.13400 23.20700
H  -0.64800 1.01000 23.08600
H  -1.63800 0.80500 21.66600
H  -1.84900 7.74100 20.56800
H  0.51900 9.68600 20.97900
H  0.70800 6.48000 20.15300
H  0.73500 8.01500 19.34200
H  -0.57700 6.71900 19.10500
H  -1.74200 10.45300 19.61700
H  -0.88900 11.41600 20.69900
H  -2.79900 10.03500 22.36900
H  -3.65900 10.56500 20.89400
H  -2.80900 11.71300 21.85300
H  1.37500 13.78800 26.00300
H  -0.19800 13.94400 25.33700
H  1.21000 13.58300 24.23900
H  -0.68800 10.71400 29.70700
H  2.74900 9.93300 32.32100
H  2.21900 11.36800 33.16300
H  3.30700 11.59600 31.74700
Mg 42.76700 42.15300 25.99100
C  42.17200 44.49900 28.42900
C  43.95700 39.96500 28.44000
C  43.90200 40.08500 23.47900
C  41.95800 44.47700 23.61800
N  42.97600 42.19700 28.21800
C  42.59700 43.25700 29.00900
C  42.74600 42.98200 30.51300
C  43.37600 41.55900 30.48400
C  43.50700 41.24300 28.95500
C  44.65600 41.30700 31.32500
C  41.38800 43.06500 31.32500
C  41.38600 43.82300 32.64400
H  42.31900 43.41300 33.81400
N  43.70500 40.21800 25.96800
C  44.08100 39.45500 27.11900
C  44.64100 38.15600 26.66500
C  44.57400 38.18200 25.18300
C  44.07700 39.53400 24.83300
C  45.13100 37.09600 27.67200
C  44.87500 37.10400 24.23800
O  44.94000 37.18000 22.99200
C  45.14600 35.73100 24.80000
N  43.11200 42.37000 23.80900
C  43.43700 41.32600 23.00500
C  43.27200 41.76100 21.53800
C  42.30000 43.00000 21.64400
C  42.41100 43.29500 23.11200
C  44.54700 42.02400 20.61200
C  40.92700 42.75200 21.08400
C  39.97500 41.86600 21.96400
N  42.15000 44.12300 25.99400
C  41.87200 44.95200 24.98200
C  41.60300 46.30200 25.41700
C  41.72200 46.17000 26.82300
C  42.05400 44.80200 27.08900
C  41.19000 47.46600 24.53200
C  41.59900 46.88700 28.06900
O  41.40900 48.02300 28.35500
C  41.78200 45.79600 29.14100
C  42.70000 46.37300 30.15400
O  43.91500 46.44000 30.02700
O  41.97900 46.94500 31.18700
C  42.66000 47.62400 32.26200
H  44.13500 39.28700 29.27700
H  44.13400 39.37000 22.68800
H  41.56800 45.20800 22.90600
H  43.41100 43.73100 30.94300
H  42.68700 40.79200 30.83900
H  44.81200 42.05900 32.09800
H  45.60800 41.18800 30.80700
H  44.44500 40.35600 31.81400
H  40.99700 42.07000 31.53900
H  40.68700 43.53700 30.63700
H  40.36200 43.94500 33.00000
H  41.71900 44.84700 32.47400
H  44.68500 36.11700 27.50000
H  45.02900 37.35800 28.72500
H  46.20100 37.00500 27.48400
H  44.25700 35.48400 25.38200
H  46.02900 36.01800 25.37100
H  45.40200 34.97600 24.05700
H  42.75100 40.90000 21.12100
H  42.71500 43.80500 21.03800
H  45.40900 42.06100 21.27800
H  44.43800 42.95100 20.04900
H  44.62300 41.16000 19.95200
H  41.01800 42.38100 20.06300
H  40.42000 43.71700 21.06800
H  39.34500 41.19900 21.37500
H  39.40200 42.51800 22.62300
H  40.57400 41.23800 22.62400
H  40.56900 48.10700 25.15800
H  40.64900 47.12800 23.64800
H  42.05700 48.01500 24.16400
H  40.86000 45.63000 29.69800
H  42.98400 46.80100 32.89800
H  41.91300 48.19100 32.81900
H  43.42400 48.34100 31.96000

