158

Mg -1.86400 17.27100 27.33800
C  -2.32600 15.19800 30.16300
C  -2.38200 19.97100 29.48100
C  -1.56600 19.24300 24.74500
C  -2.02800 14.46700 25.28100
N  -2.25900 17.50500 29.61800
C  -2.32000 16.54400 30.55700
C  -2.28600 17.16400 31.98600
C  -2.51400 18.67800 31.70800
C  -2.42000 18.72800 30.17600
C  -3.84500 19.24200 32.21100
C  -0.98700 16.89400 32.84900
C  -0.97400 16.31800 34.23400
H  0.17900 16.65500 35.26500
N  -1.84400 19.34900 27.09900
C  -2.07500 20.32300 28.07300
C  -2.00500 21.57600 27.46300
C  -1.58600 21.36400 26.14500
C  -1.66500 19.96400 25.93100
C  -2.15000 22.83400 28.23500
C  -1.22400 22.36200 25.09300
O  -0.79600 22.07500 23.96000
C  -1.14000 23.81400 25.30900
N  -1.88400 16.86300 25.30400
C  -1.66200 17.90800 24.42100
C  -1.74600 17.39700 22.95100
C  -1.42200 15.84300 23.17800
C  -1.87600 15.70900 24.66600
C  -3.03100 17.63100 22.12600
C  0.07800 15.53900 22.87300
C  1.09600 15.95900 23.95300
N  -2.04600 15.28200 27.60900
C  -2.24800 14.25000 26.67000
C  -2.38700 12.94100 27.36300
C  -2.30700 13.31900 28.70700
C  -2.20700 14.71400 28.81900
C  -2.60900 11.55600 26.81900
C  -2.46600 12.70200 30.02500
O  -2.66500 11.53500 30.36000
C  -2.48900 13.95000 30.98100
C  -1.40100 13.66100 31.94000
O  -0.19300 13.71000 31.74800
O  -2.01200 13.19900 33.04000
C  -1.09400 12.28300 33.85100
H  -2.43500 20.80500 30.18400
H  -1.59500 19.96600 23.92700
H  -1.87600 13.56000 24.69300
H  -3.20300 16.83400 32.47500
H  -1.75900 19.32200 32.15800
H  -4.31500 19.90200 31.48300
H  -3.66900 19.85100 33.09800
H  -4.62700 18.51400 32.43000
H  -0.33200 17.76400 32.81300
H  -0.37800 16.17200 32.30400
H  -0.92800 15.24800 34.03300
H  -1.94800 16.54400 34.66700
H  -2.69500 22.69100 29.16800
H  -2.72800 23.57100 27.67800
H  -1.17400 23.24000 28.50100
H  -0.19100 23.90500 25.83700
H  -1.93900 24.28400 25.88300
H  -0.92400 24.36500 24.39400
H  -0.90600 17.83600 22.41200
H  -2.08700 15.18800 22.61500
H  -3.81900 18.29900 22.47300
H  -3.56200 16.69000 21.98600
H  -2.70200 18.12800 21.21400
H  0.34700 16.23100 22.07400
H  0.24300 14.54000 22.46900
H  0.62700 16.21100 24.90400
H  1.75500 16.76300 23.62500
H  1.77200 15.10500 23.92200
H  -1.75800 11.21400 26.23000
H  -3.52900 11.37800 26.26100
H  -2.49900 10.94500 27.71400
H  -3.46500 13.85000 31.45700
H  -0.38000 11.70300 33.26700
H  -1.69800 11.65400 34.50400
H  -0.49100 12.93400 34.48400
Mg 35.08900 2.60800 29.45200
C  32.97300 3.53800 31.93700
C  37.67200 2.30700 31.72400
C  37.15700 1.61300 26.91600
C  32.50100 3.24800 27.15300
N  35.31300 2.95900 31.56500
C  34.25300 3.26500 32.43300
C  34.74200 3.41700 33.91600
C  36.35300 3.24400 33.74100
C  36.50700 2.84300 32.24900
C  37.31300 4.43800 34.19300
C  33.96900 2.34500 34.82600
C  33.49700 2.79000 36.26000
H  34.35900 3.78000 36.96800
N  37.11000 1.94300 29.35000
C  37.93800 1.80500 30.45200
C  39.12700 1.08900 30.00300
C  39.07000 0.98300 28.56700
C  37.73600 1.51400 28.19700
C  40.16100 0.79100 31.04400
C  40.15400 0.45500 27.67300
O  40.21100 0.66900 26.50200
C  41.34000 -0.23300 28.26200
N  34.76600 2.34200 27.39200
C  35.81500 2.00000 26.55700
C  35.38800 2.14400 25.09800
C  33.78600 2.39300 25.21000
C  33.68800 2.72400 26.68000
C  36.08200 3.42000 24.38600
C  32.90300 1.27400 24.68800
C  32.26400 0.23800 25.69000
N  33.14000 3.32200 29.45600
C  32.21600 3.58000 28.48700
C  30.96700 3.95000 29.10200
C  31.21000 4.05000 30.44400
C  32.55500 3.61700 30.61700
C  29.73200 4.05600 28.30100
C  30.58300 4.25000 31.67200
O  29.43000 4.56000 31.98600
C  31.71100 3.99200 32.74200
C  31.79800 5.22100 33.56900
O  32.50800 6.17000 33.33200
O  30.94500 5.12800 34.64700
C  30.93400 6.25500 35.52600
H  38.41500 2.14000 32.50600
H  37.81800 1.32600 26.09500
H  31.70900 3.43600 26.42500
H  34.45300 4.44100 34.15300
H  36.67800 2.41900 34.37500
H  38.03600 4.67600 33.41300
H  37.89500 4.12400 35.05900
H  36.70400 5.29900 34.47100
H  34.47900 1.39300 34.97300
H  33.09800 1.97600 34.28300
H  33.50400 1.88000 36.85900
H  32.45400 3.10600 36.23900
H  39.75200 0.71100 32.05200
H  41.01200 1.47000 30.98900
H  40.58400 -0.20500 30.91600
H  42.04800 -0.54200 27.49300
H  41.04800 -1.12500 28.81600
H  41.97000 0.34500 28.93800
H  35.58500 1.21300 24.56600
H  33.51500 3.29600 24.66400
H  35.37000 4.11000 23.93400
H  36.73500 2.96700 23.63900
H  36.66300 3.96300 25.13200
H  33.50000 0.67300 24.00200
H  32.03900 1.69300 24.17300
H  31.19200 0.04300 25.65000
H  32.47800 0.55300 26.71200
H  32.67600 -0.74600 25.46700
H  29.78800 3.31300 27.50500
H  29.66800 5.01300 27.78400
H  28.80800 3.91500 28.86100
H  31.33900 3.18400 33.37100
H  30.60800 7.19800 35.08700
H  31.92800 6.51000 35.89300
H  30.30300 6.08500 36.39800

