158

Mg 0.46000 7.55900 25.32500
C  1.07200 9.48800 28.12400
C  0.93300 4.83600 27.31700
C  0.09300 5.63600 22.59900
C  0.10400 10.35800 23.41900
N  1.01300 7.23800 27.50700
C  1.09200 8.14800 28.49100
C  1.30700 7.42400 29.89000
C  1.36900 5.93900 29.52800
C  1.07600 5.99700 28.04800
C  2.79600 5.36100 29.77400
C  0.22600 7.75100 30.93100
C  0.83300 8.16000 32.31100
H  2.01300 7.33600 32.78900
N  0.52800 5.48000 25.00800
C  0.68400 4.52000 25.98800
C  0.50600 3.25700 25.37500
C  0.35200 3.47700 23.97700
C  0.29500 4.90500 23.80900
C  0.78500 1.99100 25.99900
C  0.26600 2.49300 22.85600
O  0.04600 2.91200 21.71500
C  0.49400 1.05200 23.11700
N  0.11400 7.98300 23.31000
C  -0.05700 7.02000 22.36000
C  -0.53900 7.62300 21.02100
C  -0.61600 9.11600 21.38300
C  -0.10400 9.14900 22.82100
C  0.50600 7.28100 19.89300
C  -2.03500 9.73400 21.17600
C  -2.09200 11.02400 20.34200
N  0.74400 9.46800 25.58900
C  0.62900 10.50500 24.73500
C  0.72600 11.74800 25.41700
C  1.01300 11.40600 26.74800
C  0.94100 10.00800 26.81000
C  0.64300 13.11400 24.79100
C  1.09400 11.94200 28.12700
O  1.09900 13.09400 28.50800
C  1.03200 10.71700 29.00600
C  2.09200 10.91100 29.92500
O  3.17500 10.37300 29.87800
O  1.59300 11.70300 30.98000
C  2.60500 12.10400 32.01400
H  1.05100 3.95200 27.94700
H  -0.09900 5.05300 21.69600
H  -0.21300 11.32200 23.01500
H  2.26200 7.87200 30.16200
H  0.59200 5.26700 29.89300
H  2.95800 4.28300 29.78000
H  3.21400 5.68800 30.72600
H  3.46300 5.60700 28.94800
H  -0.44900 6.91400 31.11000
H  -0.37200 8.55800 30.50800
H  -0.00700 8.07400 32.99900
H  1.14500 9.19600 32.17600
H  1.75000 1.64400 25.62900
H  0.08500 1.18200 25.79200
H  0.69300 2.08800 27.08100
H  1.35400 0.77200 23.72500
H  0.63700 0.47000 22.20600
H  -0.43300 0.71600 23.58100
H  -1.51500 7.22700 20.73800
H  0.11700 9.58900 20.73000
H  1.33200 6.67000 20.25700
H  0.98600 8.09200 19.34400
H  -0.09200 6.67700 19.21100
H  -2.44700 9.90300 22.17100
H  -2.67000 9.01400 20.66100
H  -2.79100 10.92400 19.51200
H  -1.13300 11.41100 19.99800
H  -2.57400 11.78200 20.95900
H  -0.41400 13.14900 24.53000
H  1.23800 13.21700 23.88400
H  0.85200 13.95000 25.46000
H  0.07700 10.72500 29.53200
H  2.14200 12.38400 32.96000
H  3.37000 12.80600 31.68000
H  3.07300 11.21000 32.42600
Mg 25.86700 0.67300 29.15500
C  27.95100 0.37300 32.07600
C  23.17900 1.35100 31.19100
C  24.10500 0.59400 26.50100
C  28.66900 -0.73600 27.32400
N  25.60500 0.73700 31.45400
C  26.62700 0.64500 32.41800
C  25.95800 0.84500 33.79500
C  24.47900 1.28100 33.46400
C  24.36600 1.09300 31.99700
C  23.39900 0.22300 34.12800
C  26.70900 1.91000 34.66300
C  26.93400 1.48700 36.08500
H  26.47100 2.47600 37.16700
N  23.90000 1.02900 28.89600
C  22.94400 1.24700 29.78300
C  21.75400 1.45300 29.15700
C  21.92800 1.18900 27.76400
C  23.38300 0.90900 27.65900
C  20.44200 1.72200 29.88100
C  20.81300 1.08100 26.67400
O  21.00500 0.53500 25.57600
C  19.39600 1.57400 26.93400
N  26.37800 -0.00800 27.21400
C  25.40100 0.18400 26.27600
C  25.92000 -0.14800 24.82500
C  27.36400 -0.62100 25.07500
C  27.52200 -0.47700 26.57500
C  25.04600 -1.05900 23.94200
C  28.35400 0.15900 24.20700
C  28.84700 1.48100 24.76500
N  27.85800 -0.05100 29.57700
C  28.81200 -0.56900 28.73200
C  30.10800 -0.67700 29.42100
C  29.77600 -0.35100 30.76800
C  28.41500 0.05800 30.78200
C  31.45400 -1.25900 28.95000
C  30.32900 -0.33600 32.13400
O  31.40400 -0.58400 32.61300
C  29.17700 0.14700 32.97600
C  28.84400 -0.87400 33.93100
O  28.13400 -1.80700 33.68600
O  29.38400 -0.61700 35.16500
C  28.92000 -1.53800 36.21100
H  22.28300 1.60100 31.76200
H  23.47400 0.76500 25.62600
H  29.54700 -0.91600 26.70000
H  25.98300 -0.09900 34.33900
H  24.22000 2.32500 33.63900
H  23.60500 -0.80600 33.83400
H  22.35200 0.41500 33.89200
H  23.45300 0.20100 35.21600
H  26.09100 2.80100 34.77200
H  27.63800 2.22000 34.18500
H  28.00600 1.56100 36.27100
H  26.68000 0.46500 36.36800
H  19.59100 1.33300 29.32200
H  20.28700 2.78900 30.04500
H  20.54300 1.22100 30.84400
H  18.84400 0.76900 27.42000
H  18.94300 1.86000 25.98500
H  19.41200 2.47400 27.54800
H  25.75200 0.83900 24.39400
H  27.36800 -1.70400 24.95100
H  24.08700 -1.37600 24.35100
H  25.62300 -1.88400 23.52500
H  24.77800 -0.38200 23.13100
H  27.77900 0.31400 23.29400
H  29.23600 -0.36700 23.84100
H  28.34600 1.72400 25.70300
H  28.68000 2.26600 24.02700
H  29.92200 1.45200 24.93900
H  32.29300 -0.72200 29.39300
H  31.60200 -0.98100 27.90600
H  31.42600 -2.33200 29.14200
H  29.48600 1.04400 33.51200
H  29.72000 -1.54900 36.95100
H  28.83100 -2.59000 35.93900
H  28.01700 -1.20300 36.72000

