158

Mg 7.56900 2.50500 27.73200
C  9.18000 0.90800 30.58000
C  5.55700 4.09000 29.88400
C  5.90500 3.55400 25.09400
C  9.43000 0.21700 25.72800
N  7.37700 2.43200 29.92100
C  8.15100 1.81400 30.89400
C  7.95200 2.53100 32.17500
C  6.63500 3.38100 32.01100
C  6.50300 3.29400 30.53000
C  5.39800 2.89400 32.82900
C  9.17200 3.38100 32.65500
C  9.02600 3.52000 34.19100
H  10.23200 3.04300 35.03800
N  6.05600 3.81600 27.51300
C  5.33400 4.30800 28.53600
C  4.28500 5.05000 27.98900
C  4.45300 5.13800 26.59800
C  5.49300 4.15000 26.32200
C  3.20700 5.73700 28.73900
C  3.71100 5.92100 25.53900
O  4.02100 5.92700 24.38600
C  2.49300 6.81600 25.84800
N  7.66300 1.87900 25.70700
C  6.91000 2.56700 24.82500
C  7.06900 1.90500 23.41500
C  8.28700 0.95700 23.58300
C  8.53400 0.99500 25.09000
C  5.82100 1.24800 22.89700
C  9.56300 1.29700 22.77100
C  9.87200 0.45000 21.54700
N  8.86600 0.80100 28.06200
C  9.53400 0.02600 27.08700
C  10.48200 -0.86600 27.72300
C  10.40500 -0.56300 29.10700
C  9.33600 0.40600 29.27500
C  11.39500 -1.81300 27.05300
C  10.95600 -0.87000 30.49000
O  11.84200 -1.57800 30.91800
C  10.15600 0.10500 31.48300
C  9.46900 -0.68200 32.61200
O  8.39000 -1.27000 32.49000
O  10.21300 -0.70200 33.75400
C  9.49500 -1.17000 34.95400
H  5.09500 4.74300 30.62800
H  5.27400 3.86300 24.25800
H  10.03600 -0.41500 25.07500
H  7.70100 1.78800 32.93200
H  6.79400 4.40400 32.35300
H  5.55200 1.93300 33.32000
H  4.54100 2.82600 32.15900
H  5.24300 3.74500 33.49200
H  9.21100 4.37500 32.20900
H  10.10700 2.90200 32.36500
H  8.14300 2.98400 34.54000
H  8.85100 4.56100 34.46000
H  3.23100 5.49800 29.80200
H  2.21800 5.43900 28.39100
H  3.26900 6.81900 28.62100
H  1.66800 6.20700 26.21600
H  2.21500 7.35700 24.94400
H  2.70600 7.56100 26.61500
H  7.34200 2.69000 22.70900
H  8.03700 -0.06100 23.28500
H  5.04600 1.27900 23.66300
H  6.13400 0.24200 22.61900
H  5.51000 1.79800 22.00800
H  10.42200 1.19600 23.43400
H  9.41400 2.29300 22.35600
H  10.23000 -0.49300 21.96100
H  10.60800 1.01900 20.98000
H  9.00600 0.22000 20.92600
H  10.98100 -2.78400 26.78200
H  12.16300 -2.04500 27.79100
H  11.84900 -1.26700 26.22600
H  10.84400 0.75200 32.02700
H  8.85200 -2.03100 34.77500
H  8.92600 -0.33500 35.36200
H  10.33300 -1.53900 35.54600
Mg 43.55500 4.33100 47.15000
C  41.87000 7.26400 46.46900
C  40.60600 2.60500 46.23100
C  45.36300 1.51800 46.58800
C  46.53900 6.22100 47.10400
N  41.57700 4.89900 46.15300
C  41.10800 6.18200 46.06900
C  39.60800 6.15500 45.79800
C  39.21200 4.74400 46.31400
C  40.48700 4.01200 46.26300
C  38.56300 4.60900 47.78800
C  39.24300 6.36800 44.30300
C  38.61900 7.75600 43.93900
H  39.35700 8.48400 42.82100
N  43.07800 2.26600 46.69600
C  41.77800 1.81800 46.44800
C  41.81500 0.34100 46.26900
C  43.19000 -0.01800 46.28500
C  43.97500 1.29500 46.51000
C  40.62000 -0.46800 45.94500
C  43.71600 -1.38600 46.17800
O  42.94000 -2.33000 46.11800
C  45.17800 -1.82400 46.25200
N  45.70600 3.89500 46.92000
C  46.19000 2.60400 46.80800
C  47.71600 2.63500 46.89900
C  48.05900 4.13400 47.08400
C  46.68700 4.80100 46.98900
C  48.17900 1.66300 47.99200
C  49.14100 4.68700 46.12500
C  50.39300 5.36600 46.75900
N  44.08500 6.29200 47.02900
C  45.32200 6.95100 47.05600
C  45.12200 8.41000 47.20000
C  43.80200 8.55900 46.94500
C  43.23500 7.24000 46.77900
C  46.11400 9.45000 47.35600
C  42.72900 9.54700 46.77800
O  42.72200 10.76600 47.02700
C  41.43500 8.68900 46.52500
C  40.58200 8.96200 47.71700
O  40.73400 8.45400 48.80800
O  39.68200 9.93600 47.48400
C  38.88300 10.40900 48.65400
H  39.65100 2.07500 46.22400
H  45.99600 0.65700 46.36700
H  47.45600 6.73400 47.40400
H  39.04500 6.93400 46.31200
H  38.61400 4.16300 45.61300
H  38.30800 5.56500 48.24600
H  39.20200 4.02900 48.45400
H  37.64500 4.03800 47.64600
H  38.52300 5.60800 44.00200
H  40.13800 6.18500 43.70800
H  38.82600 8.39700 44.79600
H  37.53700 7.72000 43.81600
H  40.51900 -0.88400 44.94300
H  39.70300 0.10800 46.06800
H  40.56400 -1.25900 46.69300
H  45.62700 -1.31000 45.40200
H  45.27900 -2.90100 46.11900
H  45.57400 -1.50300 47.21500
H  48.11300 2.19800 45.98300
H  48.39800 4.28400 48.11000
H  48.70300 2.19800 48.78400
H  48.79600 0.84300 47.62400
H  47.29300 1.26700 48.48900
H  48.74900 5.42200 45.42300
H  49.48000 3.86000 45.50100
H  51.14600 4.75600 46.26000
H  50.44200 5.37700 47.84800
H  50.45500 6.40700 46.44000
H  45.77300 10.47500 47.20800
H  46.93000 9.10800 46.71900
H  46.45500 9.43000 48.39100
H  40.82800 8.88500 45.64100
H  39.52900 11.03800 49.26700
H  38.49500 9.55800 49.21400
H  37.99200 10.92600 48.29700

