158

Mg 50.22700 45.66600 42.74600
C  46.80700 46.39400 41.82800
C  49.73700 42.51000 41.59500
C  53.49500 45.17000 43.27000
C  50.65000 49.12600 43.41400
N  48.48000 44.67100 41.72100
C  47.17300 45.05500 41.57300
C  46.25900 43.97400 40.97700
C  47.21600 42.69100 41.12200
C  48.59900 43.32000 41.50800
C  46.84300 41.64100 42.23800
C  45.96900 44.33200 39.45600
C  44.46400 44.15900 39.03100
H  44.29900 43.16800 37.91200
N  51.38800 44.01700 42.54300
C  51.04000 42.81000 42.03100
C  52.17600 41.92000 41.97500
C  53.26100 42.68500 42.49300
C  52.75200 44.00400 42.73900
C  52.08400 40.49500 41.40900
C  54.69800 42.22200 42.66800
O  54.95200 41.04300 42.53500
C  55.87300 43.05200 43.13600
N  51.90700 47.05300 43.15300
C  53.11300 46.51800 43.46000
C  54.08700 47.60900 43.84400
C  53.20100 48.88800 43.73700
C  51.83100 48.36500 43.40100
C  54.80800 47.39000 45.19500
C  53.53700 50.13400 42.81200
C  55.03200 50.43200 42.65000
N  49.03200 47.37900 42.62400
C  49.35700 48.72700 42.94400
C  48.14800 49.55400 42.83900
C  47.14000 48.65100 42.44500
C  47.69800 47.35000 42.30800
C  48.09500 51.04000 43.13500
C  45.70800 48.56200 42.11500
O  44.75100 49.37100 42.14400
C  45.44300 47.02400 41.68200
C  44.38300 46.45500 42.54400
O  44.59900 46.02200 43.67700
O  43.17800 46.45200 41.86800
C  42.09100 45.84200 42.70400
H  49.60000 41.43500 41.45800
H  54.55300 45.06700 43.52100
H  50.65200 50.19100 43.65500
H  45.33700 43.81200 41.53600
H  47.25700 42.13600 40.18500
H  46.90800 40.74300 41.62300
H  45.83900 41.81300 42.62400
H  47.43500 41.66900 43.15300
H  46.52100 43.65000 38.80900
H  46.27600 45.35100 39.22200
H  43.98600 45.12100 38.84400
H  43.81400 43.70600 39.77900
H  51.31300 40.43200 40.64100
H  51.90400 39.78600 42.21600
H  53.05400 40.17700 41.02700
H  55.77000 43.42400 44.15500
H  56.10100 43.82900 42.40700
H  56.80000 42.49800 42.98700
H  54.85100 47.56700 43.06800
H  53.21500 49.28600 44.75100
H  55.68500 46.75100 45.08600
H  54.28700 46.74400 45.90200
H  55.00300 48.25700 45.82600
H  53.04000 51.02100 43.20500
H  53.17300 50.03500 41.79000
H  55.17800 50.44000 41.57000
H  55.71300 49.81100 43.23200
H  55.16100 51.47300 42.94600
H  48.78800 51.57400 42.48500
H  48.46000 51.02300 44.16200
H  47.08200 51.44300 43.13000
H  45.09900 46.95800 40.65000
H  41.11400 46.25700 42.45400
H  42.24300 45.88000 43.78300
H  42.09300 44.81400 42.34300
Mg 10.12700 48.60400 24.79000
C  7.85500 48.83600 27.44100
C  12.54100 49.81600 26.81300
C  12.15500 48.39800 22.08600
C  7.31400 47.96600 22.68000
N  10.12600 49.30000 26.83100
C  9.15100 49.12800 27.80200
C  9.59200 49.61600 29.24100
C  10.84300 50.38900 28.75100
C  11.27100 49.80400 27.37900
C  10.72900 51.95700 28.66500
C  9.93800 48.47400 30.22600
C  9.52800 48.71100 31.66600
H  9.59700 47.58000 32.75600
N  12.11500 48.87600 24.56100
C  12.97700 49.37700 25.51900
C  14.37400 49.20900 24.99100
C  14.23600 48.78900 23.64200
C  12.76500 48.71900 23.33300
C  15.56700 49.52400 25.81900
C  15.30400 48.44700 22.59800
O  15.06500 47.97500 21.51900
C  16.70300 48.71800 22.99300
N  9.80800 48.32100 22.66800
C  10.81000 48.19700 21.80400
C  10.24800 47.63200 20.40000
C  8.76300 47.41800 20.73400
C  8.59400 47.96200 22.10100
C  10.48100 48.41100 19.17400
C  8.30300 45.86600 20.48100
C  8.35800 44.91100 21.71200
N  7.97000 48.44700 24.99700
C  7.05400 48.21700 24.02600
C  5.74800 48.34100 24.65800
C  5.94700 48.57500 25.96500
C  7.37000 48.66700 26.13500
C  4.49100 48.05100 24.04200
C  5.35100 48.75600 27.25800
O  4.17100 48.75100 27.56200
C  6.60000 48.91600 28.28900
C  6.56300 47.79600 29.19300
O  7.08100 46.73500 28.98200
O  5.86500 48.10100 30.26900
C  5.44500 47.02000 31.11000
H  13.35100 50.15600 27.46200
H  12.74100 48.25600 21.17500
H  6.45900 47.69300 22.05800
H  8.91200 50.34300 29.68400
H  11.65400 50.07500 29.40800
H  9.78000 52.13500 29.17000
H  10.58400 52.22200 27.61700
H  11.62400 52.51800 28.93400
H  11.02500 48.47600 30.30700
H  9.70400 47.46700 29.87900
H  8.60300 49.28600 31.62600
H  10.30500 49.38400 32.02700
H  16.12600 48.59500 25.92200
H  15.27500 49.75700 26.84300
H  16.21400 50.34400 25.50600
H  16.82100 49.76000 23.29100
H  17.35100 48.67600 22.11800
H  17.13900 48.10600 23.78300
H  10.74100 46.66000 20.40500
H  8.11700 48.03300 20.10800
H  9.53400 48.84700 18.85600
H  10.80700 47.81600 18.32100
H  11.19700 49.20300 19.39000
H  8.99200 45.50400 19.71800
H  7.27000 45.95500 20.14600
H  7.35900 44.64600 22.05800
H  8.99900 45.38000 22.45700
H  8.86400 43.95800 21.55100
H  4.61100 47.05000 23.62700
H  4.17800 48.84600 23.36500
H  3.76300 47.91900 24.84200
H  6.60400 49.83100 28.88200
H  5.46900 47.32900 32.15500
H  6.16800 46.21500 30.97600
H  4.41300 46.75000 30.88700

