158

Mg 35.81200 49.51300 24.95100
C  35.71000 48.19600 28.28400
C  34.11900 52.16900 26.22100
C  35.52800 50.44600 21.80900
C  36.85800 46.28400 23.85500
N  35.12100 50.14500 27.10200
C  35.30200 49.52300 28.26900
C  34.82000 50.43100 29.52400
C  34.16700 51.59500 28.72800
C  34.43400 51.28300 27.25900
C  32.67500 51.89900 28.92500
C  35.99500 50.76000 30.53200
C  35.98700 50.14200 31.85800
H  35.16200 50.73400 32.92300
N  35.00600 51.13100 24.10000
C  34.37900 52.12300 24.82300
C  33.94400 53.11000 23.85100
C  34.22400 52.60000 22.52700
C  34.95800 51.36700 22.76800
C  33.25200 54.36100 24.23100
C  33.90700 53.22200 21.09100
O  34.28400 52.63700 20.05600
C  33.15100 54.50900 20.94600
N  36.29200 48.54100 23.09200
C  36.14200 49.18200 21.95900
C  36.62100 48.34200 20.82000
C  37.07900 47.03300 21.39300
C  36.75600 47.28600 22.89800
C  35.56100 48.25500 19.64500
C  38.57400 46.57200 21.09200
C  39.59300 47.68200 21.13600
N  36.23700 47.60300 25.86000
C  36.69000 46.39700 25.27200
C  36.94300 45.41400 26.36900
C  36.57500 46.07200 27.54000
C  36.15000 47.37500 27.17800
C  37.51300 44.02800 26.20100
C  36.42200 45.87300 28.94900
O  36.56500 44.86700 29.70400
C  35.87600 47.22800 29.51100
C  34.71400 47.01200 30.29900
O  33.58200 46.96700 29.85500
O  35.05300 46.70300 31.65600
C  33.86300 46.42300 32.48000
H  33.60400 53.11800 26.38500
H  35.30100 50.84500 20.81900
H  37.27500 45.34500 23.48300
H  34.07700 49.86500 30.08600
H  34.75900 52.50200 28.84800
H  32.30800 51.52600 29.88100
H  32.20600 51.40900 28.07100
H  32.47900 52.97100 28.92000
H  35.92200 51.83300 30.70900
H  36.89600 50.48700 29.98300
H  37.02100 50.26700 32.17800
H  35.76900 49.07700 31.78100
H  32.16200 54.33900 24.24200
H  33.52000 55.13800 23.51600
H  33.46200 54.67700 25.25200
H  32.95700 54.90000 19.94700
H  33.80000 55.21600 21.46200
H  32.21800 54.52700 21.50800
H  37.46400 48.91000 20.42700
H  36.41800 46.22100 21.08800
H  34.64500 48.80900 19.85100
H  35.26500 47.23600 19.39300
H  36.07000 48.66500 18.77300
H  38.50000 46.15700 20.08700
H  38.92300 45.73500 21.69600
H  39.28300 48.59200 21.65000
H  40.09900 47.82900 20.18200
H  40.31600 47.14400 21.75000
H  37.76700 43.84100 25.15700
H  36.86100 43.19300 26.45200
H  38.38500 44.02200 26.85500
H  36.58700 47.74700 30.15500
H  33.49400 45.49000 32.05500
H  33.21800 47.30100 32.44400
H  34.23500 46.33700 33.50100
Mg -10.86100 40.07000 42.15900
C  -9.56700 36.83400 41.44700
C  -8.10600 41.39200 40.60500
C  -12.32700 43.02600 42.32700
C  -13.88100 38.52400 43.02500
N  -9.10300 39.15600 40.98600
C  -8.72800 37.86300 40.98600
C  -7.45600 37.71300 40.12900
C  -6.90000 39.19700 40.07900
C  -8.11100 39.97900 40.54700
C  -5.62300 39.49800 40.80700
C  -7.77300 36.98300 38.78400
C  -6.78600 35.90100 38.36100
H  -5.76200 36.34900 37.26000
N  -10.26700 41.99100 41.61400
C  -9.09000 42.30500 41.00900
C  -8.96000 43.67400 40.90100
C  -10.12600 44.23100 41.52500
C  -11.01800 43.09400 41.79700
C  -7.77000 44.36800 40.30300
C  -10.40300 45.68500 41.87600
O  -9.58500 46.55500 41.58500
C  -11.63600 46.22900 42.63500
N  -12.85100 40.65500 42.47000
C  -13.19000 41.94500 42.56400
C  -14.61500 42.23700 43.02800
C  -15.14300 40.74400 43.16800
C  -13.92200 39.92600 42.88800
C  -14.65200 43.00300 44.38000
C  -16.24000 40.40600 42.13700
C  -17.57800 39.88300 42.77900
N  -11.63500 38.10400 42.29600
C  -12.82000 37.64800 42.77300
C  -12.81400 36.16200 42.81700
C  -11.51900 35.83900 42.28100
C  -10.87700 37.05800 41.92700
C  -13.92600 35.14600 43.23200
C  -10.61700 34.78700 41.93300
O  -10.82200 33.55700 42.07500
C  -9.32000 35.34600 41.31800
C  -8.23800 34.86200 42.14900
O  -7.87100 35.30800 43.18100
O  -7.68400 33.76800 41.48000
C  -6.37100 33.36400 41.93700
H  -7.24300 41.86700 40.13300
H  -12.82900 43.99200 42.41200
H  -14.84800 38.16100 43.37800
H  -6.73200 37.19900 40.76000
H  -6.78300 39.37900 39.01100
H  -4.97800 38.62300 40.89400
H  -5.75000 39.84500 41.83300
H  -5.00300 40.23800 40.30100
H  -7.70400 37.77600 38.03900
H  -8.82200 36.68800 38.75900
H  -7.40400 35.04400 38.09600
H  -6.20900 35.56200 39.22100
H  -8.01900 44.88100 39.37400
H  -6.88300 43.75100 40.15800
H  -7.35900 45.01800 41.07600
H  -12.56300 46.27900 42.06400
H  -11.31800 47.22100 42.95800
H  -11.70000 45.58200 43.51000
H  -15.09400 42.87700 42.28800
H  -15.42400 40.48500 44.18900
H  -13.66900 43.29700 44.74900
H  -15.25300 42.44200 45.09500
H  -15.14600 43.97300 44.32400
H  -15.95100 39.69300 41.36600
H  -16.45300 41.29900 41.54900
H  -18.30300 39.67100 41.99300
H  -18.18500 40.60200 43.32800
H  -17.50700 38.92100 43.28500
H  -13.44200 34.39700 43.85800
H  -14.54500 34.91000 42.36700
H  -14.52700 35.68600 43.96400
H  -9.36700 34.81200 40.36900
H  -5.88400 32.61700 41.31000
H  -6.35200 33.09800 42.99400
H  -5.66700 34.19500 41.94500

