158

Mg 55.71700 23.98000 44.97100
C  53.21500 26.40200 44.32300
C  53.44400 21.57800 44.08600
C  58.18700 21.63900 44.88800
C  57.87700 26.51600 45.67100
N  53.56700 23.99800 44.28200
C  52.76500 25.06000 44.01700
C  51.38700 24.64100 43.51200
C  51.41300 23.12300 43.85300
C  52.86500 22.82700 44.14900
C  50.32900 22.77000 45.05000
C  51.01600 24.83900 42.00900
C  49.56800 25.24600 41.63100
H  49.24200 25.12100 40.10300
N  55.81300 21.90100 44.57300
C  54.75500 21.14100 44.22300
C  55.10200 19.74000 44.13200
C  56.46500 19.68600 44.50600
C  56.88300 21.13800 44.65600
C  54.11300 18.63400 43.92500
C  57.21300 18.45500 44.82400
O  56.71600 17.35800 44.72500
C  58.69400 18.37500 45.41100
N  57.71000 24.04200 45.18400
C  58.56100 22.99500 45.20500
C  60.01000 23.37900 45.57600
C  59.92800 24.95600 45.76800
C  58.37600 25.19600 45.51700
C  60.51600 22.66200 46.86200
C  60.90400 25.85000 44.96100
C  61.57400 26.89400 45.79400
N  55.51400 26.06200 45.18000
C  56.52600 26.93600 45.53900
C  55.99600 28.26000 45.42500
C  54.67700 28.13100 45.00600
C  54.42200 26.76700 44.81100
C  56.76500 29.47600 45.81000
C  53.46600 28.79000 44.70300
O  53.11700 29.96500 44.85100
C  52.44100 27.67200 44.15900
C  52.21000 28.10900 42.73300
O  52.84600 27.73300 41.79400
O  51.08800 28.94900 42.67400
C  50.58400 29.24500 41.30500
H  52.78100 20.74700 43.83800
H  58.99400 20.91300 45.00400
H  58.63800 27.19600 46.06000
H  50.56600 25.20400 43.95700
H  51.22000 22.44800 43.01900
H  50.15100 21.69700 44.97300
H  49.42600 23.37900 45.10100
H  50.83200 22.91600 46.00600
H  51.17300 23.87900 41.51800
H  51.75500 25.52300 41.59300
H  49.36100 26.29600 41.83800
H  48.79900 24.62800 42.09500
H  54.71000 17.72300 43.89600
H  53.57200 18.70700 42.98200
H  53.37400 18.58900 44.72600
H  59.29100 18.53700 44.51400
H  58.90400 17.43000 45.91200
H  58.88000 19.10600 46.19800
H  60.62800 22.96400 44.78000
H  60.00200 25.22600 46.82200
H  61.40100 22.05200 46.68400
H  59.82400 21.96200 47.32900
H  60.84100 23.31800 47.66900
H  60.52900 26.22000 44.00600
H  61.72000 25.20800 44.63100
H  62.63300 26.81400 45.55000
H  61.51900 26.71000 46.86700
H  61.28000 27.91100 45.53500
H  57.30100 29.26200 46.73500
H  56.04700 30.28500 45.93700
H  57.52500 29.70300 45.06200
H  51.53000 27.75900 44.75200
H  50.35800 30.30900 41.24200
H  49.63600 28.77500 41.04500
H  51.31700 29.02000 40.53100
Mg -12.70900 16.14300 42.71800
C  -9.58200 14.53000 42.35900
C  -11.31500 18.76100 41.00300
C  -15.79800 17.38800 42.26700
C  -13.95700 13.15500 43.95200
N  -10.64000 16.53500 41.73500
C  -9.53400 15.79400 41.81300
C  -8.37500 16.44700 41.09500
C  -8.92800 17.90500 40.94000
C  -10.39100 17.75100 41.20900
C  -8.29200 18.98100 41.85100
C  -8.05400 15.73500 39.72300
C  -6.53200 15.44300 39.45900
H  -5.93500 16.34300 38.30800
N  -13.47500 17.90500 41.80500
C  -12.72300 18.83400 41.16200
C  -13.55500 19.90100 40.70700
C  -14.89500 19.52400 40.95800
C  -14.77300 18.21300 41.69500
C  -12.95600 21.09300 39.91200
C  -16.06400 20.36900 40.65600
O  -15.84000 21.46500 40.10200
C  -17.49300 19.99700 41.08800
N  -14.56700 15.38500 43.16200
C  -15.75600 16.09800 42.94000
C  -16.96900 15.31500 43.48900
C  -16.42500 13.91600 43.90100
C  -14.91300 14.09300 43.58300
C  -17.69800 16.23300 44.56600
C  -17.04000 12.69400 43.11700
C  -17.49000 11.38700 43.89000
N  -11.92700 14.22000 43.19200
C  -12.57000 13.08300 43.64600
C  -11.64900 11.94100 43.70400
C  -10.46500 12.51800 43.30300
C  -10.68000 13.91300 42.95100
C  -11.99300 10.52600 44.14000
C  -9.09200 12.18800 43.00800
O  -8.54800 11.11500 43.13000
C  -8.50800 13.48900 42.32700
C  -7.34300 13.89700 43.16100
O  -7.33300 13.84100 44.38100
O  -6.19700 14.25300 42.36600
C  -5.00300 14.45900 43.18200
H  -10.77300 19.58500 40.53300
H  -16.80800 17.76500 42.09100
H  -14.40400 12.24600 44.36100
H  -7.46300 16.45100 41.69200
H  -8.83800 18.24100 39.90700
H  -7.65000 18.58200 42.63600
H  -8.98500 19.63300 42.38100
H  -7.86400 19.75100 41.20900
H  -8.39100 16.34600 38.88600
H  -8.62900 14.81400 39.62800
H  -6.39500 14.38200 39.24700
H  -5.91900 15.63700 40.33900
H  -13.18600 21.15400 38.84800
H  -11.88500 21.28100 39.84000
H  -13.29700 21.91500 40.54100
H  -17.80300 19.14100 40.48800
H  -18.22500 20.75900 40.81700
H  -17.54800 19.73100 42.14400
H  -17.56200 15.16900 42.58700
H  -16.81700 13.82900 44.91400
H  -17.83500 15.66500 45.48600
H  -18.73500 16.45000 44.30900
H  -17.27500 17.21400 44.78000
H  -16.55200 12.34300 42.20700
H  -18.00700 13.05800 42.77000
H  -16.81500 10.60200 43.55100
H  -18.46300 10.96900 43.63000
H  -17.36000 11.47900 44.96800
H  -12.52800 10.41900 45.08300
H  -11.13800 9.85000 44.11100
H  -12.59400 10.06400 43.35700
H  -8.10800 13.11700 41.38400
H  -5.23300 15.35600 43.75800
H  -4.18300 14.62300 42.48200
H  -4.78200 13.75800 43.98800

