158

Mg 0.42800 7.90300 25.42400
C  0.81200 9.83100 28.39100
C  0.68200 5.27600 27.31300
C  -0.04500 6.13400 22.63800
C  0.41900 10.90700 23.58100
N  0.93000 7.62400 27.60000
C  0.80400 8.49300 28.63000
C  0.91700 7.87700 29.95500
C  1.08600 6.36800 29.54200
C  0.86900 6.42200 28.01900
C  2.52500 5.80700 29.95000
C  -0.36800 8.07000 30.75400
C  -0.30600 7.95000 32.31400
H  1.05200 7.68700 32.98200
N  0.31800 5.92800 25.06100
C  0.41000 4.97800 25.98700
C  0.13000 3.64400 25.35700
C  -0.20200 3.89900 23.97900
C  0.10400 5.36200 23.83000
C  0.30300 2.29200 25.99200
C  -0.71300 2.95800 22.99600
O  -0.85400 3.31900 21.80800
C  -1.03000 1.50200 23.28800
N  0.36400 8.40400 23.39400
C  0.11200 7.48600 22.41000
C  0.09900 8.16400 20.98100
C  -0.15400 9.66700 21.40000
C  0.22300 9.72300 22.90200
C  1.32500 7.97500 20.13800
C  -1.59000 10.24900 21.17300
C  -1.74400 11.22600 20.02500
N  0.80200 9.90100 25.79400
C  0.59800 11.06900 24.97700
C  0.86400 12.26200 25.72900
C  0.98200 11.81200 27.05500
C  0.88500 10.41600 27.07500
C  0.98700 13.68800 25.27500
C  1.24800 12.16700 28.41200
O  1.61300 13.22600 28.80700
C  1.04200 10.92600 29.34800
C  2.35500 10.76400 30.01700
O  3.32100 10.16300 29.55300
O  2.36200 11.49300 31.19400
C  3.51100 11.25300 32.04000
H  0.85300 4.40800 27.95200
H  -0.30100 5.62600 21.70600
H  0.24900 11.82700 23.01700
H  1.74500 8.28200 30.53800
H  0.24500 5.81700 29.96400
H  3.17700 6.48400 30.50200
H  3.11000 5.52000 29.07600
H  2.36200 4.88300 30.50400
H  -1.17100 7.42700 30.39500
H  -0.71400 9.08800 30.57200
H  -1.00300 7.12700 32.47000
H  -0.73900 8.91300 32.58300
H  0.88300 2.41200 26.90700
H  0.91300 1.69800 25.31100
H  -0.63900 1.80500 26.24600
H  -1.86000 1.47800 23.99400
H  -0.15300 1.03600 23.73800
H  -1.35800 0.94500 22.41100
H  -0.74500 7.84000 20.37300
H  0.53500 10.30500 20.84700
H  1.27000 8.71300 19.33800
H  1.42600 6.97700 19.71200
H  2.17500 8.24400 20.76500
H  -2.05600 10.58400 22.09900
H  -2.21600 9.42100 20.83900
H  -1.37000 10.59900 19.21600
H  -0.98400 12.00300 20.10900
H  -2.77300 11.50500 19.79600
H  0.43100 14.40600 25.87800
H  0.97500 13.78800 24.19000
H  2.01700 13.94700 25.52000
H  0.17900 11.04700 30.00300
H  3.36900 11.64300 33.04800
H  4.28500 11.93100 31.68000
H  3.78300 10.19900 32.10100
Mg 26.32700 50.65700 26.71600
C  24.13600 51.45500 29.48500
C  28.66900 49.79700 28.95900
C  28.44000 50.42700 24.20800
C  23.87000 51.98700 24.60300
N  26.33500 50.77300 28.97500
C  25.37800 51.03900 29.92500
C  25.82600 50.71900 31.33400
C  27.29600 50.31500 31.10200
C  27.44800 50.28400 29.57800
C  28.34600 51.23800 31.74000
C  24.97700 49.67500 32.13300
C  24.64600 50.12100 33.62700
H  25.63700 50.60200 34.57500
N  28.23400 50.05900 26.55600
C  29.03300 49.69900 27.60600
C  30.29000 49.17900 27.10800
C  30.26600 49.52000 25.72200
C  28.91000 50.00000 25.40200
C  31.40400 48.62000 27.93400
C  31.34100 49.47300 24.70700
O  31.16000 49.76200 23.52500
C  32.60300 49.04100 25.12400
N  26.29200 51.49600 24.80500
C  27.24500 51.17200 23.90900
C  26.79800 51.22200 22.40600
C  25.38100 51.73400 22.52500
C  25.12700 51.81600 24.03600
C  27.72400 52.08600 21.48300
C  24.44200 50.80500 21.65300
C  23.54100 49.75600 22.30800
N  24.40800 51.58800 26.95700
C  23.47400 52.00500 25.98400
C  22.16400 52.26500 26.58600
C  22.42700 52.19000 27.95200
C  23.76700 51.61500 28.11100
C  20.95100 52.78400 25.85200
C  21.85100 52.43700 29.21400
O  20.81200 52.99300 29.50300
C  22.88000 51.83300 30.31900
C  23.19700 52.93900 31.24300
O  24.21400 53.61200 31.22100
O  22.32500 52.89300 32.24500
C  22.48500 53.77100 33.36400
H  29.32600 49.20900 29.60300
H  28.95500 50.20600 23.27100
H  23.10300 52.26100 23.87500
H  25.81200 51.66100 31.88200
H  27.37500 49.31100 31.51800
H  27.88900 52.22700 31.75300
H  29.24100 51.18200 31.12000
H  28.63000 50.98200 32.76100
H  25.43200 48.69000 32.03800
H  24.00800 49.58700 31.64200
H  24.05000 49.25500 33.91500
H  23.88600 50.89100 33.50100
H  31.07200 48.29000 28.91800
H  32.25700 49.29200 28.01900
H  31.67300 47.66600 27.48200
H  33.18200 48.89500 24.21100
H  32.53400 48.07200 25.61900
H  32.98100 49.68200 25.92000
H  26.81600 50.19100 22.05200
H  25.22000 52.73200 22.11600
H  28.23800 51.49800 20.72200
H  28.39600 52.53900 22.21100
H  27.18500 52.91900 21.03200
H  25.10900 50.29900 20.95500
H  23.73400 51.51600 21.22600
H  23.93600 49.45200 23.27800
H  23.67000 48.91400 21.62800
H  22.51600 50.10500 22.18200
H  20.87500 53.86300 25.71700
H  20.12600 52.68500 26.55800
H  20.70100 52.29000 24.91300
H  22.22900 51.12200 30.82800
H  22.66600 54.81100 33.09000
H  23.34700 53.45400 33.95200
H  21.55900 53.58600 33.90800

