158

Mg 16.88200 -1.18200 27.63300
C  15.97300 0.87900 30.27500
C  19.19700 -2.64400 29.79400
C  18.15100 -2.71900 25.02800
C  14.77600 0.72200 25.54700
N  17.50800 -0.90600 29.74300
C  16.91600 -0.01500 30.67800
C  17.47800 -0.25500 32.08500
C  18.74500 -1.13000 31.78600
C  18.48500 -1.61500 30.37200
C  20.23700 -0.52500 32.09000
C  16.39500 -0.89200 32.96000
C  16.10900 -0.14300 34.18300
H  17.26900 0.50500 34.79900
N  18.31600 -2.70800 27.55500
C  19.11500 -3.17600 28.54700
C  19.81900 -4.32800 27.97400
C  19.52900 -4.38600 26.61000
C  18.59100 -3.24800 26.25100
C  20.49400 -5.41000 28.87100
C  19.83400 -5.49200 25.58700
O  19.36500 -5.38000 24.49900
C  20.80900 -6.61500 25.90400
N  16.41600 -1.07700 25.61500
C  17.21300 -1.73700 24.71700
C  16.89400 -1.42600 23.27900
C  15.59500 -0.56800 23.43900
C  15.52200 -0.31900 24.92300
C  18.08500 -0.69400 22.55100
C  14.20000 -1.20000 22.86700
C  13.85000 -0.86400 21.44400
N  15.63600 0.46900 27.84700
C  14.80900 1.08800 26.93000
C  14.01800 2.09100 27.51500
C  14.54500 2.16200 28.80100
C  15.53200 1.13700 28.92200
C  12.92300 2.84200 26.77200
C  14.44700 2.85600 30.04700
O  13.78800 3.85700 30.39200
C  15.34700 2.00700 31.11600
C  16.33400 2.91600 31.70500
O  17.45300 3.08200 31.32100
O  15.85600 3.52300 32.82900
C  16.87900 4.36700 33.53000
H  20.02400 -3.04900 30.38000
H  18.49800 -3.24300 24.13500
H  14.23400 1.31200 24.80500
H  17.82500 0.72800 32.40500
H  18.61900 -2.03100 32.38600
H  20.61500 -1.30000 32.75600
H  20.14500 0.45300 32.56400
H  20.86400 -0.61700 31.20300
H  16.74700 -1.89400 33.20600
H  15.45500 -1.14100 32.46800
H  15.57900 -0.75100 34.91600
H  15.39100 0.63300 33.91800
H  19.86600 -6.30000 28.91500
H  20.49700 -4.99500 29.87900
H  21.52300 -5.60300 28.56800
H  21.83100 -6.24700 26.00000
H  20.72200 -7.30900 25.06800
H  20.37300 -7.17100 26.73300
H  16.56100 -2.34300 22.79300
H  15.87700 0.39300 23.00800
H  18.88700 -0.48800 23.26000
H  17.82900 0.26300 22.09800
H  18.41500 -1.38400 21.77500
H  13.39500 -0.89400 23.53500
H  14.17700 -2.27900 23.02000
H  14.32200 0.10500 21.28100
H  12.77900 -0.83300 21.24700
H  14.35300 -1.54800 20.76000
H  12.09800 2.81500 27.48500
H  12.53500 2.35600 25.87800
H  13.24600 3.85000 26.51000
H  14.89000 1.51500 31.97500
H  17.05500 5.31700 33.02600
H  17.87600 3.92600 33.52700
H  16.49000 4.50000 34.54000
Mg 15.82900 51.06300 25.74300
C  17.80100 50.03600 28.41900
C  13.36900 51.80800 28.00600
C  13.78900 51.84600 23.16400
C  18.21100 49.85900 23.55700
N  15.54800 50.82400 28.00500
C  16.55300 50.54400 28.89800
C  16.18300 50.82000 30.35500
C  14.58000 51.06400 30.18800
C  14.46300 51.21200 28.63400
C  13.66700 49.90200 30.80400
C  16.94100 52.08300 30.94300
C  16.85500 52.39400 32.42500
H  16.07300 51.39200 33.26400
N  13.81800 51.73100 25.61900
C  13.02400 52.03400 26.66000
C  11.83600 52.62800 26.19300
C  11.95700 52.72500 24.75000
C  13.19300 52.07400 24.41100
C  10.77000 53.15300 27.16500
C  11.07900 53.39100 23.78600
O  11.31900 53.44300 22.56500
C  9.85000 54.08100 24.21400
N  15.93100 50.67100 23.68500
C  14.96700 51.19900 22.82700
C  15.48400 50.93200 21.30700
C  16.90300 50.37900 21.41000
C  17.03400 50.31100 22.97700
C  14.47300 50.08800 20.53400
C  17.99100 51.25600 20.81900
C  18.97600 50.48900 19.95900
N  17.67700 50.17200 25.89600
C  18.47800 49.70300 24.91400
C  19.64000 49.16400 25.58200
C  19.47400 49.30500 26.94900
C  18.19100 49.82400 27.09600
C  20.85400 48.49600 24.84700
C  20.06800 48.96300 28.21900
O  21.09900 48.46300 28.49100
C  19.02000 49.59000 29.23800
C  18.62600 48.51100 30.12400
O  17.84100 47.59500 29.92400
O  19.35100 48.65200 31.33800
C  18.98900 47.61800 32.37400
H  12.72600 52.18900 28.80200
H  13.23400 52.13600 22.26900
H  18.98800 49.50200 22.87800
H  16.35700 49.88600 30.88900
H  14.37400 52.02300 30.66300
H  13.07300 50.52800 31.47000
H  14.30800 49.28700 31.43500
H  13.09300 49.26400 30.13200
H  16.69400 52.94300 30.32000
H  17.96800 51.83200 30.67700
H  16.44600 53.39100 32.58800
H  17.87400 52.33400 32.80800
H  10.25500 52.27800 27.56200
H  10.05900 53.87400 26.76200
H  11.24800 53.59200 28.04100
H  9.40200 54.67600 23.41900
H  10.05600 54.79900 25.00800
H  9.12100 53.30700 24.45600
H  15.42100 51.96000 20.95000
H  16.97800 49.34600 21.07000
H  15.07100 49.35600 19.99100
H  13.98600 50.81900 19.88800
H  13.79500 49.53500 21.18400
H  18.55800 51.71100 21.63100
H  17.46600 52.09600 20.36500
H  19.35400 51.19500 19.22000
H  18.70500 49.46800 19.68900
H  19.83900 50.38000 20.61600
H  21.72600 48.76900 25.44100
H  20.91600 48.86600 23.82400
H  20.57100 47.44400 24.83100
H  19.54100 50.35100 29.82100
H  19.35300 47.83400 33.37800
H  19.30900 46.64800 31.99300
H  17.90200 47.69500 32.40400

