158

Mg 0.93200 -2.50700 43.57500
C  4.13400 -1.74900 42.93000
C  -0.04700 0.47000 42.16400
C  -2.29200 -3.55900 43.40200
C  1.86600 -5.82000 44.52000
N  1.95000 -0.94000 42.41600
C  3.28300 -0.78700 42.41700
C  3.65000 0.47600 41.66100
C  2.38200 1.40800 41.82400
C  1.30500 0.26900 42.14500
C  2.58300 2.42500 42.99500
C  3.89500 0.04300 40.12400
C  5.28900 0.30800 39.49600
H  5.99000 -0.79000 38.75200
N  -0.90200 -1.63400 43.08200
C  -1.02200 -0.39700 42.53300
C  -2.45600 -0.07600 42.32800
C  -3.14700 -1.22800 42.62900
C  -2.12800 -2.22400 43.05500
C  -2.83400 1.20900 41.68000
C  -4.57200 -1.43500 42.43300
O  -5.26200 -0.60100 41.94500
C  -5.31900 -2.61200 42.86500
N  -0.08400 -4.32700 44.01000
C  -1.37100 -4.55000 43.76700
C  -1.84200 -5.92000 44.39000
C  -0.50600 -6.58900 44.71600
C  0.50200 -5.50000 44.37600
C  -2.77900 -5.62200 45.56200
C  -0.26100 -7.94900 44.07800
C  -1.12400 -9.10400 44.60600
N  2.62300 -3.62700 43.68600
C  2.93600 -4.92200 44.16100
C  4.36100 -5.09800 44.21200
C  4.88800 -3.89600 43.69600
C  3.77300 -2.97400 43.43800
C  5.04700 -6.35100 44.75800
C  6.13900 -3.14800 43.48200
O  7.26900 -3.36400 43.74600
C  5.64500 -1.87300 42.76600
C  6.46500 -0.61700 43.23700
O  7.18000 0.10200 42.60200
O  5.89000 -0.19700 44.43500
C  6.57200 1.03700 44.97600
H  -0.26000 1.52000 41.95100
H  -3.27900 -4.01300 43.30000
H  2.24100 -6.79800 44.82800
H  4.49700 0.99600 42.10700
H  2.21200 1.92300 40.87900
H  3.61500 2.24400 43.29600
H  2.04500 2.12200 43.89300
H  2.36900 3.46400 42.74300
H  3.27200 0.65900 39.47600
H  3.64300 -1.01600 40.07400
H  5.98500 0.84300 40.14300
H  5.16900 1.08800 38.74400
H  -3.87400 1.53400 41.73000
H  -2.46300 1.27600 40.65700
H  -2.28100 2.04500 42.10800
H  -6.35000 -2.48500 42.53400
H  -5.19500 -2.79100 43.93300
H  -4.90800 -3.44900 42.30000
H  -2.29800 -6.60300 43.67400
H  -0.40400 -6.86400 45.76600
H  -2.45800 -5.98000 46.54100
H  -3.77400 -5.97500 45.28800
H  -3.03600 -4.57800 45.74100
H  0.76500 -8.30800 44.00300
H  -0.51600 -7.76900 43.03300
H  -1.69200 -8.88000 45.50900
H  -0.53200 -9.99600 44.80900
H  -1.91400 -9.40400 43.91700
H  5.99900 -6.08500 45.21900
H  5.20800 -7.09800 43.98100
H  4.50200 -6.74600 45.61600
H  5.96200 -1.94700 41.72600
H  7.65000 0.89900 45.06300
H  6.13900 1.35300 45.92500
H  6.43700 1.88700 44.30800
Mg 34.32000 3.02400 29.67500
C  31.93900 4.09100 32.05500
C  36.68600 3.43700 32.09400
C  36.36600 1.92400 27.38900
C  31.72800 2.88600 27.24200
N  34.32800 3.70900 31.78300
C  33.27200 3.96600 32.53000
C  33.63000 4.15300 33.98700
C  35.23600 4.11000 34.00000
C  35.45200 3.65500 32.57100
C  36.02700 5.42100 34.32800
C  32.90300 3.16600 34.86700
C  32.35300 3.68900 36.21700
H  33.21600 4.71400 37.00000
N  36.33600 2.81600 29.66000
C  37.14300 2.95200 30.80100
C  38.48600 2.55500 30.32500
C  38.41300 2.13500 28.92600
C  37.04400 2.33700 28.59300
C  39.65100 2.85100 31.31600
C  39.55100 1.71600 27.95500
O  39.37300 1.23300 26.82500
C  40.93400 1.65800 28.55100
N  34.13200 2.49100 27.62500
C  35.17900 2.13600 26.82400
C  34.75300 1.87800 25.34000
C  33.22000 1.78400 25.49000
C  33.03100 2.44600 26.88500
C  35.30700 2.94600 24.36900
C  32.55800 0.37300 25.47200
C  31.98400 -0.07000 24.10600
N  32.29400 3.38500 29.59200
C  31.35700 3.29600 28.55300
C  30.09000 3.71500 29.01300
C  30.25700 4.05900 30.41100
C  31.58100 3.80200 30.72100
C  28.86700 3.77400 28.16500
C  29.58500 4.48600 31.59500
O  28.40100 4.72800 31.80800
C  30.62500 4.50700 32.78400
C  30.67100 5.90200 33.37500
O  31.27400 6.84700 32.85600
O  30.04100 5.91900 34.56700
C  30.02900 7.21700 35.21400
H  37.47000 3.63800 32.82700
H  37.09200 1.37200 26.78800
H  30.98500 3.00200 26.44900
H  33.36400 5.15400 34.32600
H  35.56600 3.22000 34.53600
H  35.38900 6.18300 34.77800
H  36.58200 5.71300 33.43600
H  36.71900 5.29500 35.16100
H  33.50900 2.27400 35.03000
H  32.08400 2.59800 34.42500
H  32.23000 2.86700 36.92200
H  31.36900 4.14900 36.12900
H  40.37800 2.04900 31.18300
H  39.29800 2.74500 32.34200
H  40.19800 3.77800 31.14600
H  41.69700 1.48400 27.79200
H  40.92800 0.85500 29.28800
H  41.22200 2.53100 29.13600
H  35.15700 0.91000 25.04400
H  32.73600 2.46700 24.79300
H  34.50400 3.56400 23.96600
H  35.84500 2.51800 23.52300
H  35.96200 3.53400 25.01100
H  31.80800 0.25200 26.25300
H  33.32800 -0.37600 25.65800
H  32.54500 -0.92900 23.73700
H  31.92600 0.69500 23.33200
H  30.97500 -0.46800 24.22100
H  28.00100 3.61500 28.80700
H  28.81300 3.04000 27.36100
H  28.80800 4.77200 27.73100
H  30.47300 3.88700 33.66800
H  29.01100 7.60600 35.19100
H  30.68400 7.98700 34.80600
H  30.18400 6.95300 36.26000

