158

Mg 6.32400 53.83100 40.83600
C  6.23200 50.29300 40.57700
C  9.52800 53.79600 39.48900
C  6.30500 57.16100 40.87100
C  2.91200 53.68000 41.71900
N  7.60500 52.14500 39.97000
C  7.41800 50.83000 40.02900
C  8.67700 50.08200 39.63600
C  9.76500 51.20400 39.65700
C  8.88800 52.52200 39.65400
C  10.74800 51.18100 40.87500
C  8.52600 49.23500 38.32700
C  7.64900 49.80800 37.21000
H  8.23000 50.81800 36.19900
N  7.76700 55.25000 40.37400
C  8.98900 55.11800 39.80900
C  9.67900 56.37000 39.66600
C  8.79500 57.37100 40.12800
C  7.56100 56.59400 40.53300
C  11.08200 56.50200 39.21500
C  9.10100 58.83500 40.24900
O  10.15800 59.25800 39.85100
C  8.14100 59.86800 40.93500
N  4.80900 55.23900 41.19100
C  5.00800 56.59500 41.01300
C  3.70500 57.39400 41.29000
C  2.60500 56.21300 41.36600
C  3.45000 54.95600 41.51800
C  3.67700 58.35700 42.43000
C  1.63900 55.98300 40.15100
C  2.23700 55.45400 38.79800
N  4.79800 52.38800 41.16600
C  3.54500 52.44800 41.63800
C  3.01100 51.14000 41.82600
C  4.10100 50.26300 41.58800
C  5.10900 51.06100 40.98700
C  1.64200 50.81800 42.43600
C  4.62900 48.90800 41.70500
O  4.24900 47.96300 42.38700
C  5.96400 48.85100 40.84800
C  5.57700 47.93100 39.69600
O  4.87500 48.20200 38.71800
O  6.13400 46.70600 39.91500
C  5.73000 45.74300 38.92300
H  10.57900 53.71000 39.20500
H  6.37100 58.22100 41.12500
H  1.88900 53.45900 42.03100
H  8.90500 49.29900 40.35800
H  10.28400 51.08500 38.70600
H  10.67800 50.22700 41.39700
H  10.57100 52.05500 41.50100
H  11.74600 51.17400 40.43600
H  8.18000 48.23000 38.56800
H  9.53200 48.99400 37.98300
H  6.79700 50.32600 37.65000
H  7.26400 48.96000 36.64400
H  11.63700 55.60700 39.49300
H  11.67200 57.22900 39.77300
H  11.11900 56.82200 38.17300
H  7.25800 59.87200 40.29600
H  8.53400 60.88300 40.87900
H  7.76300 59.58900 41.91900
H  3.46000 57.96800 40.39600
H  2.09700 56.32200 42.32400
H  3.12000 59.20700 42.03700
H  4.64900 58.69000 42.79400
H  3.06800 57.98700 43.25500
H  1.28100 56.97700 39.88200
H  0.75900 55.36600 40.33200
H  1.81000 54.50600 38.47100
H  3.32500 55.49100 38.73200
H  2.02600 56.19000 38.02300
H  1.68300 51.24200 43.44000
H  1.74500 49.75600 42.65800
H  0.80000 51.21500 41.86900
H  6.65200 48.35200 41.53100
H  6.29300 46.01500 38.03000
H  4.64600 45.79500 38.81700
H  5.96000 44.69100 39.09500
Mg -5.26200 25.92300 26.36800
C  -3.87900 27.45500 29.23700
C  -7.22300 24.02500 28.37100
C  -5.95000 24.00000 23.72500
C  -2.89000 27.64200 24.41200
N  -5.42900 25.65000 28.58700
C  -4.78800 26.43100 29.51700
C  -5.30100 26.04900 30.93600
C  -6.30300 24.89700 30.69200
C  -6.36200 24.83500 29.13600
C  -5.95000 23.53700 31.29500
C  -5.98900 27.29200 31.60500
C  -6.26500 27.31000 33.14500
H  -5.87900 26.04800 33.98700
N  -6.71400 24.56500 25.96900
C  -7.48600 23.90000 26.95700
C  -8.36100 22.96200 26.33900
C  -8.01200 22.91100 24.96000
C  -6.83100 23.82700 24.78100
C  -9.42800 22.10100 27.04400
C  -8.58500 22.04900 23.86000
O  -8.11500 22.01900 22.69600
C  -9.68700 21.09400 24.26800
N  -4.30900 25.67500 24.33200
C  -4.88600 24.83300 23.48400
C  -4.22200 25.03400 22.06100
C  -3.30300 26.27400 22.26100
C  -3.49300 26.57300 23.74800
C  -3.52200 23.78700 21.58200
C  -3.69400 27.49000 21.42500
C  -2.51100 28.22500 20.68100
N  -3.72200 27.30800 26.69300
C  -2.89000 27.89500 25.79200
C  -1.98900 28.78600 26.54900
C  -2.38400 28.64700 27.84600
C  -3.48900 27.81500 27.93100
C  -0.81100 29.52100 26.03200
C  -2.00800 29.11100 29.14500
O  -1.13800 29.89300 29.44300
C  -2.97200 28.33800 30.11800
C  -2.15400 27.53500 31.06900
O  -1.40400 26.64800 30.75700
O  -2.27400 27.98700 32.33300
C  -1.72500 27.21400 33.47300
H  -7.88700 23.38500 28.95600
H  -6.20700 23.36900 22.87100
H  -2.20000 28.34000 23.93300
H  -4.45600 25.75600 31.56000
H  -7.29900 25.04200 31.11000
H  -5.35000 23.72800 32.18600
H  -5.39900 22.97000 30.54500
H  -6.86200 23.03000 31.60800
H  -6.98100 27.41900 31.17200
H  -5.49400 28.25000 31.44100
H  -7.30100 27.53700 33.39700
H  -5.70400 28.17100 33.50900
H  -9.12300 21.05500 27.07500
H  -10.41900 22.32600 26.65000
H  -9.50500 22.29400 28.11500
H  -10.62600 21.58700 24.52100
H  -9.26200 20.38700 24.98000
H  -9.87900 20.46600 23.39800
H  -5.01800 25.23100 21.34300
H  -2.26300 26.04700 22.02300
H  -2.43900 23.78600 21.70400
H  -3.61100 23.65700 20.50400
H  -3.97700 22.92300 22.06800
H  -4.38900 28.23000 21.82100
H  -4.29800 27.04800 20.63300
H  -2.36700 28.06500 19.61200
H  -1.59100 27.88500 21.15800
H  -2.66700 29.27700 20.91900
H  -0.41300 29.15700 25.08400
H  -0.03600 29.57900 26.79600
H  -1.02800 30.55800 25.77600
H  -3.52500 29.03400 30.74900
H  -1.27100 26.24900 33.24700
H  -2.47500 27.14400 34.26100
H  -0.92200 27.84100 33.86000

