158

Mg 36.71600 2.48400 30.04000
C  34.27400 3.37300 32.49300
C  39.12800 2.58800 32.49400
C  38.93700 1.95900 27.71600
C  34.20000 2.89000 27.57700
N  36.71200 2.94100 32.24300
C  35.54700 3.19300 33.03600
C  35.90900 3.13500 34.57400
C  37.47000 3.04400 34.46600
C  37.79200 2.78200 33.01500
C  38.13800 4.31800 34.99000
C  35.30000 1.79200 35.23700
C  34.40900 2.00400 36.40400
H  35.02000 2.88800 37.50500
N  38.79500 2.19300 30.09000
C  39.62200 2.37100 31.14200
C  41.03900 2.14700 30.73000
C  41.01800 2.01400 29.34100
C  39.55100 2.02100 28.98400
C  42.12400 2.03200 31.75500
C  42.07200 1.98700 28.35900
O  41.93600 1.75400 27.19100
C  43.51700 1.98500 28.86000
N  36.56900 2.33600 27.95100
C  37.61900 2.10300 27.24400
C  37.24600 1.74700 25.77200
C  35.72400 2.21900 25.72700
C  35.43200 2.44900 27.16100
C  38.16200 2.33700 24.64900
C  34.72600 1.31200 25.02400
C  33.69500 2.06400 24.14800
N  34.69700 3.04300 29.98200
C  33.83600 3.12100 28.92100
C  32.52600 3.44600 29.48200
C  32.72000 3.55600 30.82100
C  34.07000 3.31000 31.10000
C  31.25400 3.59600 28.80100
C  32.02700 3.83000 32.07800
O  30.90500 4.08500 32.21600
C  33.08000 3.70000 33.23600
C  33.04000 4.88200 34.08100
O  33.73700 5.91100 33.92800
O  32.24800 4.60700 35.20400
C  32.21800 5.69800 36.19300
H  39.86900 2.64200 33.29400
H  39.62100 1.75800 26.89000
H  33.38700 3.10000 26.87800
H  35.59300 4.09700 34.97700
H  37.85900 2.20500 35.04300
H  37.55000 5.23200 34.90400
H  38.96900 4.64700 34.36600
H  38.47300 4.18900 36.02000
H  36.15400 1.24400 35.63500
H  34.82300 1.21800 34.44200
H  34.21200 1.02700 36.84700
H  33.48800 2.50300 36.10100
H  42.43100 3.02500 32.08300
H  43.02100 1.53200 31.39000
H  41.87200 1.35300 32.56900
H  44.14700 2.06200 27.97400
H  43.56500 1.04000 29.40200
H  43.74800 2.92900 29.35300
H  37.17600 0.65900 25.78400
H  35.61900 3.24600 25.37800
H  38.92200 1.59800 24.39600
H  38.73900 3.15900 25.07200
H  37.56600 2.58900 23.77100
H  34.23700 0.61600 25.70600
H  35.31000 0.88500 24.20800
H  34.15600 2.87100 23.58000
H  32.96700 2.49900 24.83400
H  33.25100 1.29000 23.52200
H  30.83000 2.62900 28.52900
H  31.30600 4.12900 27.85200
H  30.58500 4.18500 29.42900
H  32.72000 2.82600 33.77900
H  31.77300 6.52100 35.63500
H  33.21700 5.95900 36.54400
H  31.60900 5.48900 37.07200
Mg 54.03900 23.75900 44.82200
C  51.60200 26.16300 43.90400
C  51.97000 21.30400 43.82900
C  56.72700 21.60000 44.81600
C  56.12900 26.45800 45.62100
N  52.11200 23.79200 43.89100
C  51.29600 24.83800 43.52900
C  49.97200 24.35100 42.98000
C  49.99000 22.84300 43.42600
C  51.45400 22.60300 43.70600
C  49.08300 22.35900 44.66600
C  49.84400 24.51000 41.41400
C  48.34800 24.45500 40.96200
H  48.06400 24.11300 39.49000
N  54.32300 21.67300 44.46900
C  53.27400 20.87700 44.15800
C  53.72000 19.51700 44.30200
C  55.14200 19.50000 44.44100
C  55.48200 20.97800 44.61600
C  52.78000 18.39400 44.33900
C  56.12900 18.36900 44.30800
O  55.68600 17.24600 44.17800
C  57.69000 18.48300 44.15900
N  56.18500 24.05500 44.96500
C  56.98900 22.98300 45.10600
C  58.42700 23.47300 45.34100
C  58.21200 24.95200 45.67700
C  56.73700 25.22200 45.36200
C  59.21800 22.58000 46.41000
C  59.12100 25.94200 44.86900
C  60.24100 26.53700 45.74600
N  53.90100 25.91500 45.02200
C  54.80500 26.85300 45.35600
C  54.22200 28.20100 45.34400
C  52.92400 27.92900 44.78700
C  52.85000 26.52400 44.51200
C  54.70700 29.46400 45.83700
C  51.68900 28.61900 44.38200
O  51.23500 29.77500 44.53500
C  50.84100 27.47700 43.69400
C  50.78200 27.73800 42.29700
O  51.76000 27.85300 41.57800
O  49.48300 27.96800 41.88100
C  49.31600 28.36800 40.48200
H  51.26700 20.47400 43.72300
H  57.53500 20.87300 44.92500
H  56.81900 27.24600 45.93100
H  49.17800 24.88100 43.50600
H  49.68300 22.14700 42.64500
H  49.64100 21.82800 45.43600
H  48.36900 21.59000 44.37000
H  48.57800 23.28300 44.94800
H  50.36500 23.70100 40.90100
H  50.31300 25.46200 41.16600
H  47.91600 25.38500 41.33000
H  47.97200 23.58900 41.50600
H  53.20400 17.52300 44.83800
H  52.36500 18.22100 43.34600
H  51.88400 18.72500 44.86400
H  58.14300 19.16000 43.43600
H  57.88800 17.46400 43.82700
H  58.18600 18.44000 45.12900
H  59.02300 23.45200 44.42800
H  58.42300 25.04600 46.74300
H  59.38800 23.17500 47.30700
H  60.19600 22.30700 46.01300
H  58.66700 21.71100 46.77000
H  58.53800 26.78700 44.50300
H  59.56200 25.53200 43.96100
H  61.21100 26.48900 45.25200
H  60.20400 26.23400 46.79200
H  60.00900 27.60000 45.66900
H  54.12200 30.23900 45.34100
H  55.68200 29.69800 45.41000
H  54.53800 29.46800 46.91300
H  49.82600 27.42900 44.08900
H  48.69300 27.59000 40.03900
H  50.22300 28.44300 39.88300
H  48.81200 29.33400 40.48100

