158

Mg 41.01300 9.22600 29.13000
C  42.95800 10.60100 31.69100
C  38.90200 7.91900 31.38300
C  39.42100 7.88000 26.61100
C  43.72300 10.02900 26.92800
N  40.95800 9.30700 31.32900
C  41.77600 10.01300 32.12400
C  41.33400 9.92900 33.58300
C  40.05500 9.01200 33.53300
C  39.96500 8.62300 31.99500
C  40.04800 7.73500 34.42100
C  41.32900 11.24100 34.39000
C  40.33700 11.34500 35.51400
H  41.03300 11.67100 36.85000
N  39.40300 8.05300 29.04500
C  38.57900 7.63600 30.03700
C  37.41800 7.02700 29.50800
C  37.49600 7.19300 28.11500
C  38.82100 7.68300 27.86500
C  36.35200 6.45000 30.39000
C  36.49300 6.99400 27.10700
O  36.77200 7.33800 25.99300
C  35.10500 6.51100 27.32100
N  41.65600 8.66200 27.09100
C  40.69400 8.26000 26.23200
C  41.21700 8.11500 24.80400
C  42.32900 9.22900 24.85300
C  42.60000 9.34200 26.34100
C  41.79400 6.70900 24.42100
C  41.93200 10.65600 24.28900
C  40.44200 11.07100 24.36000
N  42.95600 10.11200 29.22100
C  43.92200 10.35400 28.28400
C  45.05800 11.06500 28.87700
C  44.74500 11.14800 30.24300
C  43.45000 10.54700 30.37300
C  46.27200 11.45100 28.16400
C  45.10300 11.72400 31.47400
O  46.06000 12.42400 31.81000
C  43.96300 11.33000 32.55600
C  44.56500 10.36500 33.42300
O  45.07100 9.32700 33.02800
O  44.58800 10.85400 34.70000
C  45.34400 10.02100 35.65500
H  38.10700 7.85600 32.12900
H  38.88900 7.49400 25.73900
H  44.48300 10.37300 26.22300
H  42.17400 9.45700 34.09300
H  39.21600 9.66900 33.75900
H  39.00900 7.40900 34.46000
H  40.63700 7.90200 35.32300
H  40.59200 6.94200 33.90700
H  41.05100 11.89500 33.56300
H  42.29200 11.62200 34.72900
H  39.85800 10.43000 35.86100
H  39.64000 12.13800 35.24200
H  35.45400 6.31500 29.78700
H  36.13800 7.01300 31.29900
H  36.68600 5.45200 30.67400
H  34.59400 6.65400 26.36900
H  34.49300 7.11600 27.99000
H  34.96600 5.43800 27.45400
H  40.42100 8.21100 24.06500
H  43.13300 8.80400 24.25300
H  41.11000 6.14000 23.79100
H  41.64100 6.15600 25.34700
H  42.81100 6.59500 24.04500
H  42.31500 10.70900 23.27000
H  42.37800 11.53700 24.75000
H  40.28700 11.64000 25.27700
H  39.78900 10.19800 24.34600
H  40.13300 11.77800 23.59100
H  47.15700 11.23500 28.76300
H  46.14500 12.52900 28.05700
H  46.34900 10.98000 27.18400
H  43.66400 12.23300 33.08900
H  45.20400 10.53000 36.60900
H  46.37200 10.06100 35.29500
H  44.91600 9.01900 35.68700
Mg 36.61900 49.42400 25.50300
C  36.92200 47.65300 28.44200
C  35.08300 52.03600 27.22800
C  35.95400 51.08100 22.57700
C  37.84300 46.73800 23.69900
N  35.85700 49.75200 27.58000
C  36.33300 48.94700 28.62900
C  35.92500 49.47100 29.99200
C  35.14500 50.74100 29.56000
C  35.33900 50.88900 28.03800
C  33.64100 50.87900 29.95500
C  37.18600 49.83000 30.86300
C  37.07500 49.29400 32.32700
H  35.66400 49.27200 33.02200
N  35.82500 51.31500 24.98700
C  35.31100 52.23500 25.85100
C  35.05400 53.47100 25.21000
C  35.15100 53.21900 23.84100
C  35.70400 51.85100 23.72200
C  34.52100 54.67000 25.93800
C  34.86400 54.07000 22.64000
O  34.97600 53.60100 21.52000
C  34.36200 55.45500 22.69600
N  36.77400 48.94000 23.46500
C  36.45500 49.78900 22.44600
C  36.81000 49.08800 21.06100
C  37.54400 47.79700 21.43400
C  37.41700 47.81300 22.98700
C  35.65900 48.93100 20.15900
C  39.01200 47.81400 20.92800
C  40.16200 48.52600 21.78600
N  37.22300 47.51200 25.92200
C  37.71400 46.55600 25.09000
C  37.96600 45.42800 25.94800
C  37.79800 45.80800 27.29800
C  37.24400 47.01600 27.20800
C  38.53600 44.19200 25.40500
C  37.86900 45.44400 28.62900
O  38.20700 44.41700 29.22100
C  37.31600 46.62700 29.51500
C  36.15400 46.14000 30.35000
O  34.95900 46.23200 30.09000
O  36.70000 45.70700 31.59400
C  35.71300 45.30400 32.60500
H  34.73800 52.78200 27.94800
H  35.71600 51.46600 21.58400
H  38.23200 45.87300 23.15800
H  35.28600 48.80700 30.57500
H  35.59300 51.61500 30.03100
H  33.43700 51.72800 30.60700
H  33.40500 49.91900 30.41400
H  33.04700 51.12200 29.07400
H  37.32400 50.89700 31.03700
H  38.06400 49.36600 30.41400
H  37.77600 49.80200 32.98900
H  37.45400 48.27400 32.40000
H  35.02800 54.87900 26.88100
H  33.52800 54.33100 26.23200
H  34.30800 55.61000 25.42900
H  35.16400 56.00800 23.18400
H  33.43000 55.55200 23.25300
H  34.19400 55.85700 21.69600
H  37.62700 49.66800 20.63000
H  36.97500 46.97200 21.00500
H  35.93600 49.16000 19.13100
H  34.82500 49.55000 20.48900
H  35.23000 47.93000 20.21600
H  38.99400 48.15500 19.89300
H  39.45900 46.84700 20.70000
H  39.69800 48.93600 22.68300
H  40.65800 49.39300 21.34900
H  40.99100 47.89300 22.10200
H  39.51600 44.29700 24.94000
H  37.80200 43.91900 24.64700
H  38.51600 43.43200 26.18600
H  37.99700 46.96500 30.29600
H  35.55500 44.22800 32.67700
H  34.68400 45.65600 32.53200
H  36.08200 45.63100 33.57700

