158

Mg 40.32100 8.77600 29.39800
C  42.15600 9.80400 32.21400
C  38.36600 6.98400 31.45900
C  38.62400 8.01200 26.67400
C  42.91700 10.01100 27.37700
N  40.23300 8.55700 31.67200
C  41.04000 9.07600 32.61600
C  40.43300 8.69800 34.02600
C  39.55700 7.37700 33.75800
C  39.34500 7.63500 32.23000
C  40.24000 5.99200 34.16100
C  39.60600 9.86700 34.62200
C  39.92500 10.22900 36.12500
H  40.47400 11.54800 36.53400
N  38.69300 7.71100 29.08400
C  38.04300 6.96600 30.09400
C  37.00000 6.27200 29.38700
C  36.93100 6.63300 28.04900
C  38.07800 7.54300 27.90200
C  36.06900 5.29900 30.18900
C  35.91100 6.18200 26.96800
O  35.88900 6.51100 25.77800
C  34.77600 5.51200 27.36100
N  40.73900 9.01600 27.29900
C  39.80300 8.65200 26.38600
C  40.22600 9.11300 24.98300
C  41.70100 9.63600 25.20000
C  41.79600 9.50500 26.69800
C  40.25300 7.94100 23.97000
C  41.77800 11.13100 24.69600
C  43.29000 11.47300 24.32300
N  42.22100 9.65800 29.70300
C  43.13100 10.06500 28.79500
C  44.27900 10.74200 29.55500
C  43.87800 10.69500 30.89200
C  42.57500 10.02700 30.93900
C  45.36900 11.44700 28.93300
C  44.26700 11.13900 32.26200
O  45.19700 11.86700 32.66100
C  43.20800 10.45700 33.18700
C  44.05100 9.39800 33.82300
O  44.11100 8.21400 33.50100
O  44.74200 9.96200 34.87900
C  45.32900 9.05000 35.85800
H  37.79500 6.26300 32.04700
H  38.01800 7.76300 25.80000
H  43.68000 10.49200 26.76200
H  41.26700 8.58600 34.71900
H  38.53900 7.42000 34.14500
H  39.59400 5.55200 34.92000
H  41.15000 6.13500 34.74400
H  40.39100 5.30400 33.32800
H  38.54000 9.64700 34.58300
H  39.83800 10.79000 34.09000
H  40.56500 9.45200 36.54500
H  38.94800 10.13300 36.59900
H  36.43800 4.91200 31.13900
H  35.85200 4.41700 29.58600
H  35.10600 5.77500 30.37200
H  34.09100 5.47200 26.51400
H  34.19300 6.06200 28.09900
H  34.96600 4.47100 27.62300
H  39.58500 9.92200 24.63500
H  42.49000 8.98100 24.83000
H  40.81200 7.04200 24.22800
H  40.75100 8.32200 23.07900
H  39.33500 7.44000 23.66300
H  41.63600 11.81300 25.53400
H  41.07800 11.39900 23.90400
H  43.20100 11.97000 23.35700
H  44.02200 10.66500 24.32100
H  43.73800 12.19800 25.00300
H  44.93900 11.94000 28.06100
H  46.07900 10.71200 28.55200
H  45.88200 12.05700 29.67700
H  42.68100 11.11000 33.88200
H  45.77800 9.65000 36.64900
H  45.96100 8.24700 35.47900
H  44.51600 8.44600 36.25900
Mg -11.90300 38.99800 41.87400
C  -9.88000 36.14500 41.22400
C  -9.45100 41.03500 40.61700
C  -14.17100 41.51500 42.02800
C  -14.49400 36.68600 42.69400
N  -9.93600 38.62400 40.91100
C  -9.30700 37.39700 40.80200
C  -7.97000 37.61300 40.10300
C  -7.73000 39.13900 40.07100
C  -9.12500 39.69100 40.55100
C  -6.50900 39.77000 40.73600
C  -7.71600 36.74100 38.78400
C  -6.50700 35.72600 38.74500
H  -5.53500 35.99100 37.67100
N  -11.77000 41.06200 41.47700
C  -10.64100 41.72500 40.90700
C  -10.93300 43.12700 40.92900
C  -12.32900 43.28000 41.15700
C  -12.85400 41.94500 41.58900
C  -9.97600 44.17000 40.38500
C  -13.04200 44.61700 41.10500
O  -12.44900 45.65200 40.85800
C  -14.56400 44.72300 41.39000
N  -14.04600 39.05700 42.18600
C  -14.65400 40.20900 42.34200
C  -16.08900 40.03000 42.90900
C  -16.22000 38.52000 43.03800
C  -14.82300 38.05400 42.61100
C  -16.30700 40.95200 44.13400
C  -17.42500 37.96400 42.14100
C  -18.72200 37.43600 42.90300
N  -12.21900 36.86300 41.90500
C  -13.30900 36.10900 42.31400
C  -12.95300 34.75400 42.31600
C  -11.61500 34.70900 41.93000
C  -11.19600 36.00000 41.68600
C  -13.84200 33.66300 42.81500
C  -10.47800 33.87000 41.66600
O  -10.30500 32.64800 41.74100
C  -9.28400 34.83200 41.20200
C  -8.19300 34.65100 42.20800
O  -8.29000 34.80800 43.41800
O  -7.12200 34.05100 41.61000
C  -5.97300 33.99500 42.44900
H  -8.70500 41.65300 40.11400
H  -14.90600 42.31100 42.16400
H  -15.28400 36.06700 43.12600
H  -7.26600 37.17300 40.80900
H  -7.69500 39.32400 38.99700
H  -5.69900 39.09200 41.00300
H  -6.75700 40.24200 41.68600
H  -6.09300 40.61400 40.18500
H  -7.72700 37.36000 37.88600
H  -8.56200 36.06100 38.68400
H  -6.90300 34.72700 38.56200
H  -6.03000 35.76700 39.72400
H  -8.94500 43.84700 40.52900
H  -10.12900 45.15800 40.81800
H  -10.18800 44.22600 39.31700
H  -14.96000 43.87000 40.83800
H  -14.81000 45.66400 40.89900
H  -14.85500 44.82400 42.43600
H  -16.83200 40.31500 42.16400
H  -16.39700 38.37300 44.10300
H  -15.39700 41.43500 44.48800
H  -16.70400 40.33400 44.94000
H  -16.99300 41.79700 44.07600
H  -17.07500 37.10500 41.56900
H  -17.76100 38.60800 41.32800
H  -19.56500 37.94900 42.43800
H  -18.71600 37.65200 43.97100
H  -18.94800 36.38500 42.72600
H  -14.46300 33.97800 43.65400
H  -13.21700 32.78900 43.00200
H  -14.55000 33.45800 42.01300
H  -8.90200 34.46800 40.24800
H  -5.23000 34.63100 41.96700
H  -5.60000 32.97200 42.50600
H  -6.00200 34.24100 43.51000

