158

Mg 5.51200 52.91200 41.10100
C  4.87100 49.43700 40.80900
C  8.55300 52.35000 39.61700
C  5.69000 56.17700 40.63300
C  2.08800 53.31200 41.96900
N  6.57600 51.06400 40.33300
C  6.11000 49.77600 40.27100
C  7.17300 48.86100 39.56200
C  8.49000 49.77300 39.62900
C  7.82100 51.16700 39.94900
C  9.37900 49.36600 40.86400
C  6.82000 48.47000 38.12800
C  5.85200 49.40400 37.36900
H  6.57600 50.41200 36.39000
N  6.96100 54.07900 40.33600
C  8.08200 53.67600 39.63900
C  8.86500 54.82000 39.28400
C  8.10800 55.93100 39.67100
C  6.84200 55.39000 40.22800
C  10.21900 54.72200 38.76500
C  8.47600 57.40500 39.48500
O  9.52200 57.74800 38.97400
C  7.56900 58.53500 39.88200
N  4.02700 54.46900 41.19200
C  4.44300 55.79200 41.13200
C  3.23300 56.77500 41.27300
C  2.01300 55.86600 41.54700
C  2.72700 54.43200 41.57100
C  3.54700 57.64200 42.55200
C  0.97600 55.88200 40.37000
C  0.08700 57.14800 40.40100
N  3.88800 51.74300 41.51300
C  2.60600 52.00200 41.95600
C  1.95000 50.81000 42.38500
C  2.82100 49.74900 41.95400
C  3.95900 50.35600 41.34400
C  0.61300 50.75800 43.21900
C  2.93500 48.35000 41.81600
O  2.12500 47.57300 42.21400
C  4.28400 48.05100 41.12300
C  4.01400 47.15600 39.95100
O  3.35700 47.44000 38.93900
O  4.52400 45.88300 40.18500
C  3.79600 44.86500 39.42400
H  9.56000 52.16200 39.23600
H  5.68500 57.26200 40.51100
H  1.12000 53.51700 42.43000
H  7.34000 47.92000 40.08600
H  9.13400 49.74200 38.75000
H  9.07300 48.37400 41.19600
H  9.35300 50.12900 41.64100
H  10.41100 49.26500 40.52700
H  6.29400 47.51900 38.21700
H  7.68200 48.26200 37.49400
H  5.20400 50.04100 37.97200
H  5.16500 48.77700 36.80100
H  10.35500 54.42900 37.72400
H  10.71500 53.93100 39.32800
H  10.80600 55.62100 38.95300
H  8.18400 59.42500 39.74800
H  7.44900 58.49900 40.96500
H  6.71900 58.61900 39.20400
H  3.23200 57.32800 40.33400
H  1.54100 56.05300 42.51100
H  4.43400 57.26300 43.05900
H  2.72600 57.62500 43.26800
H  3.78700 58.68600 42.35000
H  0.38200 54.99000 40.57000
H  1.31500 55.85000 39.33500
H  0.03400 57.50400 39.37200
H  0.55900 57.83900 41.09800
H  -0.94500 56.88700 40.63700
H  -0.13400 50.07200 42.82000
H  0.15000 51.74500 43.21900
H  0.75500 50.51600 44.27200
H  4.89800 47.48800 41.82600
H  4.25500 44.74200 38.44300
H  2.76100 45.12100 39.19800
H  3.86900 43.90800 39.93900
Mg -0.08800 44.01200 26.01400
C  1.79900 43.30700 28.88100
C  -2.96500 43.77100 27.98400
C  -1.86200 43.96800 23.15400
C  2.84300 44.22100 24.28500
N  -0.53900 43.42400 28.12800
C  0.38700 43.25100 29.11800
C  -0.24200 43.21400 30.49100
C  -1.75200 43.09000 30.05800
C  -1.74500 43.51800 28.65200
C  -2.24500 41.65500 30.15800
C  0.03100 44.60900 31.25400
C  0.44900 44.63400 32.75100
H  -0.01200 43.56900 33.68000
N  -2.17200 43.84600 25.64100
C  -3.15300 43.80700 26.59000
C  -4.39000 43.78200 25.82700
C  -4.11100 43.71000 24.43400
C  -2.64800 43.86300 24.39300
C  -5.66500 43.90400 26.51200
C  -5.06400 43.64900 23.26600
O  -4.76000 43.60700 22.07500
C  -6.51900 43.43300 23.53800
N  0.47600 44.05400 24.05600
C  -0.43600 44.04400 23.03200
C  0.28000 44.05500 21.62200
C  1.69700 44.55600 22.05000
C  1.71800 44.27300 23.56300
C  0.33900 42.62100 20.95100
C  1.97900 46.06100 21.80200
C  0.81100 47.00900 22.00000
N  1.94700 43.87200 26.50700
C  3.01300 43.99800 25.64800
C  4.25200 44.05300 26.35900
C  3.84500 43.63200 27.66000
C  2.44100 43.58900 27.71400
C  5.66600 44.34500 25.79300
C  4.32500 43.39200 28.99400
O  5.46500 43.42400 29.53900
C  2.98000 43.28700 29.87300
C  3.08900 41.98100 30.73900
O  2.89500 40.79500 30.42000
O  3.47700 42.31800 32.03900
C  3.84300 41.33100 33.03800
H  -3.78000 43.49400 28.65500
H  -2.39800 43.93900 22.20300
H  3.82700 44.19100 23.81200
H  0.13500 42.35200 31.04100
H  -2.46700 43.70900 30.59900
H  -2.92000 41.61700 31.01400
H  -1.41300 40.96900 30.31700
H  -2.77200 41.16600 29.33900
H  -0.90600 45.16200 31.19000
H  0.69000 45.15000 30.57500
H  0.11100 45.57100 33.19400
H  1.53200 44.52300 32.80700
H  -6.00900 44.93700 26.46600
H  -5.56600 43.56500 27.54300
H  -6.43700 43.29700 26.03800
H  -6.63500 42.51700 24.11700
H  -7.03700 43.32200 22.58600
H  -6.94000 44.29800 24.05000
H  -0.19600 44.71800 20.89900
H  2.52200 44.09900 21.50400
H  0.73400 41.91300 21.67900
H  1.06700 42.65900 20.14100
H  -0.58900 42.13300 20.65300
H  2.20000 46.16600 20.73900
H  2.84600 46.26300 22.43100
H  0.26400 47.19900 21.07600
H  1.23300 47.89900 22.46700
H  0.17400 46.53800 22.74800
H  6.29700 44.51400 26.66600
H  5.62800 45.24900 25.18600
H  5.92100 43.42500 25.26700
H  2.95800 44.14400 30.54600
H  4.24300 40.41000 32.61400
H  2.98800 41.11100 33.67700
H  4.70200 41.59500 33.65500

