158

Mg 1.73300 7.52600 25.58900
C  2.21100 9.59800 28.33700
C  2.22300 4.84700 27.77200
C  1.16700 5.56900 23.00400
C  1.71400 10.43000 23.55300
N  2.07500 7.25600 27.82400
C  2.19900 8.26200 28.77300
C  2.22400 7.74600 30.19600
C  2.75500 6.22400 29.96000
C  2.47200 6.09000 28.42000
C  4.22700 5.86200 30.33500
C  0.85300 7.86800 30.98500
C  0.84300 7.70000 32.52700
H  2.08800 7.02200 33.15400
N  1.68300 5.48400 25.42900
C  1.76300 4.54700 26.45100
C  1.58600 3.18100 25.89500
C  1.21900 3.41400 24.49800
C  1.37800 4.88400 24.24500
C  1.59400 1.87100 26.78900
C  0.85300 2.35400 23.34900
O  0.59800 2.66300 22.16700
C  0.71800 0.96900 23.74600
N  1.78900 7.90600 23.46300
C  1.35500 6.92900 22.65000
C  0.92500 7.44400 21.26900
C  0.80200 8.98100 21.56500
C  1.46200 9.14200 22.95200
C  1.95800 7.06300 20.08200
C  -0.65600 9.59600 21.52400
C  -0.92300 10.41100 20.22500
N  1.99100 9.55600 25.82500
C  2.02500 10.56400 24.89900
C  2.31300 11.82400 25.58100
C  2.47800 11.51200 26.93100
C  2.19000 10.07600 27.03200
C  2.30300 13.20700 25.04000
C  2.60600 12.02700 28.28700
O  2.84300 13.15600 28.73700
C  2.41400 10.83800 29.21300
C  3.67800 10.74200 30.03800
O  4.72100 10.13700 29.74500
O  3.35000 11.20800 31.28900
C  4.53500 11.15800 32.17200
H  2.50200 3.99400 28.39400
H  0.93100 4.97100 22.12200
H  1.63500 11.36900 23.00100
H  2.99100 8.26500 30.77100
H  1.95300 5.64900 30.42500
H  4.79500 6.72100 30.69300
H  4.73600 5.47500 29.45200
H  4.32300 5.16400 31.16700
H  0.18600 7.23700 30.39800
H  0.54400 8.87800 30.71700
H  -0.05800 7.18600 32.86300
H  0.89900 8.70100 32.95500
H  0.65800 1.37100 26.53800
H  1.58200 1.92500 27.87700
H  2.40700 1.20500 26.50200
H  0.24700 0.39100 22.95000
H  -0.01600 1.04300 24.54800
H  1.64000 0.58500 24.18300
H  -0.07300 7.11000 20.98600
H  1.39700 9.49100 20.80700
H  2.46000 7.97300 19.75300
H  1.49000 6.49900 19.27500
H  2.73400 6.42100 20.49900
H  -0.75200 10.25700 22.38500
H  -1.37800 8.78700 21.63400
H  -1.91600 10.23700 19.81000
H  -0.30100 10.04000 19.41100
H  -0.74500 11.45800 20.47100
H  2.33700 13.22400 23.95000
H  3.21000 13.66800 25.43100
H  1.46100 13.76600 25.44800
H  1.44500 10.98600 29.69100
H  4.89500 10.13400 32.27500
H  4.29300 11.61300 33.13200
H  5.34400 11.76400 31.76500
Mg 41.32100 40.88500 26.89800
C  40.86400 43.42400 29.25900
C  42.21300 38.77700 29.53100
C  41.86200 38.39400 24.68500
C  41.20100 43.22100 24.34800
N  41.47200 41.08700 29.14600
C  41.12200 42.17200 29.88200
C  41.11700 41.91500 31.36600
C  41.61300 40.38600 31.39000
C  41.78400 40.03100 29.92900
C  42.84400 40.14000 32.29500
C  39.71800 42.12900 31.96000
C  39.50400 41.83400 33.50500
H  39.22700 42.98500 34.44000
N  41.89600 38.84900 27.06300
C  42.20900 38.21600 28.23800
C  42.48600 36.82300 27.90800
C  42.29800 36.66200 26.47400
C  41.97600 37.96700 25.99900
C  43.07900 35.86900 28.91800
C  42.65400 35.36800 25.62700
O  42.53900 35.37500 24.40900
C  42.98200 34.11600 26.23700
N  41.56300 40.87200 24.82800
C  41.75700 39.67500 24.14700
C  41.71200 39.92700 22.60700
C  41.34600 41.44000 22.55300
C  41.39500 41.85300 23.97800
C  43.06400 39.59700 21.83800
C  39.99800 41.66700 21.89800
C  38.79100 41.07300 22.61200
N  41.07600 42.90700 26.72200
C  41.09000 43.79100 25.60900
C  40.92300 45.18000 26.04300
C  40.75500 45.06900 27.43700
C  40.93400 43.68000 27.82100
C  40.68000 46.29100 25.10100
C  40.29200 45.73100 28.64300
O  39.91000 46.91300 28.78900
C  40.39600 44.69800 29.84100
C  41.38800 45.33100 30.84500
O  42.60600 45.49800 30.75300
O  40.62100 45.89000 31.91000
C  41.47000 46.48200 32.97900
H  42.47200 38.14500 30.38300
H  41.92800 37.67400 23.86700
H  41.07200 44.02200 23.61700
H  41.84800 42.48200 31.94200
H  40.96500 39.59800 31.77300
H  43.02700 41.10100 32.77400
H  43.70700 39.86800 31.68800
H  42.88000 39.34600 33.04000
H  39.17000 41.54100 31.22400
H  39.38400 43.16300 31.87400
H  40.48100 41.44900 33.79700
H  38.86100 40.96300 33.63200
H  42.99500 36.15600 29.96600
H  44.11200 35.60400 28.69400
H  42.50800 34.95200 28.76900
H  43.89700 34.26700 26.80900
H  43.27800 33.55500 25.35000
H  42.17600 33.75700 26.87800
H  40.93500 39.24000 22.27000
H  42.12800 42.02100 22.06300
H  42.92400 38.98800 20.94500
H  43.68600 38.94100 22.44700
H  43.60800 40.49300 21.54000
H  40.13300 41.17800 20.93300
H  39.78400 42.70600 21.64800
H  39.11700 40.43100 23.43100
H  38.27200 40.58300 21.78900
H  38.19900 41.93100 22.93200
H  41.06300 46.10400 24.09800
H  40.98100 47.25500 25.50900
H  39.59700 46.24800 24.98700
H  39.41000 44.58100 30.29100
H  41.71600 45.63800 33.62400
H  40.70100 47.05500 33.49700
H  42.23500 47.19100 32.66100

