158

Mg -1.13000 17.41800 26.16800
C  -1.78900 14.86600 28.61800
C  -2.03800 19.70300 28.60500
C  -1.32900 19.81600 23.69400
C  -1.41900 14.97400 23.64200
N  -1.84200 17.19700 28.32600
C  -1.80100 16.09700 29.20100
C  -1.70700 16.44500 30.62300
C  -2.03200 17.95700 30.56100
C  -1.95000 18.32900 29.06400
C  -3.39400 18.28700 31.24500
C  -0.49400 16.04400 31.44800
C  -0.00600 16.89200 32.61400
H  0.25200 16.22900 33.95300
N  -1.37500 19.42600 26.20200
C  -1.71100 20.18100 27.26400
C  -1.93600 21.56400 26.91700
C  -1.83200 21.63000 25.50900
C  -1.41000 20.25800 25.05900
C  -2.31800 22.74800 27.86100
C  -2.16500 22.72500 24.58400
O  -2.15300 22.58300 23.38100
C  -2.28400 24.14500 25.15700
N  -1.21200 17.40300 23.96400
C  -1.23000 18.49100 23.18800
C  -1.17200 18.09900 21.70200
C  -1.57700 16.67900 21.76100
C  -1.36600 16.27300 23.20800
C  -2.07600 18.94100 20.73800
C  -0.71600 15.91500 20.78600
C  -1.43900 15.12800 19.65200
N  -1.45600 15.36600 26.07400
C  -1.47100 14.53000 25.00500
C  -1.61900 13.13500 25.46600
C  -1.64800 13.22700 26.87800
C  -1.63800 14.63000 27.20200
C  -1.80600 11.99900 24.67100
C  -1.80300 12.42400 28.06400
O  -1.85200 11.24700 28.25900
C  -1.97300 13.42200 29.22500
C  -0.76000 13.16600 30.08300
O  0.32000 13.61500 29.87200
O  -0.98900 12.28000 31.11700
C  -0.07000 12.20300 32.24600
H  -2.13400 20.43800 29.40700
H  -1.20200 20.56800 22.91200
H  -1.48400 14.23200 22.84300
H  -2.54400 15.97700 31.14100
H  -1.25800 18.63800 30.91500
H  -3.99400 19.02400 30.70900
H  -3.34000 18.57400 32.29500
H  -4.14600 17.50000 31.29800
H  0.33100 15.94300 30.74300
H  -0.72900 15.04100 31.80500
H  -0.76200 17.66600 32.74700
H  0.95400 17.36500 32.40500
H  -1.54900 23.48400 28.09900
H  -2.61200 22.32700 28.82300
H  -3.19500 23.29600 27.51700
H  -3.23500 24.26000 25.67700
H  -2.24900 24.89800 24.36900
H  -1.46000 24.37700 25.83200
H  -0.10300 18.18500 21.50900
H  -2.60400 16.44800 21.47700
H  -2.74300 19.56700 21.33100
H  -2.61700 18.21900 20.12600
H  -1.44800 19.61400 20.15300
H  -0.21000 15.07600 21.26400
H  0.01800 16.58400 20.33600
H  -1.21300 14.06300 19.67900
H  -1.08700 15.52000 18.69800
H  -2.51400 15.31100 19.63700
H  -2.15000 11.29500 25.42900
H  -0.92100 11.45400 24.34000
H  -2.50400 12.24000 23.86900
H  -2.92400 13.31900 29.74900
H  0.08900 11.12700 32.31300
H  -0.68900 12.57700 33.06200
H  0.85200 12.76700 32.10400
Mg -5.11700 25.41500 26.02100
C  -3.73000 26.83900 28.79600
C  -6.57100 23.03300 28.00100
C  -6.47200 24.06500 23.32700
C  -3.26600 27.70300 24.08800
N  -5.16700 25.08300 28.18900
C  -4.65200 25.88900 29.15900
C  -5.06200 25.38300 30.55800
C  -5.70200 23.98800 30.21200
C  -5.83600 24.01000 28.68400
C  -4.99700 22.74800 30.84700
C  -6.02800 26.30000 31.23800
C  -6.53500 25.80300 32.64500
H  -5.64000 24.90300 33.49800
N  -6.44100 23.81400 25.69000
C  -6.88200 22.90000 26.66300
C  -7.84800 22.10100 26.07400
C  -7.77300 22.34700 24.69300
C  -6.80500 23.40000 24.49100
C  -8.79300 21.31200 26.90100
C  -8.65900 21.68700 23.68900
O  -8.70000 22.12500 22.53600
C  -9.53600 20.46900 23.95600
N  -4.76600 25.75400 24.04300
C  -5.52300 25.06200 23.09200
C  -5.43500 25.70500 21.72600
C  -4.49000 26.95000 22.02800
C  -4.03600 26.81800 23.43800
C  -5.09900 24.86200 20.50400
C  -5.16100 28.36300 21.65400
C  -4.37900 29.11700 20.57900
N  -3.64700 26.86000 26.34900
C  -3.02400 27.73400 25.48700
C  -2.17100 28.67500 26.16900
C  -2.35100 28.40200 27.52700
C  -3.32600 27.25600 27.57100
C  -1.46300 29.80900 25.56000
C  -2.02100 28.71900 28.88400
O  -1.15100 29.41200 29.30800
C  -2.93900 27.76500 29.78900
C  -2.18300 27.02800 30.79600
O  -1.50300 26.06500 30.61300
O  -2.36400 27.67700 32.01700
C  -1.68400 26.90800 33.07400
H  -7.07900 22.41300 28.74200
H  -7.01100 23.74800 22.43200
H  -2.77400 28.42000 23.42800
H  -4.14800 25.30700 31.14800
H  -6.78100 23.94400 30.36100
H  -5.66400 22.35600 31.61500
H  -4.11700 22.95300 31.45700
H  -4.74400 21.98300 30.11300
H  -6.88300 26.37900 30.56700
H  -5.38400 27.17800 31.30000
H  -7.43300 25.27600 32.32300
H  -6.76100 26.64900 33.29500
H  -9.04400 21.83600 27.82300
H  -8.40800 20.30700 27.07600
H  -9.74900 21.11400 26.41500
H  -9.00100 19.85200 24.67900
H  -9.67800 19.88700 23.04600
H  -10.56900 20.70000 24.21600
H  -6.45900 25.98900 21.48200
H  -3.57100 26.65300 21.52300
H  -4.75200 23.88200 20.83100
H  -4.32800 25.34800 19.90600
H  -5.96900 24.66600 19.87800
H  -5.18100 29.05800 22.49400
H  -6.19000 28.21400 21.32400
H  -5.05100 29.73700 19.98500
H  -3.69400 28.47200 20.02800
H  -3.72100 29.82500 21.08300
H  -2.04400 30.03800 24.66700
H  -0.41300 29.55100 25.42400
H  -1.56400 30.71600 26.15700
H  -3.63500 28.46300 30.25500
H  -1.69200 25.82100 33.00500
H  -2.18500 27.03600 34.03300
H  -0.64500 27.22000 33.17500

