158

Mg -1.95400 16.95400 27.33700
C  -2.76300 14.77500 30.01100
C  -2.00100 19.48600 29.65600
C  -1.38900 19.08000 24.76800
C  -2.32700 14.31200 25.10600
N  -2.26900 17.08700 29.59700
C  -2.50000 16.09900 30.51400
C  -2.35900 16.59400 31.96700
C  -2.21700 18.18000 31.76300
C  -2.20100 18.26700 30.23100
C  -3.40700 18.95600 32.39700
C  -1.10100 15.97200 32.66200
C  -0.61700 16.70800 33.96400
H  -0.38700 15.82400 35.25100
N  -1.77300 19.03000 27.28300
C  -1.83900 19.91600 28.36200
C  -1.74900 21.31900 27.84500
C  -1.61900 21.17000 26.41400
C  -1.54100 19.71500 26.07900
C  -1.70600 22.57900 28.72900
C  -1.62800 22.28000 25.38700
O  -1.62200 22.03100 24.18200
C  -1.70000 23.74900 25.79000
N  -1.84200 16.74600 25.29200
C  -1.56500 17.72100 24.43700
C  -1.58300 17.33800 22.97200
C  -1.60300 15.81400 23.08900
C  -1.96900 15.56600 24.56300
C  -2.78600 17.87200 22.15000
C  -0.40200 15.08800 22.43800
C  0.83700 15.03300 23.31000
N  -2.48600 14.99200 27.46100
C  -2.67100 14.02700 26.46200
C  -3.15000 12.79100 27.04100
C  -3.10200 12.99000 28.40600
C  -2.73400 14.34900 28.66100
C  -3.46700 11.55300 26.11200
C  -3.35800 12.38900 29.71000
O  -3.60700 11.26300 29.97000
C  -3.07000 13.46500 30.79300
C  -1.92100 13.06400 31.54200
O  -0.73100 13.14000 31.17900
O  -2.29500 12.58700 32.77800
C  -1.27900 12.10500 33.68500
H  -1.84200 20.29800 30.36700
H  -1.08800 19.80900 24.01300
H  -2.32900 13.46000 24.42300
H  -3.17900 16.37800 32.65100
H  -1.31300 18.57100 32.23000
H  -3.21800 19.50600 33.31900
H  -4.23700 18.28900 32.63100
H  -3.90600 19.56400 31.64300
H  -0.33100 16.00800 31.89100
H  -1.23700 14.96200 33.04800
H  -1.34100 17.49000 34.19300
H  0.33200 17.07100 33.57000
H  -1.73300 22.35500 29.79500
H  -2.64800 23.08800 28.52200
H  -0.82100 23.14400 28.44000
H  -2.73300 23.89200 26.10700
H  -1.30400 24.45600 25.06200
H  -1.00700 24.02100 26.58600
H  -0.59300 17.58400 22.58700
H  -2.49500 15.41300 22.60900
H  -3.52300 18.31000 22.82300
H  -3.35800 17.15400 21.56300
H  -2.43000 18.65600 21.48000
H  -0.23000 15.53500 21.45900
H  -0.81800 14.08600 22.32800
H  0.73400 15.73600 24.13700
H  1.70800 15.38800 22.75800
H  0.95500 13.97600 23.55000
H  -3.89700 11.92200 25.18000
H  -4.21100 10.91200 26.58500
H  -2.55200 10.97500 25.98400
H  -3.96700 13.57500 31.40200
H  -1.43100 11.03900 33.85700
H  -1.15700 12.58900 34.65400
H  -0.28800 12.11300 33.23000
Mg 7.74900 2.73400 27.44300
C  9.07600 0.90100 30.16400
C  5.86900 4.57700 29.47800
C  6.24100 3.96400 24.73700
C  9.11800 0.26800 25.31300
N  7.53600 2.75800 29.53300
C  8.28100 2.06500 30.48900
C  8.11100 2.73500 31.87700
C  6.94600 3.74400 31.66200
C  6.69100 3.67900 30.12700
C  5.81700 3.65700 32.62900
C  9.39500 3.40800 32.42400
C  9.18600 3.95100 33.82300
H  10.10600 3.51500 34.95700
N  6.21500 4.15400 27.10200
C  5.54500 4.81500 28.12900
C  4.67600 5.81900 27.56400
C  4.78400 5.67900 26.17700
C  5.80300 4.55600 25.95100
C  3.70200 6.62400 28.37600
C  4.00200 6.41500 25.07800
O  4.06200 6.11600 23.88800
C  2.96100 7.45400 25.45000
N  7.55100 2.01600 25.30400
C  6.92100 2.84800 24.44300
C  7.02200 2.29600 23.02500
C  8.01500 1.10100 23.22000
C  8.21700 1.07100 24.71900
C  5.69100 1.70800 22.47000
C  9.32200 1.37900 22.47100
C  9.98000 0.05400 22.13800
N  8.93500 1.07000 27.65600
C  9.41400 0.12300 26.68100
C  10.24800 -0.88600 27.30300
C  10.26600 -0.53200 28.66600
C  9.28100 0.54100 28.85000
C  11.00000 -1.99800 26.63200
C  10.80000 -0.85500 30.00200
O  11.59300 -1.68600 30.44000
C  10.03300 0.15200 31.03400
C  9.33200 -0.67400 32.08100
O  8.44600 -1.44500 31.86100
O  9.84400 -0.34400 33.28900
C  9.49900 -1.19500 34.50000
H  5.34800 5.28700 30.12400
H  5.91600 4.54000 23.86800
H  9.67700 -0.46900 24.73200
H  7.78400 2.01900 32.63100
H  7.41300 4.72100 31.77900
H  4.98200 3.15600 32.14100
H  5.46800 4.68100 32.76400
H  6.10300 3.12100 33.53300
H  9.73500 4.15600 31.70800
H  10.17500 2.64700 32.45600
H  8.15600 3.64000 33.99700
H  9.26100 5.03600 33.74700
H  3.90800 7.69400 28.34500
H  3.75600 6.41600 29.44500
H  2.64500 6.51100 28.13400
H  2.15300 6.93100 25.96200
H  2.58700 8.11600 24.66900
H  3.40000 8.16100 26.15300
H  7.38800 3.08600 22.37000
H  7.53200 0.20000 22.84000
H  4.93400 1.93700 23.22000
H  5.60800 0.64400 22.24900
H  5.39700 2.25800 21.57600
H  9.98000 1.95900 23.11800
H  9.13200 1.94400 21.55800
H  9.34000 -0.79500 22.37900
H  10.95200 0.03500 22.63100
H  10.03100 -0.04400 21.05400
H  11.44500 -1.75600 25.66700
H  10.54700 -2.97700 26.47400
H  11.84900 -2.06000 27.31300
H  10.75500 0.73400 31.60600
H  9.25500 -0.49800 35.30100
H  10.40200 -1.68800 34.85900
H  8.64800 -1.81700 34.22200

