158

Mg 30.51700 59.66400 40.47800
C  27.73500 57.89000 39.39600
C  32.44500 56.82500 39.72100
C  33.24500 61.49600 40.92000
C  28.44400 62.30600 41.10000
N  30.16500 57.69400 39.51400
C  28.92100 57.20100 39.14300
C  29.01000 55.81600 38.42400
C  30.46800 55.40300 38.91600
C  31.11600 56.72700 39.35100
C  30.48600 54.22100 39.97900
C  28.87900 55.96800 36.90000
C  27.89000 55.06100 36.19200
H  26.87600 55.72800 35.27600
N  32.62500 59.24600 40.19200
C  33.19000 57.98200 40.10700
C  34.57200 58.09200 40.27600
C  34.86800 59.46600 40.60000
C  33.54700 60.15000 40.62200
C  35.57800 56.96100 39.95200
C  36.30700 59.95600 40.75700
O  37.32700 59.21500 40.71900
C  36.60500 61.41900 40.91900
N  30.83600 61.62800 40.64500
C  32.07700 62.12700 40.93800
C  32.05400 63.58500 41.31400
C  30.49700 63.83100 41.43300
C  29.90400 62.47600 41.04100
C  32.99200 64.10800 42.44400
C  30.05500 65.05300 40.53200
C  29.14200 66.11100 41.11000
N  28.49900 60.03900 40.48200
C  27.78300 61.17200 40.74400
C  26.32100 60.92600 40.63800
C  26.27000 59.66700 40.01100
C  27.61800 59.16800 40.00900
C  25.21500 61.96700 40.87400
C  25.36200 58.63100 39.47200
O  24.14200 58.65900 39.40300
C  26.27100 57.46500 39.08000
C  25.77100 56.35900 39.94700
O  26.16000 56.16700 41.10300
O  24.77700 55.67100 39.28400
C  24.25700 54.51500 39.95600
H  32.99400 55.90100 39.52400
H  34.07200 62.03400 41.39000
H  27.82100 63.15700 41.38200
H  28.20600 55.18600 38.80500
H  31.03200 55.00400 38.07200
H  30.79900 53.26300 39.56500
H  29.47100 54.05100 40.33700
H  31.03400 54.59700 40.84300
H  29.84700 55.61300 36.54600
H  28.79200 57.01000 36.59300
H  27.35400 54.47000 36.93400
H  28.46400 54.35400 35.59300
H  36.08900 56.74800 40.89100
H  36.38200 57.18600 39.25100
H  35.00200 56.06000 39.73900
H  37.62100 61.66300 40.60900
H  36.26200 61.81600 41.87500
H  36.02900 61.94200 40.15600
H  32.42100 64.10500 40.42900
H  30.05000 64.01200 42.41100
H  32.27900 64.68400 43.03400
H  33.75900 64.81000 42.11800
H  33.40000 63.32200 43.07900
H  29.64600 64.71100 39.58100
H  30.98600 65.53800 40.23900
H  28.52700 66.54400 40.32200
H  29.70900 66.97200 41.46400
H  28.49600 65.72800 41.90000
H  24.84100 62.44700 39.96900
H  25.61300 62.78100 41.48100
H  24.35800 61.57000 41.41700
H  26.10500 57.34500 38.01000
H  24.99200 54.17800 40.68800
H  24.10700 53.70700 39.24000
H  23.35900 54.82700 40.48800
Mg 35.52800 49.58700 26.03400
C  35.39800 47.78300 29.08000
C  35.00500 52.50000 27.97200
C  35.65700 51.53300 23.25200
C  36.15700 46.82300 24.33700
N  35.11200 50.05800 28.28000
C  35.14400 49.10500 29.31800
C  35.11600 49.83200 30.67700
C  34.74600 51.32700 30.31200
C  35.00000 51.32200 28.78000
C  33.34100 51.79500 30.80900
C  36.50300 49.68700 31.45200
C  36.55500 49.09200 32.88400
H  35.35100 49.25800 33.83900
N  35.24500 51.76200 25.67800
C  35.13300 52.72400 26.56300
C  35.17600 53.93500 25.91400
C  35.25600 53.69800 24.53900
C  35.29800 52.27700 24.37400
C  35.19500 55.31000 26.61100
C  35.32700 54.82100 23.44100
O  35.60300 54.47900 22.28600
C  35.05200 56.34400 23.60200
N  35.79100 49.27800 24.10700
C  35.92200 50.15300 23.10000
C  36.24000 49.49700 21.79800
C  36.64300 48.06700 22.28500
C  36.17300 48.05900 23.69500
C  35.07900 49.49800 20.70800
C  38.17900 47.67400 22.09600
C  38.51500 46.22900 21.59900
N  35.53300 47.55600 26.44000
C  35.88500 46.54700 25.66600
C  35.92100 45.31200 26.41300
C  35.71100 45.72200 27.80000
C  35.49800 47.10500 27.75300
C  36.28900 43.95700 25.87400
C  35.68700 45.30600 29.18500
O  35.96700 44.21900 29.73800
C  35.45200 46.59900 30.05100
C  34.21300 46.35500 31.00600
O  33.06900 46.59000 30.68900
O  34.60700 45.75900 32.20400
C  33.65800 45.47900 33.37600
H  34.90400 53.36900 28.62600
H  35.75900 52.07800 22.31000
H  36.52800 45.94500 23.80500
H  34.33400 49.40300 31.30500
H  35.38400 52.02900 30.85000
H  32.80400 50.96600 31.27100
H  32.82500 52.00300 29.87100
H  33.42000 52.68000 31.43900
H  37.09100 50.60500 31.45300
H  37.17600 49.16400 30.77200
H  37.33200 49.57500 33.47700
H  36.74100 48.02400 32.77000
H  36.05700 55.90400 26.31000
H  35.33300 55.14500 27.68000
H  34.23900 55.83400 26.62500
H  34.54400 56.73700 22.72200
H  35.99300 56.81800 23.88300
H  34.29400 56.42700 24.38100
H  37.02000 50.16900 21.44100
H  35.97500 47.39400 21.74800
H  35.42000 49.82600 19.72600
H  34.19000 50.04900 21.01600
H  34.86400 48.43300 20.62100
H  38.76900 47.92400 22.97800
H  38.55200 48.33000 21.30900
H  37.64600 45.58300 21.72300
H  39.38300 45.76300 22.06500
H  38.81300 46.13000 20.55600
H  36.35700 43.96300 24.78600
H  35.43200 43.35100 26.16800
H  37.21400 43.57800 26.30900
H  36.32200 46.68400 30.70300
H  33.43800 44.41400 33.30800
H  32.74600 46.06600 33.48200
H  34.25400 45.68200 34.26700

