158

Mg 49.08700 35.60000 27.79300
C  47.14000 33.89600 30.20900
C  49.65100 38.17700 30.14600
C  50.88400 36.98600 25.46500
C  47.88800 33.15300 25.49300
N  48.51200 35.95100 29.87200
C  47.75000 35.09700 30.65800
C  47.92000 35.60400 32.11100
C  48.21500 37.16000 31.90200
C  48.95300 37.04200 30.57200
C  46.89900 37.95700 31.89000
C  49.04600 34.74100 32.79900
C  48.81500 34.35800 34.27500
H  47.97500 35.26900 35.12600
N  50.01100 37.39600 27.84800
C  50.25000 38.28000 28.85900
C  51.06700 39.39900 28.37700
C  51.44900 39.05000 27.04700
C  50.77200 37.74800 26.72000
C  51.37800 40.59400 29.25200
C  52.43000 39.74800 26.11600
O  52.77200 39.30100 25.05500
C  53.11600 41.01000 26.55500
N  49.24100 35.26000 25.82100
C  50.19200 35.88200 25.06300
C  50.37700 35.26300 23.70600
C  49.62700 33.91300 23.86900
C  48.87100 34.07800 25.15600
C  49.91600 36.15600 22.52300
C  50.35800 32.56900 23.89100
C  50.04400 31.59800 22.82400
N  47.93300 33.76300 27.81500
C  47.51100 32.95500 26.77900
C  46.70000 31.86500 27.36600
C  46.43300 32.22900 28.63100
C  47.18800 33.41000 28.86600
C  46.13300 30.62100 26.67100
C  45.64600 31.91000 29.80200
O  44.96000 30.91700 30.07800
C  46.01500 33.08500 30.83500
C  46.45500 32.45600 32.10800
O  47.46200 31.75600 32.29500
O  45.43300 32.61000 33.03800
C  45.69400 31.96500 34.33500
H  49.77100 39.01800 30.83200
H  51.57300 37.34500 24.69800
H  47.68200 32.41100 24.71800
H  46.94400 35.42800 32.56300
H  48.92200 37.57900 32.61900
H  46.88400 38.53000 32.81600
H  45.96000 37.40300 31.90600
H  46.88100 38.61500 31.02200
H  49.88300 35.42400 32.65800
H  49.23700 33.87300 32.16800
H  49.71900 34.37200 34.88500
H  48.33400 33.38000 34.24000
H  52.31800 40.42200 29.77500
H  50.65500 40.89600 30.01000
H  51.44300 41.48900 28.63200
H  53.49400 40.98200 27.57700
H  52.36400 41.79700 26.50100
H  54.00200 41.33800 26.01100
H  51.42000 34.94600 23.69300
H  48.84000 33.84300 23.11800
H  50.74300 36.27000 21.82300
H  49.56500 37.14700 22.81100
H  49.06500 35.73900 21.98300
H  50.28700 32.07400 24.86000
H  51.41400 32.81300 23.78100
H  51.01100 31.50100 22.33000
H  49.29800 31.97000 22.12100
H  49.67600 30.63200 23.16900
H  46.94200 30.18600 26.08300
H  45.54900 30.87300 25.78600
H  45.64600 29.84200 27.25800
H  45.11000 33.68500 30.92600
H  45.84400 30.90300 34.14100
H  44.90800 32.19000 35.05600
H  46.64000 32.38200 34.68100
Mg 42.46900 41.70100 27.17600
C  41.51900 44.18400 29.49000
C  43.56200 39.73800 29.66500
C  43.66500 39.60600 24.89000
C  41.91600 44.17400 24.63300
N  42.52400 41.93400 29.32000
C  42.00600 42.96500 30.04800
C  41.90800 42.55000 31.50700
C  42.95900 41.37400 31.54100
C  42.99600 40.93700 30.07300
C  44.33200 41.70100 32.07300
C  40.50900 42.10800 32.00200
C  40.00600 42.92200 33.22200
H  39.51900 42.09100 34.43900
N  43.22900 39.83200 27.27200
C  43.64200 39.13400 28.36900
C  43.97500 37.73600 28.05900
C  43.86500 37.72100 26.61300
C  43.59600 39.10200 26.15800
C  44.59200 36.74300 29.01000
C  44.13000 36.56700 25.63300
O  43.86300 36.68000 24.47200
C  44.67700 35.18600 26.08900
N  42.86700 41.90800 25.04100
C  43.30900 40.85700 24.35900
C  43.50200 41.30300 22.87200
C  42.79600 42.67600 22.80000
C  42.48200 42.92900 24.23800
C  45.00000 41.31900 22.33100
C  41.59200 42.79300 21.81300
C  40.30500 42.11200 22.18600
N  41.80100 43.75100 26.97500
C  41.60100 44.55600 25.92900
C  41.05700 45.86000 26.39400
C  40.99100 45.69200 27.81100
C  41.51200 44.49200 28.14100
C  40.60500 47.02400 25.53800
C  40.56300 46.31900 29.08100
O  40.03100 47.38700 29.33300
C  40.86200 45.29300 30.23600
C  41.93700 46.00900 31.13500
O  43.10100 46.28200 30.86500
O  41.36400 46.12100 32.35400
C  42.13500 46.45800 33.54200
H  43.89600 39.12500 30.50400
H  43.90500 38.95600 24.04600
H  41.68400 44.83600 23.79600
H  42.25200 43.31600 32.20300
H  42.61500 40.47600 32.05400
H  44.48300 42.77700 31.98400
H  45.08800 41.11500 31.55000
H  44.34800 41.35200 33.10500
H  40.46100 41.08800 32.38400
H  39.84100 42.21500 31.14700
H  39.12100 43.44400 32.85800
H  40.79600 43.50200 33.69800
H  44.55000 37.04000 30.05800
H  45.64700 36.52800 28.84000
H  44.21400 35.72600 28.90200
H  44.89200 34.62900 25.17700
H  43.75400 34.67300 26.35800
H  45.46700 35.22800 26.83900
H  42.95900 40.58000 22.26300
H  43.56100 43.36400 22.44000
H  45.47100 42.28700 22.50800
H  44.88200 40.99400 21.29800
H  45.35500 40.45600 22.89500
H  41.98400 42.39300 20.87800
H  41.37200 43.85600 21.71300
H  39.47000 42.80900 22.24600
H  40.37400 41.54400 23.11400
H  40.01500 41.43100 21.38600
H  40.69400 47.96500 26.08100
H  39.54800 46.95500 25.28200
H  41.14100 47.18000 24.60200
H  40.03000 44.97200 30.86200
H  41.61700 47.39700 33.73700
H  43.22300 46.41900 33.48000
H  41.83500 45.85600 34.40000

