158

Mg 34.98700 3.55800 30.42600
C  33.08900 4.56000 32.95300
C  37.81500 3.58900 32.42600
C  37.06200 2.91100 27.70400
C  32.30200 3.91100 28.17600
N  35.38300 3.90500 32.40600
C  34.41000 4.28400 33.31600
C  35.04000 4.44400 34.75000
C  36.53900 4.43100 34.42400
C  36.59900 4.04400 32.93400
C  37.31300 5.72000 34.78300
C  34.51800 3.33400 35.64100
C  33.98100 3.72600 37.05300
H  34.70100 4.95600 37.66900
N  37.08700 3.02100 30.23400
C  38.07400 3.02900 31.14500
C  39.36700 2.56800 30.62700
C  39.12400 2.39500 29.25600
C  37.67900 2.76700 29.01800
C  40.58600 2.32700 31.51000
C  40.14100 2.00300 28.20900
O  39.91100 2.02100 27.02000
C  41.52100 1.60500 28.52000
N  34.71100 3.42800 28.32000
C  35.72400 3.18700 27.40200
C  35.24000 3.24100 25.94700
C  33.68500 3.15700 26.17700
C  33.53600 3.50700 27.64700
C  35.62500 4.55900 25.14800
C  33.09300 1.79200 25.78800
C  31.57100 1.73700 25.43100
N  33.13200 4.18500 30.51200
C  32.13700 4.29800 29.52400
C  30.95800 4.72900 30.16600
C  31.29600 4.99300 31.52900
C  32.61400 4.55400 31.63900
C  29.66500 4.91400 29.46000
C  30.80200 5.36300 32.82900
O  29.73600 5.77000 33.24100
C  31.93900 5.12100 33.82400
C  32.23100 6.47900 34.42000
O  32.75500 7.49200 33.90200
O  31.75900 6.46300 35.67200
C  31.68900 7.78300 36.34300
H  38.64600 3.59800 33.13400
H  37.51700 2.57000 26.77200
H  31.43100 3.88000 27.51700
H  34.69100 5.41300 35.10800
H  37.04500 3.67200 35.02100
H  37.52200 6.41500 33.97000
H  38.24900 5.46900 35.28300
H  36.79000 6.21600 35.60000
H  35.25700 2.53600 35.72000
H  33.74600 2.80800 35.07900
H  34.01100 2.95400 37.82200
H  32.92700 3.93500 36.87100
H  40.49700 1.31000 31.89200
H  40.66500 3.07700 32.29600
H  41.48300 2.45600 30.90500
H  41.99000 2.55000 28.79500
H  42.02500 1.17100 27.65600
H  41.54800 0.89200 29.34500
H  35.76000 2.39900 25.49200
H  33.13400 3.88300 25.57900
H  34.81000 5.11800 24.68800
H  36.37800 4.26400 24.41800
H  36.13500 5.21300 25.85600
H  33.31100 1.11600 26.61500
H  33.60600 1.46500 24.88400
H  31.33600 2.79900 25.35900
H  31.07800 1.28500 26.29200
H  31.38000 1.14000 24.53900
H  29.24300 3.91400 29.35400
H  29.85100 5.45300 28.53100
H  28.99600 5.43900 30.14300
H  31.63100 4.41300 34.59300
H  32.09100 7.53500 37.32600
H  30.65800 8.11300 36.47400
H  32.23800 8.58500 35.85100
Mg 47.57800 25.56100 28.14300
C  48.80100 27.65000 30.68200
C  46.90000 23.21500 30.49300
C  47.06200 23.44600 25.68000
C  49.24400 27.65500 25.74700
N  47.98600 25.39600 30.31900
C  48.27900 26.43900 31.18000
C  47.98600 26.06600 32.68900
C  47.53900 24.53000 32.59800
C  47.45100 24.34600 31.03900
C  48.60200 23.64600 33.28300
C  47.11200 27.12700 33.43300
C  46.24600 26.65700 34.60000
H  46.16300 27.61300 35.71400
N  46.96200 23.57000 28.07300
C  46.69800 22.76200 29.14500
C  46.11600 21.50000 28.67000
C  46.14900 21.55800 27.28500
C  46.71700 22.90600 26.90200
C  45.63700 20.50400 29.60500
C  45.59100 20.54900 26.33200
O  45.62800 20.75900 25.13200
C  45.03100 19.19100 26.93100
N  48.30800 25.48000 25.99000
C  47.76400 24.51900 25.21300
C  48.05600 24.73500 23.69900
C  48.68400 26.20400 23.73900
C  48.73600 26.50700 25.21700
C  48.96800 23.66100 23.04300
C  47.99700 27.28500 22.88900
C  48.68500 27.82900 21.60600
N  48.68300 27.32700 28.14500
C  49.21500 28.09200 27.14200
C  49.74700 29.30300 27.75400
C  49.62500 29.14600 29.10800
C  48.98500 27.97100 29.33300
C  50.50300 30.46500 27.02200
C  49.85700 29.87000 30.40600
O  50.35000 30.96400 30.65800
C  49.29300 28.87200 31.44700
C  50.48500 28.51200 32.29200
O  51.27000 27.61100 32.06200
O  50.40700 29.22700 33.44500
C  51.30000 28.88200 34.55600
H  46.72600 22.55200 31.34300
H  46.77000 22.91500 24.77200
H  49.85700 28.27500 25.09000
H  48.93900 26.31000 33.15700
H  46.60900 24.41900 33.15500
H  49.29300 24.25100 33.87200
H  49.21400 23.09600 32.56800
H  48.16500 22.93000 33.97900
H  46.56200 27.65800 32.65600
H  47.78000 27.87900 33.85300
H  46.55900 25.69000 34.99200
H  45.25700 26.49600 34.17100
H  46.41500 19.74200 29.65600
H  44.61900 20.24700 29.31300
H  45.30700 20.89400 30.56800
H  45.78700 18.77300 27.59600
H  44.87200 18.53800 26.07300
H  44.09600 19.30400 27.48000
H  47.08600 24.67800 23.20500
H  49.74300 26.21400 23.48000
H  49.72500 24.19200 22.46500
H  48.34600 23.14600 22.31200
H  49.38600 23.01500 23.81600
H  47.86400 28.18500 23.48900
H  47.06200 26.87500 22.50700
H  48.96300 28.87700 21.70900
H  47.87400 27.83900 20.87700
H  49.53900 27.28300 21.20500
H  49.90500 30.98400 26.27200
H  51.45600 30.11800 26.62400
H  50.71100 31.17500 27.82300
H  48.44100 29.18300 32.05200
H  50.83300 28.03000 35.05200
H  51.36800 29.74000 35.22500
H  52.28900 28.64400 34.16600

