158

Mg -1.80000 17.40600 26.20800
C  -2.29900 15.16000 28.93600
C  -2.30800 19.99600 28.37800
C  -1.68500 19.49000 23.59400
C  -1.86200 14.51300 24.02900
N  -2.33100 17.54400 28.35000
C  -2.39200 16.54500 29.26000
C  -2.85300 17.03200 30.65300
C  -2.99800 18.56000 30.40100
C  -2.54100 18.75100 28.90800
C  -4.39500 19.07000 30.88600
C  -1.82700 16.79700 31.78900
C  -2.41200 16.30800 33.12600
H  -1.48200 15.72200 34.10800
N  -1.83400 19.53400 26.01300
C  -2.02600 20.36800 27.07700
C  -2.11300 21.72500 26.54800
C  -1.97100 21.65100 25.15500
C  -1.84700 20.20700 24.84800
C  -2.45100 22.95100 27.39100
C  -1.96300 22.84800 24.04200
O  -1.86200 22.62000 22.83300
C  -2.11100 24.25800 24.44700
N  -1.83900 16.99700 24.09900
C  -1.76300 18.06500 23.27400
C  -1.88100 17.64400 21.82300
C  -1.69200 16.07600 21.95500
C  -1.78600 15.81100 23.44700
C  -3.23700 18.11400 21.30700
C  -0.49200 15.56900 21.15100
C  0.78800 15.25000 21.95800
N  -2.06700 15.26700 26.37000
C  -1.98600 14.24300 25.42400
C  -2.07200 12.96800 26.08300
C  -2.07800 13.28800 27.47800
C  -2.08100 14.68400 27.57600
C  -2.02500 11.67300 25.40500
C  -2.18000 12.72400 28.78900
O  -2.16500 11.50600 29.10200
C  -2.43900 13.90700 29.75000
C  -1.62100 13.60600 30.88100
O  -0.40300 13.79100 30.95200
O  -2.39700 12.98800 31.84200
C  -1.55700 12.41500 32.90500
H  -2.51200 20.69100 29.19500
H  -1.62300 20.08400 22.67900
H  -1.84800 13.65700 23.35000
H  -3.76900 16.46300 30.80900
H  -2.26500 19.21800 30.86600
H  -4.26400 20.08400 31.26400
H  -4.67200 18.36200 31.66700
H  -5.00100 19.03400 29.98100
H  -1.32900 17.72000 32.08300
H  -0.99700 16.18300 31.43900
H  -3.18100 15.58100 32.86500
H  -2.93600 17.17800 33.52000
H  -1.67200 23.71300 27.44200
H  -2.84200 22.63400 28.35700
H  -3.35400 23.37100 26.94700
H  -2.12600 25.04400 23.69300
H  -1.26200 24.48100 25.09400
H  -2.97200 24.32700 25.11300
H  -1.09000 18.07600 21.21000
H  -2.55100 15.52400 21.57300
H  -3.04700 18.79500 20.47700
H  -3.84300 18.69700 22.00100
H  -3.79100 17.24700 20.94900
H  -0.21600 16.29900 20.39000
H  -0.63800 14.57000 20.74000
H  1.59500 15.75200 21.42600
H  0.99200 14.18200 22.02700
H  0.66200 15.56500 22.99400
H  -3.06800 11.38200 25.27700
H  -1.60100 10.91000 26.05700
H  -1.51800 11.71400 24.44100
H  -3.51500 13.91600 29.92100
H  -1.51300 13.08700 33.76200
H  -0.56600 12.16600 32.52400
H  -1.96000 11.46200 33.24600
Mg 40.63300 8.57100 29.47500
C  42.26100 10.37200 31.91500
C  38.52200 7.28800 31.85900
C  38.87000 7.31000 27.04800
C  43.00400 9.72200 27.15300
N  40.44900 8.90700 31.73400
C  41.13400 9.72100 32.50200
C  40.71400 9.63700 34.00300
C  39.44700 8.64100 33.84600
C  39.50200 8.23400 32.41100
C  39.37600 7.34900 34.74800
C  40.32200 11.01700 34.66800
C  39.38900 10.95600 35.78200
H  39.66900 11.77100 36.99800
N  38.95100 7.47600 29.40100
C  38.19200 6.97200 30.47100
C  37.16100 6.13900 30.06100
C  37.14400 6.21500 28.62200
C  38.35000 7.04900 28.28800
C  36.37900 5.25600 30.96500
C  36.09300 5.78100 27.53600
O  36.09400 6.05200 26.35200
C  34.84600 5.13600 28.12800
N  41.11400 8.31400 27.42000
C  40.06800 7.86900 26.63500
C  40.36500 8.14100 25.12000
C  41.85200 8.67200 25.17000
C  42.06600 8.92300 26.67400
C  40.11500 7.03500 24.03000
C  42.10900 9.81500 24.17200
C  41.47700 11.18400 24.46100
N  42.35100 9.61800 29.53600
C  43.17200 10.06700 28.51100
C  44.22700 10.86900 29.03100
C  43.88500 11.11400 30.33600
C  42.69500 10.36800 30.56200
C  45.33300 11.31700 28.22300
C  44.24400 11.75200 31.60800
O  45.22600 12.43200 31.83900
C  43.21600 11.35400 32.61800
C  43.95400 10.73000 33.79200
O  44.21200 9.54200 33.95800
O  43.94800 11.67400 34.79400
C  44.33100 11.18300 36.19500
H  37.81100 6.98200 32.62900
H  38.31400 7.04700 26.14600
H  43.58300 10.29500 26.42600
H  41.47800 9.02900 34.48600
H  38.47700 9.09000 34.06000
H  38.36500 7.21500 35.13400
H  40.09800 7.32900 35.56500
H  39.72200 6.47200 34.20200
H  39.98500 11.77200 33.95800
H  41.28300 11.37200 35.04000
H  39.34000 9.91300 36.09300
H  38.36400 11.08500 35.43300
H  36.63500 4.22900 30.70300
H  35.30300 5.28500 30.79900
H  36.48100 5.43200 32.03600
H  34.06800 4.92600 27.39400
H  34.44800 5.90400 28.79200
H  35.12400 4.20200 28.61500
H  39.68000 8.95700 24.89100
H  42.49500 7.82300 24.93400
H  39.97200 6.08000 24.53500
H  40.92100 7.06100 23.29500
H  39.21500 7.32700 23.48900
H  41.66900 9.52100 23.22000
H  43.18700 9.91300 24.03700
H  41.00000 11.39200 25.41900
H  40.74400 11.23500 23.65600
H  42.30000 11.85300 24.21100
H  45.78900 12.20900 28.65200
H  44.94700 11.56500 27.23400
H  46.08800 10.53300 28.16500
H  42.66200 12.21200 33.00000
H  43.64700 11.46200 36.99700
H  45.21200 11.77300 36.44600
H  44.58400 10.13100 36.32600

