158

Mg 24.39600 -4.72900 45.64800
C  26.50700 -2.32700 44.41300
C  22.05500 -3.84600 43.06100
C  22.71800 -7.47300 46.33000
C  27.08700 -5.91000 47.77200
N  24.27500 -3.21100 43.90300
C  25.25700 -2.38300 43.67700
C  24.86900 -1.58500 42.38200
C  23.33800 -1.83200 42.25100
C  23.18200 -3.04400 43.08900
C  22.38900 -0.72000 42.78500
C  25.60300 -2.16200 41.03800
C  26.54700 -1.18200 40.42900
H  26.32700 -1.06300 38.94600
N  22.57900 -5.47600 44.89800
C  21.82800 -4.98800 43.87400
C  20.64500 -5.84200 43.81400
C  20.80200 -6.89900 44.70300
C  22.07100 -6.62700 45.39000
C  19.41800 -5.45200 42.92400
C  19.73900 -8.02200 44.91100
O  18.74900 -8.17900 44.20500
C  19.77900 -8.90400 46.16600
N  24.92900 -6.53000 46.79000
C  23.94000 -7.37000 46.94500
C  24.42800 -8.55000 47.79000
C  25.63700 -7.97800 48.54000
C  25.96200 -6.73800 47.66000
C  23.39500 -9.18100 48.84900
C  26.79700 -9.06800 48.74000
C  27.37400 -9.39000 50.11300
N  26.39200 -4.13000 46.18100
C  27.37300 -4.71500 46.99900
C  28.62600 -3.95500 46.90300
C  28.33900 -3.00000 45.85200
C  26.93900 -3.19500 45.44800
C  29.98300 -4.30700 47.66900
C  28.85100 -1.96000 45.08100
O  29.96100 -1.51300 45.07800
C  27.71000 -1.50100 44.08300
C  27.51000 -0.05000 44.31300
O  27.57300 0.51300 45.38700
O  27.50700 0.71600 43.10100
C  27.73200 2.14000 43.30000
H  21.31700 -3.68400 42.27300
H  22.17100 -8.35900 46.65800
H  27.87700 -6.07100 48.50800
H  25.21200 -0.57400 42.60000
H  23.00800 -2.01400 41.22800
H  22.96000 0.02000 43.34500
H  21.63700 -1.05700 43.49900
H  21.92600 -0.14700 41.98200
H  24.87300 -2.43900 40.27700
H  26.12500 -3.08100 41.30300
H  27.58400 -1.48800 40.56500
H  26.50000 -0.15700 40.79900
H  19.09400 -6.31300 42.33900
H  19.54100 -4.67400 42.17100
H  18.55100 -5.19100 43.53100
H  20.33700 -9.83500 46.06800
H  18.78600 -9.33200 46.30800
H  19.95400 -8.24900 47.01900
H  24.77600 -9.34300 47.12800
H  25.31000 -7.62800 49.51900
H  23.81400 -9.65400 49.73700
H  22.81000 -9.94900 48.34400
H  22.76600 -8.36800 49.21200
H  27.64300 -8.55900 48.27800
H  26.63700 -10.02400 48.24200
H  26.83000 -8.81300 50.86100
H  28.41300 -9.07100 50.20200
H  27.19700 -10.42800 50.39400
H  30.59200 -5.08200 47.20400
H  29.82100 -4.64300 48.69300
H  30.53300 -3.37600 47.81000
H  28.10400 -1.76600 43.10200
H  28.56200 2.29400 43.99000
H  26.93800 2.71500 43.77500
H  27.94000 2.57400 42.32200
Mg 17.50000 51.88300 26.09800
C  19.34100 50.57400 28.77200
C  14.87200 52.54200 28.37100
C  15.68000 53.16400 23.57800
C  19.86800 50.80600 23.94000
N  17.20900 51.62600 28.30000
C  18.14700 51.21900 29.21300
C  17.64600 51.42000 30.65300
C  16.18100 51.79400 30.49100
C  16.09500 52.12000 28.97600
C  15.29100 50.56600 30.77300
C  18.48900 52.57500 31.35600
C  18.76800 52.44400 32.87500
H  17.76600 51.72300 33.74500
N  15.60500 52.88400 26.03100
C  14.66800 52.96100 27.01800
C  13.44700 53.52500 26.43300
C  13.75300 53.97100 25.15300
C  15.08500 53.34000 24.83200
C  12.25800 53.96600 27.40400
C  12.89500 54.83900 24.26600
O  13.32900 55.25400 23.20500
C  11.51700 55.32200 24.65200
N  17.76400 52.04100 24.00800
C  16.87300 52.62500 23.14300
C  17.40100 52.53100 21.69700
C  18.84100 51.97500 21.92400
C  18.80000 51.57400 23.38400
C  16.45900 51.66300 20.74100
C  19.96900 52.91100 21.63100
C  21.13100 52.29500 20.76600
N  19.21900 50.80000 26.22600
C  20.10900 50.40600 25.25400
C  21.18000 49.69800 25.87400
C  20.95100 49.71700 27.23900
C  19.74100 50.44200 27.45500
C  22.34800 49.00600 25.20800
C  21.52700 49.41800 28.57900
O  22.54600 48.75800 28.78100
C  20.47600 49.91900 29.63900
C  19.92200 48.77200 30.40600
O  19.25800 47.86100 29.93100
O  20.15300 48.98200 31.74500
C  19.62400 47.95300 32.63400
H  14.09700 52.80700 29.09300
H  14.94100 53.54900 22.87200
H  20.65500 50.45400 23.26900
H  17.72400 50.45500 31.15400
H  15.84000 52.68000 31.02800
H  15.88600 49.65500 30.83600
H  14.47100 50.48800 30.05900
H  14.85400 50.76300 31.75200
H  17.98200 53.53600 31.28100
H  19.45500 52.65600 30.85700
H  18.95700 53.44300 33.26700
H  19.70200 51.88300 32.88800
H  12.51700 54.98700 27.68400
H  12.25800 53.36500 28.31400
H  11.28000 53.87900 26.93200
H  11.38400 55.69500 25.66800
H  10.77100 54.57100 24.39200
H  11.34100 56.19300 24.02100
H  17.49600 53.51600 21.23900
H  18.86600 51.03200 21.37700
H  16.21800 52.33900 19.92100
H  15.59600 51.42300 21.36200
H  16.97700 50.75200 20.44000
H  20.42600 53.33700 22.52300
H  19.54300 53.78900 21.14600
H  21.16500 52.64900 19.73500
H  21.02600 51.21300 20.69000
H  22.05300 52.49700 21.31200
H  22.33200 47.94000 25.43200
H  23.18000 49.49400 25.71500
H  22.32500 49.15700 24.12800
H  20.88800 50.67800 30.30400
H  20.56000 47.39600 32.66900
H  18.83800 47.37400 32.14900
H  19.47300 48.31000 33.65300

