158

Mg 16.59700 -1.35400 27.70800
C  15.90400 0.58400 30.58800
C  19.08900 -2.95800 29.43900
C  17.70900 -2.79600 24.75200
C  14.65000 0.89300 25.82100
N  17.40700 -1.28700 29.91700
C  16.95200 -0.41400 30.89500
C  17.69100 -0.77600 32.21400
C  18.83000 -1.86400 31.72800
C  18.39000 -2.10300 30.30000
C  20.26300 -1.34100 31.93400
C  16.78000 -1.17100 33.49900
C  16.82000 -0.23700 34.69800
H  18.15900 -0.14300 35.37400
N  17.99700 -2.88200 27.24700
C  18.87000 -3.38300 28.12400
C  19.59800 -4.54600 27.47400
C  19.20200 -4.52100 26.08500
C  18.25800 -3.37200 25.97100
C  20.39400 -5.57400 28.15900
C  19.46800 -5.47700 24.93900
O  18.93600 -5.40600 23.84700
C  20.34400 -6.68500 25.18700
N  16.29700 -0.93300 25.63600
C  16.83000 -1.68900 24.65900
C  16.21300 -1.36300 23.32300
C  15.01600 -0.42600 23.72000
C  15.26600 -0.15400 25.19100
C  17.29600 -0.71900 22.36500
C  13.57100 -0.98600 23.42700
C  12.75600 -0.34500 22.30700
N  15.45800 0.38400 28.05500
C  14.66700 1.12700 27.15800
C  13.93000 2.07200 27.94900
C  14.32700 1.84100 29.24800
C  15.27400 0.85600 29.28400
C  12.82800 3.07900 27.52200
C  14.07500 2.29200 30.56700
O  13.26300 3.08300 30.98800
C  15.10300 1.55100 31.58300
C  15.99400 2.60600 32.19900
O  17.07300 2.95100 31.74000
O  15.39600 3.07300 33.32500
C  16.15400 4.01000 34.17800
H  19.93500 -3.45200 29.92100
H  17.95500 -3.33800 23.83600
H  13.98100 1.55600 25.26900
H  18.14500 0.16100 32.53800
H  18.79500 -2.82300 32.24500
H  20.21800 -0.41100 32.50000
H  20.55900 -1.09500 30.91400
H  20.96100 -2.10900 32.27000
H  17.09100 -2.18700 33.74200
H  15.72000 -1.06600 33.26400
H  15.98100 -0.50500 35.34200
H  16.63600 0.77700 34.34300
H  21.37800 -5.68800 27.70400
H  20.02500 -6.57200 27.92400
H  20.42200 -5.60100 29.24800
H  20.44600 -7.37500 24.34900
H  19.86200 -7.23800 25.99300
H  21.36700 -6.47600 25.49800
H  15.91600 -2.30300 22.85800
H  15.06300 0.46400 23.09200
H  18.27900 -0.94100 22.78100
H  17.17800 0.35800 22.47700
H  17.23200 -1.15600 21.36800
H  12.96000 -0.93500 24.32800
H  13.50900 -2.05900 23.24500
H  11.97500 -0.96600 21.86800
H  13.49300 -0.05600 21.55800
H  12.37600 0.61700 22.65100
H  13.03800 3.59900 26.58800
H  12.61200 3.76400 28.34200
H  11.89900 2.53400 27.35500
H  14.54000 1.05600 32.37400
H  15.70900 3.91700 35.16900
H  16.08600 5.03700 33.82100
H  17.21300 3.78000 34.29300
Mg 48.54400 35.20500 26.80000
C  46.44700 33.91100 29.27700
C  49.42800 37.90700 28.83600
C  50.12100 36.56600 24.10200
C  47.60400 32.56300 24.77300
N  48.01400 35.83200 28.74800
C  47.20200 35.07200 29.63400
C  47.46600 35.52300 31.06900
C  48.00600 37.03100 30.82700
C  48.55900 36.91400 29.38000
C  46.97000 38.11200 30.89200
C  48.65000 34.64800 31.80600
C  48.60600 34.44000 33.35200
H  47.73600 35.24500 34.34100
N  49.65700 36.99400 26.47900
C  49.98400 37.89200 27.46100
C  50.68400 38.97100 26.86900
C  50.80500 38.67800 25.51300
C  50.22300 37.29100 25.30400
C  51.16800 40.11600 27.76200
C  51.51900 39.54400 24.40900
O  51.56700 39.21200 23.21600
C  52.20800 40.84000 24.75600
N  48.70800 34.67500 24.69000
C  49.45700 35.32900 23.83000
C  49.55900 34.64900 22.41900
C  48.84500 33.25900 22.72000
C  48.37800 33.50500 24.14400
C  49.04500 35.45300 21.22800
C  49.71400 32.06500 22.46700
C  49.78300 31.56200 21.08500
N  47.38700 33.52400 26.95400
C  47.12300 32.51900 26.05400
C  46.20200 31.47500 26.63800
C  45.88600 32.05500 27.85100
C  46.62600 33.26100 28.01500
C  45.90600 30.09400 25.99700
C  45.10600 31.80200 29.02600
O  44.35800 30.89100 29.30100
C  45.40200 33.05600 29.96000
C  45.83800 32.58500 31.37200
O  46.72500 31.71700 31.56100
O  44.86100 33.04800 32.34300
C  44.96400 32.40300 33.67400
H  49.62700 38.70700 29.55200
H  50.71000 36.96300 23.27300
H  47.39400 31.70200 24.13500
H  46.59700 35.68300 31.70700
H  48.79000 37.40400 31.48500
H  45.98200 37.66900 30.77000
H  47.15200 38.77000 30.04100
H  46.92600 38.77500 31.75600
H  49.65400 34.98900 31.55700
H  48.63100 33.62900 31.42000
H  49.66600 34.57500 33.56700
H  48.60800 33.36800 33.55100
H  50.60300 41.00300 27.47500
H  52.22600 40.31800 27.59400
H  51.21500 39.97500 28.84200
H  52.67500 41.28700 23.87700
H  53.08500 40.48500 25.29800
H  51.63000 41.50900 25.39300
H  50.64500 34.65300 22.32900
H  47.91900 33.21100 22.14700
H  48.32900 36.17800 21.61500
H  48.43400 34.80300 20.60200
H  49.76900 36.05200 20.67400
H  49.36100 31.38900 23.24600
H  50.75700 32.27000 22.70700
H  50.76600 31.13900 20.87900
H  49.49700 32.32400 20.36000
H  49.10800 30.71000 21.00400
H  46.62400 29.88100 25.20600
H  44.91200 30.18600 25.55800
H  45.98000 29.27200 26.70900
H  44.59800 33.76500 30.16000
H  44.80300 31.32800 33.59100
H  44.25200 32.92100 34.31700
H  45.97300 32.53000 34.06400

