158

Mg 1.16600 8.47700 26.78500
C  1.17700 10.40900 29.66000
C  1.63200 5.73000 28.73000
C  1.11900 6.61900 23.89400
C  1.17900 11.37500 24.91400
N  1.35400 8.16800 28.97100
C  1.13400 9.03900 29.93500
C  0.95800 8.39500 31.25600
C  1.42100 6.93400 31.00100
C  1.47400 6.91300 29.41700
C  2.77900 6.59800 31.56900
C  -0.47800 8.63700 31.81200
C  -0.53600 8.92000 33.33000
H  0.54200 8.26100 34.20600
N  1.31000 6.42400 26.37600
C  1.48100 5.49200 27.31100
C  1.49000 4.16900 26.65000
C  1.33100 4.41900 25.24800
C  1.20800 5.86100 25.10800
C  1.60300 2.90600 27.37600
C  1.36100 3.42400 24.10800
O  1.43200 3.79700 22.97200
C  1.49600 1.93000 24.37700
N  0.91700 8.92200 24.75200
C  0.95700 8.00200 23.74700
C  1.01900 8.64300 22.35100
C  0.74500 10.22800 22.70300
C  1.04300 10.16800 24.20400
C  2.31600 8.41900 21.58300
C  -0.73300 10.73900 22.44200
C  -0.96200 11.89800 21.29300
N  1.24500 10.49300 27.15100
C  1.33400 11.56400 26.29500
C  1.55800 12.83000 26.98800
C  1.54100 12.35200 28.30900
C  1.22500 11.00100 28.35500
C  1.92400 14.22000 26.52300
C  1.79700 12.76300 29.66700
O  2.18500 13.85600 30.06800
C  1.33900 11.59200 30.55600
C  2.28600 11.42500 31.67800
O  3.49600 11.31100 31.55500
O  1.63600 11.59000 32.91100
C  2.52700 11.69800 34.13100
H  1.61100 4.89300 29.43000
H  1.54100 6.10300 23.02800
H  1.05700 12.29800 24.34300
H  1.70500 8.91200 31.85800
H  0.64800 6.23900 31.32700
H  3.52700 6.19500 30.88700
H  2.51200 5.86300 32.32800
H  3.26900 7.40200 32.11800
H  -1.17100 7.83300 31.56500
H  -0.85700 9.58600 31.43200
H  -1.48300 8.60400 33.76800
H  -0.60500 9.98900 33.53400
H  2.66500 2.69500 27.25100
H  1.02600 2.04700 27.03400
H  1.19800 3.00900 28.38300
H  0.61700 1.49000 24.84900
H  2.42600 1.75800 24.91800
H  1.66600 1.46000 23.40900
H  0.17700 8.33500 21.73200
H  1.47200 10.85600 22.18800
H  1.99500 8.07800 20.59900
H  2.90800 7.70700 22.15800
H  2.78300 9.40000 21.49700
H  -1.14900 11.04300 23.40200
H  -1.34400 9.89100 22.13400
H  -1.36700 12.81600 21.72000
H  -1.68900 11.42000 20.63700
H  -0.11500 12.28900 20.72900
H  2.12900 14.13200 25.45600
H  2.77500 14.68800 27.01900
H  1.05800 14.84700 26.73300
H  0.46000 11.78400 31.17200
H  3.28500 10.92000 34.22300
H  1.92400 11.52100 35.02100
H  2.90300 12.72100 34.16000
Mg -5.68600 25.17000 26.04700
C  -4.23400 26.65200 28.84800
C  -7.35600 23.07200 28.08300
C  -6.67600 23.44000 23.27900
C  -3.40300 26.99500 24.03700
N  -5.55400 24.74300 28.21000
C  -5.09800 25.57200 29.20400
C  -5.66300 25.22600 30.62100
C  -6.18200 23.78600 30.26900
C  -6.37000 23.80000 28.74400
C  -5.22700 22.58700 30.68200
C  -6.71800 26.25200 31.26700
C  -6.88400 26.16600 32.80800
H  -6.11200 25.08500 33.56500
N  -7.00600 23.58700 25.71800
C  -7.65600 22.90200 26.69200
C  -8.63400 21.97700 26.12100
C  -8.47400 22.11900 24.67200
C  -7.37600 23.16200 24.47600
C  -9.53300 21.12800 26.99300
C  -9.26200 21.43900 23.52900
O  -8.95700 21.63100 22.31000
C  -10.45800 20.62200 23.76400
N  -5.28100 25.44900 23.84500
C  -5.71100 24.51400 22.98200
C  -4.90900 24.54400 21.58000
C  -3.95200 25.79900 21.84000
C  -4.28500 26.16400 23.28300
C  -4.19600 23.09900 21.28700
C  -4.19900 26.99500 20.85000
C  -5.17800 28.07200 21.28500
N  -4.30300 26.67800 26.31300
C  -3.42400 27.33200 25.43800
C  -2.56400 28.24800 26.20700
C  -2.92900 28.10900 27.52000
C  -3.82100 27.00500 27.57700
C  -1.63800 29.22500 25.68100
C  -2.62100 28.53000 28.82200
O  -1.90200 29.37400 29.25100
C  -3.48700 27.57400 29.75000
C  -2.67800 26.88700 30.73100
O  -2.13100 25.82700 30.45100
O  -2.64600 27.51500 31.93400
C  -2.14300 26.71800 33.10200
H  -7.92300 22.34600 28.66900
H  -6.84000 22.80000 22.41000
H  -2.61600 27.38100 23.38500
H  -4.86300 25.18300 31.36000
H  -7.12300 23.48300 30.72800
H  -5.83100 21.84500 31.20500
H  -4.38300 22.96200 31.26100
H  -4.69600 22.19000 29.81700
H  -7.61000 26.09400 30.66000
H  -6.51200 27.27800 30.96100
H  -7.93900 26.07800 33.06900
H  -6.58000 27.12900 33.21800
H  -10.39600 21.62100 27.43900
H  -8.91400 20.61900 27.73300
H  -9.83300 20.25900 26.40700
H  -10.13300 19.59500 23.92900
H  -10.93400 20.62400 22.78300
H  -11.10200 21.06400 24.52400
H  -5.61300 24.77000 20.77900
H  -2.93900 25.41200 21.95800
H  -3.17900 23.22600 20.91700
H  -4.77000 22.64800 20.47700
H  -4.23900 22.34800 22.07500
H  -4.45200 26.58900 19.87100
H  -3.19500 27.39400 20.70400
H  -5.66000 28.29600 20.33400
H  -4.65800 28.89900 21.76900
H  -6.02100 27.68500 21.85800
H  -1.21500 28.82800 24.75800
H  -0.74100 29.30400 26.29500
H  -2.03300 30.22600 25.50900
H  -4.21700 28.23000 30.22300
H  -1.28700 26.10000 32.83100
H  -2.91500 26.03500 33.45800
H  -1.85400 27.34100 33.94800

