158

Mg -2.11600 17.36400 25.73300
C  -2.48900 14.90000 28.35400
C  -2.98000 19.73500 27.90000
C  -2.10900 19.35700 23.14400
C  -2.54900 14.57700 23.50700
N  -2.32500 17.35400 27.96100
C  -2.41100 16.24100 28.79600
C  -2.44900 16.73400 30.29300
C  -2.86400 18.28100 30.12600
C  -2.74800 18.49800 28.57800
C  -4.06700 18.81100 30.83200
C  -1.14300 16.43500 31.13200
C  -0.72000 17.29100 32.31100
H  -0.35800 16.68000 33.66900
N  -2.24500 19.30100 25.57700
C  -2.60500 20.14100 26.63800
C  -2.68000 21.47800 26.14600
C  -2.50600 21.46300 24.73100
C  -2.25800 19.96500 24.39300
C  -2.91400 22.65200 27.13200
C  -2.68700 22.59300 23.73500
O  -2.61100 22.39900 22.50400
C  -3.03600 23.95500 24.28100
N  -2.10300 16.95100 23.60300
C  -2.14300 18.02600 22.76300
C  -2.07600 17.59200 21.29300
C  -2.43000 16.10700 21.41200
C  -2.26300 15.83700 22.96800
C  -2.81400 18.50100 20.30100
C  -1.58100 15.15300 20.47900
C  -2.48900 14.12000 19.73600
N  -2.36200 15.16500 25.79100
C  -2.51500 14.16600 24.83100
C  -2.69700 12.86600 25.43600
C  -2.65100 13.12100 26.80900
C  -2.42400 14.51900 26.98300
C  -2.83200 11.59900 24.73000
C  -2.78200 12.57400 28.10400
O  -3.05700 11.42100 28.45100
C  -2.63600 13.68600 29.16000
C  -1.41600 13.33900 30.05400
O  -0.28400 13.75600 29.91900
O  -1.68000 12.49500 31.11900
C  -0.56700 12.11000 32.00200
H  -3.20900 20.45700 28.68700
H  -1.91800 20.11500 22.38200
H  -2.75800 13.81300 22.75500
H  -3.23900 16.09400 30.68600
H  -2.08300 18.87400 30.60300
H  -4.74700 19.12600 30.04100
H  -3.67600 19.57200 31.50700
H  -4.38200 17.97100 31.45100
H  -0.31800 16.59100 30.43700
H  -1.26200 15.41700 31.50400
H  -1.63000 17.85200 32.52600
H  0.11700 17.90500 31.97900
H  -2.97900 22.50300 28.21000
H  -3.70200 23.34600 26.83900
H  -2.03900 23.29900 27.06600
H  -4.06900 23.99300 24.62600
H  -2.83200 24.66200 23.47700
H  -2.38400 24.21600 25.11500
H  -1.01800 17.51500 21.04300
H  -3.49800 15.91300 21.30800
H  -3.36400 19.28200 20.82500
H  -3.49700 17.82200 19.79100
H  -2.01100 18.84500 19.64800
H  -0.74800 14.74400 21.05200
H  -1.13300 15.75700 19.69100
H  -2.19500 13.92100 18.70600
H  -3.55200 14.32800 19.62000
H  -2.49200 13.13100 20.19500
H  -2.93900 10.82500 25.49000
H  -1.96200 11.34600 24.12300
H  -3.80900 11.59400 24.24600
H  -3.54000 13.63300 29.76600
H  -0.33000 13.01300 32.56300
H  0.32400 11.84400 31.43300
H  -0.91800 11.45000 32.79600
Mg 17.78000 -0.85100 27.93700
C  16.22400 1.01200 30.52500
C  19.74900 -2.29100 30.36700
C  19.38600 -2.51200 25.50400
C  15.86000 0.76500 25.72600
N  17.72800 -0.79600 30.34200
C  17.15100 0.06200 31.11400
C  17.67700 -0.15200 32.56800
C  18.84700 -1.19200 32.48400
C  18.77200 -1.46700 30.94900
C  20.17200 -0.62600 32.95300
C  16.43900 -0.57900 33.53100
C  16.41400 0.24400 34.81400
H  17.71800 0.81500 35.36000
N  19.28600 -2.31600 27.95700
C  19.90700 -2.86400 29.07600
C  20.85000 -3.80200 28.68100
C  20.77500 -3.87600 27.24600
C  19.79300 -2.90100 26.82500
C  21.74800 -4.66700 29.61700
C  21.44100 -4.79300 26.26900
O  21.20900 -4.67200 25.04400
C  22.49300 -5.81800 26.75600
N  17.57800 -0.94900 25.87900
C  18.45500 -1.61200 25.06400
C  18.22800 -1.23700 23.59500
C  17.03500 -0.20400 23.64100
C  16.78400 -0.09200 25.14600
C  19.48200 -0.67200 22.89100
C  15.76300 -0.66700 22.89900
C  15.11600 0.35500 21.99300
N  16.36100 0.57400 28.02800
C  15.65800 1.08500 27.06400
C  14.68200 2.04300 27.57000
C  14.96700 2.08100 28.88000
C  15.94600 1.12600 29.12900
C  13.59700 2.86900 26.88300
C  14.68000 2.70200 30.18800
O  13.97800 3.63600 30.49500
C  15.48800 2.02400 31.27400
C  16.27500 3.00300 32.06900
O  17.46400 3.18000 31.84500
O  15.51400 3.68800 32.99400
C  16.26900 4.63100 33.83200
H  20.35500 -2.76900 31.13900
H  19.84000 -3.06200 24.67700
H  15.29400 1.39100 25.03300
H  18.16900 0.76400 32.89400
H  18.57700 -2.13100 32.96800
H  20.75300 -1.45700 33.35300
H  20.08200 0.21700 33.63900
H  20.68800 -0.19500 32.09500
H  16.43300 -1.63300 33.80900
H  15.51800 -0.53100 32.95000
H  16.00200 -0.42000 35.57300
H  15.67800 1.04600 34.75500
H  21.44300 -5.71400 29.61500
H  21.59500 -4.29600 30.63000
H  22.80400 -4.64400 29.34600
H  22.15100 -6.50000 27.53400
H  23.39300 -5.35400 27.16000
H  22.79100 -6.44500 25.91700
H  17.96400 -2.17700 23.11000
H  17.28500 0.79600 23.28600
H  20.30400 -0.62800 23.60600
H  19.41100 0.33000 22.46800
H  19.65400 -1.33700 22.04500
H  15.00600 -0.95000 23.63000
H  16.05000 -1.45500 22.20200
H  14.47500 -0.01900 21.19400
H  15.94400 0.93300 21.58100
H  14.38900 0.93300 22.56300
H  13.44800 2.43400 25.89400
H  13.76900 3.94500 26.87000
H  12.66400 2.65300 27.40400
H  14.62700 1.54500 31.74100
H  16.76200 5.35800 33.18600
H  16.86000 4.17400 34.62600
H  15.62600 5.35400 34.33400

