158

Mg 47.00800 16.82600 28.16900
C  45.24100 16.05200 31.03500
C  49.37000 18.54100 30.28700
C  48.64800 17.88400 25.45800
C  44.35800 15.67000 26.21500
N  47.20000 17.35400 30.44400
C  46.38300 16.80200 31.40000
C  46.85600 17.14300 32.79200
C  48.05800 18.16600 32.44000
C  48.30900 17.94400 30.98900
C  47.77700 19.61000 32.82000
C  47.29400 15.95000 33.65900
C  47.97400 16.29100 35.06800
H  48.01600 17.77500 35.61400
N  48.77900 18.00100 27.85600
C  49.59500 18.49500 28.87800
C  50.78300 19.16900 28.21200
C  50.62300 18.92800 26.78400
C  49.31300 18.23900 26.65900
C  51.92100 19.86400 28.89500
C  51.48200 19.44700 25.59900
O  51.15500 19.31700 24.43000
C  52.87500 20.04900 25.84900
N  46.49400 17.02500 26.15200
C  47.38700 17.37200 25.20600
C  46.81700 17.14200 23.79100
C  45.63000 16.23400 24.08000
C  45.43800 16.31200 25.54600
C  46.71200 18.39300 22.89700
C  45.66800 14.69900 23.64800
C  46.31100 13.69200 24.59400
N  45.23500 16.04300 28.50700
C  44.21500 15.49500 27.63700
C  43.18500 14.91400 28.38200
C  43.58500 15.09200 29.68200
C  44.80300 15.83700 29.74300
C  41.82300 14.32500 27.93900
C  43.12700 14.89700 31.01100
O  42.16000 14.34700 31.46200
C  44.06800 15.62000 31.93400
C  43.29400 16.72300 32.55300
O  42.73200 17.56900 31.89300
O  43.27700 16.72100 33.98300
C  42.47600 17.78200 34.52900
H  50.11500 18.88400 31.00800
H  49.22600 18.08900 24.55400
H  43.61300 15.10600 25.65000
H  46.12300 17.64800 33.42200
H  48.97300 17.81000 32.91300
H  47.90200 20.29000 31.97700
H  48.60100 19.72700 33.52400
H  46.84700 19.73100 33.37500
H  48.02900 15.40000 33.07000
H  46.33500 15.43200 33.69100
H  48.97500 15.87200 34.96300
H  47.47500 15.66600 35.80800
H  52.79600 19.21300 28.91400
H  51.64500 20.14300 29.91200
H  52.16700 20.75300 28.31400
H  52.82000 21.04000 26.29900
H  53.41800 20.28800 24.93400
H  53.48600 19.37200 26.44700
H  47.54900 16.48100 23.32600
H  44.80700 16.61300 23.47400
H  47.36400 18.25800 22.03500
H  47.12700 19.15900 23.55300
H  45.69800 18.65800 22.59500
H  46.14600 14.62700 22.67100
H  44.64700 14.34000 23.52700
H  45.44000 13.22100 25.05100
H  46.92900 14.23800 25.30700
H  46.90300 12.86900 24.19200
H  41.32200 14.64300 27.02500
H  41.07000 14.50800 28.70500
H  41.85900 13.24200 27.81900
H  44.31900 14.91100 32.72300
H  43.10200 18.63400 34.79300
H  42.11600 17.32800 35.45200
H  41.55300 18.11500 34.05400
Mg 42.64800 41.23400 27.87200
C  41.50700 43.63400 30.30200
C  43.37900 39.11200 30.40400
C  43.96600 39.24000 25.59300
C  42.65900 44.00900 25.50800
N  42.53700 41.48600 30.02800
C  41.94700 42.40800 30.79900
C  41.91700 42.00900 32.23200
C  42.71200 40.68200 32.26400
C  42.90700 40.37700 30.76400
C  44.05500 40.78900 33.02000
C  40.49600 42.02500 32.90500
C  40.30900 43.07000 34.04000
H  39.49900 42.51600 35.31900
N  43.45100 39.35700 27.95100
C  43.54300 38.55600 29.06300
C  43.94200 37.15900 28.71700
C  44.08800 37.21800 27.33200
C  43.92100 38.66700 26.88600
C  43.97400 36.04200 29.69800
C  44.30200 36.04200 26.41200
O  44.64300 36.14900 25.23900
C  44.13400 34.65600 27.03500
N  43.15000 41.59200 25.85600
C  43.70500 40.53900 25.11400
C  43.84500 40.93000 23.64200
C  43.30900 42.42600 23.58000
C  43.06800 42.75000 25.08200
C  45.25100 40.77900 23.04200
C  42.04400 42.57400 22.70800
C  40.67700 42.31400 23.43800
N  42.14700 43.35500 27.90500
C  42.20300 44.29100 26.78500
C  41.67900 45.53400 27.26000
C  41.32200 45.29400 28.66900
C  41.68200 43.97200 28.97700
C  41.37000 46.74900 26.42600
C  40.68400 45.88800 29.91900
O  40.18300 46.96000 30.13100
C  40.91900 44.87000 31.02100
C  41.93100 45.48200 31.94000
O  43.12800 45.27900 31.80200
O  41.27000 46.20300 32.92400
C  41.94900 46.74200 34.16000
H  43.54400 38.36600 31.18500
H  44.30000 38.53300 24.83200
H  42.56400 44.80400 24.76700
H  42.41900 42.80900 32.77700
H  42.07700 39.91500 32.70600
H  44.26400 40.00900 33.75200
H  44.06500 41.75100 33.53200
H  44.92600 40.96000 32.38700
H  40.25500 41.08500 33.40200
H  39.65400 42.11700 32.21800
H  39.75600 43.89000 33.58100
H  41.26000 43.41100 34.44900
H  43.15500 35.35500 29.48200
H  43.79000 36.29200 30.74300
H  44.84600 35.40100 29.57100
H  43.20900 34.48500 27.58500
H  44.96800 34.16200 27.53300
H  44.07700 33.96300 26.19500
H  43.11200 40.29600 23.14400
H  44.09400 43.11700 23.27500
H  45.22400 39.86000 22.45700
H  45.99200 40.53400 23.80200
H  45.53300 41.50100 22.27600
H  41.99200 41.86900 21.87900
H  41.98400 43.49900 22.13400
H  40.76000 42.01800 24.48300
H  39.93600 41.71200 22.91200
H  40.17200 43.28000 23.45100
H  40.52600 46.59600 25.75400
H  42.23100 47.08500 25.84700
H  41.07700 47.53400 27.12300
H  39.95300 44.60900 31.45400
H  42.89000 47.23500 33.91600
H  42.12900 45.96800 34.90600
H  41.25000 47.44800 34.60900

