158

Mg 35.96200 48.63400 24.62500
C  36.41500 46.83700 27.58500
C  34.77600 51.32600 26.44100
C  35.65200 50.32200 21.81500
C  37.31200 45.94500 22.92100
N  35.52600 48.93400 26.80900
C  35.85800 48.10100 27.84200
C  35.59600 48.77500 29.14700
C  34.90400 50.11700 28.74800
C  35.06900 50.17800 27.27200
C  33.36600 50.25900 29.02100
C  36.86000 48.98800 30.04000
C  36.76000 48.73800 31.53500
H  35.43700 48.82200 32.29600
N  35.24100 50.47000 24.19000
C  34.82700 51.42800 25.06500
C  34.54800 52.65700 24.33700
C  34.70300 52.28600 23.00100
C  35.18200 50.95200 22.94000
C  34.18900 53.92600 25.07300
C  34.39900 53.21200 21.78800
O  34.59300 52.89600 20.62200
C  34.02100 54.60500 21.98600
N  36.44600 48.23100 22.67000
C  36.09400 49.04800 21.67900
C  36.46800 48.49900 20.33600
C  37.00500 47.07100 20.66600
C  36.90800 47.06400 22.17600
C  35.40200 48.53900 19.25700
C  38.45800 46.59300 20.13200
C  39.67300 47.05300 20.93300
N  36.72700 46.77700 25.05700
C  37.10800 45.72400 24.29100
C  37.59200 44.64000 25.07600
C  37.31600 45.03600 26.38200
C  36.71800 46.36600 26.30200
C  38.24600 43.41700 24.50200
C  37.44300 44.56500 27.73700
O  37.86700 43.52300 28.16200
C  36.72800 45.66600 28.60500
C  35.46100 45.27600 29.15900
O  34.43800 44.86000 28.57400
O  35.62100 45.35200 30.56400
C  34.54300 44.68000 31.33000
H  34.46000 52.16900 27.05900
H  35.73500 50.95400 20.92800
H  37.72600 45.10500 22.36000
H  35.04600 48.00300 29.68600
H  35.44500 50.97600 29.14700
H  32.86900 49.43600 29.53400
H  32.74300 50.42300 28.14200
H  33.25000 51.03200 29.78100
H  37.27400 49.98500 29.88600
H  37.59400 48.26500 29.68400
H  37.47900 49.41500 31.99700
H  37.03200 47.70300 31.74300
H  33.37400 54.48000 24.60600
H  35.13300 54.45100 25.21900
H  33.75400 53.78200 26.06200
H  34.56700 55.14400 22.76000
H  33.01500 54.57900 22.40400
H  34.00200 55.17100 21.05500
H  37.32900 49.10300 20.04800
H  36.22000 46.42200 20.27800
H  34.43600 48.53800 19.76000
H  35.31900 47.66000 18.61800
H  35.58900 49.44200 18.67500
H  38.54800 46.94900 19.10600
H  38.62500 45.52100 20.02700
H  39.40200 48.00200 21.39600
H  40.59200 47.35100 20.42900
H  39.99900 46.36600 21.71400
H  38.28200 42.52100 25.12200
H  39.10500 43.78500 23.94200
H  37.55300 42.97200 23.78800
H  37.34100 46.03200 29.42900
H  34.86500 44.79600 32.36400
H  34.50400 43.62800 31.04700
H  33.58900 45.18400 31.17700
Mg -12.63900 37.42400 41.61700
C  -10.19300 34.89600 41.02900
C  -10.48800 39.67700 40.02700
C  -15.03300 39.82700 41.44800
C  -14.94200 34.98800 42.51800
N  -10.72200 37.20400 40.49200
C  -9.87300 36.07500 40.36200
C  -8.49100 36.50100 39.85700
C  -8.48800 38.03900 39.92600
C  -10.01900 38.31000 40.15200
C  -7.60400 38.76900 40.93400
C  -8.29400 35.89300 38.46400
C  -7.06800 35.04800 38.56500
H  -5.92600 35.56900 37.76800
N  -12.66800 39.50200 40.93700
C  -11.68000 40.23400 40.39000
C  -11.96600 41.60400 40.25100
C  -13.39300 41.68900 40.60300
C  -13.79400 40.32400 40.99800
C  -11.01700 42.64700 39.87100
C  -14.25000 42.88600 40.52700
O  -13.82200 43.95800 40.06800
C  -15.68700 42.98400 41.05900
N  -14.71200 37.37600 41.85100
C  -15.48600 38.51100 41.77000
C  -16.94600 38.23600 42.13900
C  -16.98100 36.65000 42.44500
C  -15.47900 36.25400 42.15600
C  -17.51100 39.06400 43.26900
C  -17.98300 35.83700 41.60800
C  -18.55800 34.71000 42.45100
N  -12.61700 35.38500 41.83000
C  -13.57900 34.56600 42.34000
C  -12.95400 33.25800 42.57800
C  -11.62600 33.35400 42.08600
C  -11.45400 34.64200 41.59400
C  -13.69700 32.08200 43.24300
C  -10.35300 32.67200 41.80300
O  -10.06600 31.47900 42.03400
C  -9.33600 33.66400 41.11500
C  -8.00900 33.80400 41.83300
O  -7.10500 33.00700 41.57900
O  -7.90800 34.94000 42.64100
C  -6.68100 35.14200 43.44100
H  -9.81000 40.34800 39.49500
H  -15.81700 40.57200 41.59400
H  -15.68600 34.32000 42.95600
H  -7.75800 36.11600 40.56600
H  -8.30800 38.41700 38.92000
H  -8.13200 38.92800 41.87400
H  -7.27100 39.64300 40.37500
H  -6.74600 38.14100 41.17400
H  -8.16500 36.65600 37.69700
H  -9.19200 35.41800 38.06900
H  -7.50900 34.16100 38.11000
H  -6.63700 34.84200 39.54400
H  -11.07800 42.70200 38.78400
H  -10.02200 42.39800 40.24100
H  -11.28600 43.63600 40.24200
H  -16.48600 42.48300 40.51200
H  -15.91400 44.04800 40.99700
H  -15.65600 42.64800 42.09500
H  -17.50000 38.46900 41.23000
H  -17.02600 36.54600 43.52900
H  -18.46000 38.72000 43.67900
H  -17.65800 40.05600 42.84300
H  -16.87400 39.17300 44.14700
H  -17.39700 35.41200 40.79300
H  -18.77600 36.50500 41.27100
H  -19.64700 34.70100 42.49100
H  -18.30500 34.71900 43.51100
H  -18.19100 33.76000 42.06300
H  -14.27600 31.54000 42.49500
H  -14.33700 32.50000 44.01900
H  -12.94200 31.41900 43.66600
H  -8.99800 33.47800 40.09600
H  -6.30900 36.10900 43.10200
H  -5.86500 34.50800 43.09300
H  -6.79300 34.95700 44.50900

