158

Mg 41.87200 40.68700 27.06300
C  41.13200 43.27800 29.25800
C  42.45800 38.67000 29.72700
C  42.97200 38.46200 24.99100
C  41.71500 43.09400 24.38800
N  41.89300 40.98400 29.18100
C  41.54900 42.07700 29.93200
C  41.37600 41.88900 31.42700
C  41.85900 40.38000 31.56600
C  42.16600 39.99400 30.07100
C  43.09400 40.06000 32.43400
C  39.92700 42.14000 32.03700
C  39.61300 41.65700 33.45500
H  39.05300 42.71000 34.47600
N  42.50200 38.84400 27.32100
C  42.67200 38.09900 28.42900
C  43.08800 36.71900 28.10200
C  42.95800 36.62600 26.71800
C  42.82800 38.02700 26.31200
C  43.39800 35.73300 29.23900
C  42.92200 35.45400 25.81900
O  42.66800 35.68100 24.57100
C  43.10000 34.13300 26.41000
N  42.38100 40.85100 24.92500
C  42.81700 39.70400 24.36400
C  42.95500 39.88700 22.85500
C  42.38400 41.33700 22.63800
C  42.17400 41.80900 24.02400
C  44.30300 39.61600 22.14300
C  41.15100 41.49300 21.70900
C  39.81700 41.20600 22.40200
N  41.48100 42.72600 26.81200
C  41.40500 43.56600 25.69700
C  40.89700 44.88700 26.12300
C  40.81100 44.81900 27.53500
C  41.16000 43.51800 27.85700
C  40.59500 46.07400 25.24000
C  40.50400 45.57900 28.72300
O  40.23400 46.75800 28.85000
C  40.67300 44.60800 29.91700
C  41.74500 45.24600 30.71500
O  42.95400 44.92500 30.66800
O  41.16500 46.13900 31.55800
C  42.13700 46.70700 32.48600
H  42.42900 37.95200 30.54900
H  43.34300 37.77100 24.23200
H  41.44800 43.76700 23.57000
H  42.14400 42.42700 31.98400
H  41.05000 39.71900 31.87900
H  43.74800 40.92700 32.52800
H  43.76000 39.26400 32.10100
H  42.74100 39.77700 33.42600
H  39.07400 41.77700 31.46300
H  39.68200 43.20200 32.03500
H  40.60900 41.47400 33.85900
H  39.00500 40.75200 33.46500
H  43.41100 36.02900 30.28800
H  44.37600 35.30000 29.03200
H  42.74100 34.86600 29.30100
H  42.26900 33.84400 27.05400
H  44.08300 34.00100 26.86000
H  43.15200 33.38200 25.62200
H  42.32600 39.14100 22.37000
H  43.16300 41.96000 22.19900
H  44.57300 40.49900 21.56400
H  44.17700 38.73300 21.51600
H  45.09900 39.33600 22.83400
H  41.34600 40.78800 20.90100
H  41.20300 42.52500 21.36300
H  39.83100 40.54400 23.26800
H  39.15800 40.68900 21.70400
H  39.20400 42.10000 22.51800
H  39.55200 45.99600 24.93300
H  41.13900 46.08900 24.29600
H  40.90800 46.94300 25.82000
H  39.68100 44.64300 30.36700
H  42.99200 47.27100 32.11500
H  42.43100 45.83600 33.07100
H  41.63200 47.37900 33.18000
Mg -10.60800 39.51700 42.35200
C  -9.21000 36.56200 41.37300
C  -8.03200 41.17800 40.91900
C  -12.19000 42.50100 42.85800
C  -13.69800 37.79000 43.01300
N  -8.79000 38.95700 41.24800
C  -8.41600 37.64200 41.01600
C  -7.13100 37.59400 40.22300
C  -6.59400 39.10800 40.25500
C  -7.86900 39.75900 40.82300
C  -5.28000 39.37400 41.05400
C  -7.37300 36.96500 38.83000
C  -6.39100 35.89500 38.34800
H  -5.52800 36.17800 37.17700
N  -10.10400 41.58600 42.02200
C  -9.03800 42.09000 41.38200
C  -9.01800 43.48700 41.49000
C  -10.16900 43.91300 42.18100
C  -10.86800 42.63300 42.43700
C  -7.80400 44.25000 41.05900
C  -10.51400 45.31100 42.57000
O  -9.76500 46.23400 42.23100
C  -11.69700 45.66000 43.46300
N  -12.72200 40.01100 42.78700
C  -12.92400 41.34400 43.18400
C  -14.40000 41.45000 43.71000
C  -14.93100 39.95500 43.65800
C  -13.72400 39.17500 43.07400
C  -14.44000 42.12000 45.12400
C  -16.26700 39.67100 42.98800
C  -17.40400 39.91300 43.91200
N  -11.30300 37.57600 42.34900
C  -12.50500 36.97100 42.67200
C  -12.43200 35.54700 42.52800
C  -11.15400 35.35300 41.98900
C  -10.49100 36.61600 41.92000
C  -13.53600 34.51300 42.72400
C  -10.29800 34.31600 41.46300
O  -10.56000 33.13500 41.28600
C  -8.88800 35.03600 41.14100
C  -7.85500 34.55600 42.08500
O  -7.65200 34.94100 43.22900
O  -6.97700 33.69600 41.45500
C  -5.88000 33.01700 42.10100
H  -7.15300 41.64200 40.46600
H  -12.78300 43.38300 43.10900
H  -14.61400 37.24800 43.26000
H  -6.37500 37.06600 40.80300
H  -6.26600 39.47300 39.28200
H  -4.66100 40.08300 40.50500
H  -4.71700 38.45100 40.91800
H  -5.47700 39.58200 42.10600
H  -7.28300 37.76100 38.09000
H  -8.37500 36.54800 38.72700
H  -6.99700 35.02000 38.11400
H  -5.70200 35.69300 39.16800
H  -7.96100 44.66100 40.06200
H  -6.92000 43.61800 41.13900
H  -7.59000 45.00700 41.81400
H  -11.69600 46.69600 43.80300
H  -11.65200 45.19500 44.44800
H  -12.61300 45.47100 42.90400
H  -14.94600 42.05100 42.98200
H  -15.04100 39.59200 44.68000
H  -13.50800 42.67400 45.23000
H  -14.45100 41.35400 45.89900
H  -15.25200 42.83200 45.27000
H  -16.25900 38.65300 42.60000
H  -16.27400 40.33600 42.12400
H  -17.15900 40.09600 44.95900
H  -17.93600 38.96400 43.98100
H  -18.12000 40.68100 43.62000
H  -13.65500 34.36000 43.79700
H  -13.19900 33.53800 42.37200
H  -14.51600 34.75600 42.31100
H  -8.59400 34.81700 40.11500
H  -6.13300 32.03600 42.50300
H  -5.39400 33.63300 42.85700
H  -5.07900 32.86800 41.37600

