158

Mg 26.88200 50.14500 26.72700
C  24.77000 51.57800 29.15800
C  29.00500 49.33400 29.46000
C  29.24600 49.35100 24.60400
C  24.96200 51.54600 24.29200
N  26.91300 50.52900 29.02400
C  25.92900 50.96300 29.71800
C  26.17900 50.85200 31.23500
C  27.67000 50.35200 31.25400
C  27.87000 50.01100 29.85300
C  28.89100 51.33100 31.70600
C  25.25100 49.71200 31.86000
C  24.82000 49.89200 33.41500
H  25.81300 50.55600 34.38200
N  28.78000 49.38100 26.98900
C  29.42900 49.03000 28.11800
C  30.69900 48.44300 27.78300
C  30.85000 48.49900 26.36800
C  29.61900 49.14100 25.92700
C  31.54800 47.87300 28.89600
C  31.96900 48.05600 25.52500
O  31.95700 48.17700 24.33800
C  33.19100 47.42800 26.11900
N  27.02200 50.23100 24.73000
C  28.07300 49.85100 24.00800
C  27.78600 49.83400 22.52300
C  26.32500 50.39400 22.46300
C  26.03200 50.72400 23.91700
C  28.81700 50.67100 21.63200
C  25.24000 49.43600 21.97300
C  24.78200 49.79300 20.61000
N  25.20600 51.32800 26.63500
C  24.53500 51.76100 25.57800
C  23.32000 52.49200 26.06600
C  23.40100 52.41200 27.41800
C  24.54600 51.70700 27.77000
C  22.38200 53.30600 25.27900
C  22.75000 52.78900 28.70800
O  21.82000 53.52200 28.86100
C  23.53300 52.17300 29.83800
C  23.95100 53.24900 30.79200
O  24.90300 53.99400 30.69300
O  23.08800 53.31100 31.78400
C  23.17200 54.36700 32.90600
H  29.53100 49.04900 30.37400
H  30.04400 49.00900 23.94200
H  24.34100 51.80600 23.43200
H  26.05500 51.82400 31.71200
H  27.84100 49.40500 31.76500
H  28.51800 52.24700 32.16300
H  29.58500 51.54900 30.89400
H  29.34000 50.79500 32.54200
H  25.60100 48.71600 31.58800
H  24.35700 49.69300 31.23700
H  24.46200 48.91100 33.72800
H  23.95300 50.55100 33.45700
H  31.55500 46.78400 28.93400
H  31.27600 48.17900 29.90600
H  32.58300 48.21300 28.87900
H  34.00900 47.46300 25.40000
H  32.90400 46.43300 26.45900
H  33.59200 48.13100 26.85000
H  27.72700 48.80000 22.18100
H  26.17600 51.31000 21.89200
H  29.66100 51.10700 22.16600
H  28.35700 51.48100 21.06600
H  29.26300 49.93200 20.96600
H  24.43100 49.17800 22.65600
H  25.65900 48.43100 21.93700
H  23.79100 50.24300 20.66400
H  24.62400 48.82600 20.13200
H  25.37300 50.32100 19.86100
H  22.46500 54.39000 25.35800
H  21.35600 53.07000 25.56100
H  22.46300 53.07700 24.21600
H  22.96100 51.44700 30.41600
H  23.52100 55.31500 32.49500
H  23.85400 53.99300 33.67000
H  22.20100 54.56300 33.35900
Mg 9.64100 47.44800 27.01100
C  7.28400 46.84600 29.59800
C  11.83600 48.41900 29.44500
C  11.95300 48.07300 24.63600
C  7.21000 47.12700 24.66700
N  9.52100 47.45300 29.21200
C  8.48000 47.20500 30.12300
C  8.83000 47.40600 31.52700
C  10.16700 48.23200 31.36900
C  10.57800 48.04400 29.85000
C  10.24400 49.75900 31.84800
C  8.90300 46.06500 32.40900
C  9.93900 46.07800 33.53800
H  9.58800 45.17800 34.70100
N  11.66800 48.09000 27.02600
C  12.40200 48.45500 28.10900
C  13.78700 48.82300 27.72900
C  13.85800 48.65800 26.30700
C  12.46600 48.20000 25.91500
C  14.82000 49.12700 28.78700
C  15.05700 48.82700 25.25300
O  14.98800 48.50100 24.08500
C  16.26200 49.28100 25.93400
N  9.58700 47.81000 24.93600
C  10.63800 47.90000 24.15000
C  10.34500 47.82300 22.59000
C  8.76700 47.68500 22.62300
C  8.47700 47.46700 24.13800
C  10.82900 48.96800 21.67100
C  8.07200 46.54700 21.70800
C  7.28600 47.03000 20.43800
N  7.65400 47.00000 27.05200
C  6.80600 46.87200 25.98000
C  5.48300 46.58500 26.43200
C  5.58100 46.50600 27.89400
C  6.96200 46.78000 28.19200
C  4.28000 46.34300 25.59500
C  4.86800 46.30100 29.15300
O  3.70800 46.00400 29.45000
C  6.02600 46.41700 30.33300
C  6.06300 45.10100 31.05500
O  6.90700 44.24100 30.92400
O  5.20200 45.10000 32.12300
C  5.17400 43.91500 33.03800
H  12.54500 48.81000 30.17700
H  12.76200 48.16900 23.90800
H  6.49900 46.83000 23.89300
H  8.06900 48.08300 31.91500
H  10.96000 47.66400 31.85400
H  11.18800 49.92300 32.36800
H  9.45100 50.08300 32.52200
H  10.18100 50.38800 30.95900
H  9.03600 45.21900 31.73500
H  7.92100 45.95100 32.86900
H  10.17100 47.10800 33.80900
H  10.69200 45.38000 33.17000
H  14.99700 50.19800 28.68500
H  15.65500 48.45200 28.59900
H  14.48700 48.97100 29.81300
H  15.95300 50.13600 26.53700
H  16.99200 49.54100 25.16800
H  16.59400 48.45500 26.56300
H  10.86800 46.94100 22.21900
H  8.22200 48.62100 22.50600
H  11.27800 49.78800 22.23200
H  10.08000 49.44200 21.03700
H  11.71000 48.71900 21.07900
H  7.53900 45.86500 22.37100
H  8.91200 45.96500 21.33000
H  7.99100 47.27100 19.64200
H  6.87500 48.02600 20.60300
H  6.65800 46.19800 20.12000
H  3.97900 47.31500 25.20400
H  3.42400 45.90400 26.10700
H  4.57100 45.72300 24.74600
H  5.65200 47.14200 31.05700
H  5.33900 44.26700 34.05600
H  5.99100 43.22900 32.81500
H  4.14500 43.55600 33.06700

