158

Mg -1.81900 17.55500 26.39300
C  -2.08000 15.00300 28.87100
C  -2.23800 19.84800 28.92400
C  -2.20400 19.90500 24.09000
C  -2.16900 15.07900 24.05600
N  -1.97500 17.42200 28.67700
C  -1.96900 16.27800 29.42500
C  -2.00800 16.55500 30.95200
C  -2.48700 18.03600 30.95300
C  -2.14400 18.50400 29.48000
C  -3.97700 18.46600 31.41200
C  -0.67600 16.17300 31.75200
C  -0.29000 17.00900 33.04800
H  -0.34800 16.32600 34.41300
N  -2.10600 19.59900 26.52300
C  -2.24100 20.38100 27.62400
C  -2.56300 21.68600 27.24900
C  -2.40600 21.77700 25.82200
C  -2.19400 20.37500 25.40900
C  -2.82600 22.89000 28.19700
C  -2.55400 22.98600 24.87300
O  -2.31600 22.94300 23.67000
C  -2.85000 24.43800 25.39500
N  -2.37500 17.45600 24.44900
C  -2.27900 18.55800 23.59300
C  -2.31900 18.19500 22.11600
C  -2.09200 16.68400 22.15700
C  -2.13800 16.38000 23.65500
C  -3.54000 18.71300 21.31800
C  -0.71700 16.23400 21.58600
C  0.64600 16.68700 22.23100
N  -1.99300 15.42100 26.40200
C  -2.18400 14.53100 25.32400
C  -2.32500 13.17100 25.84000
C  -2.30000 13.32700 27.23300
C  -2.08400 14.69300 27.51400
C  -2.48200 11.86800 25.13100
C  -2.29300 12.64500 28.48900
O  -2.26500 11.44500 28.77900
C  -2.40900 13.75700 29.52500
C  -1.57600 13.36700 30.67500
O  -0.37200 13.29800 30.71100
O  -2.37000 12.96500 31.68300
C  -1.73100 12.24100 32.78500
H  -2.51000 20.62000 29.64600
H  -2.21400 20.60700 23.25300
H  -2.14100 14.38500 23.21300
H  -2.77400 15.96900 31.46000
H  -1.76500 18.68400 31.45000
H  -4.55600 18.83900 30.56700
H  -3.76900 19.30200 32.08100
H  -4.40400 17.64000 31.98000
H  0.18100 16.08100 31.08500
H  -0.77500 15.16900 32.16300
H  -0.74000 18.00200 33.04500
H  0.75700 17.29300 32.93900
H  -1.93100 23.49600 28.05400
H  -2.91800 22.46500 29.19700
H  -3.76200 23.37300 27.91500
H  -3.79900 24.45900 25.93100
H  -2.96500 25.12000 24.55300
H  -2.02000 24.79600 26.00400
H  -1.46800 18.66100 21.61800
H  -2.90300 16.13600 21.67800
H  -4.15900 19.21200 22.06300
H  -4.03600 17.91300 20.76800
H  -3.31500 19.47000 20.56700
H  -0.69800 16.51100 20.53200
H  -0.66800 15.14500 21.56000
H  1.16600 17.33900 21.52800
H  1.31200 15.87400 22.51900
H  0.46000 17.35500 23.07200
H  -1.51000 11.38700 25.02100
H  -2.87700 12.13100 24.15000
H  -3.23600 11.29900 25.67600
H  -3.45300 13.87800 29.81700
H  -1.19900 13.02900 33.31700
H  -0.99100 11.50200 32.47800
H  -2.50800 11.85500 33.44600
Mg 43.28400 3.54500 46.77400
C  41.60700 6.63300 47.14900
C  40.23400 2.06300 46.69400
C  44.81800 0.71600 45.72600
C  46.27400 5.22200 46.64900
N  41.17500 4.25300 46.92100
C  40.72100 5.52100 47.19500
C  39.19800 5.55400 47.32500
C  38.88400 4.08000 47.48400
C  40.17500 3.37300 46.99700
C  38.38100 3.68300 48.87100
C  38.40600 6.16600 46.14600
C  39.05000 6.12300 44.73300
H  38.20000 5.85400 43.47400
N  42.66700 1.64900 46.40600
C  41.30300 1.25200 46.39300
C  41.22700 -0.13200 46.07200
C  42.55000 -0.59100 45.74600
C  43.41500 0.61800 45.99300
C  39.93000 -0.80500 45.94100
C  42.84000 -1.97500 45.30000
O  42.04300 -2.91000 45.14700
C  44.29000 -2.24500 44.88900
N  45.33400 3.03000 46.40300
C  45.71100 1.74200 46.01700
C  47.24300 1.65300 45.82200
C  47.73800 3.07500 46.23800
C  46.39900 3.84800 46.45500
C  47.89400 0.40500 46.63600
C  48.68900 3.67300 45.21200
C  50.00100 4.06800 45.93000
N  43.85900 5.52000 46.77000
C  45.15700 6.00300 46.76400
C  45.02100 7.50500 46.88200
C  43.69000 7.75800 46.97600
C  42.99000 6.52800 46.93800
C  46.20000 8.40600 47.00000
C  42.70400 8.81300 47.09700
O  42.81600 10.08600 47.13000
C  41.37100 8.10600 47.24900
C  40.67600 8.56800 48.53100
O  40.98000 8.16300 49.65500
O  39.57700 9.36500 48.20700
C  38.63000 9.48400 49.33000
H  39.30200 1.49500 46.64200
H  45.32400 -0.22000 45.48000
H  47.19100 5.81500 46.62300
H  38.98000 6.05800 48.26600
H  38.10100 3.73800 46.80700
H  38.03300 4.49100 49.51300
H  39.23400 3.30100 49.43200
H  37.51500 3.02900 48.77100
H  38.29100 7.21300 46.42400
H  37.40700 5.76300 45.97900
H  39.78000 5.32900 44.57600
H  39.56200 7.08500 44.70400
H  40.10700 -1.85300 46.18300
H  39.52400 -0.49900 44.97700
H  39.31200 -0.59000 46.81300
H  44.88300 -2.42300 45.78600
H  44.71000 -1.50800 44.20300
H  44.21200 -3.09800 44.21500
H  47.36300 1.46300 44.75600
H  48.23900 2.93800 47.19600
H  47.50400 0.19800 47.63200
H  48.96200 0.28400 46.81600
H  47.62900 -0.51100 46.10800
H  48.39300 4.53700 44.61700
H  48.91600 2.93600 44.44100
H  49.84100 5.14300 46.01400
H  50.78300 3.84500 45.20500
H  50.20400 3.70400 46.93700
H  46.78500 8.36300 46.08100
H  46.84800 8.04200 47.79700
H  45.93900 9.46300 47.03800
H  40.75300 8.44600 46.41800
H  39.02400 10.12800 50.11600
H  38.16600 8.58000 49.72200
H  37.86500 10.16400 48.95600

