158

Mg 35.70800 0.34600 30.20900
C  33.49300 1.78100 32.39800
C  38.10800 0.57100 32.82700
C  38.25700 -0.63500 28.08000
C  33.69700 0.86300 27.42600
N  35.74000 1.06100 32.31000
C  34.64500 1.49700 33.03800
C  34.92600 1.61000 34.49900
C  36.59800 1.67400 34.48900
C  36.87000 1.01000 33.13500
C  37.32000 3.09900 34.69000
C  34.36700 0.45500 35.32300
C  33.38500 0.83700 36.41400
H  33.59200 2.13800 37.22400
N  37.85800 -0.16000 30.47800
C  38.58100 0.00500 31.59800
C  39.97500 -0.42500 31.34800
C  39.94200 -0.98400 30.02200
C  38.66000 -0.53900 29.44100
C  41.06700 -0.45100 32.37300
C  40.98900 -1.72800 29.17700
O  40.79900 -2.13800 28.00600
C  42.26400 -2.09200 29.87300
N  36.08300 0.51100 27.97100
C  37.12400 -0.11400 27.41100
C  36.95800 -0.28700 25.89100
C  35.40300 0.10000 25.63600
C  35.03200 0.48400 27.11500
C  37.87200 0.52100 25.06000
C  34.47000 -0.97600 25.15700
C  33.43800 -0.52500 24.06500
N  33.95800 1.14000 29.87100
C  33.19200 1.20100 28.74700
C  31.85500 1.71800 29.06300
C  31.93600 1.93900 30.48200
C  33.23200 1.58600 30.94400
C  30.77200 1.87200 28.12100
C  31.26000 2.46400 31.61900
O  30.16600 2.95100 31.71500
C  32.20300 2.35000 32.88000
C  32.30400 3.61800 33.58000
O  33.05800 4.54400 33.27400
O  31.39400 3.76400 34.47800
C  31.35500 5.02800 35.29200
H  38.89600 0.56100 33.58200
H  38.81800 -1.23700 27.36100
H  32.97000 0.76700 26.61700
H  34.39900 2.49500 34.85600
H  36.99000 1.02900 35.27600
H  37.93500 3.51000 33.89000
H  37.85300 3.03000 35.63800
H  36.52500 3.81500 34.90100
H  35.13100 -0.09100 35.87600
H  33.63900 -0.09300 34.72400
H  33.47400 0.07600 37.19000
H  32.35900 0.81700 36.04800
H  41.26900 -1.52100 32.41000
H  40.66400 -0.21400 33.35800
H  41.96100 0.14200 32.18000
H  42.71100 -1.12200 30.08800
H  42.84900 -2.49200 29.04400
H  42.02600 -2.65600 30.77400
H  37.04600 -1.31100 25.52900
H  35.36600 0.98400 24.99900
H  38.82600 -0.00800 25.05300
H  37.92900 1.55500 25.40000
H  37.47400 0.49300 24.04600
H  34.04000 -1.41300 26.05700
H  35.02100 -1.82700 24.75800
H  32.46800 -0.74200 24.51200
H  33.52700 -1.17500 23.19400
H  33.29700 0.54300 23.90000
H  30.73500 0.88000 27.67200
H  31.06600 2.67500 27.44500
H  29.83400 2.06900 28.64100
H  31.74600 1.72500 33.64800
H  30.66300 5.85400 35.12900
H  32.34100 5.48300 35.38900
H  31.04600 4.66400 36.27100
Mg 41.46200 41.61300 26.96200
C  40.56500 43.84500 29.29300
C  42.35400 39.30900 29.24500
C  42.68200 39.66100 24.39000
C  41.20700 44.21500 24.43600
N  41.29100 41.56800 29.05500
C  40.91700 42.63300 29.85400
C  40.72000 42.11000 31.32200
C  41.48900 40.75700 31.28200
C  41.67300 40.45700 29.78500
C  42.98400 40.82100 31.75800
C  39.28100 42.05500 31.94800
C  38.90800 43.26500 32.93700
H  38.42300 43.04400 34.33600
N  42.26000 39.70500 26.79600
C  42.58500 38.91200 27.85600
C  43.16300 37.63600 27.34400
C  43.17800 37.71800 25.96400
C  42.65400 39.05800 25.64900
C  43.40700 36.47100 28.25700
C  43.64400 36.66100 24.91400
O  43.56900 36.79400 23.71300
C  44.22300 35.38100 25.39400
N  41.82100 41.86500 24.77700
C  42.31200 40.90500 23.98100
C  42.37500 41.22000 22.50300
C  41.49500 42.52400 22.49100
C  41.54100 42.94700 24.01100
C  43.79700 41.55300 21.96400
C  40.07300 42.30900 21.93900
C  39.28600 41.21300 22.53100
N  41.01200 43.60100 26.87000
C  40.96000 44.51900 25.78400
C  40.48800 45.77900 26.32500
C  40.25200 45.52000 27.70500
C  40.65000 44.20000 27.96900
C  40.29700 47.05500 25.45800
C  39.80200 46.14300 28.93800
O  39.43600 47.29600 29.10900
C  39.95300 45.07900 30.04400
C  40.95300 45.71400 30.95300
O  42.15300 45.67200 30.75900
O  40.32200 46.31400 32.03700
C  41.15600 47.02900 33.00100
H  42.62000 38.57900 30.01200
H  43.11200 39.00800 23.62700
H  40.99500 44.98900 23.69600
H  41.32800 42.65100 32.04700
H  40.94100 39.90900 31.69400
H  43.65900 40.56600 30.94100
H  43.25400 40.06800 32.49800
H  43.24800 41.76400 32.23600
H  39.06600 41.03100 32.25700
H  38.72000 42.11300 31.01600
H  38.14900 43.82100 32.38600
H  39.68700 44.02600 32.97400
H  43.49500 36.84700 29.27600
H  44.36000 35.97600 28.07200
H  42.63700 35.70400 28.17500
H  45.10300 35.62800 25.98800
H  44.36100 34.81100 24.47600
H  43.61500 34.78900 26.07900
H  41.96200 40.42000 21.88900
H  41.93500 43.23300 21.79000
H  43.82300 42.52900 21.47800
H  43.98600 40.76800 21.23100
H  44.46000 41.47500 22.82500
H  39.95100 42.34400 20.85700
H  39.49000 43.17900 22.24000
H  38.60800 41.70800 23.22600
H  39.91300 40.37300 22.83100
H  38.62600 40.77600 21.78200
H  40.31100 46.74500 24.41400
H  41.10800 47.77200 25.59100
H  39.32100 47.53300 25.54100
H  38.96000 44.98600 30.48600
H  41.00400 46.62900 34.00400
H  40.72800 48.03100 32.99500
H  42.22400 47.02900 32.78400

