158

Mg 45.40900 2.88500 47.99500
C  43.20000 5.67700 47.10800
C  42.58900 0.87600 48.09600
C  47.39500 0.37500 48.04800
C  48.01000 5.22200 47.37500
N  43.15400 3.22800 47.44600
C  42.50300 4.40700 47.22500
C  40.95300 4.24700 47.21300
C  40.86000 2.68400 47.59800
C  42.28900 2.23000 47.79100
C  40.04700 2.49000 48.91600
C  40.29300 4.47400 45.80800
C  39.33100 5.60400 45.55900
H  39.62300 6.56300 44.34300
N  45.03100 0.85800 48.09800
C  43.82400 0.14600 48.19400
C  44.01400 -1.18600 48.36900
C  45.41700 -1.37400 48.24000
C  46.05100 -0.07000 48.10300
C  42.91600 -2.24400 48.30200
C  46.09200 -2.78900 48.31900
O  45.41500 -3.83900 48.57300
C  47.50400 -2.88700 48.12100
N  47.38700 2.72300 47.40500
C  48.00100 1.60400 47.75000
C  49.57700 1.86300 47.55600
C  49.65900 3.35500 47.35600
C  48.25600 3.84100 47.36800
C  50.47800 1.24100 48.70300
C  50.47600 3.85100 46.13600
C  51.85500 4.54900 46.52100
N  45.65200 5.05400 47.40800
C  46.75200 5.80400 47.34400
C  46.35800 7.19700 47.26200
C  44.99200 7.22300 47.14300
C  44.57100 5.86600 47.19500
C  47.24000 8.38900 47.31000
C  43.80500 8.05800 46.89300
O  43.67100 9.24100 46.70100
C  42.59000 7.07400 47.07300
C  41.80300 7.44500 48.34000
O  41.89100 6.96200 49.47200
O  40.99400 8.53500 47.98600
C  40.05200 8.94600 49.00500
H  41.67800 0.27500 48.08200
H  48.17300 -0.39100 48.05900
H  48.84100 5.93000 47.37700
H  40.41500 4.89100 47.90800
H  40.39600 2.07400 46.82200
H  39.48900 3.40900 49.09600
H  40.66100 2.30700 49.79800
H  39.30400 1.70400 48.78300
H  39.81300 3.54800 45.49000
H  41.07000 4.60900 45.05600
H  39.21500 6.31700 46.37500
H  38.40000 5.05300 45.42700
H  43.23500 -3.01100 49.00800
H  43.06500 -2.69300 47.32000
H  41.89300 -1.95600 48.54000
H  47.78200 -3.94100 48.13400
H  48.04900 -2.38600 48.92100
H  47.94300 -2.52900 47.19000
H  49.89700 1.35800 46.64400
H  50.20000 3.77000 48.20600
H  51.00800 0.37300 48.31100
H  49.89100 1.01500 49.59200
H  51.21900 1.98800 48.98900
H  49.81400 4.42200 45.48500
H  50.82500 2.98100 45.57900
H  51.78400 5.56700 46.13700
H  52.67800 3.92100 46.18100
H  51.99000 4.60000 47.60200
H  48.25700 8.07000 47.08000
H  47.17200 8.84000 48.30000
H  46.89900 9.15200 46.61000
H  41.94000 7.25700 46.21700
H  40.29400 10.00900 49.02700
H  40.22300 8.45900 49.96500
H  39.00700 8.87100 48.70200
Mg 41.00400 40.93900 26.13400
C  40.43700 43.27600 28.87300
C  42.39000 38.89000 28.40200
C  41.75700 38.93000 23.60400
C  40.30800 43.60400 23.94200
N  41.42300 41.19100 28.35300
C  40.94400 42.08200 29.27600
C  41.06300 41.58600 30.67500
C  41.63600 40.17100 30.47700
C  41.80000 40.04700 28.97400
C  42.86200 39.90200 31.38000
C  39.69700 41.59900 31.45000
C  39.65100 42.32900 32.84200
H  38.83500 41.75300 34.03500
N  41.90600 39.12800 26.05000
C  42.36000 38.37800 27.06500
C  42.86800 37.07500 26.62200
C  42.55700 37.06900 25.21200
C  41.98600 38.41500 24.85600
C  43.51300 36.06700 27.57800
C  42.77700 35.89800 24.27300
O  42.38600 35.81900 23.12600
C  43.49400 34.71700 24.78600
N  41.17700 41.27500 24.07400
C  41.35300 40.22900 23.20000
C  41.00900 40.58200 21.75900
C  40.37900 42.00200 21.97400
C  40.67800 42.37800 23.42000
C  42.28300 40.53000 20.81400
C  38.84900 42.26300 21.61900
C  37.81500 41.81700 22.63000
N  40.55600 43.00800 26.26200
C  40.26200 43.94700 25.32800
C  39.86300 45.27100 25.93600
C  39.85300 44.99200 27.29500
C  40.38200 43.66000 27.50300
C  39.59900 46.56100 25.21500
C  39.64500 45.65800 28.59200
O  39.29400 46.78400 28.94000
C  40.08200 44.48100 29.71300
C  41.18800 44.99800 30.56200
O  42.34900 45.24500 30.17700
O  40.80000 45.06800 31.88100
C  41.79500 45.40700 32.89800
H  42.58700 38.11700 29.14700
H  41.94000 38.19100 22.82100
H  39.81900 44.27800 23.23600
H  41.81200 42.20800 31.16500
H  40.86900 39.50600 30.87300
H  42.78800 38.84400 31.63300
H  42.87500 40.44900 32.32200
H  43.76100 40.06000 30.78400
H  39.32100 40.58900 31.61200
H  39.03200 42.11000 30.75500
H  39.31300 43.35500 32.69300
H  40.67900 42.35200 33.20300
H  42.69400 35.36500 27.73000
H  43.86300 36.59300 28.46700
H  44.44400 35.68500 27.15900
H  43.48500 33.85700 24.11600
H  43.10000 34.32000 25.72100
H  44.52700 35.04700 24.89700
H  40.21600 40.01600 21.26900
H  41.10500 42.72100 21.59600
H  43.23700 40.39100 21.32400
H  42.38600 41.49800 20.32300
H  42.15100 39.79300 20.02200
H  38.62300 41.64500 20.75100
H  38.69400 43.30600 21.34400
H  37.00400 42.52100 22.81200
H  38.30900 41.59900 23.57700
H  37.43600 40.86500 22.25700
H  39.97400 46.61500 24.19300
H  40.12200 47.33600 25.77600
H  38.53900 46.78200 25.08700
H  39.17900 44.26600 30.28300
H  42.78800 45.71100 32.56600
H  42.01100 44.57200 33.56500
H  41.47600 46.19300 33.58200

