158

Mg 9.60700 47.40400 26.66000
C  7.66000 46.99000 29.55000
C  12.04800 48.69200 28.54200
C  11.22800 48.10900 23.76200
C  6.83600 46.37000 24.73400
N  9.82700 47.84500 28.77700
C  8.96100 47.51700 29.78800
C  9.54400 47.91600 31.17000
C  10.90400 48.60500 30.77800
C  10.95800 48.38300 29.27000
C  10.97800 50.17000 31.09100
C  9.77500 46.82700 32.26100
C  9.52700 47.45900 33.66500
H  9.63900 46.49700 34.81500
N  11.46100 48.21700 26.20200
C  12.36500 48.61500 27.12200
C  13.61000 48.77300 26.43600
C  13.38200 48.51400 25.07400
C  11.96400 48.26700 24.96900
C  14.95400 49.04800 27.18900
C  14.38300 48.64100 23.92500
O  14.07900 48.36500 22.76300
C  15.87800 48.89900 24.16600
N  9.12600 47.42300 24.55000
C  9.95000 47.70600 23.50400
C  9.33200 47.48300 22.08900
C  8.18800 46.56400 22.53400
C  8.02500 46.80100 24.03700
C  8.97100 48.82800 21.38000
C  8.19900 45.10100 22.12600
C  8.74400 44.09300 23.17800
N  7.69000 46.77800 27.03300
C  6.68300 46.36000 26.12600
C  5.55700 45.91400 26.81500
C  5.86000 46.17000 28.19400
C  7.19300 46.68900 28.27500
C  4.23900 45.26200 26.27300
C  5.32200 46.12200 29.47300
O  4.22400 45.67700 29.85200
C  6.52000 46.50400 30.49400
C  6.74700 45.19000 31.20000
O  7.37400 44.28900 30.73000
O  6.26000 45.22200 32.44100
C  6.42600 44.06600 33.33800
H  12.91200 48.93700 29.16300
H  11.72300 48.47600 22.86000
H  5.96200 45.91600 24.26300
H  8.87000 48.61800 31.66100
H  11.85400 48.18600 31.11000
H  11.82800 50.32000 31.75600
H  10.11100 50.54200 31.63800
H  11.09300 50.74100 30.17000
H  10.74300 46.33200 32.19100
H  9.03500 46.04900 32.07100
H  8.48300 47.77200 33.65400
H  10.20000 48.30100 33.83000
H  15.49300 49.88700 26.74600
H  15.51300 48.11500 27.12000
H  14.91300 49.25600 28.25800
H  16.29500 48.23000 24.91900
H  15.91500 49.94500 24.46800
H  16.34300 48.81700 23.18400
H  10.03900 46.93900 21.46300
H  7.23100 46.98500 22.22600
H  9.38300 49.65500 21.95800
H  7.88100 48.83700 21.35200
H  9.39400 48.74800 20.37900
H  8.84400 44.99200 21.25400
H  7.19400 44.78600 21.84900
H  9.41000 44.53900 23.91600
H  9.37600 43.40300 22.61900
H  7.90700 43.55400 23.62400
H  4.46500 44.27500 25.87000
H  3.76700 45.79500 25.44800
H  3.43000 45.13300 26.99300
H  6.26700 47.25600 31.24100
H  6.70100 44.45300 34.31900
H  7.17300 43.34500 33.00600
H  5.50900 43.48500 33.42900
Mg -10.95500 38.57100 41.67600
C  -9.48000 35.38900 41.10800
C  -8.24300 39.89400 40.15600
C  -12.52600 41.53400 41.67000
C  -13.91300 36.96700 42.67400
N  -9.07100 37.72100 40.75400
C  -8.63100 36.44100 40.69400
C  -7.20000 36.27900 40.25800
C  -6.80100 37.76200 39.99700
C  -8.08200 38.53000 40.38600
C  -5.51700 38.18500 40.73500
C  -7.23200 35.46000 38.92600
C  -6.08600 34.41800 38.81200
H  -5.11300 34.80100 37.73000
N  -10.39800 40.44700 41.08900
C  -9.16800 40.77700 40.63000
C  -9.09100 42.20200 40.41900
C  -10.34500 42.74100 40.77800
C  -11.16800 41.61300 41.23300
C  -7.88300 42.90700 39.83100
C  -10.73500 44.16500 40.87300
O  -9.94600 45.10200 40.65300
C  -12.14700 44.60900 41.21000
N  -13.01000 39.11400 41.83900
C  -13.32700 40.40400 41.86800
C  -14.75100 40.63900 42.38900
C  -15.19600 39.18100 42.79000
C  -13.94900 38.30800 42.41300
C  -14.84700 41.73700 43.52500
C  -16.38800 38.60700 41.96200
C  -17.56600 38.13800 42.85600
N  -11.64900 36.61700 41.86400
C  -12.85400 36.08100 42.32900
C  -12.68200 34.66100 42.56900
C  -11.40400 34.34300 42.06700
C  -10.79500 35.58700 41.70100
C  -13.73100 33.76300 43.04900
C  -10.42200 33.24900 41.75900
O  -10.53000 32.06100 42.03400
C  -9.22000 33.86300 41.08400
C  -8.01500 33.28500 41.69200
O  -7.40700 32.32900 41.24900
O  -7.66100 33.96700 42.86700
C  -6.37100 33.57900 43.55400
H  -7.46400 40.46100 39.64100
H  -13.09300 42.46200 41.77100
H  -14.79400 36.54600 43.16300
H  -6.54900 35.84400 41.01700
H  -6.64300 37.95000 38.93500
H  -4.79700 37.37000 40.66400
H  -5.63400 38.38100 41.80000
H  -4.96500 39.03800 40.34100
H  -7.01400 36.08500 38.06000
H  -8.23000 35.05300 38.76500
H  -6.46600 33.43900 38.51900
H  -5.44200 34.45800 39.69000
H  -7.85200 43.90700 40.26500
H  -7.85700 43.08900 38.75700
H  -6.96200 42.43700 40.17800
H  -12.58900 44.43200 42.19000
H  -12.78100 44.14800 40.45400
H  -12.22500 45.66600 40.95400
H  -15.31000 41.03900 41.54300
H  -15.45300 39.19800 43.84900
H  -14.00000 42.04000 44.14100
H  -15.62300 41.34800 44.18300
H  -15.13200 42.68100 43.05900
H  -16.01300 37.77800 41.36200
H  -16.73600 39.35900 41.25400
H  -17.55800 38.36100 43.92300
H  -17.75300 37.06400 42.85900
H  -18.51700 38.56200 42.53200
H  -14.00100 33.94500 44.08900
H  -13.35600 32.74100 42.98600
H  -14.63900 33.81700 42.44900
H  -9.13500 33.49900 40.06000
H  -6.39200 33.84800 44.61000
H  -5.53000 34.12900 43.13100
H  -6.27800 32.49400 43.52500

