158

Mg -2.34900 17.14800 26.00600
C  -2.34800 15.04300 29.03700
C  -2.75800 19.87400 28.18500
C  -2.33800 19.01600 23.43700
C  -2.54600 14.16400 24.20700
N  -2.66600 17.35500 28.42700
C  -2.57800 16.40400 29.43400
C  -2.61400 17.09700 30.83500
C  -2.93200 18.56800 30.48500
C  -2.66100 18.65500 28.91200
C  -4.32800 19.09400 30.91200
C  -1.55300 16.80300 31.88700
C  -1.56500 17.49400 33.23500
H  -2.12700 16.69000 34.43400
N  -2.53300 19.20400 25.77500
C  -2.63700 20.16800 26.78200
C  -2.44500 21.44400 26.15100
C  -2.18900 21.15400 24.69300
C  -2.34200 19.75700 24.59600
C  -2.61600 22.76600 26.82300
C  -1.90900 22.13000 23.49000
O  -1.82700 21.75900 22.36400
C  -1.79200 23.61100 23.76800
N  -2.55600 16.64000 24.03000
C  -2.49200 17.62700 23.13400
C  -2.59200 17.03100 21.72800
C  -2.27400 15.51000 21.99800
C  -2.50200 15.40900 23.48100
C  -3.87500 17.32800 20.94600
C  -0.81700 14.97100 21.71800
C  0.34800 15.90400 22.10100
N  -2.43400 15.07800 26.45400
C  -2.44900 13.92300 25.59700
C  -2.33200 12.75900 26.35700
C  -2.27300 13.14000 27.63300
C  -2.34300 14.54100 27.69800
C  -2.44600 11.33900 25.83600
C  -2.10700 12.61900 28.93800
O  -2.09700 11.44400 29.28400
C  -2.13900 13.85500 29.92600
C  -0.83100 13.97800 30.68400
O  0.17500 14.65700 30.28900
O  -0.93500 13.29700 31.87000
C  0.17600 13.50100 32.78800
H  -2.98200 20.72200 28.83500
H  -2.36000 19.57500 22.49900
H  -2.32900 13.25400 23.64400
H  -3.53200 16.64700 31.21400
H  -2.16400 19.17000 30.97000
H  -4.86800 19.30900 29.98900
H  -4.29300 20.09300 31.34600
H  -4.87300 18.39800 31.54900
H  -0.60400 16.87700 31.35700
H  -1.72200 15.74000 32.05800
H  -1.99900 18.49300 33.20000
H  -0.49600 17.61600 33.41200
H  -2.48900 22.77600 27.90600
H  -3.55800 23.18400 26.46800
H  -1.77800 23.43000 26.61300
H  -1.76700 24.17100 22.83300
H  -0.95100 23.75000 24.44700
H  -2.70100 23.86500 24.31300
H  -1.75600 17.47900 21.19200
H  -2.92500 14.84400 21.43200
H  -4.52600 16.45800 21.03400
H  -3.80600 17.67000 19.91300
H  -4.34800 18.18100 21.43300
H  -0.59000 14.84400 20.65900
H  -0.65400 14.02600 22.23600
H  1.04800 15.90700 21.26600
H  0.93900 15.52700 22.93500
H  0.12200 16.96700 22.18700
H  -1.96700 10.66800 26.54900
H  -1.94800 11.26700 24.86900
H  -3.48000 11.02300 25.69700
H  -2.97200 13.67000 30.60500
H  -0.11100 14.34000 33.42100
H  1.09600 13.69800 32.23800
H  0.35200 12.54900 33.29100
Mg 52.45000 24.42700 45.67200
C  49.85500 26.59700 44.79700
C  50.78800 21.73000 44.62000
C  55.38900 22.62000 45.99500
C  54.48100 27.31300 46.26500
N  50.57000 24.20400 44.76100
C  49.60100 25.18300 44.51800
C  48.19600 24.54500 44.38100
C  48.52400 23.02000 44.50100
C  50.05700 22.97100 44.61100
C  47.91500 22.34800 45.80800
C  47.43800 24.87100 43.03500
C  48.14200 24.68500 41.70000
H  47.50400 23.73600 40.74300
N  52.95000 22.40500 45.44100
C  52.16000 21.46700 44.97700
C  52.86500 20.15500 45.04900
C  54.11200 20.32000 45.68700
C  54.19400 21.82800 45.77200
C  52.22700 18.85000 44.41600
C  55.05600 19.24300 46.06900
O  54.82600 18.08100 45.78600
C  56.30900 19.55200 46.92100
N  54.63300 24.87800 45.97700
C  55.64000 23.97300 46.05400
C  56.99200 24.55100 46.42500
C  56.72300 26.08600 46.29500
C  55.18100 26.13000 46.25000
C  57.53900 24.01400 47.73600
C  57.33200 26.70100 44.92500
C  57.96000 28.10800 45.18300
N  52.20700 26.55000 45.77500
C  53.07400 27.58100 46.04700
C  52.44300 28.85700 45.99800
C  51.15100 28.49500 45.49100
C  51.09500 27.05800 45.37900
C  53.03500 30.12100 46.34100
C  49.89800 29.09600 45.00300
O  49.45500 30.24600 44.97700
C  48.98800 27.85000 44.44500
C  48.74900 28.03400 43.03100
O  49.40800 27.56300 42.08200
O  47.58300 28.74800 42.88800
C  47.06700 28.95300 41.51800
H  50.20200 20.82500 44.44600
H  56.22800 21.94400 46.17400
H  55.02100 28.25400 46.38800
H  47.47500 24.89000 45.12100
H  48.26700 22.45900 43.60200
H  47.88300 21.26800 45.66300
H  46.92200 22.71100 46.07400
H  48.65800 22.41500 46.60300
H  47.06500 25.89500 43.02000
H  46.57800 24.20200 43.05500
H  49.17100 24.34000 41.80600
H  48.04200 25.65800 41.22000
H  51.37500 19.01000 43.75500
H  51.94700 18.16200 45.21300
H  53.01900 18.40300 43.81500
H  56.69700 18.59200 47.26200
H  55.87600 20.15200 47.72100
H  56.95500 20.07500 46.21500
H  57.71000 24.18600 45.69100
H  57.12700 26.70300 47.09900
H  57.36700 22.95200 47.91300
H  56.99700 24.51500 48.53800
H  58.59600 24.25400 47.84900
H  56.62000 26.85900 44.11500
H  58.09200 26.04500 44.50200
H  59.00400 28.19400 44.87900
H  57.82900 28.47000 46.20300
H  57.58700 28.78900 44.41800
H  52.53800 30.89600 45.75800
H  54.11400 30.18000 46.19600
H  52.96700 30.26400 47.42000
H  48.04000 27.75100 44.97300
H  46.94700 28.02200 40.96500
H  47.80500 29.58100 41.02000
H  46.18400 29.58100 41.63900

