158

Mg 0.42600 7.59000 25.81300
C  1.42400 9.63700 28.57700
C  0.31300 4.93900 28.04500
C  0.05700 5.60500 23.16800
C  0.93500 10.33600 23.77400
N  0.90700 7.32100 28.03400
C  1.19000 8.29800 28.94600
C  1.21400 7.83700 30.35200
C  1.14300 6.22400 30.08800
C  0.62800 6.12600 28.65300
C  2.46900 5.42600 30.39200
C  -0.01200 8.45200 31.15300
C  0.29000 9.02200 32.55700
H  1.30200 8.25900 33.40400
N  0.08700 5.51500 25.62900
C  0.04600 4.59200 26.66400
C  -0.29600 3.27900 26.09800
C  -0.33800 3.43800 24.67100
C  -0.01500 4.86500 24.40100
C  -0.36600 2.07900 26.99400
C  -0.49700 2.39100 23.49000
O  -0.46500 2.70200 22.32800
C  -0.76400 0.91800 23.88200
N  0.48500 7.89700 23.79600
C  0.13700 6.97600 22.88200
C  0.05100 7.55900 21.46200
C  0.32600 9.04700 21.69100
C  0.62700 9.14300 23.19000
C  0.94800 6.91700 20.47600
C  -0.73600 10.18000 21.20200
C  -0.22800 11.23900 20.18800
N  1.09800 9.56200 26.01300
C  1.16900 10.60100 25.12200
C  1.51400 11.92200 25.78300
C  1.57900 11.48400 27.12300
C  1.33800 10.13300 27.25800
C  1.67000 13.33800 25.18400
C  1.90400 11.98300 28.42400
O  2.26000 13.14400 28.71200
C  1.76400 10.83000 29.43400
C  2.93800 10.71800 30.34800
O  3.97500 10.13000 30.18300
O  2.63900 11.55000 31.37800
C  3.79100 11.74200 32.33800
H  0.19300 4.13400 28.77400
H  -0.06500 5.06800 22.22500
H  0.94600 11.17300 23.07300
H  2.16000 8.07200 30.84000
H  0.42600 5.91100 30.84800
H  2.72600 4.76900 29.56200
H  2.23900 4.69200 31.16500
H  3.27400 6.06900 30.75000
H  -0.78200 7.68800 31.25400
H  -0.56900 9.11700 30.49300
H  -0.68100 8.91700 33.04200
H  0.62900 10.05700 32.51400
H  -1.37000 1.85400 27.35500
H  0.26900 2.37100 27.83000
H  0.07300 1.26400 26.41800
H  -0.86700 0.37600 22.94200
H  -1.72000 0.90100 24.40500
H  0.12900 0.57200 24.40400
H  -0.93800 7.32800 21.06500
H  1.27800 9.28200 21.21500
H  1.89900 6.56200 20.87400
H  1.32000 7.56900 19.68500
H  0.36500 6.21300 19.88200
H  -1.01800 10.89100 21.97800
H  -1.55400 9.58300 20.79800
H  -0.49000 10.82200 19.21600
H  0.85800 11.17200 20.25500
H  -0.44700 12.26300 20.49200
H  1.54200 13.41500 24.10400
H  2.64600 13.74600 25.44800
H  0.89900 13.98100 25.60800
H  0.89400 11.12700 30.02100
H  4.69400 11.39700 31.83400
H  3.68500 11.12600 33.23100
H  3.91900 12.79400 32.59200
Mg -11.24800 16.31800 42.55000
C  -8.02000 16.96600 42.89300
C  -11.97100 19.44000 41.65000
C  -14.42000 15.37900 42.24000
C  -10.40400 12.81800 42.40300
N  -10.17200 17.96100 42.05400
C  -8.79600 18.00000 42.31000
C  -8.32500 19.41700 42.05300
C  -9.62700 20.25700 41.82500
C  -10.67500 19.17400 41.85800
C  -9.92700 21.38400 42.86100
C  -7.34800 19.57000 40.83600
C  -6.20200 20.56500 40.93600
H  -4.90600 20.00200 40.39100
N  -13.04400 17.29600 42.07200
C  -13.12900 18.59500 41.76700
C  -14.50400 18.98800 41.57700
C  -15.26300 17.79500 41.74700
C  -14.29100 16.75400 41.96400
C  -14.97700 20.42300 41.40800
C  -16.77800 17.73600 41.58000
O  -17.42700 18.76500 41.35400
C  -17.56300 16.49200 41.81800
N  -12.28000 14.32300 42.18200
C  -13.57300 14.28400 42.39800
C  -13.97900 12.85600 42.71100
C  -12.77700 12.12500 42.07600
C  -11.69400 13.11300 42.18900
C  -14.22200 12.43400 44.13300
C  -13.06300 11.56900 40.73000
C  -13.51800 10.07500 40.63600
N  -9.56200 15.11000 42.77600
C  -9.40200 13.68900 42.75100
C  -7.99500 13.42000 43.03700
C  -7.43600 14.70100 43.19200
C  -8.44600 15.68800 43.06600
C  -7.30100 12.04300 43.12000
C  -6.17500 15.50800 43.55600
O  -5.01700 15.10900 43.83600
C  -6.64000 16.98400 43.36800
C  -6.50200 17.71800 44.64200
O  -7.08800 17.36000 45.63300
O  -5.72800 18.84700 44.51700
C  -5.36900 19.36600 45.85500
H  -12.21300 20.49500 41.50800
H  -15.45400 15.07700 42.41700
H  -10.24900 11.74000 42.47600
H  -7.83100 19.77200 42.95700
H  -9.76800 20.76600 40.87100
H  -10.40200 20.98100 43.75500
H  -10.55300 22.15300 42.40900
H  -9.06700 21.93300 43.24500
H  -7.87500 19.90500 39.94200
H  -6.99700 18.57000 40.58200
H  -5.99200 20.73000 41.99200
H  -6.41900 21.52200 40.46100
H  -14.14600 21.12600 41.34600
H  -15.55900 20.58500 42.31500
H  -15.49200 20.58400 40.46100
H  -18.64100 16.65600 41.81100
H  -17.24300 16.17400 42.81000
H  -17.30500 15.73200 41.08100
H  -14.91300 12.68700 42.17600
H  -12.54000 11.25900 42.69400
H  -15.22700 12.03600 44.27000
H  -14.00900 13.21000 44.86700
H  -13.60100 11.59400 44.44600
H  -12.11800 11.57900 40.18700
H  -13.81900 12.23200 40.30900
H  -13.11800 9.65900 41.56000
H  -13.22300 9.50600 39.75500
H  -14.60600 10.12300 40.58000
H  -8.10500 11.30800 43.16500
H  -6.76100 11.97200 44.06400
H  -6.73000 11.79300 42.22500
H  -5.83800 17.41500 42.76800
H  -4.87600 18.64100 46.50200
H  -6.22600 19.84100 46.33300
H  -4.60800 20.12400 45.67000

