158

Mg 47.31300 25.18300 29.15800
C  48.06600 27.58700 31.58700
C  46.19100 23.11100 31.67300
C  46.81400 22.76000 26.96100
C  49.09400 27.01600 26.80700
N  47.01600 25.39500 31.37800
C  47.43500 26.46400 32.15300
C  47.14900 26.16000 33.60100
C  46.84200 24.65500 33.59900
C  46.67000 24.33200 32.12300
C  47.87500 23.78900 34.29100
C  45.99300 27.00800 34.18000
C  46.31100 27.68000 35.52200
H  46.68200 26.84800 36.73400
N  46.28000 23.35300 29.24100
C  45.93600 22.63100 30.39000
C  45.33300 21.37200 29.96600
C  45.34300 21.31400 28.56200
C  46.14200 22.53200 28.20400
C  44.68000 20.47600 30.89500
C  44.88500 20.29800 27.65200
O  45.20400 20.21600 26.48800
C  43.91300 19.21300 28.17500
N  47.90500 24.85800 27.18800
C  47.55500 23.79100 26.44700
C  48.15400 23.90400 25.00200
C  48.44600 25.42400 24.95900
C  48.65200 25.75700 26.41200
C  49.43000 23.05000 24.67800
C  47.37700 26.25100 24.16900
C  47.86700 26.90500 22.90700
N  48.56300 26.85600 29.14600
C  49.22600 27.54700 28.05600
C  49.67600 28.81100 28.61700
C  49.27500 28.84700 29.97700
C  48.52000 27.67600 30.20600
C  50.18300 29.89600 27.81800
C  49.23900 29.64300 31.14300
O  49.66700 30.75300 31.40900
C  48.49100 28.90400 32.26000
C  49.45600 28.66000 33.24700
O  50.41900 27.94400 33.17800
O  49.02500 29.41500 34.35500
C  49.83500 29.51100 35.59200
H  45.90000 22.38100 32.43200
H  46.66900 21.98200 26.20800
H  49.58500 27.63900 26.05600
H  48.02700 26.37300 34.21200
H  45.88700 24.43200 34.07400
H  48.80500 24.27500 34.58400
H  48.11200 22.99000 33.58900
H  47.44400 23.41200 35.21800
H  45.09100 26.41000 34.31100
H  45.84000 27.86500 33.52500
H  45.39300 28.22600 35.74100
H  47.11700 28.40100 35.38700
H  43.63000 20.39600 30.61500
H  44.62700 20.95300 31.87300
H  45.18600 19.51900 31.02000
H  44.02900 18.68700 29.12300
H  43.74500 18.44800 27.41700
H  43.01100 19.82500 28.21800
H  47.40500 23.58000 24.28000
H  49.41300 25.66900 24.52000
H  49.96400 22.92200 25.62000
H  50.05400 23.70700 24.07200
H  49.33800 22.10300 24.14600
H  47.14900 27.05800 24.86500
H  46.51600 25.62000 23.94500
H  47.45100 26.32000 22.08700
H  48.94700 26.92600 22.76200
H  47.41200 27.89400 22.95900
H  50.24000 30.78500 28.44600
H  49.69400 30.29000 26.92700
H  51.22800 29.66500 27.61200
H  47.74500 29.65800 32.50900
H  49.32000 29.15800 36.48600
H  50.07400 30.54300 35.85100
H  50.76200 29.00000 35.33400
Mg 9.65200 47.20800 26.74700
C  7.83100 47.03000 29.67400
C  12.34300 48.45200 28.60100
C  11.40600 47.59400 23.91300
C  6.73700 46.80700 24.85300
N  10.05000 47.55700 28.86300
C  9.21500 47.32600 29.90300
C  9.75300 47.72900 31.24400
C  11.09100 48.55200 30.89500
C  11.15800 48.29100 29.33900
C  11.02900 50.10600 31.05100
C  10.00800 46.60200 32.23400
C  9.75500 46.96300 33.74600
H  10.03900 45.77900 34.70900
N  11.59000 47.65900 26.38200
C  12.55700 48.18700 27.20500
C  13.79000 48.28700 26.49500
C  13.56100 47.94200 25.18700
C  12.14500 47.68800 25.10500
C  15.08300 48.70500 27.17600
C  14.49600 47.83000 24.08800
O  14.02100 47.47100 23.03100
C  15.98700 48.11500 24.22400
N  9.14200 47.24500 24.61400
C  10.04700 47.45200 23.66400
C  9.47300 47.33500 22.27700
C  7.89500 47.16500 22.59600
C  7.89500 47.06500 24.13500
C  9.87300 48.57600 21.43900
C  7.11700 45.97800 21.83900
C  7.14900 44.62200 22.59400
N  7.62100 46.82500 27.16800
C  6.53200 46.73700 26.27400
C  5.34100 46.59700 27.08700
C  5.78000 46.79000 28.39500
C  7.23600 46.84300 28.43300
C  3.92800 46.39200 26.57400
C  5.33400 46.76400 29.82600
O  4.20700 46.50200 30.26500
C  6.68900 46.87200 30.65800
C  6.86400 45.62900 31.53400
O  6.90100 44.45700 31.13500
O  6.66400 45.86800 32.85300
C  6.34900 44.68700 33.71500
H  13.13900 49.11400 28.94800
H  11.86800 47.89400 22.97000
H  5.83400 46.68900 24.25000
H  9.12200 48.47500 31.72800
H  11.94400 48.08600 31.38900
H  11.16600 50.48400 30.03800
H  11.86000 50.39300 31.69600
H  10.06600 50.52200 31.34600
H  11.02400 46.21100 32.27500
H  9.26200 45.83500 32.02400
H  8.71200 47.27800 33.77900
H  10.27200 47.84500 34.12200
H  15.09900 48.54300 28.25400
H  15.39300 49.73900 27.02800
H  15.93300 48.08300 26.89600
H  16.44000 48.36900 23.26500
H  16.56700 47.30500 24.66500
H  16.03000 49.00300 24.85400
H  9.94200 46.51000 21.74100
H  7.36700 48.05600 22.25600
H  10.61800 49.23600 21.88300
H  9.04200 49.25100 21.23300
H  10.29800 48.24100 20.49300
H  7.65300 45.82000 20.90300
H  6.09500 46.27600 21.60200
H  6.20600 44.49800 23.12700
H  7.93500 44.54400 23.34400
H  7.31300 43.79400 21.90300
H  3.93600 46.62000 25.50900
H  3.23500 47.10800 27.01700
H  3.59400 45.38800 26.83700
H  6.63900 47.65700 31.41300
H  7.28100 44.12400 33.73900
H  5.57800 44.10900 33.20500
H  6.10400 44.99700 34.73100

