158

Mg 43.30100 41.93000 26.65100
C  42.24900 44.17000 29.01800
C  44.20100 39.72200 29.01200
C  44.08400 39.85800 24.18200
C  42.97900 44.55500 24.22200
N  43.24000 41.96400 28.73200
C  42.62400 42.96000 29.53300
C  42.68900 42.56900 31.06000
C  43.51300 41.23400 31.02500
C  43.66100 40.95900 29.50500
C  44.90300 41.31200 31.67900
C  41.25100 42.37800 31.71200
C  40.97300 43.28100 32.94100
H  40.20100 42.70200 34.08200
N  44.04600 40.03200 26.57000
C  44.38100 39.25500 27.72800
C  44.84000 38.03500 27.31400
C  44.93000 38.04400 25.87800
C  44.31900 39.33300 25.46900
C  45.12400 36.91100 28.20900
C  45.46700 36.93500 24.93500
O  45.46100 37.12900 23.72600
C  45.96700 35.59200 25.33700
N  43.60500 42.21900 24.51000
C  43.82400 41.11100 23.73700
C  43.85800 41.51400 22.26600
C  43.38200 43.01100 22.21200
C  43.34800 43.30500 23.71900
C  45.28900 41.35900 21.67900
C  42.00400 43.23400 21.45300
C  42.16000 43.99400 20.07700
N  42.76300 43.94900 26.58800
C  42.71500 44.86100 25.54800
C  42.22600 46.12100 26.09900
C  42.00200 45.90200 27.40100
C  42.34600 44.57100 27.66900
C  41.99400 47.29600 25.35800
C  41.50200 46.47000 28.59000
O  40.93000 47.51500 28.81800
C  41.68000 45.41800 29.67600
C  42.62100 45.91000 30.79400
O  43.82900 46.11600 30.64600
O  41.98700 46.08700 32.01600
C  42.92900 46.46000 33.16400
H  44.41100 38.99300 29.79800
H  44.46500 39.16900 23.42500
H  42.67200 45.34100 23.52900
H  43.12800 43.42900 31.56500
H  42.88600 40.39200 31.31800
H  45.70500 41.39500 30.94500
H  44.89600 40.31200 32.11300
H  44.97500 42.08200 32.44600
H  40.96700 41.34700 31.91900
H  40.43500 42.69800 31.06400
H  40.55000 44.21600 32.57300
H  41.91200 43.47800 33.45900
H  44.53500 36.02600 27.96800
H  44.82500 37.09700 29.24000
H  46.17900 36.66200 28.09500
H  46.65800 35.17700 24.60300
H  45.19900 34.82400 25.42700
H  46.61000 35.51100 26.21400
H  43.14400 40.95300 21.66300
H  44.18400 43.59800 21.76500
H  45.68200 42.25200 21.19400
H  45.40800 40.51600 20.99900
H  46.05200 41.13700 22.42500
H  41.33600 43.69600 22.18000
H  41.62100 42.23400 21.25300
H  41.25300 44.57200 19.89900
H  42.41600 43.44600 19.17000
H  42.97500 44.69900 20.23800
H  41.22300 47.08700 24.61700
H  42.91200 47.60200 24.85500
H  41.76900 48.09900 26.06100
H  40.72800 45.19200 30.15700
H  42.69800 47.41500 33.63500
H  43.98200 46.52100 32.88700
H  42.75000 45.71300 33.93700
Mg 16.94700 51.67300 26.51600
C  18.91900 50.27200 29.16500
C  14.63000 52.45300 28.85500
C  15.25200 53.01400 24.08700
C  19.55400 50.64300 24.34600
N  16.84000 51.41500 28.75700
C  17.78800 50.89700 29.67600
C  17.21700 50.80900 31.08000
C  15.75600 51.43700 30.89400
C  15.71800 51.77600 29.39800
C  14.55700 50.49000 31.25700
C  18.09300 51.43500 32.14000
C  18.09000 50.77200 33.49700
H  17.23300 51.28800 34.67500
N  15.18100 52.54700 26.49200
C  14.33000 52.82800 27.59200
C  13.17000 53.47600 27.15700
C  13.22600 53.69600 25.74800
C  14.63200 53.10700 25.39700
C  12.06900 53.88900 28.09100
C  12.34600 54.31900 24.69900
O  12.71700 54.52700 23.54700
C  10.93100 54.57200 25.23100
N  17.32700 51.71600 24.52600
C  16.44400 52.39600 23.73000
C  16.91200 52.28800 22.25600
C  18.26800 51.66100 22.38600
C  18.41000 51.31300 23.83900
C  15.94100 51.44000 21.48100
C  19.51000 52.37000 21.68100
C  20.24800 53.44300 22.45300
N  18.73600 50.53000 26.62200
C  19.74500 50.29400 25.69100
C  20.83800 49.70800 26.29700
C  20.53600 49.59700 27.57600
C  19.28200 50.16100 27.80600
C  22.07500 49.22300 25.59000
C  21.05200 49.07700 28.82800
O  22.01600 48.39300 29.02600
C  20.06200 49.62900 29.96800
C  19.69300 48.51600 30.88800
O  19.23000 47.48300 30.50700
O  20.23400 48.75200 32.11500
C  20.18900 47.66900 33.04200
H  13.94200 52.71800 29.66000
H  14.70500 53.39400 23.22200
H  20.33400 50.29500 23.66500
H  17.02200 49.76700 31.33500
H  15.72900 52.34700 31.49300
H  13.78400 51.10100 31.72200
H  14.86800 49.75000 31.99500
H  14.19700 49.83600 30.46200
H  17.66700 52.40200 32.40700
H  19.12500 51.57600 31.82100
H  19.13400 50.82200 33.80700
H  17.84400 49.72500 33.32000
H  12.42000 53.93700 29.12200
H  11.32900 53.09800 27.97000
H  11.65100 54.87900 27.90500
H  10.27400 54.60900 24.36200
H  10.88700 55.54500 25.72000
H  10.54400 53.86800 25.96700
H  16.93800 53.25900 21.76100
H  18.27800 50.69900 21.87300
H  15.78700 51.96000 20.53600
H  14.98700 51.25400 21.97400
H  16.40800 50.50200 21.18000
H  19.17200 52.90300 20.79200
H  20.26500 51.65200 21.36300
H  20.09200 54.43400 22.02500
H  21.30900 53.22800 22.32900
H  19.98100 53.45200 23.51000
H  21.85300 48.37800 24.93800
H  22.82200 48.76900 26.24100
H  22.43100 50.05400 24.98000
H  20.52300 50.41600 30.56500
H  21.14100 47.68800 33.57300
H  20.02600 46.68600 32.60000
H  19.42500 47.85000 33.79800

