158

Mg 45.60200 4.41200 47.37000
C  43.44100 7.11500 46.70600
C  43.05100 2.30200 46.79500
C  47.85100 1.76600 47.14800
C  48.36000 6.56700 47.09600
N  43.48700 4.69900 46.76100
C  42.77300 5.88600 46.67100
C  41.31200 5.62500 46.28300
C  41.14800 4.16900 46.68400
C  42.66100 3.66800 46.72000
C  40.30100 4.09100 47.94600
C  41.01900 5.98100 44.77000
C  39.96400 7.13200 44.65800
H  40.24600 8.23600 43.56300
N  45.45600 2.26200 47.22800
C  44.31000 1.62100 46.99100
C  44.54800 0.26300 47.02100
C  45.94200 0.05100 47.17100
C  46.49800 1.42800 47.17200
C  43.39500 -0.70700 47.10000
C  46.67900 -1.38000 47.17600
O  45.94200 -2.41100 47.04100
C  48.19600 -1.64100 47.40400
N  47.83700 4.13900 46.75500
C  48.46600 2.98200 47.08300
C  50.02700 3.16800 47.18700
C  50.10800 4.68400 47.06900
C  48.69700 5.21400 46.92400
C  50.83000 2.55500 48.36500
C  50.83000 5.09700 45.72300
C  52.38000 5.04900 45.62200
N  45.91700 6.35500 47.06200
C  47.06500 7.14100 47.02000
C  46.74300 8.54300 46.92200
C  45.30600 8.56900 46.86800
C  44.82900 7.17900 46.96100
C  47.76100 9.61600 46.64400
C  44.23900 9.47000 46.65200
O  44.17800 10.71600 46.49600
C  42.89300 8.55000 46.51500
C  41.98600 8.90200 47.64800
O  42.11600 8.47900 48.79400
O  40.85200 9.45000 47.03600
C  39.78200 9.85500 47.98400
H  42.31000 1.51200 46.65800
H  48.46900 0.87000 47.05800
H  49.21100 7.19800 47.36100
H  40.79100 6.30000 46.96200
H  40.55600 3.54500 46.01400
H  41.02200 3.89700 48.73900
H  39.63900 3.22500 47.95900
H  39.68900 4.93100 48.27600
H  40.85300 5.08700 44.16900
H  41.93600 6.37400 44.33200
H  39.73400 7.50100 45.65800
H  39.04600 6.63400 44.34800
H  43.37100 -1.27300 46.16900
H  42.42400 -0.30200 47.38500
H  43.68600 -1.30300 47.96500
H  48.48100 -1.16700 48.34300
H  48.65000 -1.24700 46.49400
H  48.34200 -2.71400 47.52900
H  50.30600 2.65900 46.26500
H  50.74600 5.11700 47.84000
H  50.10300 2.32100 49.14200
H  51.63700 3.10800 48.84600
H  51.22300 1.59900 48.01800
H  50.54900 6.13000 45.51900
H  50.37400 4.59200 44.87100
H  52.52800 4.18100 44.98100
H  52.77500 4.89700 46.62700
H  52.71900 5.94700 45.10600
H  48.76700 9.21400 46.52000
H  47.73800 10.29800 47.49400
H  47.56300 10.20400 45.74700
H  42.48600 8.69300 45.51400
H  40.07800 9.81500 49.03200
H  38.80600 9.41600 47.77700
H  39.59600 10.92100 47.85000
Mg 17.08700 52.42700 26.47100
C  18.93600 50.81200 28.78800
C  14.86400 53.32600 28.87600
C  15.21700 53.96100 24.06500
C  19.26200 51.28500 24.01000
N  16.98400 52.15900 28.62000
C  17.84000 51.48500 29.37600
C  17.39200 51.42400 30.92600
C  15.86700 51.85400 30.74900
C  15.92300 52.61600 29.33000
C  14.83500 50.77800 30.87400
C  18.36000 52.37500 31.66300
C  18.39300 52.32600 33.20100
H  17.28300 51.52900 33.93400
N  15.21100 53.34700 26.45600
C  14.51600 53.70000 27.60900
C  13.42700 54.50600 27.30600
C  13.49200 54.66000 25.85400
C  14.68300 54.03600 25.39700
C  12.26100 54.84300 28.29400
C  12.46500 55.30400 24.83200
O  12.66100 55.51400 23.66700
C  11.12600 55.89000 25.31800
N  17.13100 52.45400 24.30700
C  16.27300 53.21900 23.53000
C  16.61100 53.10800 22.06700
C  17.87700 52.20000 22.06600
C  18.14800 52.00900 23.59400
C  15.46300 52.64300 21.20900
C  19.02600 52.70200 21.20500
C  19.67800 53.96500 21.80100
N  18.80200 51.31200 26.33600
C  19.56500 50.86200 25.27500
C  20.63900 50.05800 25.74200
C  20.38600 49.93000 27.09500
C  19.30400 50.82000 27.41200
C  21.71800 49.34700 24.93700
C  20.84300 49.33600 28.30600
O  21.71600 48.51900 28.47700
C  20.00700 49.95600 29.46700
C  19.46200 48.86300 30.38500
O  18.65500 48.01100 30.03700
O  19.93800 49.05700 31.61500
C  19.41800 48.06900 32.53800
H  14.10300 53.59000 29.61300
H  14.72000 54.61700 23.34700
H  19.95300 50.97100 23.22500
H  17.48300 50.38900 31.25500
H  15.72300 52.46900 31.63800
H  14.38300 50.80700 31.86600
H  15.38100 49.88000 30.58700
H  14.04800 50.92700 30.13500
H  18.08200 53.41800 31.51400
H  19.38000 52.26800 31.29500
H  18.43600 53.26000 33.76200
H  19.41800 52.06900 33.46600
H  11.57100 54.05400 28.59400
H  11.52800 55.56800 27.94100
H  12.74200 55.27400 29.17200
H  10.69500 55.09000 25.92100
H  10.56400 56.24800 24.45500
H  11.31400 56.69000 26.03300
H  16.78200 54.13200 21.73300
H  17.68000 51.20600 21.66600
H  15.64300 51.76800 20.58500
H  15.23600 53.32400 20.38900
H  14.55800 52.45900 21.78900
H  18.53300 53.04400 20.29500
H  19.71400 51.90200 20.93000
H  19.67900 54.80000 21.09900
H  20.71800 53.65500 21.90600
H  19.28600 54.24300 22.77900
H  21.37100 49.16100 23.92100
H  21.94800 48.42100 25.46500
H  22.62000 49.95900 24.91200
H  20.64800 50.65600 30.00300
H  19.57200 48.48500 33.53400
H  19.92400 47.10500 32.47900
H  18.33500 48.08400 32.41300

