158

Mg 46.92900 16.58300 28.10600
C  44.82600 16.17300 30.96800
C  49.05500 18.43500 30.20600
C  48.66200 17.39600 25.39500
C  44.45300 14.92900 26.25900
N  47.00700 17.01300 30.43600
C  46.05000 16.79300 31.31900
C  46.34000 17.33600 32.66100
C  47.60500 18.30500 32.36900
C  47.94000 17.87300 30.92200
C  47.57100 19.91500 32.57500
C  46.68400 16.24200 33.75400
C  46.40000 16.58600 35.30700
H  46.11900 18.02800 35.70300
N  48.62900 17.65800 27.83000
C  49.37800 18.37600 28.79500
C  50.60800 18.89300 28.23400
C  50.45400 18.67300 26.82500
C  49.21000 17.85000 26.65800
C  51.80200 19.42300 28.95400
C  51.38000 19.13000 25.68300
O  51.16000 18.84000 24.50200
C  52.63200 20.07100 25.92700
N  46.60600 16.15500 26.12700
C  47.48900 16.61300 25.14900
C  47.09900 16.19700 23.78400
C  46.01200 15.14300 24.10900
C  45.61000 15.42200 25.58400
C  46.56100 17.38200 23.02600
C  46.53200 13.73100 23.92800
C  45.56500 12.76000 23.24600
N  45.03600 15.68600 28.44700
C  44.15200 15.09300 27.63500
C  42.97000 14.63000 28.31200
C  43.19100 15.02800 29.62600
C  44.48200 15.65200 29.70500
C  41.73000 14.07900 27.58200
C  42.56700 15.13000 30.98400
O  41.49500 14.79000 31.42200
C  43.68700 15.82000 31.89900
C  43.02300 16.96300 32.52900
O  42.94400 18.12800 32.05600
O  42.50400 16.49300 33.70300
C  41.69400 17.44000 34.47700
H  49.70700 19.10000 30.77600
H  49.21800 17.61500 24.48100
H  43.76000 14.31600 25.67800
H  45.51600 17.97300 32.98100
H  48.34400 17.85100 33.02900
H  46.68700 20.40600 32.98100
H  47.50600 20.39700 31.60000
H  48.40000 20.21200 33.21800
H  47.69800 15.84700 33.69500
H  46.11300 15.36900 33.43600
H  47.20300 16.39700 36.02000
H  45.62600 15.92900 35.70200
H  52.57200 19.88400 28.33500
H  52.18300 18.58800 29.54200
H  51.42800 20.21700 29.60100
H  52.33000 20.98100 26.44600
H  52.92300 20.41200 24.93400
H  53.44400 19.47200 26.33900
H  47.98900 15.77600 23.31800
H  45.12700 15.36300 23.51200
H  47.42500 17.58300 22.39200
H  46.27100 18.25700 23.60800
H  45.73200 17.06000 22.39500
H  46.68900 13.27300 24.90500
H  47.48700 13.72000 23.40100
H  45.47100 11.87200 23.87100
H  45.94000 12.48200 22.26200
H  44.60900 13.27200 23.13500
H  41.25100 13.28300 28.15400
H  42.02000 13.59700 26.64900
H  41.02300 14.87100 27.33300
H  44.12500 15.09000 32.58000
H  42.35500 18.05100 35.09000
H  40.98800 16.96900 35.16100
H  41.07900 18.09700 33.86200
Mg -5.46900 25.21200 25.77900
C  -3.85000 26.52900 28.72800
C  -7.02200 23.04200 27.95300
C  -6.72700 23.84500 23.14800
C  -3.21600 27.06600 23.95600
N  -5.38200 24.87900 28.06800
C  -4.85200 25.59200 29.05400
C  -5.46400 25.30800 30.39500
C  -6.18900 24.00400 30.11200
C  -6.09000 23.80800 28.59000
C  -5.71400 22.79800 30.93300
C  -6.36500 26.53000 30.93300
C  -6.22700 26.94600 32.32600
H  -5.66400 25.88400 33.33500
N  -6.75300 23.68400 25.57400
C  -7.33400 22.95400 26.57300
C  -8.34200 22.01600 25.99800
C  -8.30200 22.22500 24.57500
C  -7.25300 23.29200 24.36500
C  -9.15400 21.02200 26.76000
C  -9.12700 21.69300 23.42800
O  -9.00600 22.03600 22.24200
C  -10.21000 20.77400 23.84300
N  -5.00900 25.47100 23.86200
C  -5.72300 24.78800 22.93100
C  -5.19600 25.08200 21.54800
C  -4.16100 26.31000 21.73000
C  -4.13400 26.27400 23.27600
C  -4.64700 23.85000 20.98300
C  -4.54300 27.68100 21.15900
C  -3.40600 28.37600 20.44000
N  -3.84400 26.51800 26.22200
C  -3.07800 27.20300 25.33600
C  -2.06700 28.08300 26.00900
C  -2.32500 27.85400 27.36000
C  -3.40700 26.86400 27.44300
C  -1.27200 29.16400 25.29700
C  -2.00700 28.23900 28.70300
O  -1.20200 29.09900 29.06800
C  -2.94200 27.41600 29.59900
C  -1.99000 26.57100 30.40500
O  -1.40200 25.58300 30.04700
O  -1.87800 27.13100 31.64500
C  -0.92300 26.43400 32.52000
H  -7.68700 22.46500 28.59800
H  -7.22900 23.46200 22.25700
H  -2.56600 27.68100 23.33000
H  -4.75200 24.95200 31.13900
H  -7.22700 24.22400 30.36100
H  -4.89000 22.27700 30.44500
H  -6.58300 22.14100 30.92600
H  -5.45700 22.89400 31.98800
H  -7.39200 26.20400 30.77300
H  -6.23200 27.45900 30.37800
H  -7.19700 27.29600 32.67900
H  -5.54100 27.78800 32.23000
H  -10.13200 21.41600 27.03800
H  -8.60800 20.73600 27.65900
H  -9.19900 20.08100 26.21300
H  -9.60200 19.94400 24.20300
H  -10.72400 20.38800 22.96300
H  -10.91900 21.16200 24.57300
H  -5.93600 25.33800 20.78900
H  -3.15500 26.01100 21.43500
H  -3.58000 24.03600 20.86500
H  -5.13600 23.57000 20.04900
H  -4.64500 23.06000 21.73400
H  -4.81800 28.23200 22.05800
H  -5.35000 27.56400 20.43700
H  -2.63200 27.66400 20.15500
H  -2.99200 29.14300 21.09400
H  -3.87400 28.79800 19.55000
H  -1.93800 29.92400 24.88800
H  -0.63500 28.67100 24.56300
H  -0.78400 29.75000 26.07600
H  -3.57600 28.10700 30.15500
H  -1.22200 25.38700 32.46500
H  -0.88700 26.62200 33.59300
H  0.05900 26.44900 32.04800

