158

Mg 42.35300 41.06300 26.18400
C  41.48600 43.37300 28.69100
C  43.62200 39.04600 28.71600
C  43.46200 38.95800 23.91500
C  41.30600 43.27100 23.85200
N  42.55100 41.34000 28.50900
C  42.10100 42.27700 29.31900
C  42.31700 41.94800 30.87200
C  43.05500 40.57300 30.75500
C  43.02700 40.23100 29.28400
C  44.54000 40.51000 31.31900
C  40.88500 41.82400 31.64200
C  40.59300 42.71900 32.85100
H  39.95800 41.98900 34.06200
N  43.51500 39.28400 26.26900
C  43.89200 38.62500 27.39600
C  44.54900 37.40800 27.02000
C  44.52600 37.34100 25.59900
C  43.86100 38.58100 25.19800
C  44.97800 36.44600 28.15700
C  45.09800 36.20600 24.71900
O  44.86800 36.11900 23.52100
C  45.74500 34.92900 25.29600
N  42.49100 41.16700 24.10300
C  42.84500 40.10500 23.35300
C  42.35700 40.28600 21.88100
C  41.82400 41.78500 21.84200
C  41.83500 42.05700 23.36000
C  43.42500 39.97200 20.75300
C  40.43000 41.81800 21.21300
C  40.17500 43.10200 20.38700
N  41.58000 43.01700 26.17700
C  41.19400 43.81800 25.10100
C  40.69400 45.04800 25.59600
C  40.83900 44.96100 26.92400
C  41.36100 43.63000 27.30700
C  40.14700 46.11800 24.66000
C  40.59200 45.62000 28.17900
O  40.10200 46.71600 28.36800
C  41.01700 44.64200 29.35500
C  42.06400 45.40100 30.14200
O  43.23500 45.55800 29.84200
O  41.46900 45.80100 31.23700
C  42.45600 46.34800 32.21800
H  44.00100 38.46200 29.55800
H  43.47700 38.22900 23.10200
H  40.85700 43.78100 22.99700
H  42.83600 42.82900 31.25000
H  42.47700 39.80300 31.26600
H  44.66200 41.41900 31.91000
H  45.28000 40.60100 30.52400
H  44.89300 39.66200 31.90600
H  40.79000 40.80400 32.01300
H  40.10500 41.98800 30.89800
H  39.91200 43.51100 32.53800
H  41.54300 43.15900 33.15400
H  45.58500 37.14800 28.72800
H  45.56200 35.56000 27.90500
H  44.05100 36.17200 28.66000
H  46.05800 34.27500 24.48200
H  44.94300 34.55800 25.93500
H  46.58800 35.32600 25.86100
H  41.54400 39.56800 21.76500
H  42.49600 42.53700 21.42900
H  44.40300 39.95900 21.23400
H  43.47200 40.65700 19.90600
H  43.18200 39.02200 20.27600
H  39.70500 41.68700 22.01700
H  40.31700 40.98000 20.52600
H  39.16100 43.47400 20.53100
H  40.30900 42.82500 19.34100
H  40.88700 43.88800 20.64000
H  39.39000 45.68700 24.00400
H  40.99300 46.44100 24.05300
H  39.73000 46.92100 25.26800
H  40.10300 44.56500 29.94300
H  42.86100 45.64700 32.94800
H  41.91700 47.10500 32.78800
H  43.26500 46.88800 31.72600
Mg 0.57600 44.36300 26.32000
C  2.83400 44.27100 29.06300
C  -1.94900 43.70400 28.68700
C  -1.44500 43.80000 23.84000
C  3.35700 44.55100 24.21000
N  0.50000 44.01200 28.69200
C  1.52000 44.20500 29.56300
C  1.05500 44.05500 30.96100
C  -0.43900 43.57700 30.79200
C  -0.70800 43.78300 29.30300
C  -0.63400 42.07800 31.30400
C  1.23100 45.43300 31.72700
C  1.60400 45.41800 33.24300
H  1.06000 44.23000 34.04400
N  -1.48500 44.08800 26.23700
C  -2.32200 43.77100 27.34500
C  -3.63600 43.89200 26.88300
C  -3.60800 43.74900 25.41800
C  -2.16800 43.87600 25.11100
C  -4.86400 44.12000 27.82300
C  -4.75400 43.60000 24.42700
O  -4.59100 43.50300 23.25200
C  -6.18100 43.50700 25.03300
N  0.94900 43.96600 24.33500
C  -0.06500 43.86900 23.51500
C  0.47500 43.90500 22.05100
C  1.79700 44.68600 22.19200
C  2.07900 44.39000 23.67900
C  0.51400 42.51600 21.38600
C  1.70500 46.16300 21.91400
C  2.40000 46.60900 20.60000
N  2.63600 44.38700 26.50800
C  3.66300 44.49400 25.57200
C  4.94800 44.63800 26.16000
C  4.63900 44.48800 27.52800
C  3.24600 44.35800 27.70800
C  6.26300 44.67300 25.47200
C  5.29500 44.48600 28.81000
O  6.47200 44.51400 29.09300
C  4.14000 44.25300 29.85000
C  4.33900 43.01400 30.70800
O  4.47800 41.90200 30.22200
O  4.22000 43.28200 32.02000
C  4.32900 42.14300 32.98600
H  -2.65600 43.39900 29.46100
H  -2.10200 43.74100 22.97000
H  4.17400 44.92700 23.59100
H  1.54600 43.24100 31.49600
H  -1.16100 44.09900 31.42000
H  0.26900 41.47500 31.40400
H  -1.22600 41.50900 30.58700
H  -1.21400 42.22700 32.21500
H  0.32000 46.00000 31.53400
H  1.94300 45.99500 31.12300
H  1.12700 46.33300 33.59300
H  2.68300 45.55000 33.32600
H  -5.47900 43.22900 27.95500
H  -5.49300 44.89400 27.38500
H  -4.61200 44.60500 28.76700
H  -6.24100 42.93600 25.96000
H  -6.73500 42.82100 24.39200
H  -6.68700 44.47200 25.04700
H  -0.26600 44.47500 21.48900
H  2.52800 44.15600 21.58200
H  -0.11500 41.81400 21.93300
H  1.47900 42.02200 21.49500
H  0.23800 42.66200 20.34100
H  2.06100 46.74600 22.76300
H  0.72400 46.58300 21.69300
H  3.15800 47.35800 20.83100
H  1.69900 47.16900 19.98100
H  2.98600 45.88800 20.03100
H  6.13600 45.52100 24.79900
H  6.55200 43.73600 24.99600
H  7.01500 44.96500 26.20500
H  4.05100 45.10600 30.52300
H  5.25300 41.59000 32.81600
H  3.48900 41.46300 32.83800
H  4.41200 42.54900 33.99300

