158

Mg -1.52100 18.14500 27.44000
C  -2.07700 16.07900 30.17000
C  -2.11600 20.84000 29.46000
C  -0.86400 20.02900 24.80200
C  -1.58400 15.31400 25.33400
N  -2.03000 18.38000 29.70300
C  -2.13000 17.41200 30.64000
C  -2.43400 18.07200 31.99200
C  -2.56100 19.56600 31.56200
C  -2.31200 19.62200 30.10700
C  -3.91800 20.30600 31.98800
C  -1.28400 17.88600 33.05600
C  -1.88300 17.43800 34.39500
H  -0.92700 17.37800 35.54300
N  -1.37000 20.14100 27.23400
C  -1.69500 21.04600 28.11900
C  -1.61700 22.33900 27.48000
C  -1.07500 22.18600 26.19200
C  -1.03000 20.69200 26.05900
C  -2.20300 23.56200 28.17100
C  -0.68400 23.23200 25.21700
O  -0.20700 23.02500 24.09900
C  -0.88400 24.64100 25.68400
N  -1.42000 17.73500 25.34700
C  -1.03200 18.70000 24.49100
C  -1.02900 18.15100 23.09900
C  -0.81600 16.65200 23.31500
C  -1.28400 16.55200 24.70400
C  -2.28700 18.42300 22.18400
C  0.67300 16.09300 23.14500
C  1.81700 16.89400 23.64900
N  -1.79700 16.12000 27.64000
C  -1.80300 15.08600 26.72100
C  -1.75800 13.83000 27.41200
C  -1.93100 14.15700 28.73500
C  -1.95700 15.54500 28.88100
C  -1.61600 12.49900 26.86900
C  -1.88500 13.56400 30.03500
O  -1.64400 12.41600 30.45500
C  -2.14700 14.79600 31.01200
C  -1.02100 14.67200 31.95700
O  0.18800 14.81800 31.71000
O  -1.42200 14.08000 33.18700
C  -0.36700 13.76000 34.18300
H  -2.16400 21.66200 30.17800
H  -0.57100 20.64200 23.94700
H  -1.53200 14.41300 24.71900
H  -3.38400 17.76400 32.42800
H  -1.79600 20.14100 32.08300
H  -4.76800 19.63000 31.90700
H  -4.06800 21.17100 31.34100
H  -3.94000 20.63200 33.02800
H  -0.73900 18.82700 33.13900
H  -0.59800 17.10300 32.73100
H  -2.24600 16.41800 34.27000
H  -2.68700 18.12100 34.66800
H  -1.41200 24.22700 28.51700
H  -2.78800 23.31600 29.05700
H  -2.83700 23.97000 27.38300
H  -1.90800 24.98900 25.54900
H  -0.19000 25.12600 24.99800
H  -0.50100 24.59900 26.70300
H  -0.11500 18.42300 22.57100
H  -1.47300 16.10800 22.63700
H  -1.97900 18.89500 21.25100
H  -2.82800 19.18300 22.74800
H  -3.01500 17.65400 21.92500
H  0.79200 15.86600 22.08600
H  0.80700 15.14300 23.66200
H  2.44200 17.21800 22.81700
H  2.34000 16.35000 24.43500
H  1.46000 17.73000 24.25100
H  -1.34100 12.57500 25.81700
H  -2.54300 11.93300 26.77000
H  -0.80700 11.98800 27.39000
H  -3.06800 14.67800 31.58400
H  -0.75900 13.71400 35.19900
H  0.41000 14.50900 34.33500
H  0.13900 12.87600 33.79400
Mg 41.63200 40.58500 27.03400
C  40.95200 43.23300 29.49900
C  42.52700 38.69700 29.54200
C  42.68200 38.60600 24.65500
C  40.98100 43.17500 24.46500
N  41.83000 41.02600 29.34400
C  41.41500 42.03000 30.09700
C  41.40000 41.71800 31.61900
C  42.04100 40.21000 31.55600
C  42.06500 39.91000 30.03800
C  43.43200 40.09600 32.29600
C  39.92400 41.87900 32.23300
C  39.74200 42.68500 33.50800
H  39.07000 42.04900 34.82400
N  42.49000 38.83700 27.14300
C  42.79100 38.16800 28.26200
C  43.31200 36.88600 27.91100
C  43.20500 36.75900 26.48700
C  42.78100 38.10800 26.03100
C  43.81500 35.91900 28.90900
C  43.45800 35.55700 25.57300
O  43.58400 35.66100 24.33000
C  43.53800 34.22400 26.25900
N  41.81700 40.88500 24.90900
C  42.15900 39.79600 24.16200
C  42.09200 40.09500 22.63300
C  41.58400 41.56000 22.60800
C  41.47300 41.91200 24.09700
C  43.51100 39.95200 22.00400
C  40.27500 41.64100 21.70400
C  40.32200 42.53500 20.55500
N  41.20400 42.77300 26.96900
C  40.86300 43.59900 25.85500
C  40.56300 44.93300 26.41800
C  40.52700 44.80400 27.84100
C  40.93600 43.51600 28.09300
C  40.11100 46.18600 25.60500
C  40.17700 45.47500 29.03100
O  39.78200 46.64700 29.16600
C  40.37600 44.48300 30.16700
C  41.33100 45.18300 31.13300
O  42.53900 45.26200 30.97500
O  40.71700 45.80600 32.14300
C  41.59900 46.55400 33.03000
H  42.62900 37.94000 30.32300
H  43.10700 37.90900 23.93000
H  40.67900 43.85900 23.66900
H  42.05500 42.45100 32.09200
H  41.31700 39.56600 32.05400
H  43.74900 41.04300 32.73300
H  44.10400 39.61400 31.58600
H  43.43500 39.38600 33.12300
H  39.39400 40.95100 32.44800
H  39.24100 42.29300 31.49100
H  39.06300 43.44600 33.12300
H  40.67500 43.10500 33.88400
H  43.11200 35.08600 28.90400
H  43.95900 36.28500 29.92600
H  44.76100 35.53000 28.53100
H  44.49900 33.97800 26.71100
H  43.30200 33.49100 25.48800
H  42.67500 34.15500 26.92200
H  41.38700 39.33500 22.29500
H  42.40400 42.11600 22.15400
H  44.19800 40.44700 22.69000
H  43.55900 40.41500 21.01900
H  44.01400 38.98700 21.93900
H  39.38900 41.91000 22.28000
H  39.95900 40.64900 21.38000
H  39.29600 42.88700 20.44100
H  40.59900 41.88800 19.72200
H  41.03900 43.32600 20.77200
H  39.02400 46.12000 25.54900
H  40.46800 46.24700 24.57700
H  40.33200 47.12200 26.11800
H  39.39900 44.33100 30.62600
H  41.96700 46.01400 33.90200
H  41.00900 47.36300 33.46000
H  42.45000 47.01200 32.52600

