158

Mg 24.43500 -5.20500 45.88400
C  26.87800 -3.42000 44.27800
C  22.12500 -3.99800 43.84800
C  22.29200 -7.69800 46.89600
C  27.01500 -6.96700 47.65200
N  24.56400 -3.96700 44.25100
C  25.61500 -3.21800 43.79800
C  25.15600 -2.29000 42.70000
C  23.60400 -2.26200 42.84700
C  23.42600 -3.48300 43.69200
C  22.87000 -1.13400 43.55600
C  25.69400 -2.69000 41.31500
C  26.18100 -1.50400 40.50500
H  27.01200 -1.75300 39.14800
N  22.45000 -5.77200 45.45300
C  21.62400 -5.04400 44.62400
C  20.30200 -5.65900 44.64600
C  20.34900 -6.84900 45.48200
C  21.76100 -6.78200 46.04000
C  19.17100 -5.11900 43.72800
C  19.21400 -7.72800 45.77400
O  18.09300 -7.48800 45.26200
C  19.23100 -8.70300 46.86400
N  24.67700 -7.01000 47.26000
C  23.63900 -7.87300 47.40400
C  24.13100 -9.14600 48.09100
C  25.42000 -8.62400 48.77400
C  25.72100 -7.45500 47.88500
C  23.22900 -9.90300 49.05300
C  26.52700 -9.78600 48.86300
C  27.06300 -10.03400 50.32100
N  26.57900 -5.24400 45.97000
C  27.47200 -5.92600 46.78800
C  28.79000 -5.36400 46.65800
C  28.70800 -4.43400 45.57600
C  27.31800 -4.37100 45.26900
C  30.03600 -5.63400 47.34300
C  29.41900 -3.49100 44.82500
O  30.61500 -3.17300 44.92200
C  28.31300 -2.72400 43.90200
C  28.28300 -1.28600 44.39800
O  28.16400 -0.93000 45.56500
O  28.36000 -0.42500 43.37200
C  28.11400 1.01600 43.80400
H  21.32800 -3.40700 43.39100
H  21.66100 -8.58200 47.01200
H  27.92900 -7.44300 48.01300
H  25.54000 -1.28300 42.86200
H  23.04300 -2.43600 41.92900
H  23.54500 -0.41800 44.02400
H  22.22000 -1.54200 44.33000
H  22.22900 -0.64200 42.82500
H  24.90100 -3.24900 40.81900
H  26.51100 -3.40000 41.43700
H  26.73700 -0.76300 41.07900
H  25.24100 -1.08700 40.14500
H  18.40400 -4.63100 44.32900
H  18.68600 -5.87300 43.10900
H  19.46600 -4.39600 42.96700
H  18.21400 -8.92600 47.18700
H  19.67900 -8.18300 47.71100
H  19.85100 -9.55300 46.57800
H  24.36500 -9.78500 47.23900
H  25.31100 -8.16700 49.75800
H  22.37700 -9.25000 49.24000
H  23.93200 -9.99800 49.88100
H  22.89300 -10.83900 48.60700
H  27.42600 -9.44900 48.34700
H  26.15900 -10.71600 48.42900
H  26.67000 -9.27200 50.99400
H  28.15200 -10.00500 50.37300
H  26.72800 -11.03300 50.59800
H  29.79700 -5.61000 48.40700
H  30.75700 -4.95600 46.88700
H  30.45400 -6.63900 47.30100
H  28.42600 -2.75200 42.81800
H  27.75600 1.56400 42.93300
H  28.94500 1.48700 44.32800
H  27.17500 1.10900 44.35000
Mg 16.76800 52.68800 26.71900
C  18.62400 51.00000 29.02600
C  14.28100 53.34200 29.04700
C  14.70500 53.94200 24.29400
C  18.95200 51.70600 24.22100
N  16.44300 52.12100 28.74900
C  17.42900 51.53000 29.55500
C  17.06900 51.73600 31.04000
C  15.56800 52.14400 30.96300
C  15.36400 52.57400 29.45800
C  14.61000 51.07100 31.37300
C  18.00800 52.66600 31.93700
C  18.34400 52.30700 33.36500
H  17.24300 51.69600 34.23400
N  14.75400 53.69400 26.72500
C  13.90000 53.87000 27.77200
C  12.70200 54.59200 27.39600
C  12.86000 54.79700 25.97600
C  14.17600 54.14100 25.55700
C  11.52800 54.82600 28.30500
C  11.96400 55.46800 24.97200
O  12.28900 55.65800 23.83700
C  10.74600 56.09600 25.46400
N  16.94000 53.00300 24.65400
C  15.94200 53.45800 23.84300
C  16.26700 53.29800 22.32600
C  17.72500 52.89200 22.39000
C  17.86100 52.44300 23.81700
C  15.35800 52.15400 21.72300
C  18.84000 53.96500 21.93600
C  19.48800 54.81700 23.00500
N  18.46500 51.59200 26.61200
C  19.21500 51.20200 25.45700
C  20.15500 50.26100 25.87600
C  20.00700 50.12600 27.24900
C  18.99200 51.01300 27.68900
C  21.24100 49.68100 25.02400
C  20.54800 49.59500 28.44800
O  21.55400 48.95300 28.56300
C  19.67000 50.10800 29.69400
C  19.01600 48.85000 30.40000
O  18.34500 48.02300 29.92000
O  19.22800 49.01300 31.76700
C  18.74400 47.91000 32.57200
H  13.64400 53.72300 29.84800
H  14.08200 54.41400 23.53100
H  19.56700 51.26900 23.43100
H  17.05900 50.75100 31.50800
H  15.42400 53.00300 31.61900
H  14.86600 50.81900 32.40200
H  14.79200 50.18500 30.76400
H  13.62900 51.52500 31.22700
H  17.59900 53.67500 31.98200
H  18.92100 52.60600 31.34500
H  18.74500 53.13500 33.94900
H  19.14100 51.56300 33.34500
H  10.77500 54.06000 28.11900
H  11.04200 55.78700 28.14200
H  11.86400 54.94100 29.33500
H  10.33000 56.60500 24.59500
H  10.99000 56.91900 26.13600
H  10.14100 55.27700 25.85200
H  16.08400 54.18300 21.71700
H  17.76700 51.98900 21.78100
H  14.39700 52.66800 21.74700
H  15.33200 51.29300 22.39100
H  15.62800 51.96500 20.68400
H  18.40100 54.62800 21.19100
H  19.54100 53.30400 21.42800
H  19.60300 55.83200 22.62500
H  20.43800 54.35700 23.27800
H  18.85500 54.83000 23.89300
H  20.77800 49.10100 24.22500
H  21.90400 49.00500 25.56300
H  21.71100 50.58200 24.62800
H  20.38300 50.58700 30.36500
H  17.66800 47.73700 32.55900
H  19.05100 48.17700 33.58300
H  19.15900 46.98100 32.18000

