158

Mg 2.20800 -0.96100 43.82300
C  5.62300 -0.54600 43.28200
C  1.72300 1.90000 41.73100
C  -1.08400 -1.56600 43.75600
C  2.77800 -4.03000 45.36400
N  3.56400 0.52300 42.64000
C  4.91000 0.38100 42.47900
C  5.46800 1.41300 41.46800
C  4.18600 2.25600 41.07800
C  3.07800 1.60500 41.87700
C  4.27900 3.81600 41.41300
C  6.12800 0.82400 40.25500
C  7.59800 1.19700 40.17900
H  8.12500 1.85200 38.81300
N  0.54500 0.06100 42.99700
C  0.57600 1.26600 42.29000
C  -0.78400 1.70000 42.06600
C  -1.60900 0.70200 42.64800
C  -0.73200 -0.38500 43.10200
C  -1.04400 3.09600 41.37500
C  -3.16600 0.69100 42.71100
O  -3.73400 1.52700 42.04500
C  -3.98300 -0.26200 43.62900
N  1.01900 -2.61000 44.50000
C  -0.33600 -2.58200 44.36800
C  -0.97200 -3.87900 44.96300
C  0.30100 -4.51400 45.70700
C  1.42000 -3.73700 45.08700
C  -2.21200 -3.73600 45.86300
C  0.41900 -6.09100 45.36300
C  0.64800 -7.01800 46.59200
N  3.82000 -2.07800 44.25500
C  3.90500 -3.26800 44.90600
C  5.28500 -3.67700 44.96100
C  6.00400 -2.59400 44.45200
C  5.03600 -1.57600 44.02600
C  5.83500 -5.02700 45.51000
C  7.31300 -2.10600 44.27200
O  8.37800 -2.59700 44.63300
C  7.14000 -0.67700 43.54700
C  7.59800 0.55100 44.34300
O  7.28800 0.85900 45.47600
O  8.56900 1.24400 43.58300
C  9.08700 2.36400 44.22100
H  1.36300 2.66500 41.04000
H  -2.14000 -1.84100 43.76300
H  2.95600 -5.02400 45.78100
H  6.14000 2.08900 41.99800
H  3.94800 2.16500 40.01800
H  5.28700 4.01200 41.77800
H  3.61100 4.13000 42.21500
H  4.09200 4.30600 40.45800
H  5.74600 1.07500 39.26600
H  6.14800 -0.22700 40.54700
H  8.21100 0.30700 40.32000
H  7.83500 1.92800 40.95300
H  -2.13200 3.14400 41.42900
H  -0.85600 3.16000 40.30400
H  -0.49300 3.87100 41.90900
H  -4.96400 0.16200 43.84400
H  -3.64800 -0.45600 44.64800
H  -4.28200 -1.19000 43.14200
H  -1.38100 -4.49700 44.16400
H  0.36100 -4.32600 46.77900
H  -3.02300 -4.44800 45.70700
H  -2.61900 -2.73400 45.72900
H  -1.98900 -3.83500 46.92600
H  1.16900 -6.21100 44.58100
H  -0.52100 -6.43900 44.93600
H  -0.07100 -7.83400 46.64700
H  0.60500 -6.42400 47.50500
H  1.53200 -7.63700 46.43900
H  5.50400 -5.81500 44.83400
H  5.41000 -5.05900 46.51400
H  6.90600 -4.97900 45.70500
H  7.64500 -0.71200 42.58100
H  10.09500 2.23700 44.61600
H  8.43900 2.75600 45.00600
H  9.10400 3.13300 43.44800
Mg -12.30800 38.75400 42.16000
C  -10.01900 36.40700 40.85200
C  -10.60500 41.13700 40.68500
C  -14.93500 40.81300 42.67200
C  -14.33100 36.03300 43.25300
N  -10.50700 38.70400 40.90100
C  -9.74700 37.71400 40.47000
C  -8.63100 38.17300 39.60000
C  -8.59200 39.69700 40.01400
C  -10.03900 39.87900 40.51700
C  -7.42700 40.08600 40.97400
C  -9.03300 37.74700 38.12400
C  -7.94600 37.08500 37.30700
H  -7.30400 37.77200 36.18200
N  -12.65500 40.73200 41.79500
C  -11.81400 41.54200 41.22000
C  -12.26000 42.91900 41.40500
C  -13.54300 42.84700 41.95700
C  -13.77800 41.42900 42.18600
C  -11.40300 44.13700 41.03000
C  -14.40900 44.05600 42.22900
O  -14.12300 45.18300 41.79600
C  -15.68900 44.01100 42.90500
N  -14.40400 38.45300 42.73600
C  -15.20400 39.47300 43.03600
C  -16.60700 39.03600 43.59600
C  -16.28300 37.53800 43.74000
C  -14.91300 37.30200 43.25000
C  -17.02800 39.80000 44.88000
C  -17.49900 36.71700 43.14400
C  -17.34100 36.29600 41.73300
N  -12.26900 36.64900 42.01100
C  -13.08200 35.70100 42.62300
C  -12.53500 34.38900 42.36400
C  -11.38000 34.63800 41.62500
C  -11.22300 36.03200 41.52300
C  -12.85500 33.05000 42.88600
C  -10.24100 33.98700 40.94100
O  -10.01500 32.79300 40.87200
C  -9.27000 35.13300 40.44800
C  -7.93100 34.88900 41.14500
O  -7.78200 34.98600 42.34200
O  -6.91500 34.60500 40.25700
C  -5.64800 34.07400 40.83400
H  -9.90900 41.91100 40.35600
H  -15.72500 41.53100 42.90100
H  -14.86000 35.15100 43.62100
H  -7.73000 37.69000 39.97900
H  -8.51600 40.24700 39.07700
H  -6.51300 39.49200 40.97700
H  -7.90400 40.19100 41.94900
H  -7.03800 41.02500 40.58000
H  -9.31800 38.61700 37.53300
H  -9.85600 37.04100 38.23300
H  -8.45500 36.19900 36.92800
H  -7.23700 36.76700 38.07200
H  -11.92000 44.46200 40.12700
H  -10.34100 43.96800 40.85300
H  -11.36000 44.98800 41.71000
H  -16.52800 43.76200 42.25500
H  -15.94200 44.92800 43.43700
H  -15.60000 43.37900 43.78900
H  -17.38000 39.18600 42.84200
H  -16.29700 37.25100 44.79200
H  -17.65600 40.65000 44.61600
H  -16.24500 40.23800 45.49900
H  -17.66600 39.13600 45.46200
H  -18.34200 37.40300 43.22300
H  -17.52400 35.81500 43.75600
H  -17.63700 35.24700 41.73400
H  -16.28400 36.32700 41.46800
H  -17.94900 36.85300 41.02000
H  -13.91400 32.95800 43.12900
H  -12.30700 32.81800 43.79900
H  -12.58200 32.31300 42.13200
H  -9.12000 34.99200 39.37700
H  -5.80900 33.49100 41.74000
H  -4.86200 34.79900 41.04500
H  -5.20500 33.30300 40.20300

