158

Mg 3.00300 -1.53100 43.55300
C  6.43600 -0.87800 43.25600
C  2.44900 1.06400 41.22500
C  -0.23300 -2.44000 43.22800
C  3.61100 -4.47800 45.27800
N  4.33000 -0.14300 42.33700
C  5.64100 -0.05100 42.41900
C  6.16900 0.88500 41.35100
C  4.92000 1.74200 40.90400
C  3.80900 0.84200 41.53100
C  4.88600 3.22600 41.34200
C  6.83300 0.06900 40.17900
C  8.30200 0.44300 39.82300
H  8.44500 1.11100 38.49200
N  1.30600 -0.77600 42.47800
C  1.31100 0.37500 41.66100
C  -0.04100 0.66400 41.22100
C  -0.90700 -0.38500 41.67200
C  0.04600 -1.28700 42.43800
C  -0.44400 1.86900 40.49700
C  -2.44800 -0.50400 41.51200
O  -3.10800 0.49900 41.15700
C  -3.32700 -1.71700 41.86800
N  1.88600 -3.34000 43.98900
C  0.57700 -3.37100 43.94700
C  -0.02500 -4.55100 44.64200
C  1.23300 -5.20900 45.25400
C  2.34300 -4.25900 44.80400
C  -1.19200 -4.13100 45.59800
C  1.42800 -6.69400 44.90300
C  1.40600 -7.63300 46.05700
N  4.65700 -2.49200 44.19000
C  4.78800 -3.70800 44.87600
C  6.22500 -3.83400 45.23000
C  6.82900 -2.69000 44.57500
C  5.89600 -1.97400 43.95100
C  6.92500 -4.91800 45.96400
C  8.12300 -2.13200 44.38200
O  9.25100 -2.46600 44.76000
C  7.93400 -0.89200 43.48900
C  8.26500 0.32300 44.25100
O  7.97300 0.51100 45.37200
O  8.96800 1.21100 43.41900
C  8.89300 2.58700 43.84500
H  2.37500 1.99200 40.65300
H  -1.25700 -2.81800 43.25000
H  3.81100 -5.39200 45.84100
H  6.81800 1.55200 41.91800
H  4.90100 1.69600 39.81500
H  5.04800 3.93300 40.52800
H  5.59200 3.40700 42.15300
H  3.94000 3.42300 41.84600
H  6.26100 0.19500 39.25900
H  6.90100 -0.97400 40.48800
H  8.92600 -0.45200 39.82700
H  8.68300 1.08400 40.61800
H  -1.12700 2.50800 41.05800
H  -0.78500 1.57600 39.50400
H  0.37800 2.53500 40.23500
H  -4.36900 -1.53400 41.60600
H  -3.25800 -1.77500 42.95400
H  -2.91700 -2.63900 41.45700
H  -0.49700 -5.03200 43.78500
H  1.12700 -5.12300 46.33500
H  -1.04600 -3.06300 45.76300
H  -1.15000 -4.82500 46.43800
H  -2.12000 -4.29400 45.05000
H  2.44700 -6.81300 44.53400
H  0.79200 -7.11500 44.12400
H  0.78400 -8.51000 45.88000
H  1.03000 -7.19500 46.98100
H  2.40300 -7.99700 46.30400
H  7.72800 -5.34100 45.36000
H  6.26500 -5.78000 46.05900
H  7.13900 -4.55400 46.96900
H  8.57700 -1.03100 42.62000
H  8.90400 3.21700 42.95500
H  9.71400 2.88900 44.49400
H  7.91600 2.71300 44.31300
Mg 48.41500 34.33500 27.34500
C  46.92000 33.03600 30.11300
C  49.01100 37.24200 29.14500
C  49.31700 35.78700 24.42000
C  47.53700 31.50700 25.55300
N  48.14500 35.00600 29.51800
C  47.52500 34.28300 30.46800
C  47.64000 35.01700 31.83800
C  47.91200 36.52800 31.29200
C  48.47600 36.24400 29.95200
C  46.65800 37.52300 31.30800
C  48.75100 34.47200 32.67500
C  48.58000 34.52000 34.21100
H  47.51600 35.37400 34.87400
N  49.02300 36.20900 26.82700
C  49.26900 37.25100 27.70900
C  49.98000 38.30700 27.09100
C  49.94800 38.03500 25.67800
C  49.41000 36.63000 25.59300
C  50.41000 39.54100 27.83100
C  50.47600 38.82200 24.49300
O  50.30200 38.43700 23.34400
C  51.06300 40.20800 24.65500
N  48.42300 33.72000 25.28100
C  48.87700 34.48800 24.28800
C  48.76200 33.77300 22.92300
C  48.18400 32.44200 23.31700
C  48.12600 32.51600 24.78300
C  47.96400 34.52200 21.77700
C  48.96900 31.24500 22.76300
C  50.16500 30.58200 23.47600
N  47.41700 32.62500 27.65100
C  47.11700 31.53300 26.89800
C  46.44100 30.56400 27.70300
C  46.21700 31.12300 28.92800
C  46.84500 32.38300 28.85600
C  45.95800 29.19000 27.28400
C  45.58600 30.86400 30.14800
O  44.90000 29.89300 30.60600
C  45.90000 32.18900 30.99600
C  46.20100 31.80300 32.40000
O  47.23300 31.23600 32.85300
O  45.06500 32.21900 33.09200
C  44.80900 31.75500 34.44100
H  49.26100 38.15600 29.68900
H  49.66900 36.26400 23.50300
H  47.43900 30.52100 25.09400
H  46.73000 34.78600 32.39100
H  48.71800 36.99100 31.86100
H  46.45000 37.78700 30.27100
H  47.03300 38.43000 31.78300
H  45.79500 37.14900 31.85900
H  49.67100 34.99700 32.41600
H  48.83300 33.41400 32.42700
H  49.63600 34.66100 34.43900
H  48.39700 33.47200 34.44700
H  50.72000 39.25100 28.83500
H  49.61700 40.27100 27.99800
H  51.28300 40.05900 27.43400
H  50.33200 40.92200 25.03500
H  51.61900 40.60200 23.80500
H  51.80300 40.15600 25.45400
H  49.77100 33.57800 22.56000
H  47.15800 32.40300 22.95200
H  48.65100 34.57500 20.93300
H  47.55700 35.50900 21.99600
H  47.08200 33.94500 21.49900
H  49.27700 31.47100 21.74300
H  48.20600 30.46700 22.73000
H  50.43400 31.14700 24.36800
H  50.98700 30.49800 22.76400
H  49.91500 29.54700 23.70800
H  46.35300 28.91000 26.30700
H  44.87900 29.13200 27.14100
H  46.27500 28.40900 27.97500
H  44.96700 32.74500 30.90600
H  44.70600 32.66700 35.02900
H  45.50800 31.04800 34.88900
H  43.87300 31.24700 34.20800

