158

Mg -2.93400 35.10700 26.22200
C  -4.39400 33.46000 28.80200
C  -1.30700 37.22200 28.44300
C  -1.34900 36.45400 23.60600
C  -4.98700 33.17000 23.97100
N  -2.91700 35.33600 28.27500
C  -3.55900 34.51600 29.18200
C  -3.13400 34.84400 30.61700
C  -2.19300 36.02500 30.50000
C  -2.21200 36.28300 28.98600
C  -2.50200 37.32700 31.33000
C  -2.66500 33.74100 31.51700
C  -3.43500 33.40100 32.75900
H  -2.58300 33.20100 34.06000
N  -1.58100 36.72000 26.07100
C  -1.02000 37.43700 27.08700
C  -0.03100 38.36100 26.46600
C  -0.03800 38.14700 25.09000
C  -1.01800 37.07300 24.84400
C  0.66700 39.44900 27.32700
C  0.85000 38.85300 24.03400
O  0.88500 38.50300 22.87700
C  1.79500 40.01100 24.43200
N  -3.31800 35.03600 24.13800
C  -2.43100 35.63500 23.31800
C  -2.68900 35.17800 21.88100
C  -3.68700 34.01500 22.07900
C  -4.13700 34.16800 23.50500
C  -3.24000 36.39400 20.96300
C  -3.03000 32.58100 21.77400
C  -1.72100 32.25400 22.53800
N  -4.44600 33.58400 26.25300
C  -5.17800 32.93900 25.35900
C  -5.99300 31.98100 25.97700
C  -5.72300 32.10300 27.35600
C  -4.84400 33.15700 27.47000
C  -6.77900 30.95600 25.20100
C  -6.04000 31.62400 28.74000
O  -6.89200 30.76600 29.13000
C  -5.17800 32.53100 29.77400
C  -6.39100 33.11600 30.59700
O  -7.32900 33.78800 30.11500
O  -6.36000 32.51500 31.80800
C  -7.52500 32.56200 32.65100
H  -0.71400 37.73900 29.20100
H  -0.77800 36.86000 22.76900
H  -5.50300 32.58800 23.20400
H  -4.08800 35.16600 31.03500
H  -1.22900 35.70800 30.89800
H  -2.67000 38.27600 30.82000
H  -1.74700 37.52600 32.09100
H  -3.39100 37.19500 31.94600
H  -1.63000 33.89000 31.82500
H  -2.70100 32.83900 30.90700
H  -3.98100 32.48900 32.51600
H  -4.08700 34.20800 33.09200
H  1.72800 39.27400 27.50800
H  0.25400 39.48200 28.33600
H  0.51100 40.49300 27.05700
H  2.35200 39.61100 25.27900
H  1.16600 40.84800 24.73400
H  2.49900 40.25600 23.63600
H  -1.73700 34.87100 21.44800
H  -4.60300 34.07900 21.49100
H  -2.44800 36.89200 20.40400
H  -3.83200 37.22800 21.34000
H  -3.72000 35.85000 20.15000
H  -2.78300 32.65200 20.71500
H  -3.78700 31.81300 21.93400
H  -1.69200 32.81000 23.47500
H  -0.80100 32.52200 22.01900
H  -1.61100 31.19200 22.75600
H  -6.84400 31.18000 24.13600
H  -7.74900 30.74000 25.64700
H  -6.20200 30.03700 25.30900
H  -4.55500 31.93000 30.43600
H  -7.09800 33.08000 33.51000
H  -7.76900 31.55500 32.98900
H  -8.42400 33.03600 32.25700
Mg -11.59400 16.96700 41.69600
C  -8.38100 15.58500 41.22300
C  -10.43500 19.94300 40.67600
C  -14.72100 17.92400 41.86000
C  -12.73100 13.50100 41.93800
N  -9.64300 17.67000 41.01800
C  -8.49100 16.93500 40.85100
C  -7.27600 17.86600 40.42700
C  -7.88500 19.32400 40.41100
C  -9.40500 18.97900 40.62100
C  -7.31200 20.33400 41.43300
C  -6.82500 17.36400 39.06600
C  -5.37100 17.72400 38.65000
H  -5.20000 18.34900 37.28800
N  -12.48000 18.76400 41.39400
C  -11.83000 19.88100 40.96200
C  -12.81400 20.94100 40.85400
C  -14.04600 20.46100 41.25700
C  -13.76900 19.03200 41.62300
C  -12.40800 22.38400 40.33400
C  -15.28300 21.23200 41.49400
O  -15.45300 22.40400 41.05900
C  -16.46500 20.55300 42.18700
N  -13.51300 15.84600 41.47900
C  -14.62100 16.56000 41.77000
C  -15.67500 15.63200 42.31600
C  -15.15000 14.19400 42.02100
C  -13.71600 14.50600 41.76200
C  -16.01700 15.78600 43.80300
C  -15.65000 13.58700 40.77800
C  -16.56700 12.33800 40.95500
N  -10.80800 15.00100 41.65900
C  -11.37200 13.75100 41.83900
C  -10.32700 12.75000 41.92000
C  -9.15800 13.45500 41.83600
C  -9.48100 14.78200 41.55700
C  -10.56100 11.27100 42.12500
C  -7.71000 13.22700 41.81100
O  -7.08600 12.20500 41.97100
C  -7.16300 14.68400 41.55000
C  -6.50500 15.07300 42.82700
O  -7.08500 15.47900 43.83600
O  -5.14400 14.94900 42.78500
C  -4.39400 15.67000 43.77800
H  -10.19000 20.96400 40.37600
H  -15.73700 18.17200 42.17600
H  -12.97600 12.43700 41.94900
H  -6.53400 17.65100 41.19600
H  -7.74200 19.77900 39.43000
H  -6.54200 19.73000 41.91300
H  -8.06700 20.72300 42.11600
H  -6.95100 21.22200 40.91500
H  -7.54100 17.74400 38.33700
H  -7.04400 16.29700 39.10300
H  -4.72500 16.84700 38.71400
H  -4.89700 18.55500 39.17100
H  -12.84700 22.45200 39.33800
H  -11.35600 22.46100 40.05900
H  -12.81200 23.22500 40.89700
H  -17.13500 21.37400 42.44300
H  -16.18400 20.10500 43.14000
H  -16.93200 19.79600 41.55700
H  -16.61300 15.83000 41.79900
H  -15.22000 13.63600 42.95500
H  -17.06300 15.53300 43.97500
H  -15.88700 16.80000 44.18000
H  -15.38800 15.14900 44.42500
H  -14.78000 13.33200 40.17400
H  -16.15900 14.31600 40.14800
H  -17.02700 12.21200 41.93500
H  -16.00700 11.42100 40.77400
H  -17.32400 12.43700 40.17700
H  -9.66200 10.81300 42.53900
H  -10.71000 10.90600 41.10900
H  -11.37600 11.02200 42.80400
H  -6.40900 14.53000 40.77700
H  -3.71100 16.19600 43.11100
H  -3.99300 14.85700 44.38300
H  -4.88100 16.42200 44.39900

