158

Mg 41.12100 9.42900 29.72100
C  43.10800 10.76100 32.31000
C  38.95200 8.29900 32.06700
C  39.64500 7.78500 27.21200
C  43.86600 10.13300 27.47400
N  41.23200 9.34200 31.94400
C  42.00400 10.13300 32.76300
C  41.59700 9.91300 34.21000
C  40.27400 9.05300 34.12600
C  40.12500 8.86200 32.63500
C  40.23300 7.73500 34.96600
C  41.44100 11.29800 34.97600
C  40.59200 11.32000 36.26800
H  41.06000 12.27500 37.44400
N  39.46200 8.33400 29.59900
C  38.68500 7.92900 30.69700
C  37.52400 7.12200 30.22300
C  37.63400 7.08000 28.80100
C  38.99000 7.75400 28.47200
C  36.50800 6.48800 31.19000
C  36.66600 6.46600 27.83600
O  36.89700 6.40300 26.65100
C  35.30500 6.13600 28.30700
N  41.74300 8.82700 27.62000
C  40.91600 8.21500 26.78400
C  41.39300 8.38800 25.30600
C  42.63000 9.26100 25.48700
C  42.73500 9.46200 26.98400
C  41.51500 7.08400 24.44700
C  42.67700 10.50300 24.61600
C  43.83300 10.54600 23.58700
N  43.12000 10.25000 29.77200
C  44.07300 10.51800 28.79900
C  45.19800 11.17800 29.42000
C  44.83400 11.32000 30.76600
C  43.55300 10.74900 30.93800
C  46.44300 11.64900 28.73300
C  45.34300 11.78500 32.00900
O  46.41600 12.29400 32.33600
C  44.24700 11.41100 33.08700
C  44.89100 10.49300 34.03000
O  44.94800 9.28100 33.84500
O  45.32600 11.03100 35.17300
C  45.86100 10.07000 36.24300
H  38.17200 8.16500 32.82000
H  39.08000 7.26800 26.43300
H  44.64000 10.52300 26.81000
H  42.36900 9.38500 34.77100
H  39.42000 9.66900 34.40700
H  40.10100 6.85300 34.33900
H  39.44800 7.82600 35.71700
H  41.19000 7.68400 35.48500
H  41.26100 12.09600 34.25700
H  42.42300 11.45400 35.42400
H  40.37800 10.32600 36.66200
H  39.61400 11.70300 35.97700
H  36.79600 6.58700 32.23700
H  36.39100 5.45700 30.85900
H  35.53600 6.97400 31.11300
H  34.98800 6.91900 28.99500
H  35.21200 5.14200 28.74400
H  34.58200 6.12600 27.49100
H  40.58400 8.89400 24.77800
H  43.50700 8.68100 25.19800
H  42.31400 6.41100 24.75700
H  41.60200 7.40000 23.40700
H  40.55700 6.61200 24.66800
H  42.80600 11.40700 25.21100
H  41.74300 10.62900 24.06900
H  44.70200 11.09500 23.94800
H  43.57000 10.96400 22.61500
H  44.25800 9.58400 23.30000
H  46.66400 10.93700 27.93800
H  47.19500 11.52400 29.51100
H  46.36300 12.64700 28.30200
H  43.85300 12.30800 33.56400
H  46.51200 10.73100 36.81500
H  46.52700 9.34800 35.76900
H  45.08600 9.60800 36.85500
Mg 6.38700 54.77500 40.79200
C  5.90300 51.30500 40.62900
C  9.56200 54.38400 39.55500
C  6.70800 58.13400 40.33800
C  3.04700 55.12100 41.92500
N  7.49000 53.04200 39.99400
C  7.15400 51.66700 40.13200
C  8.28600 50.80000 39.49300
C  9.46900 51.79900 39.29300
C  8.82700 53.16100 39.69000
C  10.77100 51.53500 40.09500
C  7.92200 50.00700 38.17900
C  6.84600 50.56000 37.17800
H  7.45000 50.79200 35.80500
N  7.96300 56.09800 40.06500
C  9.17400 55.70300 39.64700
C  10.05000 56.92400 39.52800
C  9.21500 58.05000 39.80200
C  7.85600 57.49300 40.06900
C  11.46600 56.85100 39.09200
C  9.65800 59.49200 39.80400
O  10.81200 59.68700 39.63400
C  8.68600 60.62200 39.93100
N  4.98600 56.39400 40.99200
C  5.40800 57.68200 40.74700
C  4.21200 58.65500 40.84200
C  3.13800 57.75100 41.45900
C  3.69100 56.31400 41.46400
C  4.62300 59.83000 41.78300
C  1.70000 58.06100 40.89700
C  1.15800 57.24000 39.56500
N  4.81000 53.56400 41.25100
C  3.55700 53.82500 41.77700
C  2.89900 52.55500 42.09900
C  3.74400 51.54100 41.75500
C  4.89700 52.21500 41.16100
C  1.46000 52.38700 42.53100
C  3.87900 50.10300 41.66000
O  3.11100 49.21500 42.02000
C  5.27000 49.94100 40.91200
C  4.98600 49.09500 39.73200
O  4.59500 49.60600 38.64000
O  5.44500 47.84500 39.88400
C  5.50700 46.96000 38.70300
H  10.53700 54.20500 39.09600
H  6.67400 59.19900 40.09900
H  2.08300 55.31100 42.40100
H  8.47600 50.05700 40.26700
H  9.77500 51.93200 38.25500
H  11.23900 50.63800 39.69000
H  10.44200 51.16000 41.06500
H  11.44600 52.38600 40.17900
H  7.64500 49.00100 38.49600
H  8.87000 49.79500 37.68600
H  6.38300 51.45100 37.60200
H  6.13000 49.78400 36.90800
H  11.66500 57.21400 38.08400
H  11.87400 55.84600 39.19700
H  12.09900 57.43600 39.75900
H  8.03900 60.41200 39.08000
H  9.28600 61.52900 39.84300
H  8.08100 60.52200 40.83200
H  3.81600 59.02600 39.89700
H  3.19200 58.00200 42.51800
H  3.74600 60.22400 42.29700
H  4.84700 60.66700 41.12200
H  5.45200 59.67200 42.47300
H  1.75500 59.12800 40.68300
H  0.99800 57.78100 41.68200
H  0.09200 57.04400 39.68300
H  1.81300 56.37200 39.48600
H  1.30500 57.84700 38.67100
H  1.22200 51.35400 42.78600
H  0.79900 52.70800 41.72600
H  1.24000 52.95200 43.43700
H  5.83000 49.34200 41.63000
H  6.24700 46.16100 38.74100
H  5.79500 47.48700 37.79300
H  4.52300 46.54300 38.49100

