158

Mg 1.64400 -2.39400 43.32200
C  4.90100 -1.77600 42.90700
C  0.57900 0.31800 41.65600
C  -1.75100 -3.54700 43.47300
C  2.54400 -5.53600 44.80900
N  2.66700 -0.91500 42.37200
C  4.04700 -0.81900 42.25200
C  4.40400 0.39100 41.42700
C  2.91300 1.13300 41.31200
C  1.94100 0.13200 41.85500
C  2.93600 2.43300 42.18800
C  5.07000 0.07400 40.03000
C  6.39200 0.76800 39.77100
H  6.39000 1.81000 38.69400
N  -0.32600 -1.63500 42.78500
C  -0.53400 -0.46100 42.06500
C  -1.96200 -0.26900 41.92300
C  -2.62500 -1.28300 42.63000
C  -1.58400 -2.27700 42.96900
C  -2.48700 1.05100 41.30800
C  -4.16700 -1.35500 42.83000
O  -4.90800 -0.45600 42.47300
C  -4.91200 -2.52100 43.45200
N  0.46700 -4.26900 44.17000
C  -0.83600 -4.43700 44.10100
C  -1.23500 -5.78200 44.75800
C  0.20900 -6.45000 45.06200
C  1.17000 -5.35300 44.64400
C  -2.27100 -5.85800 45.91300
C  0.47000 -7.83600 44.43100
C  0.75100 -8.97100 45.43700
N  3.34500 -3.50300 43.86000
C  3.58600 -4.65800 44.49700
C  5.07900 -4.85300 44.66700
C  5.67000 -3.68700 44.06700
C  4.54900 -2.95400 43.56300
C  5.88800 -5.96200 45.32200
C  6.92200 -2.94000 43.76600
O  8.08800 -3.12700 44.06000
C  6.42900 -1.67300 42.88900
C  6.96000 -0.62000 43.70300
O  6.70300 -0.40700 44.86300
O  7.93200 -0.02900 42.98200
C  8.50900 1.20400 43.66100
H  0.44500 1.26600 41.13000
H  -2.76800 -3.94600 43.46500
H  2.97100 -6.46500 45.19100
H  5.09200 0.98900 42.02400
H  2.89900 1.43600 40.26500
H  3.02900 3.27900 41.50700
H  3.73000 2.45900 42.93500
H  1.96600 2.51600 42.67900
H  4.40600 0.40000 39.23000
H  5.26800 -0.99800 40.03800
H  7.08200 -0.00700 39.43700
H  6.91000 1.25800 40.59600
H  -3.01300 0.77000 40.39500
H  -1.70900 1.81300 41.26000
H  -3.29300 1.45300 41.92200
H  -5.96500 -2.25200 43.52600
H  -4.48900 -2.83200 44.40700
H  -4.92700 -3.33900 42.73100
H  -1.66800 -6.29300 43.89700
H  0.09400 -6.67300 46.12300
H  -3.13800 -5.26900 45.61500
H  -1.82500 -5.51900 46.84800
H  -2.58700 -6.89200 46.05700
H  1.41000 -7.78900 43.88000
H  -0.36500 -8.14000 43.80000
H  1.79100 -9.27700 45.31900
H  0.07600 -9.82700 45.45500
H  0.82800 -8.54100 46.43600
H  5.30000 -6.57300 46.00700
H  6.73400 -5.53200 45.85900
H  6.30000 -6.62800 44.56400
H  6.94900 -1.71300 41.93200
H  8.84900 1.89800 42.89300
H  9.27200 0.97900 44.40700
H  7.75100 1.79800 44.17200
Mg -10.13500 17.14500 40.74600
C  -6.74800 15.94300 40.68100
C  -8.98200 20.15700 39.71300
C  -13.26400 17.95000 40.02800
C  -11.00700 13.65800 40.69200
N  -8.11700 17.85100 40.28600
C  -6.89100 17.28700 40.37100
C  -5.70200 18.26400 39.91300
C  -6.49100 19.63500 40.15500
C  -7.97100 19.20700 39.97900
C  -6.12400 20.43300 41.53900
C  -5.31100 17.94800 38.44200
C  -3.79300 17.61800 38.21600
H  -3.49400 16.31600 37.45600
N  -10.99600 18.82800 40.04100
C  -10.37500 19.96200 39.62600
C  -11.36000 20.99700 39.32900
C  -12.62800 20.40600 39.67500
C  -12.33100 19.00200 40.01300
C  -10.93300 22.36900 38.94000
C  -13.98200 21.12600 39.69400
O  -14.07100 22.26000 39.28100
C  -15.29000 20.55300 40.26400
N  -11.95300 15.96800 40.33400
C  -13.14700 16.57500 40.16500
C  -14.23400 15.57400 40.13600
C  -13.50800 14.20700 40.22100
C  -12.05500 14.59900 40.40500
C  -15.27100 15.65300 41.32800
C  -13.71700 13.26200 38.93400
C  -13.29300 13.76900 37.59600
N  -9.06200 15.28200 40.96700
C  -9.63000 13.99200 40.91200
C  -8.59000 13.00700 41.13100
C  -7.38600 13.72300 40.98100
C  -7.74500 15.08700 40.87000
C  -8.65300 11.48400 41.30300
C  -5.93000 13.65600 40.94300
O  -5.16800 12.72200 41.06200
C  -5.44600 15.09300 40.73500
C  -4.66100 15.55900 41.93800
O  -3.84700 16.48300 41.99900
O  -4.92700 14.78100 43.07000
C  -4.01100 14.79900 44.23200
H  -8.63100 21.13500 39.38000
H  -14.29300 18.24100 39.80700
H  -11.24500 12.59500 40.61300
H  -4.87100 18.23900 40.61900
H  -6.26400 20.24100 39.27800
H  -7.03900 20.50700 42.12700
H  -5.67400 21.37900 41.23800
H  -5.41900 19.87700 42.15700
H  -5.64600 18.66000 37.68900
H  -5.90400 17.06000 38.22300
H  -3.38800 17.58700 39.22800
H  -3.36000 18.46600 37.68400
H  -10.75900 22.87300 39.89000
H  -11.76900 22.84100 38.42300
H  -9.96800 22.46000 38.44100
H  -15.16800 19.96300 41.17200
H  -15.72700 19.97700 39.44800
H  -16.05300 21.30400 40.47100
H  -14.90400 15.71300 39.28800
H  -13.78100 13.68800 41.14000
H  -15.26600 14.73300 41.91300
H  -16.25900 15.67600 40.86700
H  -15.14900 16.41700 42.09600
H  -14.80400 13.18800 38.91300
H  -13.18600 12.33900 39.17000
H  -14.01300 13.67400 36.78300
H  -12.46100 13.15800 37.24500
H  -13.05800 14.83300 37.58800
H  -8.05500 10.97000 40.55100
H  -9.63300 11.00700 41.32200
H  -8.28500 11.38200 42.32400
H  -4.86600 15.04000 39.81400
H  -3.10200 14.25800 43.97100
H  -4.48900 14.49200 45.16300
H  -3.68700 15.81200 44.46900

