158

Mg -12.30800 38.75400 42.16000
C  -10.01900 36.40700 40.85200
C  -10.60500 41.13700 40.68500
C  -14.93500 40.81300 42.67200
C  -14.33100 36.03300 43.25300
N  -10.50700 38.70400 40.90100
C  -9.74700 37.71400 40.47000
C  -8.63100 38.17300 39.60000
C  -8.59200 39.69700 40.01400
C  -10.03900 39.87900 40.51700
C  -7.42700 40.08600 40.97400
C  -9.03300 37.74700 38.12400
C  -7.94600 37.08500 37.30700
H  -7.30400 37.77200 36.18200
N  -12.65500 40.73200 41.79500
C  -11.81400 41.54200 41.22000
C  -12.26000 42.91900 41.40500
C  -13.54300 42.84700 41.95700
C  -13.77800 41.42900 42.18600
C  -11.40300 44.13700 41.03000
C  -14.40900 44.05600 42.22900
O  -14.12300 45.18300 41.79600
C  -15.68900 44.01100 42.90500
N  -14.40400 38.45300 42.73600
C  -15.20400 39.47300 43.03600
C  -16.60700 39.03600 43.59600
C  -16.28300 37.53800 43.74000
C  -14.91300 37.30200 43.25000
C  -17.02800 39.80000 44.88000
C  -17.49900 36.71700 43.14400
C  -17.34100 36.29600 41.73300
N  -12.26900 36.64900 42.01100
C  -13.08200 35.70100 42.62300
C  -12.53500 34.38900 42.36400
C  -11.38000 34.63800 41.62500
C  -11.22300 36.03200 41.52300
C  -12.85500 33.05000 42.88600
C  -10.24100 33.98700 40.94100
O  -10.01500 32.79300 40.87200
C  -9.27000 35.13300 40.44800
C  -7.93100 34.88900 41.14500
O  -7.78200 34.98600 42.34200
O  -6.91500 34.60500 40.25700
C  -5.64800 34.07400 40.83400
H  -9.90900 41.91100 40.35600
H  -15.72500 41.53100 42.90100
H  -14.86000 35.15100 43.62100
H  -7.73000 37.69000 39.97900
H  -8.51600 40.24700 39.07700
H  -6.51300 39.49200 40.97700
H  -7.90400 40.19100 41.94900
H  -7.03800 41.02500 40.58000
H  -9.31800 38.61700 37.53300
H  -9.85600 37.04100 38.23300
H  -8.45500 36.19900 36.92800
H  -7.23700 36.76700 38.07200
H  -11.92000 44.46200 40.12700
H  -10.34100 43.96800 40.85300
H  -11.36000 44.98800 41.71000
H  -16.52800 43.76200 42.25500
H  -15.94200 44.92800 43.43700
H  -15.60000 43.37900 43.78900
H  -17.38000 39.18600 42.84200
H  -16.29700 37.25100 44.79200
H  -17.65600 40.65000 44.61600
H  -16.24500 40.23800 45.49900
H  -17.66600 39.13600 45.46200
H  -18.34200 37.40300 43.22300
H  -17.52400 35.81500 43.75600
H  -17.63700 35.24700 41.73400
H  -16.28400 36.32700 41.46800
H  -17.94900 36.85300 41.02000
H  -13.91400 32.95800 43.12900
H  -12.30700 32.81800 43.79900
H  -12.58200 32.31300 42.13200
H  -9.12000 34.99200 39.37700
H  -5.80900 33.49100 41.74000
H  -4.86200 34.79900 41.04500
H  -5.20500 33.30300 40.20300
Mg -6.25700 25.86200 26.17600
C  -4.92800 27.35300 29.00300
C  -7.69300 23.45000 28.17600
C  -7.04100 24.13900 23.49000
C  -4.55300 28.18000 24.21900
N  -6.36300 25.49200 28.35800
C  -5.79000 26.31900 29.34000
C  -6.10300 25.72600 30.74400
C  -6.74100 24.34100 30.35400
C  -6.90000 24.40800 28.83500
C  -5.88600 23.01100 30.71800
C  -6.91000 26.76600 31.56700
C  -7.81800 26.31100 32.74600
H  -7.32200 25.32200 33.80800
N  -7.45100 24.22300 25.83600
C  -7.98700 23.32700 26.80500
C  -8.91700 22.46300 26.16200
C  -8.78300 22.55000 24.72700
C  -7.70100 23.62000 24.66200
C  -9.75300 21.57200 26.99100
C  -9.28000 21.70900 23.56000
O  -9.15200 22.00100 22.40800
C  -10.12000 20.50800 23.93400
N  -5.69700 25.99900 24.16500
C  -6.22200 25.22200 23.20400
C  -5.86700 25.63700 21.76600
C  -5.28900 27.10800 22.05000
C  -5.26500 27.17100 23.56100
C  -4.86500 24.60000 21.23200
C  -6.23500 28.14600 21.48400
C  -5.72100 28.77000 20.13400
N  -5.03900 27.46400 26.48500
C  -4.45800 28.31300 25.61000
C  -3.76600 29.38200 26.34900
C  -3.81300 28.95300 27.69500
C  -4.65800 27.81500 27.68500
C  -3.04100 30.52400 25.76500
C  -3.22700 29.14300 28.98900
O  -2.32300 29.82100 29.39400
C  -4.00400 28.09000 29.92000
C  -3.09900 27.14900 30.67400
O  -2.47900 26.16000 30.27400
O  -3.32600 27.44600 31.99600
C  -2.65500 26.49700 32.91500
H  -8.16000 22.59500 28.66800
H  -7.48300 23.78900 22.55500
H  -4.11900 28.98600 23.62200
H  -5.16200 25.43900 31.21200
H  -7.75400 24.36100 30.75500
H  -5.36400 23.12100 31.66800
H  -5.21100 22.63700 29.94700
H  -6.71700 22.33300 30.91200
H  -7.74000 26.90500 30.87400
H  -6.50000 27.76500 31.71200
H  -8.66100 25.83400 32.24600
H  -7.99400 27.23200 33.30200
H  -10.77100 21.59300 26.60300
H  -9.95100 21.93500 28.00000
H  -9.34500 20.56200 26.96500
H  -10.42400 20.01400 23.01100
H  -11.03700 20.94300 24.33400
H  -9.53400 19.78700 24.50500
H  -6.73800 25.56800 21.11400
H  -4.28500 27.06900 21.62900
H  -4.10700 24.33900 21.97100
H  -4.34100 25.11200 20.42500
H  -5.38500 23.76800 20.75800
H  -6.42900 28.90000 22.24700
H  -7.23500 27.77200 21.26700
H  -5.62600 29.85500 20.08100
H  -6.33100 28.43600 19.29500
H  -4.69500 28.43600 19.97500
H  -3.27300 31.36400 26.42000
H  -3.39100 30.77800 24.76500
H  -1.95600 30.47100 25.86200
H  -4.57000 28.74700 30.58000
H  -1.61200 26.69500 33.16400
H  -2.71800 25.48800 32.50800
H  -3.33700 26.46700 33.76500

