158

Mg 48.05300 44.93900 43.72800
C  44.58700 44.57400 42.86800
C  48.45900 41.37900 43.25000
C  51.33100 45.33800 43.94900
C  47.57600 48.34300 43.82900
N  46.68000 43.17300 42.93300
C  45.32600 43.34700 42.78900
C  44.70200 41.96400 42.61000
C  45.86500 40.96700 43.01800
C  47.11300 41.89800 43.00800
C  45.59700 40.32100 44.35600
C  44.01200 41.77900 41.14100
C  44.45000 42.53200 39.92100
H  43.83900 42.09600 38.56100
N  49.74300 43.59800 43.44600
C  49.65400 42.19300 43.34600
C  51.07100 41.76600 43.41200
C  51.93600 42.86000 43.44400
C  51.04000 43.98500 43.61300
C  51.46400 40.25400 43.25200
C  53.42200 42.91000 43.25400
O  54.06300 41.88500 43.16500
C  54.17400 44.23100 43.14800
N  49.28400 46.62200 43.82100
C  50.61300 46.53400 43.97500
C  51.29500 47.92500 44.11700
C  49.99800 48.84300 44.14500
C  48.86800 47.88300 43.88400
C  52.28600 48.16000 45.25900
C  49.99200 50.17100 43.24700
C  50.05700 51.44900 44.05400
N  46.48900 46.22400 43.46100
C  46.39300 47.63200 43.60100
C  45.01100 48.07300 43.42000
C  44.26500 46.87300 43.13500
C  45.19300 45.82800 43.14400
C  44.59600 49.47300 43.50900
C  42.95400 46.35300 42.84100
O  41.93800 46.92700 42.61300
C  43.08700 44.80900 42.90600
C  42.31700 44.10900 43.94500
O  41.17200 43.75100 43.76600
O  43.12800 43.80900 45.03300
C  42.39000 43.36300 46.14900
H  48.55500 40.29100 43.23600
H  52.38200 45.48100 44.20900
H  47.37800 49.40500 43.98900
H  43.91000 41.82400 43.34600
H  45.84000 40.13600 42.31400
H  44.56500 40.29700 44.70500
H  46.17400 40.77100 45.16300
H  45.85900 39.26300 44.33400
H  43.00200 42.04800 41.44800
H  44.17600 40.74400 40.84000
H  45.53900 42.51500 39.92000
H  44.21000 43.58600 40.06500
H  52.20400 40.01400 44.01500
H  51.97700 40.12100 42.29900
H  50.63800 39.54300 43.22900
H  53.65400 44.92200 42.48500
H  55.16500 44.09000 42.71700
H  54.25900 44.67800 44.13800
H  51.80900 48.22000 43.20200
H  50.02900 49.14500 45.19200
H  53.24700 48.51000 44.88300
H  52.35200 47.32200 45.95400
H  51.90700 48.93700 45.92300
H  49.17000 50.25700 42.53600
H  50.93600 50.22500 42.70400
H  50.29300 51.39000 45.11600
H  49.09200 51.89900 43.82100
H  50.73200 52.22200 43.68700
H  45.19000 50.01200 42.77100
H  44.75100 49.92600 44.48800
H  43.53300 49.30700 43.33300
H  42.76900 44.51500 41.90600
H  41.41500 43.76300 46.42600
H  43.12800 43.50200 46.93800
H  42.35200 42.27900 46.03500
Mg 30.10000 59.08000 39.47700
C  27.29800 57.13200 38.45400
C  32.12700 56.45900 38.41600
C  32.76500 61.24500 39.46400
C  27.95200 61.83700 39.52900
N  29.77100 57.14500 38.34400
C  28.50600 56.58300 38.18100
C  28.65300 55.15100 37.83400
C  30.13700 54.75900 38.24700
C  30.72700 56.18600 38.27500
C  30.44700 54.08600 39.65500
C  28.34800 55.05800 36.31000
C  27.32200 53.94300 35.96000
H  26.42000 54.34400 34.85000
N  32.19900 58.86800 39.13300
C  32.75600 57.72700 38.68200
C  34.19400 57.93700 38.47500
C  34.47700 59.33700 38.79800
C  33.17800 59.89000 39.19800
C  35.14700 56.86600 37.87400
C  35.83600 60.05000 38.71100
O  36.77300 59.55200 38.13900
C  36.06900 61.44300 39.39500
N  30.25800 61.17500 39.52700
C  31.48800 61.72500 39.65300
C  31.35400 63.26800 39.85200
C  29.84500 63.54400 39.84200
C  29.29400 62.12400 39.58100
C  32.13700 63.89500 40.99400
C  29.36800 64.58900 38.87200
C  29.62300 66.05100 39.31000
N  28.01700 59.38700 39.35500
C  27.29900 60.58900 39.41200
C  25.80700 60.28300 39.31300
C  25.82300 58.95600 38.97100
C  27.16200 58.49400 38.82600
C  24.62700 61.29400 39.35500
C  24.96600 57.90700 38.48300
O  23.76200 57.88000 38.19700
C  25.88900 56.65200 38.11000
C  25.44000 55.58300 39.06800
O  25.51000 55.56900 40.31500
O  24.95000 54.49700 38.25500
C  24.48700 53.27100 38.99500
H  32.83200 55.63900 38.25900
H  33.46500 62.07500 39.57400
H  27.28500 62.70000 39.59300
H  27.94300 54.56200 38.41400
H  30.61700 54.22300 37.42800
H  29.49400 53.69800 40.01600
H  30.73600 54.89100 40.33100
H  31.20700 53.30800 39.57400
H  29.27500 55.03000 35.73700
H  27.75400 55.94200 36.07500
H  26.76100 53.70300 36.86300
H  27.83000 53.05300 35.58800
H  34.99600 56.70100 36.80700
H  34.86100 55.95200 38.39500
H  36.20400 56.95000 38.12500
H  37.12300 61.64500 39.58700
H  35.53000 61.29500 40.33000
H  35.55000 62.20900 38.81900
H  31.88800 63.63100 38.97400
H  29.52500 63.88500 40.82700
H  32.21000 63.19900 41.82900
H  31.72500 64.82000 41.39800
H  33.10200 64.17900 40.57400
H  28.28100 64.54900 38.81000
H  29.76500 64.47800 37.86300
H  30.13300 66.65000 38.55600
H  30.15200 66.04400 40.26200
H  28.63900 66.46800 39.52300
H  24.11900 61.00100 40.27400
H  23.97400 61.26100 38.48300
H  24.94800 62.32700 39.49200
H  25.73400 56.47200 37.04600
H  24.74500 52.37800 38.42500
H  23.44600 53.38700 39.29600
H  24.97200 53.16000 39.96500

