158

Mg 40.44700 10.06500 29.46300
C  42.17300 11.22900 32.09400
C  37.84500 9.02100 31.63600
C  38.70700 8.63000 26.95700
C  42.94200 11.05400 27.27300
N  39.96500 10.26600 31.60600
C  40.90700 10.73700 32.48600
C  40.34300 10.61900 33.98400
C  39.24700 9.60600 33.78000
C  38.95100 9.63800 32.28700
C  39.42200 8.24000 34.55100
C  39.86400 11.96100 34.50900
C  39.18300 12.08400 35.92500
H  39.81000 12.92500 37.01400
N  38.50200 9.02100 29.28000
C  37.62200 8.71000 30.32000
C  36.46500 8.01300 29.79700
C  36.69000 7.99200 28.41000
C  38.00200 8.59500 28.16300
C  35.26600 7.53700 30.72100
C  35.92200 7.26000 27.46400
O  36.34100 6.90600 26.35000
C  34.64800 6.87200 27.78900
N  40.86700 9.68400 27.40400
C  39.97100 9.15500 26.56000
C  40.31600 9.37000 25.09100
C  41.63500 10.23500 25.17500
C  41.77300 10.36900 26.74500
C  40.41100 8.11200 24.20000
C  41.76500 11.63400 24.39500
C  41.00700 12.79700 24.98000
N  42.24200 10.85500 29.59900
C  43.13500 11.33600 28.64200
C  44.23100 11.99600 29.32300
C  43.89800 12.05900 30.68500
C  42.69100 11.36600 30.76200
C  45.46300 12.39500 28.71500
C  44.36100 12.46200 32.00100
O  45.39800 13.02100 32.34900
C  43.22600 12.00000 33.01200
C  43.76900 11.17100 34.14200
O  44.08500 10.00000 34.23000
O  43.86600 12.06800 35.25300
C  44.50300 11.42900 36.47000
H  37.06900 8.72500 32.34500
H  38.13200 8.21400 26.12600
H  43.69600 11.53300 26.64500
H  41.22400 10.26700 34.52100
H  38.37800 10.08200 34.23400
H  40.43600 8.17100 34.94600
H  39.34200 7.36000 33.91300
H  38.71900 8.27700 35.38400
H  39.28100 12.43700 33.71900
H  40.81300 12.49400 34.56800
H  39.08300 11.04300 36.23100
H  38.15900 12.45400 35.87500
H  35.50500 7.66400 31.77700
H  35.31400 6.44800 30.72300
H  34.25200 7.71800 30.36300
H  34.59600 6.04200 28.49300
H  34.11600 6.65600 26.86200
H  34.18200 7.69900 28.32500
H  39.63500 10.08700 24.63300
H  42.48700 9.58700 24.96900
H  40.12400 7.27400 24.83700
H  41.34000 7.95500 23.65200
H  39.61200 8.31600 23.48800
H  41.46400 11.46200 23.36200
H  42.81900 11.91000 24.44400
H  41.75000 13.52300 25.30700
H  40.47300 12.41900 25.85200
H  40.26800 13.09800 24.23700
H  45.44300 13.46800 28.52500
H  45.63300 11.74500 27.85600
H  46.19600 12.15900 29.48600
H  42.81600 12.93300 33.40000
H  43.87200 11.48300 37.35700
H  45.49700 11.77500 36.75100
H  44.61300 10.34500 36.43900
Mg 10.27400 48.78900 25.05900
C  8.24900 48.83000 27.84300
C  12.63600 50.29100 26.79900
C  12.27400 48.59000 22.26700
C  7.46600 48.01500 22.97000
N  10.39300 49.54000 27.09400
C  9.54100 49.28700 28.11300
C  10.11600 49.75700 29.42300
C  11.34900 50.56200 28.97800
C  11.48000 50.16500 27.50100
C  11.28900 52.11100 29.23100
C  10.31700 48.50500 30.43100
C  9.67600 48.58500 31.87400
H  10.37700 49.43500 32.93100
N  12.15600 49.43500 24.59200
C  12.98600 49.91200 25.53700
C  14.39900 49.85600 25.03400
C  14.35300 49.32600 23.72500
C  12.93700 49.15200 23.49300
C  15.54400 50.26000 25.95000
C  15.42000 49.01700 22.76500
O  15.16000 48.72000 21.60000
C  16.88200 49.11800 23.15500
N  9.87100 48.58100 22.86000
C  10.91500 48.39400 21.96500
C  10.40900 47.77900 20.63400
C  8.91000 47.40900 20.98800
C  8.68500 48.11400 22.33100
C  10.72700 48.61500 19.39800
C  8.65400 45.80900 21.06200
C  9.37100 45.03400 22.23300
N  8.23300 48.58600 25.26900
C  7.25500 48.20300 24.34800
C  5.99000 48.05400 25.10200
C  6.39100 48.32500 26.45700
C  7.72500 48.66600 26.53900
C  4.66600 47.64100 24.66200
C  5.82300 48.35800 27.81100
O  4.69700 48.15500 28.24000
C  7.10500 48.70000 28.80300
C  7.15800 47.51100 29.72800
O  7.38100 46.34300 29.40600
O  6.74000 47.81300 30.99800
C  6.62800 46.59700 31.87500
H  13.46600 50.62800 27.42400
H  12.97400 48.23900 21.50500
H  6.74500 47.50200 22.33000
H  9.31900 50.39500 29.80400
H  12.18500 50.09500 29.49700
H  10.25300 52.32500 29.49300
H  11.48400 52.60100 28.27700
H  11.96000 52.36600 30.05200
H  11.32400 48.48600 30.84900
H  10.22000 47.51900 29.97700
H  9.34700 47.60300 32.21400
H  8.84800 49.21900 31.55800
H  16.40200 49.59900 25.83200
H  15.39700 50.24100 27.03000
H  15.88100 51.27700 25.74700
H  17.05400 50.05000 23.69500
H  17.41400 48.94000 22.22100
H  17.09200 48.25300 23.78300
H  11.00100 46.86500 20.58500
H  8.25900 47.82000 20.21700
H  9.80000 48.82700 18.86600
H  11.40800 48.12000 18.70500
H  11.23000 49.50100 19.78400
H  9.08000 45.27800 20.21200
H  7.58100 45.64900 20.96000
H  8.56600 44.78800 22.92600
H  10.14200 45.62300 22.72900
H  9.86700 44.16000 21.81000
H  4.06000 47.20800 25.45800
H  4.93200 46.87800 23.93000
H  4.04100 48.40700 24.20300
H  7.02200 49.58100 29.44000
H  5.80800 45.96600 31.53400
H  6.38000 46.94700 32.87700
H  7.54500 46.02100 32.00100

