158

Mg 1.90600 -2.33600 44.20300
C  5.30300 -1.40600 43.87100
C  0.95500 0.39900 42.52600
C  -1.15000 -3.73900 43.62400
C  3.02200 -5.54500 45.25100
N  3.04800 -0.76700 43.17500
C  4.40200 -0.49900 43.35000
C  4.74800 0.91300 42.86000
C  3.31400 1.59700 42.74200
C  2.34200 0.37700 42.87300
C  2.90200 2.69500 43.68600
C  5.66000 0.93100 41.65000
C  5.51100 -0.08200 40.56000
H  5.15000 0.54200 39.15600
N  0.10600 -1.70500 43.31900
C  -0.06500 -0.57900 42.63500
C  -1.44700 -0.37300 42.21700
C  -2.13600 -1.50600 42.68400
C  -1.07200 -2.34100 43.18200
C  -1.95600 0.83000 41.40200
C  -3.61800 -1.65500 42.61200
O  -4.32600 -0.81500 42.06200
C  -4.34000 -2.86700 43.14900
N  1.05800 -4.38900 44.45100
C  -0.24200 -4.63400 44.21300
C  -0.57900 -6.01600 44.67700
C  0.73700 -6.58800 45.17800
C  1.68900 -5.43400 45.04000
C  -1.85800 -6.02900 45.66500
C  1.16500 -7.81900 44.39900
C  2.02300 -8.90300 45.18500
N  3.81300 -3.30900 44.60800
C  4.08100 -4.60000 45.01800
C  5.55300 -4.75400 45.15900
C  6.07200 -3.52900 44.81100
C  5.01700 -2.65700 44.38700
C  6.21700 -5.91300 45.70400
C  7.27100 -2.71300 44.71600
O  8.44500 -2.93000 44.96900
C  6.81200 -1.36000 44.07800
C  7.10400 -0.27900 45.09300
O  6.38800 -0.20400 46.06100
O  8.14700 0.52000 44.80200
C  8.26500 1.79300 45.57400
H  0.53900 1.35600 42.20400
H  -2.14300 -4.18300 43.52200
H  3.39600 -6.47000 45.69400
H  5.30500 1.39500 43.66300
H  3.08400 1.99300 41.75300
H  3.82800 3.10400 44.09000
H  2.31700 2.37400 44.54800
H  2.53400 3.53200 43.09200
H  6.70200 0.88100 41.96700
H  5.44700 1.94900 41.32300
H  4.81100 -0.85800 40.87100
H  6.47900 -0.57700 40.48800
H  -2.59900 0.33600 40.67300
H  -1.16400 1.32100 40.83700
H  -2.60500 1.49600 41.97100
H  -5.40800 -2.76600 43.33900
H  -3.81600 -2.99600 44.09600
H  -4.20200 -3.75700 42.53500
H  -0.97200 -6.45400 43.75900
H  0.75500 -6.87400 46.23000
H  -1.73200 -6.60000 46.58500
H  -2.66900 -6.54700 45.15300
H  -1.98400 -4.95900 45.82800
H  1.71800 -7.55800 43.49700
H  0.28500 -8.42300 44.17500
H  2.85900 -9.18300 44.54500
H  1.39700 -9.76000 45.43200
H  2.39200 -8.48500 46.12200
H  6.31700 -6.71400 44.97200
H  5.82000 -6.35000 46.62100
H  7.23100 -5.60800 45.96100
H  7.40700 -1.22500 43.17500
H  7.29000 2.25900 45.71000
H  8.83700 2.51000 44.98500
H  8.84300 1.58500 46.47400
Mg 54.79100 23.38400 45.29100
C  52.34400 25.71600 44.27300
C  52.65600 20.90300 44.32700
C  57.23400 21.22200 45.89300
C  56.87400 26.03200 46.26300
N  52.87500 23.35300 44.12000
C  51.95400 24.42300 44.03900
C  50.58500 23.89000 43.40400
C  50.58500 22.43700 43.94500
C  52.13800 22.21700 44.09600
C  49.87400 22.18900 45.22100
C  50.39900 24.13000 41.87200
C  49.05200 24.63600 41.40000
H  48.50700 23.98100 40.14200
N  54.88800 21.29600 45.09000
C  53.93500 20.39600 44.72900
C  54.44100 19.05200 44.80200
C  55.76200 19.11800 45.17700
C  56.01700 20.58400 45.45600
C  53.58900 17.86400 44.55100
C  56.73500 17.95400 45.46900
O  56.38000 16.75700 45.38600
C  58.18300 18.15300 45.84700
N  56.79400 23.64100 45.74600
C  57.53400 22.53600 46.09200
C  58.93600 22.92600 46.50500
C  58.83500 24.48500 46.47000
C  57.39800 24.78500 46.25500
C  59.39700 22.41900 47.92700
C  59.75300 25.23900 45.45500
C  60.79800 26.24200 46.06900
N  54.70000 25.50700 45.22900
C  55.59100 26.37300 45.74900
C  54.99400 27.73100 45.62600
C  53.69700 27.47200 44.99700
C  53.62000 26.09800 44.79500
C  55.54600 29.06400 46.04000
C  52.45100 28.11700 44.58100
O  52.09800 29.26400 44.72100
C  51.67000 26.97400 43.91500
C  51.69100 27.21300 42.48600
O  52.54800 26.90200 41.67700
O  50.57000 27.98100 42.22200
C  50.44900 28.35900 40.80900
H  51.90200 20.11400 44.30300
H  58.05200 20.54900 46.16000
H  57.55500 26.86200 46.45900
H  49.82400 24.40400 43.99200
H  50.23200 21.73600 43.18900
H  48.98100 22.79400 45.37400
H  50.50200 22.39200 46.08900
H  49.46600 21.18000 45.27200
H  50.72300 23.16400 41.48500
H  51.16300 24.82400 41.52000
H  49.17100 25.67100 41.08000
H  48.34500 24.52200 42.22200
H  52.69300 18.04800 45.14400
H  54.03300 16.98500 45.01800
H  53.38000 17.76000 43.48600
H  58.77600 18.77700 45.17900
H  58.68300 17.22000 46.10800
H  58.15900 18.57400 46.85200
H  59.58500 22.56600 45.70700
H  59.12200 24.60400 47.51400
H  59.29100 23.12800 48.74800
H  60.40200 22.01000 47.82800
H  58.78900 21.53900 48.13700
H  59.14800 25.73500 44.69600
H  60.31100 24.44700 44.95400
H  61.78600 26.08000 45.63600
H  60.74400 26.09100 47.14700
H  60.46400 27.24200 45.79200
H  56.57300 29.21700 45.71100
H  55.48000 29.17700 47.12200
H  54.94200 29.87900 45.64000
H  50.66200 27.01200 44.32700
H  50.33100 29.43200 40.65600
H  49.60600 27.77800 40.43400
H  51.32500 28.29600 40.16300

