158

Mg 45.15600 4.82700 46.90400
C  42.57900 7.46300 46.55400
C  42.46900 2.57100 46.56600
C  47.37000 2.43300 46.34300
C  47.55900 7.31500 46.75400
N  42.78100 4.98700 46.41300
C  41.98100 6.16800 46.44300
C  40.52500 5.74100 46.15200
C  40.54200 4.31100 46.70300
C  42.04200 3.88900 46.51200
C  40.04800 4.05900 48.13900
C  40.03400 5.77700 44.67700
C  41.03800 5.87100 43.54600
H  40.65100 6.43400 42.12300
N  45.00100 2.76600 46.61500
C  43.79000 2.06400 46.56300
C  44.10100 0.63700 46.36900
C  45.51200 0.57900 46.14600
C  46.04100 1.92200 46.43600
C  43.19700 -0.50000 46.34400
C  46.35900 -0.63600 45.67800
O  45.81400 -1.69700 45.32900
C  47.85200 -0.60700 45.59100
N  47.10700 4.83900 46.70800
C  47.87600 3.72100 46.56400
C  49.36000 4.02400 46.72200
C  49.35100 5.60300 46.64700
C  47.93500 5.97500 46.63300
C  49.91800 3.44100 48.08500
C  50.20200 6.07600 45.40100
C  49.63500 5.83700 44.01800
N  45.12000 6.90500 46.72700
C  46.18000 7.79700 46.68800
C  45.65900 9.18100 46.73200
C  44.29200 9.03500 46.71200
C  43.98600 7.65400 46.69500
C  46.55800 10.39100 46.48000
C  43.08800 9.78300 46.78400
O  42.97100 11.02500 46.78500
C  41.80400 8.76200 46.72200
C  41.06300 8.72100 48.01900
O  41.06600 7.82400 48.83600
O  40.41800 9.93700 48.25800
C  39.47800 10.01800 49.35900
H  41.71800 1.77800 46.55900
H  48.16000 1.67900 46.33300
H  48.35900 8.02400 46.97300
H  39.89600 6.37700 46.77500
H  39.97900 3.69800 46.00000
H  40.82300 3.48700 48.65000
H  39.10400 3.53300 47.99600
H  39.84200 4.98600 48.67500
H  39.46500 6.70600 44.71300
H  39.29400 5.02900 44.39300
H  41.35800 4.86200 43.28500
H  41.86400 6.47700 43.92000
H  43.53800 -1.30100 46.99900
H  43.21400 -0.96700 45.35900
H  42.15200 -0.18900 46.32500
H  48.19900 -1.59500 45.28900
H  48.07000 -0.39900 46.63800
H  48.32200 0.15800 44.97300
H  49.86900 3.54700 45.88500
H  49.92600 5.94900 47.50600
H  49.22300 2.69800 48.47700
H  50.04000 4.23700 48.81900
H  50.90500 3.02900 47.87500
H  51.17100 5.58800 45.50400
H  50.32000 7.15200 45.52900
H  50.28300 5.12400 43.51000
H  49.71400 6.82500 43.56600
H  48.60200 5.51700 44.15900
H  46.27900 11.01900 47.32600
H  46.20900 10.87700 45.56900
H  47.59600 10.06100 46.44900
H  41.15300 8.96600 45.87100
H  39.96500 10.13300 50.32800
H  38.95500 9.09900 49.62900
H  38.85800 10.89300 49.16800
Mg 30.96200 58.25200 39.92100
C  28.45900 56.20800 38.34800
C  33.16700 55.70300 39.27900
C  33.56900 60.39900 40.34100
C  28.70400 60.86500 39.88500
N  30.81900 56.24500 38.75400
C  29.72000 55.59200 38.29800
C  29.96000 54.15600 37.87600
C  31.43100 53.95800 38.37200
C  31.85600 55.36900 38.81900
C  31.62800 52.82400 39.44200
C  29.70600 53.71400 36.37500
C  29.73500 54.89400 35.33800
H  28.61600 54.71000 34.21600
N  33.07300 58.09300 39.89600
C  33.72800 56.91400 39.66300
C  35.12300 57.16400 39.70600
C  35.31700 58.53300 40.12400
C  33.91700 59.04500 40.16900
C  36.12000 55.92600 39.41900
C  36.56900 59.13700 40.60700
O  37.55000 58.42500 40.76100
C  36.59800 60.50800 41.17200
N  31.18400 60.30500 40.14300
C  32.29300 60.97100 40.30100
C  31.99100 62.49000 40.56700
C  30.46800 62.55200 40.41000
C  30.07600 61.11400 40.05400
C  32.58900 62.84800 42.01100
C  29.89800 63.64200 39.47100
C  30.12800 63.44200 37.95800
N  28.93200 58.49200 39.25400
C  28.18000 59.68300 39.36700
C  26.88800 59.37600 38.90900
C  26.92000 58.02800 38.53000
C  28.23000 57.54500 38.71200
C  25.81500 60.44900 38.73400
C  26.12900 56.94600 37.94900
O  24.93800 56.89400 37.60300
C  27.12600 55.66000 37.92400
C  26.55800 54.70100 38.96300
O  26.97700 54.51400 40.09700
O  25.35700 54.17900 38.50600
C  24.69800 53.40300 39.45500
H  33.84200 54.85400 39.16100
H  34.37800 61.10100 40.55400
H  28.01400 61.71000 39.92900
H  29.30600 53.50200 38.45200
H  32.07700 53.69600 37.53400
H  30.69400 52.33500 39.71500
H  32.16200 52.99100 40.37700
H  32.11100 51.99600 38.92300
H  28.71500 53.26300 36.33500
H  30.56600 53.08300 36.15200
H  30.68800 54.89400 34.80900
H  29.42500 55.82600 35.81200
H  35.85100 55.34600 38.53600
H  35.95100 55.21800 40.23000
H  37.13700 56.31400 39.36200
H  35.72100 60.54200 41.81800
H  36.61600 61.21300 40.34000
H  37.49800 60.65700 41.76800
H  32.42400 63.11300 39.78500
H  29.97800 62.64900 41.37900
H  33.15600 63.77300 41.90200
H  33.18600 62.00300 42.35400
H  31.75100 63.01200 42.68900
H  30.40000 64.54200 39.82700
H  28.82400 63.72200 39.63800
H  29.25200 63.07200 37.42500
H  30.89800 62.70500 37.72700
H  30.45200 64.38400 37.51600
H  25.65400 60.88600 39.72000
H  24.84200 60.02700 38.48200
H  26.09100 61.23700 38.03400
H  26.90600 55.25000 36.93800
H  24.63900 53.98900 40.37200
H  25.26100 52.49500 39.67000
H  23.69700 53.09500 39.15000

