158

Mg 46.75900 34.63800 28.67900
C  45.19300 32.35100 30.72500
C  46.71800 36.89200 31.19100
C  47.83100 36.91700 26.45800
C  46.04100 32.41400 25.85900
N  46.16600 34.53600 30.71600
C  45.47900 33.52800 31.43500
C  45.30800 33.87700 32.91500
C  45.27800 35.43000 32.75300
C  46.15800 35.62000 31.48500
C  43.82900 35.99200 32.63500
C  46.41200 33.20000 33.90200
C  47.40900 33.94300 34.76000
H  46.91200 34.47700 36.15800
N  47.53300 36.57300 28.92400
C  47.46800 37.36100 30.04500
C  48.16400 38.53800 29.88900
C  48.49100 38.58500 28.48600
C  47.92700 37.37400 27.86000
C  48.46700 39.40800 31.04100
C  49.25100 39.59600 27.71100
O  49.55500 39.38600 26.52200
C  49.63300 40.95200 28.32000
N  46.89800 34.61800 26.47700
C  47.35500 35.72400 25.85700
C  47.39100 35.49900 24.32500
C  46.81800 34.06500 24.19800
C  46.63000 33.61800 25.60100
C  46.79300 36.65200 23.46000
C  47.61000 33.08600 23.25600
C  46.85200 32.56100 22.02000
N  45.86900 32.75500 28.33200
C  45.67400 31.93400 27.16900
C  44.90500 30.76400 27.49700
C  44.76700 30.83100 28.94300
C  45.22100 32.08200 29.34200
C  44.47200 29.71300 26.61800
C  44.27400 30.18600 30.14900
O  43.80900 29.10200 30.30300
C  44.37300 31.24600 31.25300
C  44.70900 30.63300 32.60300
O  45.73400 30.12500 32.97500
O  43.59400 30.86900 33.39900
C  43.79200 30.40700 34.81500
H  46.56700 37.68400 31.92800
H  48.15600 37.68800 25.75700
H  45.68000 31.78900 25.04000
H  44.40200 33.55900 33.43000
H  45.76100 35.94900 33.58100
H  43.31400 35.72600 33.55800
H  43.28300 35.61500 31.77100
H  43.89100 37.08000 32.64600
H  46.97600 32.48700 33.30200
H  45.76800 32.84000 34.70500
H  47.55100 34.88000 34.22200
H  48.39000 33.46800 34.76300
H  47.72200 40.20200 31.08500
H  49.37600 39.99400 30.90200
H  48.70800 39.00300 32.02400
H  48.87000 41.47800 28.89400
H  49.91200 41.51100 27.42700
H  50.45900 40.72300 28.99300
H  48.44700 35.42000 24.06600
H  45.75300 34.09400 23.97100
H  46.11200 37.28100 24.03200
H  46.12600 36.12100 22.78100
H  47.57900 37.15400 22.89500
H  47.90300 32.14400 23.72000
H  48.54300 33.55800 22.94900
H  47.54200 32.47400 21.18100
H  46.02600 33.12800 21.58900
H  46.56200 31.53500 22.24500
H  45.33900 29.24600 26.15000
H  43.80800 30.14000 25.86700
H  44.05900 28.84500 27.13200
H  43.38500 31.70000 31.33300
H  43.74600 29.32800 34.96000
H  43.08100 31.02500 35.36200
H  44.82100 30.52000 35.15600
Mg 35.95300 50.09000 26.23400
C  35.57400 48.07100 29.13100
C  35.04300 52.81500 28.18200
C  36.40600 51.98400 23.59100
C  36.71400 47.13400 24.46500
N  35.46700 50.38800 28.30900
C  35.42300 49.44800 29.30200
C  35.42600 50.14900 30.69400
C  34.69400 51.51900 30.35300
C  35.08100 51.59300 28.84900
C  33.19000 51.56500 30.59000
C  36.79400 50.28600 31.34800
C  36.76100 50.09400 32.86400
H  35.48700 50.15900 33.66600
N  35.77500 52.10900 25.90500
C  35.40700 53.07300 26.83700
C  35.42600 54.33300 26.28800
C  35.94200 54.21800 24.91200
C  36.10400 52.74900 24.71200
C  34.95100 55.48700 27.05200
C  36.28200 55.28400 23.83700
O  36.63400 54.93800 22.73200
C  36.05400 56.73300 24.18000
N  36.27900 49.58900 24.29900
C  36.53900 50.57600 23.39100
C  36.84600 49.97900 22.03200
C  37.34000 48.56500 22.43500
C  36.64500 48.33500 23.77600
C  35.57200 50.07600 21.13000
C  38.85300 48.35100 22.52600
C  39.44500 47.26600 21.67700
N  36.13400 47.97300 26.68700
C  36.41800 46.91300 25.87000
C  36.42400 45.71800 26.64100
C  36.18300 46.10700 27.89400
C  35.94500 47.46600 27.90100
C  36.72400 44.34500 26.17400
C  36.01700 45.68000 29.26500
O  36.10500 44.57400 29.72400
C  35.63400 46.95200 30.16000
C  34.37100 46.75900 30.92700
O  33.22200 47.03500 30.57800
O  34.60000 46.13300 32.16100
C  33.41200 45.76700 32.87600
H  34.58200 53.53300 28.86300
H  36.77100 52.63400 22.79400
H  36.96700 46.22800 23.90900
H  34.77700 49.49700 31.27900
H  35.06500 52.32300 30.98800
H  32.88100 50.66000 31.11200
H  32.73200 51.64000 29.60400
H  32.82000 52.36900 31.22600
H  37.34500 51.17900 31.05500
H  37.42500 49.51500 30.90500
H  37.46200 50.72500 33.40900
H  37.14700 49.07700 32.92500
H  35.74800 55.90800 27.66400
H  34.10400 55.22500 27.68700
H  34.59400 56.27400 26.38800
H  36.47000 57.29000 23.34100
H  36.69800 57.00500 25.01700
H  35.01000 57.03700 24.25900
H  37.74000 50.44500 21.61600
H  36.94500 47.87100 21.69200
H  35.23900 51.10100 20.96700
H  34.64500 49.56300 21.38700
H  35.87700 49.72700 20.14400
H  39.13200 48.32400 23.57900
H  39.34700 49.23800 22.13100
H  40.02700 46.71400 22.41500
H  39.96600 47.62200 20.78800
H  38.67600 46.56500 21.35200
H  37.13200 44.43500 25.16700
H  35.85400 43.69400 26.08700
H  37.46800 44.02600 26.90400
H  36.48600 47.17200 30.80300
H  33.62500 45.12300 33.72900
H  32.59000 45.35600 32.28800
H  32.99800 46.62700 33.40200

