158

Mg 25.33600 0.94500 29.61700
C  27.46100 0.98400 32.18600
C  22.69100 1.34000 31.69000
C  23.24700 0.57900 26.95100
C  28.10800 0.40400 27.40600
N  25.09800 1.01800 31.73200
C  26.12800 1.13100 32.59900
C  25.55600 1.44900 34.05100
C  24.04400 1.27600 33.86700
C  23.93300 1.21200 32.37400
C  23.47200 0.02800 34.57500
C  26.06400 2.80000 34.70800
C  26.81800 2.77000 36.11800
H  26.66700 3.74700 37.25300
N  23.25500 0.89100 29.37000
C  22.32300 1.16900 30.34500
C  20.96500 1.20200 29.83400
C  21.09100 0.98800 28.44400
C  22.61200 0.84900 28.14600
C  19.68700 1.14000 30.71300
C  20.01000 0.84200 27.37000
O  20.37900 0.60600 26.20700
C  18.54500 1.01300 27.72400
N  25.68800 0.43300 27.43600
C  24.63200 0.46400 26.56900
C  25.08900 0.63000 25.16700
C  26.63000 0.84200 25.24900
C  26.87400 0.56200 26.76800
C  24.72900 -0.56500 24.19900
C  27.11400 2.26800 24.74400
C  27.27100 3.40900 25.73600
N  27.39000 0.63100 29.70100
C  28.33000 0.34700 28.77100
C  29.60400 0.18600 29.41200
C  29.33200 0.46700 30.78000
C  27.94900 0.73600 30.90300
C  30.93200 -0.06400 28.77700
C  29.84000 0.57600 32.16100
O  30.98200 0.51900 32.57700
C  28.65300 1.01600 33.10200
C  28.58600 0.10000 34.32400
O  28.09200 -1.00500 34.32900
O  29.19400 0.62700 35.52500
C  29.31200 -0.24800 36.71800
H  21.81700 1.50900 32.32200
H  22.60600 0.70800 26.07700
H  28.99500 0.45100 26.77100
H  26.00100 0.69200 34.69700
H  23.44400 2.13800 34.15700
H  24.15000 -0.28800 35.36800
H  23.34900 -0.84900 33.94000
H  22.48700 0.24800 34.98600
H  25.16000 3.29300 35.06700
H  26.66500 3.31100 33.95700
H  27.88400 2.77200 35.89400
H  26.77900 1.80000 36.61200
H  19.82000 1.16800 31.79400
H  19.34200 0.12700 30.50300
H  18.94400 1.86100 30.37200
H  18.28900 0.12900 28.30700
H  17.94200 1.07400 26.81800
H  18.25000 1.88700 28.30600
H  24.68300 1.54500 24.73500
H  27.28000 0.13000 24.74100
H  24.27900 -0.02900 23.36300
H  24.08700 -1.36000 24.58000
H  25.61900 -1.04000 23.78500
H  26.38300 2.60200 24.00800
H  28.05000 2.09200 24.21300
H  28.28500 3.71100 25.47500
H  26.96700 3.10400 26.73800
H  26.61000 4.20800 25.40000
H  31.11700 0.15200 27.72500
H  31.24500 -1.09800 28.91900
H  31.64800 0.61700 29.23800
H  28.60700 2.05500 33.42800
H  29.29900 -1.30000 36.43300
H  28.57800 -0.13100 37.51500
H  30.29800 -0.02900 37.12900
Mg 42.98600 42.21000 25.75900
C  41.80000 44.58300 27.98900
C  43.98300 40.18800 28.30000
C  43.66300 39.87500 23.38400
C  41.94200 44.43400 23.10800
N  43.05100 42.49300 27.85400
C  42.46200 43.44000 28.62100
C  42.64700 43.17800 30.09600
C  43.68500 42.00600 30.08800
C  43.56700 41.50400 28.63700
C  45.07400 42.40400 30.47700
C  41.33700 42.82900 30.88000
C  41.10900 43.46200 32.26900
H  42.24400 43.50300 33.29200
N  43.87300 40.33800 25.81300
C  44.17500 39.63500 26.95100
C  44.63600 38.29500 26.61000
C  44.48900 38.16800 25.20600
C  43.97800 39.47700 24.71700
C  45.23200 37.34300 27.64800
C  44.67500 36.93300 24.33400
O  44.56400 37.03300 23.09700
C  44.99700 35.62000 24.92700
N  42.97300 42.15100 23.46200
C  43.15300 41.04200 22.78100
C  42.96600 41.27000 21.23100
C  42.15500 42.65500 21.23700
C  42.42700 43.14100 22.68200
C  44.24300 41.31900 20.47800
C  40.62900 42.49000 20.90500
C  39.94400 41.47700 21.82500
N  42.25400 44.26900 25.51000
C  41.90400 45.04000 24.40800
C  41.27000 46.31900 24.87500
C  41.29800 46.18900 26.27800
C  41.81100 44.88100 26.59300
C  40.82100 47.48800 24.05800
C  40.93200 46.83300 27.52500
O  40.38200 47.87600 27.68800
C  41.11500 45.78900 28.69100
C  41.85400 46.37000 29.74500
O  43.12000 46.44200 29.78000
O  40.99200 46.77700 30.79800
C  41.71900 47.14500 32.09500
H  44.24400 39.63100 29.20200
H  43.90200 39.13200 22.62000
H  41.58400 45.07900 22.30300
H  43.04400 44.07700 30.56800
H  43.43800 41.23000 30.81300
H  45.77300 42.31900 29.64400
H  45.35900 41.70800 31.26600
H  45.25100 43.41900 30.83300
H  41.19900 41.76300 31.06100
H  40.60400 43.09700 30.11800
H  40.20500 43.06200 32.72800
H  40.74500 44.47000 32.07300
H  45.47300 37.81100 28.60300
H  46.18800 36.93200 27.32500
H  44.54600 36.50900 27.79600
H  44.27400 35.38100 25.70600
H  45.90500 35.67700 25.52900
H  44.99200 34.83800 24.16800
H  42.29200 40.47500 20.91300
H  42.51500 43.22200 20.37800
H  45.06300 41.24400 21.19100
H  44.26500 42.19900 19.83500
H  44.18400 40.44800 19.82500
H  40.55300 42.16200 19.86900
H  40.13000 43.45900 20.90600
H  39.62800 40.66000 21.17600
H  39.07200 41.92000 22.30500
H  40.65100 40.99700 22.50100
H  41.55700 48.25100 24.31200
H  39.85800 47.83200 24.43500
H  40.78400 47.33400 22.97900
H  40.17400 45.52000 29.17100
H  41.47700 48.17500 32.35900
H  42.80500 47.06100 32.10600
H  41.47800 46.44900 32.89800

