158

Mg 1.29900 -1.10600 44.15700
C  4.36600 0.11800 43.20800
C  -0.20300 1.55700 42.64400
C  -1.72400 -2.50900 44.74800
C  2.93200 -4.02400 45.28900
N  2.08600 0.59700 42.90300
C  3.34600 0.95500 42.69400
C  3.49600 2.15000 41.78000
C  2.01700 2.75800 41.86600
C  1.22700 1.53700 42.47300
C  1.87800 3.95600 42.94900
C  4.00000 1.89300 40.26200
C  3.69800 0.48700 39.67700
H  3.38000 0.24300 38.24600
N  -0.74200 -0.54700 43.66400
C  -1.16300 0.60000 43.07400
C  -2.59900 0.63200 43.11000
C  -2.97800 -0.46900 43.90300
C  -1.80500 -1.22700 44.13700
C  -3.35200 1.79000 42.43400
C  -4.41400 -0.75800 44.31100
O  -5.31600 -0.05900 43.83100
C  -4.82400 -1.86500 45.18600
N  0.76600 -3.09900 44.80100
C  -0.55100 -3.33200 45.01600
C  -0.77600 -4.78200 45.69500
C  0.69300 -5.30400 45.61200
C  1.53400 -4.07900 45.14200
C  -1.39400 -4.75900 47.05600
C  0.93300 -6.58800 44.81000
C  0.85700 -7.85500 45.65000
N  3.25700 -1.80500 44.30800
C  3.80900 -2.97200 44.81300
C  5.29200 -2.94700 44.75900
C  5.52900 -1.74200 44.16200
C  4.28000 -1.14400 43.89600
C  6.31100 -3.94600 45.30600
C  6.63800 -0.81800 43.71600
O  7.89300 -0.91600 43.74200
C  5.85900 0.36400 43.03100
C  6.35800 1.64200 43.70500
O  5.91900 2.11400 44.71800
O  7.44300 2.16100 42.93500
C  8.04900 3.46800 43.31500
H  -0.65700 2.38100 42.09000
H  -2.66300 -2.92300 45.12100
H  3.44700 -4.85900 45.76800
H  4.20300 2.91800 42.09500
H  1.50600 3.00500 40.93500
H  1.56900 4.85000 42.40800
H  2.77900 4.12900 43.53800
H  1.24900 3.75400 43.81600
H  5.03200 2.15900 40.03200
H  3.28400 2.45000 39.65800
H  2.89300 0.00500 40.23100
H  4.55800 -0.15900 39.85300
H  -4.30900 2.01800 42.90300
H  -3.44200 1.65400 41.35600
H  -2.71300 2.67300 42.46300
H  -5.89300 -1.75700 45.37200
H  -4.28300 -2.02500 46.11800
H  -4.73300 -2.72600 44.52300
H  -1.35200 -5.35000 44.96400
H  1.12600 -5.37000 46.61100
H  -1.78900 -5.75700 47.24600
H  -2.21500 -4.04400 47.00300
H  -0.70300 -4.37700 47.80700
H  1.86800 -6.54900 44.25100
H  0.09600 -6.58700 44.11300
H  1.05800 -8.67800 44.96500
H  -0.09300 -7.97800 46.17000
H  1.56800 -7.87900 46.47700
H  5.96000 -4.94400 45.04500
H  6.53200 -3.87600 46.37200
H  7.17200 -3.69700 44.68700
H  6.15200 0.42400 41.98300
H  7.91800 3.68400 44.37500
H  7.51900 4.21800 42.72700
H  9.09500 3.60400 43.04200
Mg 26.82000 51.38000 25.20500
C  24.86900 52.59900 27.85300
C  28.94400 49.97500 27.64500
C  28.75600 50.44700 22.86800
C  24.59200 52.89400 23.06000
N  26.82600 51.22900 27.36300
C  25.91300 51.83500 28.22900
C  26.24700 51.58800 29.65500
C  27.68200 50.95800 29.62400
C  27.84400 50.63500 28.14100
C  28.88300 51.90100 29.99800
C  25.21200 50.60200 30.27100
C  24.66700 51.07500 31.54000
H  25.57200 51.67600 32.64500
N  28.73200 50.31300 25.21000
C  29.46100 49.89500 26.32600
C  30.68400 49.27700 25.84800
C  30.62800 49.45000 24.41300
C  29.30700 50.03800 24.09900
C  31.71100 48.67100 26.76700
C  31.73900 49.07800 23.32400
O  31.64300 49.17200 22.10500
C  33.04500 48.60400 23.86300
N  26.71900 51.73500 23.19000
C  27.67600 51.23400 22.45500
C  27.33900 51.35500 20.93500
C  25.96700 52.11100 21.00600
C  25.70100 52.30800 22.49700
C  28.40300 52.02100 20.07100
C  24.74300 51.31000 20.38400
C  23.91600 52.09200 19.36600
N  25.11600 52.58300 25.37500
C  24.28400 53.08100 24.41800
C  23.16600 53.80700 25.01900
C  23.38400 53.61000 26.39600
C  24.54200 52.87600 26.53300
C  22.14700 54.73200 24.44000
C  22.89200 54.03900 27.70000
O  21.93800 54.76000 27.98900
C  23.81200 53.31300 28.76300
C  24.38800 54.39600 29.63700
O  25.32300 55.07700 29.39700
O  23.59900 54.59100 30.82200
C  23.86400 55.78900 31.68400
H  29.57800 49.52700 28.41300
H  29.05000 49.92700 21.95400
H  23.92500 53.31800 22.30500
H  26.35100 52.53200 30.18900
H  27.78500 50.08800 30.27300
H  28.52000 52.77500 30.54000
H  29.38300 52.23800 29.09000
H  29.58200 51.32700 30.60700
H  25.59300 49.58400 30.34500
H  24.32900 50.41900 29.65900
H  24.16600 50.29400 32.11200
H  23.76000 51.66000 31.38600
H  31.73700 47.59100 26.62100
H  31.45000 48.92400 27.79500
H  32.66000 49.16300 26.55400
H  33.41100 49.50400 24.35700
H  33.75500 48.30800 23.09000
H  33.02800 47.76500 24.55800
H  27.30800 50.34600 20.52500
H  26.17300 53.10400 20.60500
H  27.99400 52.84000 19.47800
H  28.87800 51.31800 19.38800
H  29.15100 52.31300 20.80800
H  24.01900 50.99700 21.13600
H  25.05700 50.43600 19.81300
H  23.98600 51.64500 18.37500
H  24.24800 53.13000 19.35300
H  22.90100 52.24000 19.73600
H  22.24000 54.52600 23.37400
H  22.41500 55.76200 24.67700
H  21.12700 54.50600 24.74900
H  23.23400 52.57800 29.32300
H  24.86600 55.56800 32.05000
H  23.17000 55.86800 32.52100
H  23.92000 56.72600 31.13000

