158

Mg 54.61900 23.94300 45.03400
C  52.11100 26.26500 44.20900
C  52.67700 21.45000 43.80600
C  57.48800 22.01800 45.08800
C  56.64400 26.80000 46.09400
N  52.72300 23.95500 43.96500
C  51.82700 24.91800 43.75400
C  50.58900 24.46400 42.94500
C  50.71500 22.94100 43.37500
C  52.13800 22.74700 43.74700
C  49.83700 22.60900 44.61800
C  50.64200 24.81100 41.44400
C  49.27300 25.26800 40.88900
H  48.94500 24.70500 39.48100
N  55.00100 22.00100 44.55800
C  54.02100 21.13300 44.10400
C  54.71100 19.79400 43.91600
C  56.08200 19.94400 44.31700
C  56.29600 21.37300 44.69800
C  54.05500 18.53800 43.36900
C  57.12600 18.87200 44.11100
O  56.82800 17.75100 43.65100
C  58.58100 19.02100 44.58700
N  56.77400 24.32200 45.68700
C  57.70700 23.34500 45.54200
C  59.09100 23.94500 45.75800
C  58.86400 25.36100 46.33700
C  57.36300 25.57800 45.98400
C  60.02000 23.14700 46.69600
C  59.94500 26.40600 45.98300
C  60.90500 26.97400 47.01900
N  54.35800 26.09900 45.24400
C  55.24500 27.09200 45.71000
C  54.59500 28.35900 45.71000
C  53.36100 28.08700 45.10300
C  53.28900 26.70000 44.83000
C  55.08100 29.62100 46.27100
C  52.10200 28.67900 44.71600
O  51.71900 29.85100 44.83100
C  51.35300 27.56300 43.97600
C  51.49100 27.90400 42.49900
O  52.60900 27.91200 41.95500
O  50.31100 28.38000 41.98700
C  50.36300 29.17500 40.81400
H  52.03400 20.60900 43.53600
H  58.38000 21.41900 44.89100
H  57.20900 27.64300 46.49500
H  49.75400 25.02900 43.35800
H  50.43700 22.22600 42.59900
H  49.14500 23.39200 44.92900
H  50.58500 22.49600 45.40300
H  49.39500 21.62800 44.44500
H  51.03100 23.92200 40.94900
H  51.40500 25.58700 41.38700
H  49.20900 26.35500 40.84100
H  48.49400 24.98500 41.59700
H  54.20800 17.80600 44.16200
H  54.52400 17.94800 42.58200
H  52.98200 18.64400 43.21100
H  59.18700 19.65300 43.93800
H  59.02800 18.02700 44.61100
H  58.75100 19.42700 45.58400
H  59.46400 23.94400 44.73400
H  58.72800 25.37300 47.41800
H  60.54200 23.85300 47.34200
H  60.69000 22.44200 46.20400
H  59.40600 22.54400 47.36600
H  59.54800 27.26900 45.44700
H  60.66300 25.95300 45.29900
H  61.83000 26.48500 47.32400
H  60.23500 27.06300 47.87500
H  61.24700 27.96800 46.73100
H  54.19300 30.24800 46.34900
H  55.81800 30.14300 45.66100
H  55.64800 29.66400 47.20100
H  50.35400 27.56200 44.41300
H  51.36500 29.58400 40.68800
H  49.78700 30.06700 41.05800
H  49.89800 28.62500 39.99600
Mg 27.26200 50.46800 25.55400
C  25.25800 51.82700 28.13800
C  29.47500 49.41800 28.05600
C  28.92500 49.07300 23.22600
C  24.90300 51.72300 23.23200
N  27.28100 50.56600 27.85900
C  26.34400 51.16700 28.64900
C  26.75300 50.95400 30.15300
C  28.16700 50.39800 30.13500
C  28.32300 50.11800 28.60500
C  29.24500 51.46500 30.58000
C  25.79800 49.99400 30.99800
C  25.01400 50.67100 32.16300
H  25.80200 51.03000 33.52200
N  29.04100 49.49500 25.60100
C  29.79300 49.12300 26.69800
C  30.94700 48.39300 26.16200
C  30.75700 48.11300 24.78600
C  29.57000 48.94100 24.46300
C  32.02900 47.81300 27.03800
C  31.40600 47.07800 23.87600
O  31.05200 46.91900 22.70100
C  32.36000 46.11400 24.40500
N  27.01500 50.46100 23.52700
C  27.78700 49.84300 22.68200
C  27.35800 49.86500 21.24300
C  25.86800 50.30600 21.32700
C  25.89900 50.88500 22.79100
C  28.22400 50.93600 20.46200
C  24.74200 49.26900 21.22100
C  25.11900 47.77100 21.05200
N  25.48400 51.59000 25.59100
C  24.65700 52.06500 24.59700
C  23.65400 52.90300 25.12400
C  23.78700 52.81900 26.49300
C  24.91700 51.97700 26.78100
C  22.60900 53.67100 24.43300
C  23.19400 53.20400 27.73500
O  22.19800 53.79800 28.03600
C  24.17600 52.63300 28.88200
C  24.73000 53.77000 29.69100
O  25.66000 54.50300 29.28400
O  24.00800 53.92400 30.81200
C  24.42800 54.97900 31.73500
H  30.23500 49.20000 28.81000
H  29.45900 48.73100 22.33600
H  24.14600 51.92100 22.47100
H  26.63600 51.91400 30.65400
H  28.42500 49.50100 30.69700
H  28.82400 52.38900 30.97800
H  29.78400 51.83600 29.70800
H  29.93100 50.99500 31.28400
H  26.29600 49.13500 31.44900
H  25.14900 49.53300 30.25300
H  24.27400 49.91900 32.43700
H  24.44000 51.56400 31.91600
H  33.00800 47.88000 26.56400
H  31.99700 46.73500 27.19900
H  32.11400 48.21200 28.04800
H  32.71300 45.53600 23.55100
H  31.70300 45.50300 25.02500
H  33.28400 46.49700 24.83700
H  27.45400 48.92500 20.70000
H  25.62500 51.17400 20.71300
H  27.70200 51.32100 19.58600
H  29.21200 50.59600 20.15300
H  28.24800 51.77700 21.15600
H  24.05200 49.48400 20.40500
H  24.11700 49.38900 22.10600
H  25.57700 47.55300 22.01600
H  25.78900 47.41500 20.27000
H  24.16500 47.24300 21.05400
H  21.96500 53.14100 23.73100
H  23.04600 54.56200 23.98200
H  22.02700 54.06500 25.26700
H  23.62000 52.14300 29.68200
H  25.39900 54.66200 32.11500
H  23.70100 55.13900 32.53100
H  24.71600 55.89500 31.21800

