158

Mg 1.03700 8.28300 26.83400
C  1.80900 10.50900 29.35400
C  1.44500 5.70300 29.29700
C  0.72400 6.00900 24.44600
C  1.06800 10.88500 24.57000
N  1.52100 8.15600 29.05200
C  1.61900 9.23600 29.84000
C  1.38000 8.77100 31.32100
C  1.58400 7.26000 31.29000
C  1.47600 7.03200 29.81200
C  2.95700 6.77600 31.81700
C  -0.04400 9.31400 31.72600
C  -0.19100 9.31000 33.28500
H  0.98500 8.78300 34.18600
N  1.05600 6.16600 26.81500
C  1.17500 5.28900 27.87700
C  1.05300 3.91000 27.47100
C  1.01900 4.02700 26.01400
C  0.90900 5.46000 25.68500
C  1.09100 2.74600 28.41400
C  1.19000 2.93400 24.95900
O  1.26700 3.14100 23.76900
C  1.38400 1.50700 25.43700
N  1.10800 8.44500 24.74000
C  0.73900 7.34800 23.97500
C  0.39100 7.76500 22.52800
C  0.30800 9.36200 22.64300
C  0.86500 9.59600 24.05500
C  1.39000 7.31400 21.42400
C  -1.04400 10.03000 22.34000
C  -0.92500 11.16500 21.25800
N  1.48600 10.29500 26.92000
C  1.50600 11.19800 25.94900
C  1.93900 12.51600 26.47500
C  2.08200 12.32500 27.90400
C  1.79700 10.92100 28.03300
C  2.29200 13.78900 25.65900
C  2.49000 12.85700 29.16300
O  2.96300 13.93600 29.45400
C  2.16800 11.68400 30.18500
C  3.32300 11.51400 31.04900
O  4.35500 10.91700 30.80400
O  3.14700 12.24500 32.21300
C  4.18600 12.29600 33.28600
H  1.34600 4.91000 30.04100
H  0.39700 5.29500 23.68700
H  0.97000 11.67600 23.82300
H  2.10700 9.30600 31.93300
H  0.84800 6.70400 31.87100
H  2.80400 6.09500 32.65500
H  3.56800 7.65400 32.02900
H  3.47900 6.20300 31.05100
H  -0.72800 8.52300 31.41800
H  -0.41800 10.25900 31.33200
H  -1.03900 8.67900 33.55200
H  -0.42200 10.35900 33.47000
H  1.10100 3.08200 29.45100
H  2.03900 2.21900 28.31100
H  0.25900 2.06600 28.23200
H  0.43500 0.99400 25.59400
H  2.09200 1.58700 26.26100
H  1.92700 0.92700 24.69100
H  -0.58600 7.38600 22.22900
H  1.12700 9.74600 22.03500
H  2.34800 7.10400 21.89800
H  1.64500 8.00000 20.61700
H  0.90800 6.45900 20.95000
H  -1.25900 10.61400 23.23500
H  -1.85100 9.34900 22.06900
H  -0.88200 12.05900 21.88000
H  -1.71000 11.26200 20.50800
H  -0.02600 11.04200 20.65300
H  3.14000 14.33300 26.07700
H  1.51500 14.54900 25.57800
H  2.44000 13.51700 24.61400
H  1.31000 12.08200 30.72600
H  4.08400 13.20900 33.87200
H  5.17600 12.23600 32.83300
H  4.03600 11.49200 34.00600
Mg 48.47700 15.77100 29.22700
C  46.32300 15.39200 32.14100
C  50.35700 17.89700 30.80300
C  49.93200 16.52600 26.20900
C  45.81400 14.05200 27.38600
N  48.22200 16.61900 31.19900
C  47.43000 16.29900 32.29900
C  48.00500 16.92100 33.57000
C  48.99300 17.98000 33.00200
C  49.19900 17.49800 31.55200
C  48.59300 19.50200 33.14300
C  48.62000 15.78500 34.57800
C  47.79900 15.52800 35.86200
H  47.72400 16.66800 36.83000
N  50.02800 16.90600 28.62800
C  50.74200 17.62100 29.52800
C  51.95900 18.14600 28.91100
C  51.87100 17.71800 27.57900
C  50.55300 17.01200 27.42500
C  53.06500 18.92700 29.70700
C  52.88900 17.95600 26.48200
O  52.72200 17.40600 25.41600
C  54.13200 18.70500 26.61300
N  47.94300 15.39800 27.09600
C  48.76600 15.75200 26.03800
C  48.21400 15.26300 24.70000
C  46.88300 14.50700 25.07800
C  46.92600 14.58300 26.62200
C  47.95400 16.42200 23.63100
C  46.76600 13.03900 24.54200
C  46.18800 12.97300 23.15900
N  46.56900 14.79200 29.67400
C  45.65600 14.11600 28.84800
C  44.55900 13.59000 29.61500
C  44.75000 14.15500 30.93300
C  45.99200 14.79800 30.90300
C  43.31600 12.84200 29.10000
C  44.22000 14.23800 32.24400
O  43.19200 13.76700 32.67400
C  45.17700 15.12700 33.08100
C  44.52300 16.36500 33.57600
O  43.85500 17.16600 32.92300
O  44.39400 16.34200 34.91600
C  43.34800 17.13000 35.52500
H  50.91700 18.63400 31.38300
H  50.49700 16.63800 25.28100
H  44.98300 13.60400 26.83700
H  47.21200 17.51600 34.02300
H  49.89200 17.81600 33.59500
H  47.77400 19.62200 33.85300
H  48.37900 19.91100 32.15500
H  49.51800 19.96300 33.48700
H  49.67200 15.98200 34.78400
H  48.67500 14.90200 33.94200
H  48.17400 14.66000 36.40400
H  46.76600 15.20900 35.72500
H  54.03300 18.63600 29.29900
H  52.99700 18.67400 30.76500
H  52.97300 20.00300 29.56100
H  54.44200 19.11600 25.65200
H  54.90800 17.99600 26.90200
H  54.00800 19.56500 27.27200
H  48.89900 14.53000 24.27600
H  46.03700 15.07700 24.69500
H  48.35800 16.10700 22.66900
H  48.27100 17.40900 23.96800
H  46.88700 16.58200 23.47400
H  46.05200 12.49000 25.15500
H  47.69500 12.48200 24.66000
H  46.99200 12.86000 22.43200
H  45.58100 13.85000 22.93400
H  45.61300 12.05900 23.01000
H  43.61600 12.62500 28.07500
H  42.41700 13.38600 29.39000
H  43.35000 11.93700 29.70800
H  45.52100 14.56100 33.94700
H  42.62100 17.58200 34.85100
H  43.69400 17.93300 36.17600
H  42.89100 16.39400 36.18700

