158

Mg 41.39000 41.28100 26.90700
C  40.48000 43.62200 29.44600
C  42.54600 39.12800 29.38300
C  42.61000 39.30200 24.45100
C  40.48200 43.56100 24.67100
N  41.57800 41.39600 29.13900
C  41.02700 42.42400 29.95000
C  41.20100 42.14900 31.47400
C  42.05000 40.78200 31.42200
C  42.14200 40.37600 29.90700
C  43.50600 40.88600 31.99400
C  39.74900 42.03500 32.24300
C  39.70000 42.80400 33.54500
H  39.03600 42.11800 34.76400
N  42.38300 39.39100 26.94500
C  42.75100 38.68600 28.06400
C  43.45300 37.51200 27.59900
C  43.36500 37.47700 26.19700
C  42.81000 38.76300 25.76300
C  43.98800 36.46800 28.56500
C  43.72400 36.29000 25.20600
O  43.40200 36.28700 24.03900
C  44.49100 35.08800 25.78100
N  41.67600 41.52100 24.76300
C  42.01800 40.50800 23.92700
C  41.76000 40.82100 22.43600
C  40.73700 41.99100 22.63700
C  40.98100 42.37200 24.11700
C  43.01500 41.25100 21.63400
C  39.25300 41.45700 22.38900
C  38.40900 40.76300 23.41200
N  40.68700 43.13600 26.96500
C  40.39700 44.01100 25.96700
C  39.98000 45.35500 26.51000
C  40.00100 45.17000 27.89200
C  40.39700 43.83400 28.08400
C  39.65500 46.56800 25.62400
C  39.75100 45.88800 29.05200
O  39.29200 46.98400 29.30100
C  40.03100 44.88300 30.17000
C  41.02200 45.42400 31.05900
O  42.24000 45.34200 30.87000
O  40.42400 45.81100 32.26200
C  41.40100 46.05500 33.38000
H  42.84900 38.46800 30.19900
H  42.90200 38.58900 23.67700
H  40.09700 44.13600 23.82600
H  41.82000 42.93000 31.91500
H  41.48200 40.01400 31.94700
H  44.26700 40.90500 31.21400
H  43.71600 40.11700 32.73800
H  43.58100 41.81100 32.56600
H  39.59500 40.97300 32.43900
H  38.91500 42.38800 31.63600
H  39.29200 43.81100 33.45300
H  40.68400 42.97300 33.98300
H  44.91800 36.05800 28.17200
H  43.28900 35.65100 28.74600
H  44.30600 36.89800 29.51400
H  44.01200 34.57400 26.61400
H  45.51300 35.40900 25.98300
H  44.69200 34.35100 25.00400
H  41.25300 40.04700 21.86000
H  40.86600 42.84000 21.96600
H  43.84800 40.97800 22.28100
H  42.85100 42.31600 21.47200
H  43.10300 40.66500 20.71800
H  39.31200 40.83200 21.49800
H  38.57500 42.28900 22.19700
H  38.89300 40.79200 24.38800
H  38.27000 39.71700 23.13600
H  37.47100 41.31600 23.45700
H  40.07900 46.36200 24.64100
H  40.12700 47.51500 25.88300
H  38.58300 46.65200 25.44500
H  39.05900 44.79000 30.65400
H  42.17000 46.72800 33.00000
H  41.86300 45.17000 33.81700
H  40.84600 46.53000 34.18900
Mg 0.79000 42.81500 25.35800
C  2.16000 43.04800 28.68600
C  -2.22300 42.26200 26.66400
C  -0.35600 42.35100 22.23000
C  3.88700 43.36100 24.16400
N  0.14400 42.60200 27.53000
C  0.75400 42.77100 28.70400
C  -0.22000 42.68300 29.82000
C  -1.57400 42.28400 29.09100
C  -1.18900 42.41700 27.61900
C  -2.05100 40.86100 29.47300
C  -0.40700 44.03400 30.50700
C  -1.28800 44.00600 31.82900
H  -2.26200 42.83600 32.09800
N  -1.10900 42.34700 24.57800
C  -2.22000 42.15300 25.24600
C  -3.30300 41.90200 24.27500
C  -2.65800 41.89400 22.97900
C  -1.27800 42.21700 23.23500
C  -4.74300 41.64700 24.78800
C  -3.27900 41.65400 21.66400
O  -2.67800 41.65500 20.56000
C  -4.72800 41.37300 21.62500
N  1.60900 42.79700 23.48000
C  0.95700 42.59400 22.35300
C  1.88500 42.65400 21.12200
C  3.12100 43.29500 21.75300
C  2.90000 43.06200 23.22400
C  2.11400 41.40000 20.26100
C  3.40100 44.78600 21.39300
C  2.94300 45.98500 22.28600
N  2.59800 43.25900 26.20500
C  3.77500 43.49600 25.58000
C  4.88900 43.81300 26.54700
C  4.25700 43.61700 27.76100
C  2.88800 43.30900 27.51900
C  6.40000 44.18100 26.20500
C  4.45300 43.61100 29.19600
O  5.42800 43.77700 29.92200
C  3.06400 43.22400 29.83600
C  3.24500 41.99500 30.57100
O  3.88700 41.00600 30.20500
O  2.55700 42.12000 31.75100
C  2.44200 40.89100 32.58700
H  -3.18500 42.00900 27.11600
H  -0.58800 42.26600 21.16700
H  4.82500 43.73600 23.75000
H  0.06800 41.97700 30.59900
H  -2.32900 43.03200 29.33100
H  -3.12200 40.89100 29.67300
H  -1.46500 40.34100 30.23000
H  -1.82800 40.26000 28.59100
H  -0.92300 44.71700 29.83300
H  0.60200 44.35500 30.76700
H  -2.05400 44.76800 31.68800
H  -0.75300 44.27700 32.73900
H  -5.40300 42.42900 24.41100
H  -4.75900 41.62400 25.87800
H  -5.02600 40.67000 24.39800
H  -4.95200 40.46900 22.19200
H  -5.02000 41.11000 20.60800
H  -5.35600 42.16300 22.03600
H  1.30900 43.35200 20.51500
H  4.01500 42.73200 21.48600
H  3.15000 41.19000 19.99600
H  1.54800 41.52000 19.33700
H  1.85300 40.51100 20.83500
H  3.09500 45.00700 20.37000
H  4.49000 44.78200 21.36300
H  2.54800 45.74300 23.27300
H  2.25200 46.57700 21.68500
H  3.76300 46.68700 22.43500
H  7.22600 43.50100 26.41400
H  6.54300 45.17400 26.63000
H  6.56300 44.40500 25.15100
H  2.73300 43.97400 30.55300
H  2.56300 41.24400 33.61100
H  3.12400 40.05900 32.41000
H  1.39200 40.61200 32.50900

