158

Mg 2.13000 -2.05600 43.80900
C  5.57000 -0.91100 43.20600
C  1.09200 0.65400 42.01400
C  -0.81800 -3.49300 43.54500
C  3.48600 -4.95300 45.17200
N  3.31400 -0.44600 42.53400
C  4.64700 -0.02000 42.65600
C  4.88300 1.38600 42.04000
C  3.38600 1.88400 41.90900
C  2.51300 0.63700 42.17300
C  3.05900 2.95800 42.99600
C  5.64000 1.31300 40.64900
C  6.37000 2.63500 40.35900
H  6.38700 3.19100 38.94300
N  0.37400 -1.46100 42.91200
C  0.09900 -0.28000 42.31600
C  -1.34900 -0.15300 42.11700
C  -1.94000 -1.34000 42.62100
C  -0.74100 -2.17100 43.01100
C  -2.02600 0.92000 41.22000
C  -3.43200 -1.65000 42.56300
O  -4.15000 -0.85800 42.01000
C  -4.05500 -2.85100 43.11200
N  1.47000 -3.96600 44.25300
C  0.14100 -4.29600 44.20700
C  -0.16100 -5.70400 44.71600
C  1.17600 -6.11000 45.38200
C  2.12000 -4.94300 44.91600
C  -1.38000 -6.07100 45.54800
C  1.78700 -7.50700 44.96500
C  2.51200 -8.15100 46.21200
N  4.14200 -2.83400 44.17500
C  4.47400 -4.00400 44.79400
C  5.89700 -4.10400 44.75600
C  6.39400 -2.91700 44.25700
C  5.24100 -2.19900 43.79700
C  6.73800 -5.16100 45.30400
C  7.60600 -2.13200 44.04800
O  8.76300 -2.33800 44.39800
C  7.12400 -0.81200 43.29900
C  7.51200 0.36900 44.12900
O  7.23800 0.57300 45.27200
O  8.19600 1.30300 43.33800
C  8.47700 2.65900 43.82000
H  0.77400 1.64000 41.66900
H  -1.72100 -4.08300 43.37600
H  3.89000 -5.90600 45.51800
H  5.47900 2.02900 42.68800
H  3.31300 2.34100 40.92200
H  2.51000 2.53400 43.83700
H  2.40400 3.73200 42.59700
H  3.93500 3.32700 43.53000
H  4.96400 1.12000 39.81600
H  6.27600 0.43000 40.59700
H  7.39300 2.62500 40.73700
H  5.92700 3.37500 41.02500
H  -2.42700 0.46500 40.31400
H  -1.23900 1.64400 41.01000
H  -2.80900 1.51400 41.69300
H  -5.13900 -2.86700 43.22300
H  -3.72700 -3.11400 44.11800
H  -3.78800 -3.74600 42.55000
H  -0.29000 -6.35600 43.85200
H  1.06000 -5.98100 46.45800
H  -2.09400 -6.68700 45.00100
H  -1.91400 -5.18300 45.88600
H  -1.25100 -6.66300 46.45400
H  2.42800 -7.37100 44.09500
H  1.04200 -8.21000 44.59200
H  1.97800 -9.04900 46.52300
H  2.69100 -7.44700 47.02500
H  3.47500 -8.53900 45.88100
H  7.65400 -4.83300 45.79400
H  7.08400 -5.68500 44.41300
H  6.20400 -5.94500 45.84100
H  7.63700 -0.71100 42.34300
H  7.77400 3.02000 44.57100
H  8.49900 3.43800 43.05800
H  9.47600 2.48700 44.22000
Mg 6.49300 54.21200 40.67800
C  5.87700 50.76800 40.03500
C  9.71900 53.49100 39.78500
C  6.90400 57.45500 40.47900
C  3.15700 54.58800 41.41600
N  7.58400 52.36600 39.61600
C  7.08900 51.07600 39.52100
C  8.22400 50.09700 39.25700
C  9.54400 50.95300 39.72200
C  8.93900 52.34200 39.71400
C  10.06800 50.58600 41.12600
C  8.33100 49.27600 37.86300
C  8.16700 49.98900 36.51000
H  6.98400 49.76500 35.65300
N  8.03500 55.34300 40.08000
C  9.31000 54.87500 39.86300
C  10.22100 55.95900 39.77400
C  9.47400 57.13400 39.95100
C  8.09600 56.68000 40.23400
C  11.64200 55.75500 39.35800
C  9.99500 58.57000 39.95400
O  11.22900 58.71800 39.79700
C  9.17000 59.72900 40.43000
N  5.16700 55.79700 40.71500
C  5.56000 57.06900 40.67500
C  4.44800 58.11100 41.11200
C  3.21400 57.18600 41.15400
C  3.89700 55.74800 41.20200
C  4.84800 58.83300 42.48300
C  2.21800 57.38300 39.96400
C  0.81200 56.81400 39.95600
N  4.87400 52.92600 40.86400
C  3.62100 53.23100 41.26400
C  2.88400 52.03700 41.37700
C  3.68600 50.99400 41.02000
C  4.88100 51.62900 40.60600
C  1.49100 51.84600 41.74200
C  3.81400 49.52700 40.80300
O  2.98600 48.59600 40.89200
C  5.23000 49.36100 40.19200
C  4.99500 48.59100 38.89000
O  4.74200 49.03300 37.76600
O  5.06200 47.26400 39.21100
C  4.67500 46.31500 38.12500
H  10.78200 53.31000 39.61000
H  6.94000 58.54200 40.58500
H  2.15100 54.61000 41.84100
H  8.10800 49.23600 39.91600
H  10.22400 50.83000 38.87800
H  9.45500 49.84700 41.64200
H  9.97400 51.48800 41.73000
H  11.09000 50.25300 40.94200
H  7.59600 48.48300 38.00500
H  9.32100 48.82500 37.92700
H  9.06600 49.78400 35.92900
H  8.22600 51.04300 36.78000
H  11.84000 55.80500 38.28700
H  12.16700 54.85100 39.66500
H  12.17200 56.53700 39.90100
H  8.34600 60.01900 39.77700
H  9.86400 60.55500 40.58400
H  8.86700 59.44400 41.43700
H  4.36800 58.83300 40.29800
H  2.67000 57.26300 42.09500
H  5.87700 58.60600 42.75900
H  4.25100 58.49600 43.33000
H  4.75700 59.88700 42.21800
H  2.70200 56.93800 39.09400
H  2.15100 58.46100 39.82000
H  0.64300 56.30600 40.90600
H  0.67400 56.10400 39.14000
H  0.02900 57.56700 39.86600
H  0.81700 52.24800 40.98600
H  1.30400 52.49200 42.60100
H  1.24600 50.83300 42.06100
H  5.86600 48.59500 40.63500
H  4.83700 46.71200 37.12300
H  3.63500 45.98700 38.13400
H  5.38600 45.49600 38.23500

