158

Mg 26.66200 48.89700 26.52700
C  24.67600 50.14600 28.92400
C  29.14900 48.40100 28.80100
C  28.73500 48.05200 23.92500
C  24.42300 50.19000 24.01600
N  26.85900 49.20200 28.57700
C  25.82700 49.55700 29.38200
C  26.07400 49.20700 30.83200
C  27.65100 48.92600 30.87400
C  27.92800 48.82300 29.36500
C  28.52700 50.02600 31.48000
C  25.18600 48.04600 31.38900
C  24.83600 48.11300 32.88700
H  25.61600 48.88800 33.95500
N  28.65700 48.16800 26.39600
C  29.51200 48.11600 27.42800
C  30.71800 47.43200 26.99900
C  30.66900 47.42800 25.57500
C  29.36200 47.95800 25.21800
C  31.88100 47.11900 27.89000
C  31.78000 47.08000 24.52600
O  31.64400 47.11900 23.33600
C  33.10300 46.73400 24.99700
N  26.50800 48.95200 24.32000
C  27.45600 48.44700 23.49700
C  27.02000 48.37600 22.04500
C  25.60800 49.14500 22.13400
C  25.47200 49.37800 23.61000
C  28.07500 48.72900 21.05800
C  24.49000 48.25300 21.44000
C  24.39200 48.37300 19.90400
N  24.94000 50.11000 26.46000
C  24.12900 50.54700 25.44200
C  22.92400 51.24800 26.02200
C  23.10600 51.12500 27.35700
C  24.36800 50.41700 27.57200
C  21.82600 51.93900 25.22800
C  22.55100 51.48100 28.64100
O  21.51900 52.10100 28.92100
C  23.44000 50.72400 29.63700
C  23.96200 51.73000 30.61100
O  24.78400 52.61200 30.34700
O  23.51500 51.43700 31.87300
C  23.79400 52.41400 32.92000
H  29.81200 48.13700 29.62800
H  29.37500 47.81300 23.07300
H  23.71200 50.54200 23.26500
H  25.84600 50.10600 31.40500
H  27.85600 47.92100 31.24400
H  27.95200 50.90300 31.77600
H  29.30900 50.26600 30.76000
H  29.00100 49.51000 32.31600
H  25.68300 47.08700 31.24200
H  24.25300 48.06900 30.82500
H  24.76900 47.07800 33.22300
H  23.83700 48.55000 32.87200
H  31.97000 46.04000 27.76600
H  31.81600 47.53500 28.89600
H  32.75200 47.70500 27.59900
H  33.02700 45.88400 25.67500
H  33.53100 47.53500 25.60100
H  33.87900 46.64600 24.23700
H  26.78500 47.32500 21.88300
H  25.54900 50.17800 21.79000
H  28.96300 49.16800 21.51400
H  27.72800 49.30200 20.19900
H  28.33100 47.80000 20.54900
H  23.52400 48.60300 21.80400
H  24.53300 47.24600 21.85700
H  25.12600 49.03700 19.44700
H  23.39400 48.72700 19.64400
H  24.50000 47.39200 19.44100
H  21.01400 52.06600 25.94500
H  21.59200 51.40600 24.30700
H  22.09900 52.95900 24.95700
H  22.91600 49.98200 30.24000
H  24.10800 51.85300 33.80000
H  22.98900 53.11100 33.15400
H  24.69500 52.96500 32.65000
Mg -1.89100 33.88700 27.13800
C  -3.73000 31.90900 29.32600
C  -0.42700 35.52100 29.71800
C  -0.60100 36.22300 24.90100
C  -3.71400 32.55000 24.53500
N  -2.37900 33.98400 29.24300
C  -3.00300 32.95300 29.93400
C  -2.64800 33.01100 31.38600
C  -1.74700 34.29400 31.51400
C  -1.50800 34.69700 30.04800
C  -2.38800 35.36300 32.40700
C  -2.00100 31.67300 31.91200
C  -2.82800 31.00300 33.00700
H  -2.08300 30.83800 34.32400
N  -0.57200 35.55300 27.29800
C  -0.02700 36.06400 28.49900
C  0.97800 37.01200 28.14300
C  0.94000 37.26900 26.68200
C  -0.09800 36.31000 26.20500
C  1.70600 37.72200 29.19800
C  1.74100 38.18300 25.82700
O  1.46100 38.34900 24.65900
C  2.82600 39.02200 26.40700
N  -2.17200 34.32600 24.98600
C  -1.51300 35.29500 24.33200
C  -1.86500 35.24400 22.84200
C  -2.70600 33.99700 22.65800
C  -2.87600 33.56600 24.13600
C  -2.45100 36.58600 22.20100
C  -1.99300 32.91900 21.84400
C  -0.91800 32.07600 22.52000
N  -3.43600 32.51200 26.91500
C  -3.94400 31.95300 25.78200
C  -4.74300 30.76600 26.15400
C  -4.68600 30.72500 27.50800
C  -3.90900 31.79200 27.91600
C  -5.53800 29.88400 25.25700
C  -5.17300 29.97600 28.63400
O  -5.94800 28.99700 28.69300
C  -4.51600 30.71400 29.91300
C  -5.55300 31.06500 30.94900
O  -6.30600 32.02200 30.92700
O  -5.69300 30.06100 31.90700
C  -6.84400 29.98800 32.77000
H  0.20700 35.82100 30.55500
H  -0.30200 36.96500 24.15800
H  -4.27800 32.10300 23.71400
H  -3.58500 33.13900 31.92800
H  -0.72300 34.06900 31.81300
H  -3.11700 35.86200 31.76800
H  -1.65800 36.12600 32.67900
H  -2.87800 35.03000 33.32200
H  -1.04300 31.99300 32.32300
H  -1.66000 31.06200 31.07700
H  -3.00800 29.98500 32.66300
H  -3.73600 31.52400 33.31100
H  1.37600 38.75900 29.25300
H  2.76400 37.70500 28.93300
H  1.54100 37.37300 30.21700
H  2.54800 39.74000 27.17800
H  3.24300 39.67900 25.64400
H  3.52500 38.33300 26.88300
H  -0.91600 35.18200 22.30900
H  -3.68500 34.24300 22.24600
H  -2.44700 37.37500 22.95300
H  -3.50800 36.52800 21.94100
H  -1.80000 36.74700 21.34200
H  -1.49100 33.38000 20.99300
H  -2.78200 32.29200 21.43000
H  0.08100 32.35700 22.18500
H  -1.19900 31.04500 22.30500
H  -0.92200 32.25800 23.59500
H  -5.12800 28.87600 25.32200
H  -5.56200 30.27100 24.23800
H  -6.59700 29.72500 25.46100
H  -3.79200 30.02600 30.34800
H  -6.78500 29.03000 33.28800
H  -7.79600 30.07600 32.24800
H  -6.86300 30.81600 33.47800

