158

Mg 44.59600 3.13900 47.32400
C  42.53600 6.08600 46.82400
C  41.99700 1.15800 46.70200
C  46.73200 0.71600 46.96200
C  47.35100 5.52600 47.30400
N  42.51400 3.62500 46.79400
C  41.87000 4.90400 46.59300
C  40.41000 4.69800 46.25200
C  40.14700 3.12600 46.53300
C  41.66000 2.55900 46.70400
C  39.30200 2.84400 47.78600
C  40.28600 5.03600 44.77600
C  39.19200 6.10100 44.48300
H  39.42300 7.04400 43.23500
N  44.38000 1.17200 46.97900
C  43.22000 0.48200 46.83700
C  43.53700 -0.96000 46.65200
C  44.93300 -1.10300 46.67100
C  45.37700 0.25200 46.95700
C  42.50400 -2.07800 46.38100
C  45.70900 -2.42700 46.42800
O  45.10900 -3.50100 46.04500
C  47.22000 -2.62900 46.49500
N  46.77000 3.16900 47.12400
C  47.35800 1.93900 47.08100
C  48.93200 2.08500 46.88100
C  49.08900 3.63700 47.21500
C  47.67000 4.15800 47.19900
C  49.87800 1.09700 47.60400
C  50.10300 4.41400 46.28700
C  51.39900 4.96900 46.85800
N  44.92800 5.35300 47.27200
C  46.08800 6.08900 47.29100
C  45.84700 7.49100 47.12000
C  44.41400 7.51300 47.05200
C  43.91200 6.24400 47.15100
C  46.82100 8.55300 46.94600
C  43.30800 8.34300 46.77100
O  43.24900 9.55200 46.70500
C  42.01700 7.47800 46.62400
C  41.06600 7.91100 47.70100
O  41.21300 7.68400 48.91900
O  40.09400 8.63500 47.20200
C  39.10600 9.30400 48.08400
H  41.14400 0.50000 46.52000
H  47.43700 -0.11600 46.91800
H  48.22700 6.17800 47.29500
H  39.75200 5.31200 46.86700
H  39.62000 2.48600 45.82600
H  38.89700 3.81300 48.07800
H  39.99400 2.49000 48.55100
H  38.52200 2.11500 47.56500
H  39.99900 4.10200 44.29100
H  41.24900 5.35800 44.37900
H  38.85600 6.68700 45.33900
H  38.42300 5.35500 44.28200
H  42.51500 -2.22500 45.30100
H  41.52700 -1.60100 46.45400
H  42.63100 -3.01600 46.92200
H  47.80700 -2.17200 45.69700
H  47.44900 -3.69300 46.54700
H  47.58600 -2.20200 47.42900
H  49.06000 1.81800 45.83200
H  49.35800 3.87400 48.24500
H  50.46200 0.49000 46.91300
H  49.31100 0.47200 48.29400
H  50.58400 1.68200 48.19400
H  49.58100 5.25400 45.83000
H  50.46800 3.75800 45.49600
H  51.31600 6.04600 47.00900
H  52.23000 4.59100 46.26300
H  51.64100 4.39600 47.75300
H  46.63000 9.19700 47.80500
H  46.57300 9.23000 46.12800
H  47.89600 8.37300 46.96800
H  41.69700 7.75500 45.62000
H  38.91400 10.26600 47.60800
H  39.54000 9.56400 49.05000
H  38.14300 8.80400 48.19500
Mg -1.69500 34.75700 26.06400
C  -3.06100 32.91600 28.69400
C  -0.10300 36.76200 28.42100
C  -0.58600 36.64300 23.61400
C  -3.36100 32.71100 23.79600
N  -1.67200 34.86400 28.26200
C  -2.13700 33.87900 29.14500
C  -1.94100 34.32500 30.60300
C  -1.30000 35.75500 30.42100
C  -0.90000 35.74800 28.98400
C  -2.29900 36.91600 30.64300
C  -1.08800 33.37000 31.48700
C  -1.77200 32.56100 32.58900
H  -1.07900 32.19700 33.90100
N  -0.51300 36.52200 26.01800
C  0.14200 37.07300 27.04700
C  0.86600 38.18700 26.53300
C  0.85200 38.18600 25.13700
C  -0.13800 37.10000 24.83700
C  1.59500 39.06400 27.45400
C  1.58500 39.08800 24.10700
O  1.43100 38.99300 22.87600
C  2.73500 40.05300 24.53900
N  -2.11600 34.80200 23.99900
C  -1.48200 35.66500 23.15500
C  -1.60300 35.23900 21.68400
C  -2.36500 33.90600 21.77100
C  -2.59200 33.72200 23.33500
C  -2.19900 36.35800 20.80600
C  -1.74400 32.70900 21.03500
C  -0.50700 32.11500 21.68200
N  -3.12300 33.22600 26.16300
C  -3.73100 32.50900 25.18300
C  -4.55300 31.54300 25.80600
C  -4.36500 31.61200 27.22500
C  -3.48400 32.68800 27.34900
C  -5.37200 30.49600 25.14500
C  -4.68100 31.09600 28.52400
O  -5.48200 30.22200 28.80400
C  -3.96700 31.97600 29.64200
C  -4.99200 32.82900 30.38500
O  -5.63900 33.78800 29.93300
O  -5.19200 32.38200 31.62000
C  -6.34900 33.09100 32.29900
H  0.48700 37.33700 29.13800
H  -0.18800 37.12300 22.71700
H  -3.72300 32.02200 23.03000
H  -2.89600 34.53600 31.08300
H  -0.39600 35.83600 31.02300
H  -1.83300 37.77900 31.12100
H  -3.18500 36.58000 31.18200
H  -2.81400 37.28600 29.75700
H  -0.15100 33.78600 31.85700
H  -0.70200 32.60100 30.81800
H  -1.95300 31.58800 32.13300
H  -2.70600 33.05500 32.85700
H  2.61900 39.09600 27.08200
H  1.60200 38.76600 28.50300
H  1.22200 40.08900 27.45200
H  2.59000 40.67200 25.42500
H  3.02700 40.57200 23.62700
H  3.44500 39.27000 24.80500
H  -0.60800 35.04700 21.28200
H  -3.41100 33.99000 21.47900
H  -2.14900 37.31200 21.33100
H  -3.27400 36.29700 20.63700
H  -1.77900 36.56100 19.82100
H  -1.33200 32.91300 20.04600
H  -2.49000 31.91700 20.97300
H  -0.60800 31.03100 21.63600
H  -0.27000 32.34600 22.72000
H  0.36800 32.29600 21.05600
H  -5.21400 29.49000 25.53400
H  -5.13900 30.54500 24.08200
H  -6.37400 30.84100 25.40200
H  -3.46300 31.28700 30.31900
H  -6.04300 34.03800 32.74500
H  -6.62900 32.40000 33.09400
H  -7.28200 33.19500 31.74600

