158

Mg 49.98500 46.02400 43.35300
C  46.56200 46.34500 42.49300
C  49.75500 42.72700 42.11200
C  53.37900 45.70700 43.53700
C  50.21700 49.36300 44.19900
N  48.40300 44.72300 42.31400
C  47.06300 45.08000 42.13400
C  46.24800 43.95100 41.39400
C  47.20600 42.72700 41.59700
C  48.55100 43.35200 42.10200
C  46.74400 41.71900 42.68200
C  46.05300 44.40000 39.88700
C  44.92300 43.65700 39.10400
H  45.38500 43.07100 37.75900
N  51.39800 44.43300 42.82000
C  51.07200 43.14100 42.46900
C  52.27800 42.35900 42.35000
C  53.38100 43.17500 42.80500
C  52.76600 44.51100 43.00200
C  52.23800 40.89600 41.96300
C  54.88700 42.79800 42.85200
O  55.25200 41.67000 42.57400
C  55.97400 43.78000 43.27400
N  51.54800 47.34200 43.75500
C  52.86600 47.02800 43.81500
C  53.78100 48.12600 44.24700
C  52.74300 49.30000 44.56500
C  51.40700 48.62700 44.14100
C  54.92800 47.77000 45.33400
C  53.16000 50.57600 43.79000
C  52.73400 51.94500 44.38500
N  48.66300 47.52600 43.43200
C  48.88500 48.86800 43.80100
C  47.64600 49.59900 43.73800
C  46.71900 48.65700 43.18700
C  47.36900 47.40300 43.08200
C  47.47300 51.05800 44.10800
C  45.33600 48.49300 42.65900
O  44.40100 49.30400 42.36400
C  45.18100 46.96600 42.31100
C  44.13200 46.42000 43.23700
O  43.96600 46.72700 44.41100
O  43.53500 45.35700 42.58900
C  42.70600 44.42900 43.30600
H  49.63100 41.71100 41.73100
H  54.46100 45.64100 43.67100
H  50.31800 50.41700 44.46500
H  45.29100 43.85100 41.90600
H  47.34000 42.24700 40.62700
H  46.40800 40.79100 42.22100
H  45.98000 42.21300 43.28300
H  47.51800 41.54600 43.43000
H  47.00900 44.18300 39.41200
H  45.95600 45.48200 39.80000
H  44.09600 44.34600 38.93700
H  44.50000 42.94600 39.81400
H  52.59200 40.56800 40.98600
H  51.36200 40.25100 42.02900
H  52.92900 40.49300 42.70300
H  55.60400 43.98000 44.28000
H  55.95300 44.61600 42.57500
H  56.93600 43.27200 43.21100
H  54.38700 48.39500 43.38200
H  52.74600 49.56100 45.62300
H  55.92400 48.15000 45.10700
H  55.16400 46.70800 45.39000
H  54.67300 48.24000 46.28400
H  52.51100 50.50400 42.91800
H  54.18700 50.67100 43.43700
H  53.50800 52.69300 44.21200
H  52.57400 51.88400 45.46200
H  51.88800 52.34000 43.82300
H  47.48500 51.27000 45.17700
H  46.49200 51.37200 43.75200
H  48.29500 51.54200 43.57900
H  44.68300 46.92000 41.34200
H  42.00100 43.90700 42.66000
H  42.23600 44.82300 44.20700
H  43.37900 43.61100 43.56600
Mg -11.49400 38.64100 40.56800
C  -10.02300 35.46500 40.08100
C  -8.86700 39.96200 38.83300
C  -13.38000 41.30400 40.23800
C  -14.49800 36.82100 41.57000
N  -9.58800 37.67700 39.60500
C  -9.25300 36.43000 39.46300
C  -7.95500 36.29200 38.63900
C  -7.48400 37.77500 38.58400
C  -8.71500 38.53000 39.04300
C  -6.25300 38.09700 39.44100
C  -8.29700 35.79800 37.22400
C  -7.11000 34.99100 36.46300
H  -6.46700 35.70900 35.33300
N  -11.10800 40.42000 39.84900
C  -9.90600 40.81400 39.27100
C  -9.95200 42.21700 39.09300
C  -11.28900 42.63500 39.31500
C  -12.00400 41.46900 39.85800
C  -8.85800 43.02200 38.50300
C  -11.86200 44.05900 38.99500
O  -11.16100 44.86700 38.43500
C  -13.30700 44.51500 39.39900
N  -13.68100 38.98600 40.65100
C  -14.14700 40.21800 40.65400
C  -15.64000 40.35400 40.97800
C  -15.95500 38.82000 41.25900
C  -14.58300 38.18100 41.26800
C  -16.03300 41.28200 42.15300
C  -17.00000 38.17000 40.16900
C  -18.07200 37.25900 40.80700
N  -12.10900 36.56700 40.97000
C  -13.34900 36.00300 41.36800
C  -13.18100 34.57300 41.43700
C  -11.85300 34.28700 40.99400
C  -11.28500 35.51200 40.70000
C  -14.36900 33.60600 41.72400
C  -10.86300 33.23600 40.75400
O  -10.93500 32.00800 40.84800
C  -9.58700 34.04900 40.24600
C  -8.55300 33.80500 41.29400
O  -8.28600 32.71700 41.80800
O  -7.77600 34.93000 41.53800
C  -6.58300 34.72300 42.30600
H  -8.01700 40.42800 38.33000
H  -13.93700 42.24300 40.25200
H  -15.42700 36.37500 41.93200
H  -7.15000 35.71400 39.09300
H  -7.26800 37.97700 37.53500
H  -6.40800 39.05900 39.92900
H  -5.40100 38.23800 38.77500
H  -5.94600 37.42600 40.24400
H  -8.46900 36.58900 36.49400
H  -9.26100 35.29500 37.29800
H  -7.59800 34.13300 36.00100
H  -6.35600 34.61300 37.15300
H  -8.92000 42.98900 37.41500
H  -7.91800 42.56600 38.81300
H  -8.79400 44.04700 38.86900
H  -13.48200 45.56800 39.17800
H  -13.21800 44.35500 40.47400
H  -14.07600 43.85200 39.00300
H  -16.21000 40.61800 40.08700
H  -16.41500 38.69600 42.24000
H  -16.68900 40.75400 42.84500
H  -16.60500 42.13500 41.78800
H  -15.20400 41.67500 42.74200
H  -16.39500 37.67700 39.40800
H  -17.44400 38.94100 39.53900
H  -17.82900 36.26500 40.43000
H  -19.11100 37.40300 40.51100
H  -18.02300 37.37300 41.89000
H  -15.06300 33.42400 40.90300
H  -14.89000 33.98700 42.60200
H  -13.94000 32.68700 42.12400
H  -9.37000 33.63400 39.26200
H  -6.01400 33.91400 41.84700
H  -6.85700 34.50900 43.33900
H  -5.86600 35.54300 42.32900

