158

Mg 49.01500 46.52200 42.61800
C  45.74400 47.37100 41.77400
C  48.46300 43.55200 40.86000
C  52.26700 46.00600 42.62800
C  49.52300 49.87400 43.50900
N  47.30200 45.62700 41.37400
C  46.00900 46.05900 41.27000
C  44.98700 45.03000 40.80800
C  45.88600 43.75700 40.85300
C  47.28300 44.27500 41.05900
C  45.42400 42.71300 41.90800
C  44.24200 45.36000 39.49900
C  44.90600 46.30800 38.46500
H  45.80700 45.71400 37.42100
N  50.13600 44.85800 42.03800
C  49.76900 43.76600 41.30200
C  50.93000 42.91000 41.25700
C  52.00300 43.62900 41.87500
C  51.48600 44.96900 42.19300
C  50.94300 41.55700 40.66500
C  53.42700 42.98300 41.94000
O  53.54500 41.76300 41.78000
C  54.61300 43.77400 42.34700
N  50.73100 47.87100 42.70900
C  51.94000 47.34400 42.91800
C  52.96700 48.42100 43.34900
C  52.02600 49.62700 43.70100
C  50.68000 49.09700 43.23400
C  53.87900 47.95000 44.49600
C  52.34200 51.09400 43.08600
C  52.37600 52.20900 44.11600
N  47.90600 48.29300 42.66300
C  48.21300 49.52300 43.24000
C  46.99200 50.36200 43.29900
C  45.97900 49.54400 42.67600
C  46.57100 48.29500 42.41100
C  46.77400 51.82000 43.73200
C  44.60600 49.43300 42.28500
O  43.66700 50.23500 42.30500
C  44.37700 48.05600 41.78900
C  43.38300 47.40000 42.62300
O  43.55300 47.36200 43.81800
O  42.39300 46.82400 41.90800
C  41.49000 46.03100 42.76200
H  48.33900 42.58700 40.36300
H  53.34700 45.88000 42.72700
H  49.68200 50.89700 43.85700
H  44.28700 44.87700 41.62900
H  45.87800 43.25800 39.88400
H  46.20400 42.54300 42.65000
H  45.09900 41.78900 41.43100
H  44.51900 42.95500 42.46600
H  43.22800 45.66300 39.76000
H  44.07000 44.38200 39.05000
H  45.64200 46.93800 38.96400
H  44.16700 46.92800 37.95700
H  50.01500 41.54500 40.09300
H  50.87400 40.81700 41.46200
H  51.81900 41.30500 40.06800
H  54.33700 44.23700 43.29500
H  54.79500 44.39500 41.47000
H  55.40200 43.07400 42.62000
H  53.51700 48.77400 42.47700
H  52.02700 49.67100 44.79000
H  53.73500 46.87600 44.61400
H  53.58700 48.51900 45.37900
H  54.92800 48.11700 44.25000
H  51.58200 51.37100 42.35500
H  53.34000 50.99100 42.66200
H  51.99800 51.90600 45.09200
H  51.72900 53.03200 43.81200
H  53.35500 52.68000 44.20400
H  47.59500 52.13700 44.37400
H  45.82800 51.98100 44.24900
H  46.70100 52.44400 42.84100
H  43.93600 48.26200 40.81400
H  41.83300 45.00300 42.64400
H  40.50000 46.14600 42.32100
H  41.46900 45.97100 43.85000
Mg 1.24500 41.86800 24.86100
C  3.29000 41.97100 27.79100
C  -1.46500 41.40500 26.99700
C  -0.73100 41.70000 22.18900
C  4.09700 42.44200 22.94800
N  0.94500 41.77100 27.08500
C  1.91700 41.77600 28.11700
C  1.34900 41.58700 29.55200
C  -0.15900 41.47800 29.20500
C  -0.25300 41.55800 27.65000
C  -0.85900 40.24600 29.93900
C  1.61400 42.83900 30.49200
C  1.83600 42.58500 32.00000
H  0.62200 42.86800 32.88800
N  -0.82900 41.77200 24.58200
C  -1.75500 41.54600 25.56900
C  -3.03400 41.43000 24.98400
C  -2.92000 41.57200 23.60600
C  -1.45400 41.69300 23.35500
C  -4.31400 41.30200 25.84800
C  -3.93900 41.68400 22.59200
O  -3.69900 41.66100 21.36600
C  -5.32000 41.78900 22.90100
N  1.71000 41.85600 22.84200
C  0.68700 41.80400 21.96100
C  1.30000 42.00800 20.54300
C  2.70500 42.60000 20.79300
C  2.91200 42.23400 22.26700
C  1.29800 40.78100 19.55200
C  2.83800 44.13300 20.59100
C  4.28300 44.59100 20.12900
N  3.34100 42.07500 25.20600
C  4.38700 42.27400 24.31000
C  5.59800 42.24200 25.01600
C  5.27600 42.13500 26.37100
C  3.84400 42.08400 26.45500
C  6.95400 42.46600 24.49700
C  5.77000 41.99700 27.75400
O  6.90200 42.06700 28.15500
C  4.51000 42.00400 28.70400
C  4.62300 40.92600 29.71000
O  4.35300 39.75500 29.65200
O  5.21400 41.48100 30.79500
C  5.49000 40.71000 31.98500
H  -2.26700 41.02100 27.63200
H  -1.24600 41.80100 21.23200
H  4.91300 42.72100 22.27800
H  1.68400 40.63500 29.96500
H  -0.76000 42.28100 29.63400
H  -1.75900 40.57700 30.45800
H  -0.30100 39.79100 30.75800
H  -1.02400 39.43500 29.23000
H  0.86600 43.62000 30.35400
H  2.58200 43.18300 30.12800
H  2.49200 43.39800 32.31100
H  2.27000 41.61800 32.25400
H  -4.74500 40.35400 25.52700
H  -5.02500 42.12200 25.74500
H  -4.03300 41.10700 26.88300
H  -5.59000 40.78800 23.23800
H  -5.79400 42.03000 21.95000
H  -5.56500 42.60000 23.58700
H  0.71800 42.83600 20.13800
H  3.46900 42.17600 20.14100
H  0.61300 40.84200 18.70600
H  0.93400 39.92300 20.11600
H  2.28100 40.62000 19.10900
H  2.73900 44.59200 21.57400
H  2.09400 44.44600 19.85800
H  4.66100 45.33700 20.82800
H  4.21700 45.07500 19.15500
H  4.99900 43.78200 20.28000
H  7.66300 41.96700 25.15700
H  7.26900 43.50500 24.39500
H  7.10600 41.95600 23.54600
H  4.62400 42.95900 29.21800
H  6.35500 40.07600 31.79200
H  4.57100 40.22700 32.31900
H  5.86900 41.32900 32.79800

