158

Mg 17.31300 -2.88600 28.45700
C  16.12300 -0.77500 31.06000
C  19.38200 -4.53600 30.83100
C  18.73200 -4.36900 25.95000
C  15.41400 -0.80700 26.25100
N  17.81700 -2.58300 30.71500
C  16.99300 -1.84500 31.55800
C  17.33300 -2.17100 33.03500
C  18.49600 -3.19600 32.98700
C  18.63300 -3.46600 31.43300
C  19.79200 -2.69600 33.74200
C  16.17200 -2.73300 33.89200
C  16.03700 -2.21500 35.32600
H  17.26500 -1.86900 36.12700
N  18.80600 -4.30100 28.35900
C  19.50700 -4.87700 29.42000
C  20.27900 -5.94700 28.83600
C  20.18200 -5.86200 27.39700
C  19.20700 -4.78800 27.16300
C  21.07500 -6.95400 29.60400
C  20.91100 -6.69600 26.25600
O  20.66200 -6.60600 25.02000
C  21.81200 -7.71500 26.58800
N  17.00900 -2.67900 26.40900
C  17.72500 -3.42900 25.55300
C  17.50100 -2.99400 24.06500
C  16.26700 -2.04100 24.17000
C  16.20200 -1.89200 25.75900
C  18.77800 -2.50000 23.40000
C  14.97300 -2.46900 23.41400
C  14.11600 -1.32700 22.78000
N  16.03900 -1.13700 28.56100
C  15.42500 -0.43000 27.59200
C  14.62500 0.54500 28.18600
C  14.92400 0.49100 29.53000
C  15.78100 -0.54500 29.74400
C  13.72700 1.42100 27.46100
C  14.63700 1.07400 30.79900
O  13.86300 1.98000 31.13900
C  15.47800 0.29800 31.89000
C  16.47400 1.20600 32.54600
O  17.14300 2.06100 32.06800
O  16.35200 1.09400 33.93700
C  16.78900 2.16600 34.78200
H  20.06900 -5.12700 31.44000
H  19.23300 -4.98400 25.19900
H  14.67300 -0.33100 25.60500
H  17.70500 -1.25800 33.50100
H  18.16900 -4.18900 33.29600
H  19.90500 -1.62100 33.87700
H  20.66600 -3.04800 33.19400
H  19.98100 -3.20600 34.68700
H  16.21000 -3.82200 33.90500
H  15.20800 -2.48100 33.44800
H  15.57000 -3.09900 35.76000
H  15.29800 -1.44100 35.11700
H  20.66100 -7.89800 29.24800
H  20.93400 -6.85900 30.68100
H  22.11800 -6.85200 29.30600
H  22.15000 -8.26600 25.71000
H  21.32500 -8.40200 27.27900
H  22.77600 -7.41100 26.99700
H  17.20400 -3.88400 23.50900
H  16.66600 -1.07200 23.86800
H  18.52900 -1.67400 22.73400
H  19.25500 -3.35600 22.92100
H  19.37100 -2.11200 24.22800
H  14.46700 -3.06600 24.17300
H  15.21700 -3.23800 22.68100
H  13.18900 -1.11200 23.31300
H  13.99600 -1.46300 21.70500
H  14.69100 -0.40800 22.88700
H  13.50800 2.31300 28.04900
H  12.76600 0.91800 27.35900
H  14.12100 1.70200 26.48500
H  14.73700 -0.09700 32.58500
H  17.02100 1.75900 35.76600
H  15.87300 2.72400 34.97800
H  17.51000 2.83300 34.31000
Mg 25.44400 -0.15200 29.80100
C  27.47700 -0.14100 32.55600
C  22.81400 0.24200 31.88300
C  23.64800 -0.09800 27.02600
C  28.29600 -1.04000 27.76000
N  25.21400 -0.09600 31.99700
C  26.13000 -0.05600 32.95400
C  25.57800 0.06900 34.45800
C  24.01600 0.05900 34.08600
C  24.01700 0.03200 32.60600
C  23.04300 -1.00800 34.68500
C  26.00000 1.34600 35.23200
C  26.82800 1.37700 36.53200
H  26.39500 2.47000 37.65600
N  23.40600 0.04900 29.49000
C  22.47700 0.22000 30.48400
C  21.16600 0.44300 29.89300
C  21.42200 0.50500 28.44400
C  22.88600 0.13200 28.23000
C  19.87200 0.59000 30.66600
C  20.50700 0.71900 27.24100
O  20.89700 0.63400 26.07800
C  19.11600 1.19500 27.50300
N  25.84000 -0.59700 27.58600
C  24.93700 -0.40900 26.67800
C  25.56200 -0.45600 25.25300
C  27.04700 -0.73900 25.55500
C  27.10700 -0.90700 27.03400
C  25.01800 -1.48900 24.27100
C  28.07200 0.35200 24.95900
C  29.34200 -0.09800 24.27800
N  27.46800 -0.57300 30.03500
C  28.49100 -0.95800 29.18200
C  29.77300 -0.96700 29.89300
C  29.36900 -0.64700 31.19500
C  27.96800 -0.46000 31.26400
C  31.20700 -1.30800 29.35000
C  29.95600 -0.40000 32.52000
O  31.11900 -0.35900 32.94600
C  28.71000 -0.15700 33.51500
C  28.54600 -1.22200 34.51000
O  28.00300 -2.30800 34.30000
O  29.21100 -0.86400 35.64100
C  28.98300 -1.70300 36.86300
H  22.01700 0.33600 32.62400
H  23.08700 0.19700 26.13700
H  29.18700 -1.26600 27.17100
H  25.85800 -0.83700 34.99700
H  23.68100 1.07100 34.31000
H  23.54500 -1.27400 35.61500
H  23.00200 -1.86200 34.01000
H  22.06700 -0.58700 34.92700
H  25.07600 1.85800 35.50300
H  26.58400 2.01200 34.59600
H  27.85500 1.59300 36.23800
H  26.83400 0.43000 37.07200
H  20.02400 -0.16400 31.43800
H  18.91400 0.24600 30.27600
H  19.77100 1.57700 31.11900
H  18.43900 0.44000 27.90200
H  18.67000 1.61900 26.60400
H  19.17200 1.94300 28.29500
H  25.51900 0.50800 24.74700
H  27.36000 -1.75500 25.31300
H  24.42500 -2.29900 24.69600
H  25.89100 -1.96000 23.81900
H  24.47100 -0.96700 23.48600
H  28.38200 1.01900 25.76400
H  27.45900 0.90300 24.24600
H  29.51500 -1.16900 24.16600
H  30.20800 0.26300 24.83200
H  29.30100 0.19200 23.22800
H  31.32500 -0.70400 28.45000
H  31.16400 -2.33600 28.98900
H  31.93600 -1.01600 30.10500
H  28.89000 0.82400 33.95600
H  27.96000 -1.76600 37.23200
H  29.65700 -1.37300 37.65300
H  29.34000 -2.70600 36.62800

