158

Mg 0.51600 7.94300 26.34100
C  1.36800 9.85500 28.97500
C  0.26000 5.15400 28.49200
C  -0.12600 5.97600 23.54900
C  0.91400 10.68100 24.20500
N  0.69300 7.56500 28.41700
C  0.98900 8.53900 29.33400
C  0.86800 8.08000 30.78600
C  0.72700 6.51400 30.61200
C  0.55200 6.40000 29.04900
C  2.04500 5.64100 31.06800
C  -0.45400 8.64200 31.40900
C  -0.80900 8.27800 32.87800
H  0.44400 7.92400 33.75300
N  0.22500 5.83600 26.01000
C  0.00200 4.91600 27.06700
C  -0.38500 3.66700 26.53000
C  -0.44000 3.82800 25.08500
C  -0.14500 5.27600 24.80100
C  -0.69500 2.45600 27.45300
C  -0.76500 2.78400 24.06100
O  -0.85300 2.99300 22.84200
C  -0.81000 1.36900 24.48600
N  0.28200 8.25900 24.24000
C  0.00900 7.32500 23.29400
C  -0.19800 7.97400 21.93600
C  -0.04700 9.55300 22.16200
C  0.35400 9.55400 23.62300
C  0.89600 7.44600 20.97500
C  -1.32300 10.36500 21.91000
C  -1.23500 11.58200 21.02200
N  1.02800 9.92400 26.49400
C  1.22900 10.93100 25.57100
C  1.78700 12.13400 26.22400
C  1.79400 11.78000 27.62100
C  1.36300 10.44900 27.70400
C  2.04900 13.50600 25.59300
C  2.18500 12.31100 28.95500
O  2.65900 13.40600 29.29400
C  1.76700 11.11700 29.83700
C  2.85200 10.75500 30.81100
O  3.70000 9.95700 30.59900
O  2.70700 11.50400 31.90800
C  3.91900 11.49000 32.73700
H  0.25800 4.32800 29.20500
H  -0.26200 5.39800 22.63200
H  1.05100 11.58700 23.61200
H  1.71700 8.41600 31.38200
H  -0.19200 6.23900 31.12900
H  2.45700 6.23700 31.88200
H  2.80200 5.42800 30.31400
H  1.74700 4.72000 31.56900
H  -1.31700 8.33500 30.81800
H  -0.38800 9.72900 31.36100
H  -1.50300 7.44200 32.96200
H  -1.27700 9.21500 33.17800
H  -1.48900 1.86300 27.00000
H  -1.07500 2.80400 28.41400
H  0.15300 1.80800 27.67300
H  0.02700 1.17700 25.15800
H  -0.71000 0.72900 23.60900
H  -1.76700 1.09400 24.92900
H  -1.22800 7.84800 21.60300
H  0.79900 9.91300 21.57600
H  1.24800 8.22900 20.30200
H  0.55000 6.56400 20.43600
H  1.75800 7.09000 21.53900
H  -1.83800 10.56200 22.85000
H  -2.00400 9.65800 21.43800
H  -0.31300 11.47100 20.45200
H  -1.06900 12.44900 21.66100
H  -2.02000 11.69000 20.27300
H  1.10700 13.84000 25.15800
H  2.72200 13.42400 24.73900
H  2.40100 14.24100 26.31700
H  0.95400 11.37900 30.51500
H  4.80800 11.85400 32.22100
H  4.10300 10.53000 33.22000
H  3.68100 12.09500 33.61100
Mg 35.18900 3.52600 30.16200
C  32.79100 4.19300 32.45900
C  37.58400 3.72800 32.60300
C  37.51200 2.52400 27.82900
C  32.78200 3.58100 27.53100
N  35.15200 3.82700 32.22800
C  34.04400 3.98100 33.01500
C  34.25900 4.19100 34.51300
C  35.82400 4.40700 34.42800
C  36.24800 3.93800 33.03700
C  36.24500 5.93400 34.71000
C  33.78400 2.99300 35.39700
C  33.38400 3.43000 36.81200
H  34.25200 4.41000 37.66900
N  37.28600 3.21600 30.17800
C  38.05900 3.36100 31.31200
C  39.36600 2.87100 31.02100
C  39.37700 2.58500 29.62400
C  37.99000 2.77900 29.10500
C  40.47500 2.78200 32.02300
C  40.49700 2.14900 28.72300
O  40.43900 1.94000 27.48100
C  41.87500 1.86800 29.33800
N  35.14400 3.27800 27.91100
C  36.23400 2.74600 27.26100
C  35.85500 2.46000 25.81400
C  34.28900 2.75000 25.75900
C  34.05100 3.29400 27.11300
C  36.71500 3.35000 24.75500
C  33.37300 1.63800 25.21100
C  32.08800 2.06300 24.44800
N  33.21900 3.87400 29.97100
C  32.33300 3.85700 28.91200
C  31.07600 4.16300 29.38900
C  31.24200 4.32000 30.74100
C  32.53200 4.10100 31.07500
C  29.76500 4.23500 28.60000
C  30.43400 4.66200 31.86100
O  29.25200 5.04600 31.97500
C  31.43900 4.43000 33.10300
C  31.37000 5.67900 33.93800
O  31.58900 6.82800 33.51800
O  30.92200 5.31800 35.21200
C  30.58900 6.55400 36.00900
H  38.31800 3.90800 33.39000
H  38.23400 1.92100 27.27500
H  31.91200 3.52300 26.87500
H  33.73500 5.10400 34.79700
H  36.43200 3.90400 35.17900
H  35.34500 6.40100 35.11000
H  36.67700 6.45400 33.85500
H  36.91400 5.98600 35.56900
H  34.52200 2.21200 35.58200
H  32.89600 2.56800 34.92800
H  33.29100 2.50400 37.38000
H  32.36200 3.78600 36.67700
H  40.64700 1.82700 32.52000
H  40.23600 3.54800 32.76000
H  41.43400 3.13300 31.64200
H  41.91700 1.20800 30.20400
H  42.37000 2.80000 29.60700
H  42.54700 1.50400 28.56100
H  36.07300 1.40800 25.63500
H  34.19000 3.58800 25.06900
H  37.15500 2.59700 24.10200
H  37.44700 3.92800 25.31900
H  36.04900 3.97500 24.15900
H  32.90600 1.18000 26.08300
H  33.90900 0.87400 24.64800
H  31.26900 2.25500 25.14000
H  31.81000 1.28800 23.73400
H  32.35000 2.94600 23.86400
H  29.01700 4.47600 29.35600
H  29.40000 3.34500 28.08800
H  29.86500 5.07500 27.91200
H  31.11000 3.60500 33.73600
H  29.82900 7.20600 35.57800
H  31.53900 7.04900 36.20800
H  30.10600 6.14300 36.89600

