158

Mg 26.98600 50.39300 26.20000
C  24.66800 51.31100 28.70100
C  29.13900 49.40200 28.74700
C  29.22000 49.89700 23.89900
C  24.81800 51.96300 23.75400
N  26.92300 50.41600 28.50900
C  25.78600 50.67700 29.27400
C  26.02100 50.51600 30.76100
C  27.47500 49.90200 30.73400
C  27.85500 49.78800 29.26100
C  28.55000 50.66100 31.60000
C  24.89200 49.50200 31.40000
C  24.23600 49.86000 32.72700
H  25.15300 50.57000 33.77800
N  28.93000 49.75400 26.25900
C  29.59900 49.39900 27.39100
C  30.99100 49.07100 26.98900
C  31.04000 49.18200 25.58500
C  29.72500 49.61400 25.16400
C  32.07000 48.63700 27.97300
C  32.21500 48.88600 24.64000
O  32.14100 49.07600 23.41500
C  33.43600 48.26400 25.07800
N  27.03700 51.02700 24.13800
C  28.08200 50.58200 23.39100
C  27.77500 50.65800 21.91100
C  26.24000 50.98300 21.86700
C  25.97500 51.31400 23.35800
C  28.66800 51.66300 21.13700
C  25.28800 49.84200 21.34900
C  23.98100 50.43300 20.85200
N  25.16100 51.50100 26.16200
C  24.42800 52.09200 25.10900
C  23.18100 52.55000 25.62300
C  23.28000 52.31800 27.08800
C  24.46400 51.61600 27.34600
C  22.09000 53.21200 24.88300
C  22.60000 52.60300 28.25800
O  21.59200 53.30900 28.44800
C  23.35600 51.83600 29.31000
C  23.49000 52.77200 30.57100
O  24.51400 53.42400 30.79900
O  22.33500 52.66200 31.28400
C  22.39700 53.32200 32.63100
H  29.80100 49.09600 29.56100
H  29.94900 49.48400 23.20000
H  24.04000 52.22300 23.03400
H  26.01300 51.51300 31.20300
H  27.41600 48.85800 31.03900
H  29.32300 51.18700 31.04000
H  28.98300 49.92700 32.28000
H  28.08600 51.38000 32.27600
H  25.40200 48.55100 31.55500
H  24.08700 49.39000 30.67300
H  23.90800 48.93100 33.19300
H  23.27900 50.34700 32.54100
H  32.51100 47.67200 27.72300
H  31.58700 48.68400 28.94900
H  32.87400 49.36900 27.90500
H  33.31600 47.31300 25.59600
H  33.84900 48.97700 25.79100
H  34.06300 48.21800 24.18700
H  27.82100 49.66800 21.45700
H  26.08100 51.87800 21.26600
H  29.62200 51.78000 21.65000
H  28.18500 52.61700 20.92900
H  28.83600 51.22200 20.15500
H  25.04300 49.11400 22.12300
H  25.68600 49.31600 20.48100
H  23.99100 51.51500 20.72400
H  23.20300 50.17100 21.57000
H  23.80200 50.07100 19.84000
H  22.63300 53.79700 24.14000
H  21.54900 54.00300 25.40300
H  21.36300 52.53400 24.43600
H  22.78200 50.98500 29.67800
H  22.89700 52.59700 33.27300
H  21.41300 53.53700 33.04800
H  22.95300 54.25800 32.59500
Mg 1.12100 42.30500 26.54400
C  2.57000 42.39500 29.64500
C  -1.71900 41.08500 27.89300
C  0.23100 41.48400 23.47200
C  4.36900 42.96900 25.15500
N  0.55000 41.78100 28.60500
C  1.21200 42.14000 29.74700
C  0.37900 42.01100 30.98000
C  -0.94600 41.30900 30.38100
C  -0.76500 41.38800 28.83600
C  -1.04100 39.75400 30.72500
C  0.05800 43.31600 31.76900
C  0.50800 43.38600 33.22500
H  -0.42700 42.85900 34.32600
N  -0.53800 41.56400 25.78900
C  -1.64900 41.11900 26.49000
C  -2.67100 40.77400 25.52200
C  -2.12600 40.85700 24.22300
C  -0.74700 41.36300 24.46200
C  -4.07000 40.35100 26.00100
C  -2.78800 40.62900 22.91300
O  -2.20700 40.91400 21.86200
C  -4.25400 40.21600 22.80300
N  2.09300 42.45700 24.41000
C  1.51400 41.96300 23.33900
C  2.37700 42.10100 22.05200
C  3.64900 42.67900 22.62300
C  3.39100 42.65400 24.20600
C  2.57400 40.78200 21.19200
C  3.80500 44.13700 22.30500
C  4.40000 44.54300 20.92600
N  3.09100 42.72400 27.20500
C  4.32700 42.87200 26.59600
C  5.36500 43.00100 27.59600
C  4.67800 42.88300 28.83700
C  3.31900 42.70600 28.55300
C  6.84900 43.20000 27.32700
C  4.93800 42.91200 30.13300
O  5.98300 43.07400 30.72700
C  3.58700 42.63000 30.76500
C  3.73900 41.38500 31.61700
O  3.63300 40.25200 31.14400
O  3.90300 41.68900 32.95800
C  3.81900 40.52500 33.86900
H  -2.63800 40.74000 28.37100
H  0.05300 41.15600 22.44600
H  5.35800 43.02700 24.69600
H  0.83700 41.20200 31.54900
H  -1.86500 41.76700 30.74400
H  -1.86400 39.60800 31.42500
H  -0.15900 39.26900 31.14300
H  -1.27000 39.22400 29.80100
H  -0.95500 43.71100 31.69300
H  0.61400 44.05100 31.18800
H  0.81500 44.38400 33.54000
H  1.42000 42.79900 33.11600
H  -4.87200 40.62600 25.31600
H  -4.39300 40.87900 26.89700
H  -4.06800 39.27800 26.19600
H  -4.38700 39.83600 21.79000
H  -5.03400 40.89800 23.14000
H  -4.54800 39.30400 23.32300
H  1.86200 42.84800 21.44800
H  4.50600 42.01300 22.52700
H  3.63300 40.62300 20.98500
H  2.02500 40.93500 20.26300
H  2.13300 39.90900 21.67200
H  4.18900 44.75400 23.11800
H  2.81700 44.59800 22.32600
H  3.62300 44.91100 20.25600
H  4.92800 43.71500 20.45300
H  5.12700 45.32300 21.15100
H  7.29700 42.21400 27.45400
H  7.24400 43.90200 28.06200
H  7.13400 43.58900 26.34900
H  3.29800 43.44500 31.42900
H  4.66900 39.86400 33.70200
H  2.85700 40.04600 33.69000
H  3.83000 40.86100 34.90600

