158

Mg 48.98800 46.87700 43.01800
C  45.61500 47.21500 42.37400
C  49.16500 44.18200 41.04000
C  52.38300 46.96600 43.37900
C  48.83200 50.18300 44.42400
N  47.58200 46.02400 41.60800
C  46.22900 46.19400 41.65800
C  45.58000 45.34000 40.61500
C  46.65900 44.22400 40.31700
C  47.89300 44.77900 41.06400
C  46.22400 42.85800 40.83300
C  45.12800 46.20300 39.42200
C  43.56600 46.12700 39.15400
H  43.02100 45.45700 37.77000
N  50.50600 45.62300 42.42100
C  50.39500 44.53500 41.59600
C  51.68700 43.81100 41.45300
C  52.60600 44.54600 42.32200
C  51.85900 45.77400 42.75000
C  51.96800 42.54800 40.62900
C  54.03300 44.08300 42.77500
O  54.61900 43.14100 42.17300
C  54.74700 44.71500 44.06500
N  50.44400 48.36200 43.68600
C  51.74400 48.04800 43.93400
C  52.47200 49.29600 44.55400
C  51.30400 50.22700 44.88300
C  50.10800 49.58600 44.25000
C  53.36000 48.99400 45.72200
C  51.48900 51.65500 44.56900
C  50.99400 52.06800 43.18600
N  47.52500 48.40500 43.43200
C  47.60100 49.66100 43.97700
C  46.29900 50.29200 43.90200
C  45.37400 49.28900 43.42000
C  46.24700 48.22100 43.08300
C  46.03200 51.67000 44.31600
C  43.97400 48.92600 43.01200
O  42.88400 49.51900 43.10200
C  44.15800 47.45900 42.41000
C  43.39400 46.46600 43.15900
O  43.73800 45.90300 44.21300
O  42.12600 46.38100 42.60700
C  41.28100 45.31100 43.20400
H  49.11500 43.39300 40.28600
H  53.47300 47.02200 43.42000
H  48.76600 51.21200 44.78400
H  44.71900 44.80700 41.01800
H  46.75300 44.18100 39.23100
H  46.50800 42.06800 40.13700
H  45.18200 42.59300 41.01200
H  46.77300 42.74000 41.76700
H  45.63500 45.88700 38.51100
H  45.37300 47.25100 39.59900
H  43.39100 47.20100 39.09100
H  42.85200 45.75300 39.88800
H  52.88300 42.49200 40.03900
H  51.13200 42.46000 39.93400
H  51.86200 41.68600 41.28700
H  55.34900 45.58500 43.80400
H  55.37700 43.89700 44.41500
H  53.99800 45.02500 44.79400
H  53.04500 49.69100 43.71500
H  51.11300 50.08900 45.94700
H  53.28300 47.94000 45.98900
H  53.29200 49.73200 46.52000
H  54.36300 49.06100 45.30000
H  52.54100 51.93600 44.61500
H  50.90000 52.14900 45.34200
H  51.60800 52.90700 42.86000
H  49.97700 52.45700 43.14700
H  51.19000 51.25300 42.48800
H  45.03400 51.89500 43.93800
H  46.72200 52.38100 43.86200
H  46.07400 51.75300 45.40200
H  43.62600 47.54600 41.46200
H  41.87300 44.42000 43.41300
H  40.43300 45.00100 42.59200
H  40.77500 45.57200 44.13300
Mg 10.08400 47.36900 25.94800
C  8.21600 47.14200 28.76300
C  12.68900 48.86300 27.62100
C  11.85800 47.28600 23.10600
C  7.16600 46.56200 24.10300
N  10.35100 47.95100 27.99200
C  9.51700 47.66700 29.01800
C  10.12100 48.13000 30.34700
C  11.39500 48.96700 29.84900
C  11.48100 48.62200 28.36500
C  11.23300 50.49800 30.13300
C  10.50100 47.09100 31.42300
C  9.84100 47.14200 32.86600
H  9.93100 45.95100 33.75700
N  12.16100 47.97700 25.40500
C  13.03800 48.39700 26.32700
C  14.32800 48.56700 25.62900
C  14.12500 48.15000 24.26100
C  12.66200 47.78200 24.18700
C  15.55000 49.11100 26.37200
C  15.08900 47.95900 23.13800
O  14.70600 47.47100 22.07000
C  16.55400 48.24900 23.39800
N  9.58900 47.00900 23.82500
C  10.51900 46.93300 22.82400
C  9.90700 46.62700 21.43000
C  8.41300 46.50600 21.79200
C  8.34500 46.79900 23.32600
C  10.15800 47.62100 20.34200
C  7.75400 45.20200 21.34200
C  7.23200 45.19400 19.92200
N  8.09700 46.81800 26.30900
C  7.08200 46.53500 25.47400
C  5.89200 46.32900 26.20100
C  6.31000 46.47500 27.55200
C  7.65300 46.89900 27.52300
C  4.45000 46.26400 25.68300
C  5.85400 46.55000 28.92200
O  4.77200 46.34900 29.41800
C  7.11400 46.97700 29.83400
C  7.40700 45.77900 30.70400
O  8.08300 44.81200 30.39000
O  6.62700 45.79000 31.85100
C  6.69600 44.70500 32.77500
H  13.54100 49.17100 28.23100
H  12.37400 47.02800 22.17900
H  6.24200 46.42800 23.53800
H  9.52300 48.84500 30.91300
H  12.22500 48.46700 30.34900
H  10.67400 51.09300 29.41100
H  12.22700 50.91900 30.28100
H  10.78100 50.58400 31.12100
H  11.57300 47.12400 31.62100
H  10.33400 46.07100 31.07800
H  8.84900 47.59000 32.80300
H  10.51800 47.86300 33.32300
H  16.18900 48.23900 26.51300
H  15.29500 49.51300 27.35300
H  16.10400 49.88000 25.83500
H  16.75900 47.76900 24.35400
H  16.65900 49.28800 23.71100
H  17.23900 48.01100 22.58300
H  10.20100 45.69100 20.95600
H  8.00900 47.36700 21.25900
H  10.02900 48.64500 20.69400
H  9.42700 47.32000 19.59200
H  11.15900 47.34700 20.00900
H  6.95500 44.84600 21.99300
H  8.47300 44.38900 21.43300
H  7.96700 44.79900 19.22000
H  7.06300 46.20200 19.54200
H  6.30900 44.62000 19.99800
H  4.37200 45.55900 24.85500
H  4.17500 47.25900 25.33200
H  3.75800 45.99600 26.48200
H  6.99800 47.89700 30.40600
H  7.17400 45.19400 33.62400
H  7.26000 43.83500 32.44100
H  5.69200 44.47100 33.13100

