158

Mg 1.64100 8.18500 25.52600
C  2.33500 10.29200 28.41000
C  1.54300 5.56800 27.56700
C  0.81100 6.33100 22.82500
C  1.82900 11.05700 23.53600
N  2.16000 7.94500 27.65800
C  2.20500 8.92200 28.71800
C  2.24700 8.25300 30.07900
C  2.30000 6.72000 29.66200
C  1.98700 6.73000 28.18700
C  3.60700 5.92900 30.01500
C  1.11700 8.72500 30.98900
C  1.33000 8.81400 32.42900
H  2.38000 7.91000 33.12500
N  1.07300 6.22900 25.24800
C  1.16400 5.33000 26.26700
C  0.69600 4.03700 25.70300
C  0.35300 4.30100 24.32500
C  0.77900 5.65700 24.08200
C  0.51500 2.69100 26.57400
C  -0.23400 3.33400 23.31600
O  -0.52600 3.73400 22.22900
C  -0.67300 1.88800 23.69800
N  1.53500 8.65300 23.53600
C  1.10900 7.67600 22.62200
C  0.84000 8.34500 21.21100
C  0.75700 9.84400 21.60100
C  1.49100 9.84900 22.98900
C  1.90800 8.10300 20.15200
C  -0.62600 10.35600 21.65700
C  -1.04900 10.98700 20.28300
N  2.01000 10.21200 25.89000
C  2.07200 11.24800 24.94000
C  2.36900 12.49800 25.63900
C  2.39300 12.17000 26.99600
C  2.29100 10.76400 27.09300
C  2.40300 13.89900 25.00900
C  2.64400 12.72000 28.29300
O  2.95200 13.85100 28.59100
C  2.52800 11.52600 29.28600
C  3.66700 11.50700 30.25600
O  4.72600 10.95500 29.96000
O  3.41700 12.17000 31.40300
C  4.39000 11.97700 32.46100
H  1.56300 4.65800 28.17000
H  0.58800 5.83100 21.88100
H  1.70000 11.95200 22.92400
H  3.26700 8.51900 30.35300
H  1.44800 6.18800 30.08700
H  4.40500 6.51200 30.47400
H  3.95300 5.34300 29.16300
H  3.33900 5.22300 30.80100
H  0.45600 7.86000 30.93900
H  0.68800 9.65200 30.60800
H  0.36300 8.71000 32.92000
H  1.68700 9.81000 32.68900
H  1.47100 2.18500 26.70200
H  -0.29900 2.07100 26.19700
H  0.28200 3.02200 27.58700
H  -1.61100 2.04100 24.23200
H  0.05300 1.29700 24.25600
H  -0.79000 1.35800 22.75300
H  -0.14400 7.95500 20.94800
H  1.45200 10.40000 20.97200
H  2.86800 8.20400 20.65800
H  1.68000 8.90100 19.44500
H  1.79900 7.13100 19.67000
H  -0.64300 11.03300 22.51100
H  -1.31600 9.57500 21.97600
H  -0.23400 10.86300 19.57000
H  -1.14900 12.06900 20.36500
H  -1.92700 10.50000 19.85700
H  1.36800 14.15700 24.78300
H  2.99200 13.80600 24.09700
H  2.73800 14.65900 25.71500
H  1.67400 11.68300 29.94600
H  5.42900 12.17900 32.19700
H  4.42000 10.96600 32.86600
H  4.08600 12.61100 33.29400
Mg 46.77800 23.79800 29.11800
C  47.40400 26.22900 31.72400
C  46.05100 21.50000 31.58200
C  46.44200 21.60000 26.66200
C  48.30100 26.02400 26.81500
N  46.73600 23.91300 31.42400
C  46.90100 25.02500 32.22000
C  46.36800 24.71200 33.64400
C  46.05200 23.08700 33.61100
C  46.38300 22.75500 32.10000
C  46.87900 22.28000 34.60200
C  45.06800 25.50500 33.96800
C  45.29100 26.50400 35.15100
H  45.88800 26.04200 36.56500
N  46.37600 21.83000 29.15300
C  46.05400 21.05600 30.24500
C  45.73400 19.71600 29.79100
C  45.88600 19.70100 28.35800
C  46.23100 21.08400 27.98900
C  45.17800 18.62200 30.79900
C  45.74100 18.58300 27.42300
O  45.94900 18.69100 26.19100
C  45.37300 17.19700 27.93700
N  47.37500 23.79300 27.12100
C  46.94700 22.82100 26.27600
C  47.26600 23.09200 24.82400
C  47.65900 24.65500 24.83600
C  47.73300 24.85900 26.33200
C  48.21700 22.05100 24.13100
C  46.75000 25.69800 24.08200
C  45.27500 25.86600 24.58000
N  47.68600 25.69600 29.21900
C  48.24500 26.45700 28.19900
C  48.60400 27.77200 28.70800
C  48.26000 27.74500 30.06500
C  47.71000 26.46300 30.32300
C  49.26900 28.89000 27.95200
C  48.24300 28.55200 31.29100
O  48.61900 29.70400 31.54700
C  47.65500 27.53400 32.39400
C  48.68500 27.43000 33.59900
O  49.74800 26.80900 33.61400
O  48.33800 28.29000 34.58000
C  49.32800 28.55700 35.63600
H  45.81500 20.74100 32.33100
H  46.18500 20.95300 25.82100
H  48.62300 26.73900 26.05600
H  47.17100 24.88100 34.36200
H  44.99600 22.94200 33.83800
H  47.43700 22.98100 35.22300
H  47.43600 21.52400 34.04800
H  46.16300 21.87700 35.31700
H  44.25900 24.84900 34.28800
H  44.78500 26.01500 33.04700
H  44.37200 27.06900 35.30900
H  46.09100 27.19300 34.87900
H  44.93500 19.00300 31.79100
H  45.91100 17.81600 30.79200
H  44.24200 18.24300 30.39000
H  45.31700 16.60100 27.02600
H  44.37600 17.28100 28.37000
H  45.99300 16.71600 28.69400
H  46.32900 22.95600 24.28400
H  48.68500 24.70300 24.47200
H  47.67900 21.57900 23.30800
H  48.44900 21.20100 24.77200
H  49.09600 22.57100 23.75100
H  46.64200 25.36400 23.05000
H  47.17000 26.70200 24.03300
H  45.03500 26.91400 24.76200
H  45.17100 25.22500 25.45400
H  44.53100 25.49300 23.87600
H  48.72300 29.82400 28.08400
H  49.33100 28.60100 26.90300
H  50.28300 29.06100 28.31300
H  46.68800 27.79000 32.82600
H  50.35200 28.21800 35.47700
H  48.93400 28.16300 36.57300
H  49.40500 29.64000 35.72800

