158

Mg 24.46400 -5.52200 46.43100
C  26.23900 -2.96100 44.61500
C  21.82100 -4.75500 44.48800
C  23.18600 -8.48500 47.39900
C  27.49400 -6.43300 47.97300
N  24.06000 -3.99200 44.70500
C  24.86400 -3.03700 44.22400
C  24.22300 -2.28800 43.07900
C  22.77300 -2.67400 43.28300
C  22.87200 -3.85500 44.15500
C  21.78700 -1.63800 43.87000
C  24.77700 -2.58200 41.68200
C  25.07600 -1.30300 40.88000
H  24.66200 -1.30100 39.41800
N  22.75800 -6.37800 46.00300
C  21.77800 -5.96000 45.18600
C  20.67100 -6.86400 45.19100
C  20.88700 -7.85600 46.13700
C  22.31100 -7.60800 46.56800
C  19.37900 -6.61800 44.42100
C  19.95300 -8.91800 46.47400
O  18.78700 -9.04400 46.02700
C  20.34000 -10.07500 47.42500
N  25.15000 -7.09800 47.68800
C  24.43900 -8.28200 47.86000
C  25.20300 -9.32900 48.79000
C  26.55400 -8.60000 49.00700
C  26.43800 -7.28600 48.15300
C  24.49500 -9.67100 50.14600
C  27.80700 -9.47800 48.87900
C  28.80100 -9.28700 50.09500
N  26.41500 -4.84700 46.39800
C  27.56500 -5.25000 47.08700
C  28.68700 -4.43300 46.78600
C  28.24200 -3.57900 45.78100
C  26.82800 -3.82000 45.60600
C  30.09300 -4.61200 47.34600
C  28.58000 -2.39100 44.87800
O  29.54300 -1.67900 44.76200
C  27.31000 -2.09700 44.06300
C  26.91000 -0.61500 44.08400
O  26.11800 0.01900 44.80500
O  27.67500 0.07600 43.19700
C  27.50500 1.46900 42.90800
H  20.89300 -4.35900 44.06900
H  22.84700 -9.48300 47.68500
H  28.41000 -6.80300 48.43600
H  24.33700 -1.24900 43.38700
H  22.31900 -2.90200 42.31900
H  22.29200 -0.78600 44.32600
H  21.15100 -2.02700 44.66500
H  21.16000 -1.18000 43.10500
H  24.15800 -3.24800 41.08100
H  25.74700 -3.07100 41.77200
H  26.15300 -1.29400 40.71400
H  24.70500 -0.46500 41.47000
H  18.56900 -6.20300 45.02000
H  19.06500 -7.56300 43.97600
H  19.60500 -5.99400 43.55600
H  20.87300 -9.74400 48.31600
H  21.00600 -10.75100 46.88900
H  19.51800 -10.74900 47.66600
H  25.42600 -10.26200 48.27200
H  26.48500 -8.03300 49.93500
H  25.18200 -9.33400 50.92200
H  24.56000 -10.75900 50.18500
H  23.49200 -9.25700 50.25100
H  28.36100 -9.13700 48.00400
H  27.61700 -10.54200 48.74200
H  28.48700 -8.45800 50.73000
H  29.77600 -8.95200 49.74100
H  28.96400 -10.19000 50.68300
H  30.77300 -3.85200 46.95900
H  30.24300 -5.65800 47.08000
H  30.00900 -4.60100 48.43200
H  27.72000 -2.36000 43.08800
H  27.86100 1.74100 41.91400
H  28.01600 2.06900 43.66200
H  26.47500 1.79700 43.04800
Mg 9.56600 48.47200 25.95700
C  7.68000 48.40000 28.85100
C  12.14000 49.54300 27.88600
C  11.39300 48.49700 23.14700
C  6.59700 48.01100 24.06700
N  9.88800 48.87700 28.11900
C  8.98900 48.78200 29.10100
C  9.58200 49.33900 30.36100
C  10.91700 49.90100 29.98200
C  10.97700 49.52300 28.52800
C  11.00400 51.44700 30.13800
C  9.74600 48.25700 31.49100
C  9.05800 48.66200 32.82700
H  8.96500 47.54000 33.81800
N  11.53900 48.94200 25.56300
C  12.47100 49.24400 26.51000
C  13.82800 49.35200 25.87800
C  13.56100 48.99900 24.50500
C  12.13300 48.85300 24.35000
C  15.10200 49.61200 26.58400
C  14.54700 48.91800 23.33400
O  14.26200 48.82100 22.17000
C  15.97200 48.94500 23.66500
N  9.13500 48.21700 23.91400
C  10.05100 48.26600 22.95200
C  9.51400 47.75900 21.61000
C  7.98800 47.43200 21.99800
C  7.83500 47.93800 23.40700
C  9.73200 48.73100 20.38900
C  7.73100 45.89400 21.96600
C  8.29600 45.07100 23.11900
N  7.53900 48.22200 26.29100
C  6.46200 48.07000 25.44900
C  5.26100 47.80900 26.24700
C  5.70500 48.01100 27.54600
C  7.07600 48.19500 27.57300
C  3.94400 47.42500 25.69000
C  5.22100 48.02100 28.89200
O  4.06900 47.87400 29.25300
C  6.46400 48.18400 29.83200
C  6.64100 46.89300 30.69500
O  7.25000 45.91100 30.33300
O  6.04900 47.12300 31.83900
C  6.02700 45.99500 32.76500
H  13.05100 49.83800 28.41100
H  12.02000 48.50500 22.25400
H  5.70900 47.93600 23.43700
H  8.93300 50.11400 30.76900
H  11.75100 49.40800 30.48200
H  11.04900 51.87900 29.13900
H  11.96000 51.64100 30.62500
H  10.12400 51.78500 30.68500
H  10.78000 48.14600 31.81700
H  9.37300 47.29100 31.15100
H  8.07600 49.03400 32.53500
H  9.69800 49.39300 33.32100
H  15.41200 50.65500 26.51400
H  15.97600 48.98200 26.41700
H  14.79800 49.38700 27.60600
H  16.20500 48.12500 24.34500
H  16.14100 49.86400 24.22600
H  16.55000 48.87800 22.74300
H  10.07800 46.86100 21.36100
H  7.33600 47.86100 21.23600
H  10.34600 49.59200 20.65300
H  8.76000 49.16900 20.15900
H  10.21700 48.15800 19.59900
H  8.20600 45.45000 21.09100
H  6.65000 45.90400 21.83000
H  9.11900 45.49300 23.69600
H  8.56100 44.07400 22.76600
H  7.44300 44.83900 23.75800
H  4.02200 46.45800 25.19100
H  3.55000 48.22900 25.06900
H  3.24100 47.24000 26.50200
H  6.37800 49.05300 30.48400
H  6.01500 46.62300 33.65600
H  6.92900 45.39000 32.68400
H  5.11400 45.40400 32.83500

