158

Mg 44.99900 5.30900 48.26000
C  43.00400 8.19100 47.36900
C  42.19200 3.41400 47.56900
C  47.02400 2.68000 47.98400
C  47.86500 7.42900 48.14000
N  42.78700 5.83900 47.50700
C  42.18200 7.04500 47.37000
C  40.63900 6.90300 46.98400
C  40.49200 5.31500 47.11000
C  41.88900 4.78900 47.48400
C  39.38200 4.98500 48.15500
C  40.36500 7.39400 45.56200
C  38.99000 8.00800 45.24600
H  38.21300 7.49400 44.01100
N  44.64800 3.31800 47.95100
C  43.43000 2.72500 47.60500
C  43.68800 1.32700 47.30100
C  45.09900 1.06700 47.35500
C  45.66300 2.41300 47.76300
C  42.53400 0.40400 46.92400
C  45.80200 -0.26900 47.04700
O  45.13300 -1.23400 46.71100
C  47.25300 -0.47600 47.15700
N  47.18300 5.10000 48.17000
C  47.71000 3.90100 48.25300
C  49.20600 3.91400 48.21200
C  49.48200 5.44100 48.20400
C  48.10100 6.08900 48.22600
C  49.84000 3.20000 49.38900
C  50.38900 6.05300 47.10600
C  51.50600 6.99300 47.58600
N  45.38700 7.41100 48.02200
C  46.62700 8.09800 48.06300
C  46.32700 9.50900 47.92300
C  44.95000 9.53300 47.62300
C  44.39700 8.23200 47.65500
C  47.26700 10.66000 48.05800
C  43.85600 10.50100 47.41000
O  43.78600 11.70600 47.32900
C  42.57900 9.58900 47.16900
C  41.51800 9.97200 48.17300
O  41.62900 10.00600 49.40400
O  40.30400 10.23200 47.51300
C  39.08200 10.38300 48.23900
H  41.29800 2.83500 47.33000
H  47.70700 1.83000 47.92000
H  48.67800 8.13200 47.94800
H  40.07600 7.43500 47.75100
H  40.08700 4.86900 46.20200
H  39.79000 4.21800 48.81300
H  38.50800 4.50700 47.71200
H  39.01900 5.81200 48.76500
H  40.49900 6.57000 44.86100
H  41.04800 8.16300 45.19900
H  39.02500 9.09700 45.23400
H  38.35500 7.70500 46.07800
H  42.74800 -0.40800 46.22800
H  41.66400 0.98400 46.61400
H  42.21900 0.07300 47.91300
H  47.69400 0.19300 46.41700
H  47.42700 -1.51300 46.87000
H  47.57600 -0.28100 48.17900
H  49.36000 3.47700 47.22500
H  49.87600 5.67200 49.19300
H  49.68100 2.12700 49.28000
H  49.43500 3.54300 50.34100
H  50.92200 3.32900 49.36300
H  49.84500 6.50100 46.27400
H  50.84700 5.26200 46.51200
H  51.47000 8.02000 47.22300
H  52.47300 6.52400 47.40600
H  51.52200 7.12100 48.66900
H  46.73300 11.49400 48.51300
H  47.58000 10.86800 47.03500
H  48.09800 10.31800 48.67500
H  42.15000 9.73800 46.17900
H  38.23500 10.29600 47.55900
H  39.05900 11.38200 48.67500
H  38.94000 9.72300 49.09500
Mg 42.64700 41.70000 26.64800
C  41.60400 44.09400 29.03700
C  43.56900 39.75300 29.34300
C  43.32400 39.45800 24.44300
C  41.66000 44.01000 24.17400
N  42.49100 41.86800 28.93600
C  42.08300 42.94000 29.70000
C  42.13600 42.66100 31.26400
C  42.92000 41.30600 31.22800
C  42.99000 40.93000 29.77900
C  44.44400 41.27400 31.86500
C  40.70300 42.52500 31.95000
C  40.18700 43.44800 33.10200
H  39.96900 42.81100 34.46700
N  43.45800 39.94400 26.83300
C  43.76500 39.25200 28.01100
C  44.35900 38.01200 27.67500
C  44.37000 37.88000 26.29000
C  43.75400 39.11800 25.79000
C  44.71600 36.90000 28.77800
C  44.91500 36.74900 25.42200
O  44.79400 36.74900 24.23200
C  45.61800 35.55500 26.00000
N  42.54800 41.75300 24.58600
C  42.80500 40.62500 23.86200
C  42.57900 40.90200 22.36200
C  41.94700 42.32300 22.24600
C  42.01600 42.73600 23.74200
C  43.76000 40.59900 21.38600
C  40.54100 42.38000 21.50300
C  40.43400 43.48900 20.41200
N  41.91000 43.65000 26.58200
C  41.56600 44.51100 25.45800
C  40.93600 45.76000 25.96100
C  40.91100 45.56800 27.30500
C  41.57000 44.30600 27.65200
C  40.13700 46.81900 25.18500
C  40.56300 46.16200 28.60000
O  39.96500 47.19000 28.77300
C  41.09300 45.23800 29.86300
C  42.16500 45.97600 30.63300
O  43.27900 46.10200 30.31100
O  41.61100 46.44800 31.73600
C  42.44500 46.89400 32.86600
H  43.84600 39.06400 30.14300
H  43.63000 38.81300 23.61700
H  41.32100 44.59900 23.32000
H  42.61200 43.48600 31.79500
H  42.33400 40.55300 31.75400
H  44.28400 40.73700 32.80000
H  44.76800 42.29900 32.04300
H  45.10700 40.69200 31.22400
H  40.76600 41.60200 32.52600
H  39.92600 42.39300 31.19700
H  39.23100 43.94000 32.92500
H  40.93600 44.23600 33.18400
H  44.33400 36.97400 29.79700
H  45.78800 36.72000 28.84400
H  44.17700 36.08300 28.30000
H  46.04100 35.00700 25.15800
H  44.82600 34.94200 26.43100
H  46.43500 35.96500 26.59400
H  41.81300 40.17500 22.09000
H  42.68400 42.86200 21.65100
H  43.42800 39.94100 20.58200
H  44.54700 40.10400 21.95500
H  44.18300 41.53100 21.01000
H  39.81600 42.64600 22.27200
H  40.12800 41.44600 21.12200
H  41.42300 43.91000 20.23000
H  39.82700 44.29300 20.82800
H  39.95100 43.03100 19.54900
H  40.70500 47.74500 25.27100
H  39.23400 46.97600 25.77500
H  39.97800 46.49200 24.15800
H  40.28500 44.96200 30.54100
H  42.36000 47.95800 33.08900
H  43.50300 46.70200 32.68800
H  42.14100 46.32000 33.74100

