158

Mg 16.79000 -1.67500 28.38300
C  15.42000 0.19100 30.92400
C  18.71800 -3.26800 30.87200
C  18.84600 -2.96200 26.08600
C  15.12200 0.24400 25.92200
N  17.28200 -1.39800 30.65700
C  16.45000 -0.60600 31.43300
C  16.78800 -0.79100 32.99800
C  18.02700 -1.80600 32.87600
C  18.04100 -2.22100 31.38400
C  19.41200 -1.15700 33.20900
C  15.62400 -1.56200 33.64900
C  15.42300 -1.34800 35.17200
H  16.68200 -0.90400 36.07200
N  18.46900 -3.01000 28.45900
C  18.98000 -3.67900 29.54200
C  19.84500 -4.78300 29.13700
C  20.00400 -4.59800 27.76200
C  19.13800 -3.47600 27.36100
C  20.46700 -5.81800 30.06800
C  20.91000 -5.39100 26.73500
O  20.97000 -5.03400 25.55600
C  21.76300 -6.61400 27.19200
N  16.92200 -1.43900 26.36500
C  17.86900 -2.06000 25.58600
C  17.74300 -1.63200 24.10500
C  16.40900 -0.83500 24.07500
C  16.12600 -0.64500 25.54900
C  18.99900 -0.87800 23.51500
C  15.21300 -1.59400 23.40800
C  14.22000 -0.73300 22.59800
N  15.51000 -0.12000 28.37400
C  14.87300 0.53300 27.29800
C  13.93800 1.50600 27.89200
C  14.13500 1.45600 29.26400
C  15.09800 0.44900 29.55200
C  13.04200 2.39800 27.06100
C  13.68400 1.97300 30.49100
O  12.87400 2.84800 30.77100
C  14.46400 1.19900 31.62100
C  15.32200 2.30800 32.35000
O  15.97200 3.16000 31.86100
O  15.19100 2.09600 33.71900
C  15.99900 3.06700 34.51200
H  19.29100 -3.76900 31.65400
H  19.38100 -3.37500 25.22700
H  14.60500 0.86500 25.18700
H  17.07100 0.10300 33.55400
H  17.91500 -2.77300 33.36600
H  20.07100 -1.90900 33.64300
H  19.33700 -0.24200 33.79700
H  19.91300 -0.80800 32.30600
H  15.69000 -2.63600 33.47800
H  14.72000 -1.15400 33.19800
H  15.25100 -2.30300 35.67000
H  14.65200 -0.60200 35.36700
H  20.24100 -6.81800 29.69700
H  20.06400 -5.71500 31.07500
H  21.55000 -5.89400 30.16100
H  22.10400 -6.32700 28.18700
H  22.59800 -6.67700 26.49400
H  21.19400 -7.51300 27.42500
H  17.68900 -2.57200 23.55600
H  16.55500 0.07400 23.49100
H  19.85800 -1.05100 24.16400
H  18.78100 0.18700 23.44100
H  19.33400 -1.16900 22.51900
H  14.60800 -2.09500 24.16400
H  15.61900 -2.41000 22.81000
H  14.73100 0.22000 22.46100
H  13.26600 -0.60300 23.10800
H  14.02600 -1.15000 21.61000
H  13.73600 2.86100 26.35900
H  12.47800 3.15300 27.60800
H  12.36200 1.73500 26.52700
H  13.76700 0.70200 32.29500
H  17.05500 2.79800 34.50000
H  15.55000 2.99800 35.50400
H  15.75800 4.06500 34.14700
Mg 47.61600 17.15100 28.50200
C  45.57000 17.03500 31.23600
C  49.80000 19.08900 30.25200
C  49.37800 17.83000 25.59000
C  44.95800 15.68300 26.55000
N  47.54000 18.07100 30.38000
C  46.73700 17.77900 31.41500
C  47.22300 18.42600 32.76100
C  48.37600 19.33800 32.27100
C  48.55700 18.88200 30.83000
C  48.08900 20.88600 32.57500
C  47.77900 17.24500 33.65900
C  47.47200 17.45900 35.20100
H  46.93600 18.75700 35.72400
N  49.42300 18.20500 27.97600
C  50.22200 18.80700 28.93400
C  51.43400 19.28700 28.35400
C  51.28800 18.92800 26.92100
C  50.00600 18.31300 26.80000
C  52.58600 20.00600 29.08000
C  52.22700 19.26200 25.85800
O  52.00500 19.03600 24.67000
C  53.58700 19.85800 26.16800
N  47.09000 16.98600 26.38000
C  48.03000 17.30100 25.39800
C  47.54700 16.87000 23.98600
C  46.29400 15.96200 24.39200
C  46.10900 16.20900 25.85600
C  47.22200 18.09800 23.03200
C  46.47600 14.37700 23.99400
C  45.43800 13.84600 22.92700
N  45.66800 16.46300 28.74700
C  44.69800 15.83400 27.94400
C  43.57700 15.45800 28.73300
C  43.85600 15.81800 30.00600
C  45.06300 16.54600 30.01800
C  42.37500 14.69700 28.34100
C  43.31000 15.91100 31.29000
O  42.14300 15.67400 31.64200
C  44.42100 16.64100 32.16700
C  43.84100 17.66900 33.04700
O  43.45200 18.81300 32.74700
O  43.52100 16.95300 34.21200
C  42.55300 17.53400 35.15000
H  50.44000 19.76900 30.81700
H  49.90200 17.93300 24.63700
H  44.12500 15.16200 26.07300
H  46.45400 19.02600 33.24700
H  49.26900 19.16900 32.87300
H  48.96000 21.22600 33.13500
H  47.18500 21.01700 33.16900
H  48.07200 21.60500 31.75600
H  48.85100 17.10500 33.52400
H  47.20300 16.35100 33.41800
H  48.42100 17.27100 35.70300
H  46.74500 16.69200 35.47100
H  52.38100 20.25500 30.12100
H  53.04700 20.87800 28.61600
H  53.36100 19.23900 29.04600
H  54.13000 19.20200 26.84800
H  53.39100 20.90100 26.42000
H  54.14100 19.86100 25.23000
H  48.33500 16.26600 23.53600
H  45.41800 16.23700 23.80500
H  46.18700 18.16200 22.69500
H  47.90600 18.08900 22.18400
H  47.39400 19.07600 23.48200
H  46.39100 13.71900 24.85900
H  47.44900 14.34600 23.50300
H  44.50000 13.50300 23.36300
H  45.74400 13.10400 22.18900
H  45.28000 14.75800 22.35200
H  42.76300 13.69900 28.13600
H  41.76100 15.12600 27.55000
H  41.85000 14.54300 29.28400
H  44.92900 15.86400 32.73700
H  43.16800 18.13300 35.82200
H  42.04500 16.78700 35.75900
H  41.79800 18.10700 34.61200

