158

Mg 36.30600 48.84700 25.30300
C  36.90000 46.56800 27.95500
C  34.86900 51.02000 27.53500
C  35.56900 50.76300 22.74200
C  37.22800 46.28200 23.07900
N  35.87700 48.70400 27.52700
C  36.36700 47.81200 28.40700
C  36.24700 48.29700 29.84600
C  35.30000 49.51700 29.67900
C  35.34200 49.80000 28.15700
C  33.88400 49.25500 30.26500
C  37.68300 48.56900 30.44400
C  37.98000 48.10700 31.93400
H  36.82100 48.19000 32.82100
N  35.36500 50.61300 25.17800
C  34.91500 51.48400 26.18600
C  34.61300 52.85600 25.69100
C  34.62700 52.62800 24.26900
C  35.18200 51.26300 23.98300
C  34.10300 53.85000 26.58200
C  34.12700 53.61500 23.15900
O  34.12800 53.35200 21.96700
C  33.57300 54.95900 23.64400
N  36.42500 48.53800 23.06500
C  36.21600 49.52900 22.26100
C  36.65700 49.19000 20.79400
C  37.34700 47.83000 21.03200
C  37.00300 47.50200 22.47800
C  35.47900 49.08300 19.79500
C  38.94200 47.72900 20.84200
C  39.76600 48.63000 21.71100
N  37.05300 46.87800 25.39700
C  37.36400 45.92100 24.43500
C  37.69900 44.68400 25.03800
C  37.62100 44.89700 26.40200
C  37.08400 46.23200 26.55000
C  38.02900 43.41900 24.31600
C  37.82300 44.30500 27.69700
O  38.15900 43.21100 28.07100
C  37.42100 45.39300 28.73100
C  36.31400 44.85500 29.54000
O  35.19500 44.59800 29.08900
O  36.74400 44.77200 30.86500
C  35.66800 44.51200 31.80200
H  34.31100 51.66700 28.21500
H  35.22700 51.40200 21.92600
H  37.51200 45.48200 22.39200
H  35.75000 47.61600 30.53700
H  35.72100 50.37600 30.20100
H  33.08300 49.76900 29.73400
H  33.86600 49.59200 31.30100
H  33.74900 48.17800 30.37000
H  38.03700 49.59100 30.30800
H  38.29800 47.99000 29.75600
H  38.63200 48.93900 32.20100
H  38.50400 47.16500 32.09500
H  34.86300 54.63100 26.62500
H  33.95500 53.55700 27.62100
H  33.17300 54.29300 26.22400
H  32.61300 54.85000 24.14800
H  33.54900 55.69500 22.84000
H  34.30800 55.25800 24.39100
H  37.29800 49.99900 20.44200
H  37.06800 47.07500 20.29800
H  34.50800 49.14900 20.28500
H  35.61900 48.23800 19.12100
H  35.47800 49.92800 19.10600
H  39.18100 48.02400 19.82000
H  39.18900 46.66800 20.86400
H  39.37500 48.77300 22.71800
H  39.79400 49.59700 21.20700
H  40.78600 48.24500 21.72700
H  39.10700 43.30500 24.20300
H  37.63000 43.42700 23.30200
H  37.62500 42.55600 24.84500
H  38.30200 45.60900 29.33500
H  34.82800 45.20500 31.74900
H  36.08100 44.36100 32.79900
H  35.28700 43.55300 31.45300
Mg 1.56900 42.28500 25.23500
C  2.96600 42.19200 28.52400
C  -1.43000 41.07300 26.61200
C  0.37700 41.79600 22.06400
C  4.62000 43.14900 23.96200
N  0.86200 41.69500 27.30000
C  1.53300 41.88100 28.46700
C  0.60900 41.62300 29.71900
C  -0.66500 40.97600 29.02500
C  -0.37500 41.13500 27.53400
C  -1.04300 39.54800 29.52100
C  0.35900 43.02400 30.48800
C  0.27800 42.99200 32.05500
H  0.09200 41.67500 32.80800
N  -0.29900 41.65700 24.44600
C  -1.39500 41.30900 25.18300
C  -2.44900 40.93300 24.28900
C  -2.04700 41.05600 22.97400
C  -0.61000 41.56500 23.06900
C  -3.78400 40.41100 24.80000
C  -2.74000 40.74000 21.68900
O  -2.18300 40.84100 20.55100
C  -4.23400 40.27800 21.77300
N  2.42300 42.53300 23.21200
C  1.74400 42.21500 22.08200
C  2.61100 42.60500 20.86200
C  3.92900 43.22700 21.46000
C  3.68400 42.96800 22.99000
C  2.93200 41.31400 20.08200
C  4.23400 44.66200 20.99300
C  4.42000 44.85300 19.48400
N  3.40600 42.62400 25.99900
C  4.58700 42.87900 25.31300
C  5.68200 42.96000 26.25100
C  5.07100 42.81400 27.52200
C  3.71600 42.49000 27.33100
C  7.16000 43.28100 25.90900
C  5.30300 42.71200 28.95000
O  6.37400 42.68000 29.56500
C  3.97000 42.34800 29.68600
C  4.29800 41.01300 30.35300
O  4.42100 39.92800 29.78500
O  4.28900 41.18800 31.71400
C  4.14600 40.06900 32.63400
H  -2.37300 40.92500 27.14200
H  0.05600 41.55300 21.04900
H  5.61800 43.44300 23.62800
H  0.92200 40.86500 30.43700
H  -1.47900 41.68500 29.17700
H  -0.92000 38.96600 28.60800
H  -2.09900 39.66800 29.76600
H  -0.46900 39.08000 30.32100
H  -0.51300 43.60100 30.17800
H  1.22500 43.63200 30.22600
H  -0.47200 43.70500 32.39900
H  1.19900 43.37600 32.49200
H  -4.69300 40.86900 24.41200
H  -3.85400 40.50300 25.88400
H  -3.82500 39.32700 24.69200
H  -4.26000 39.36500 22.36700
H  -4.43800 40.01900 20.73400
H  -4.91700 41.07500 22.06700
H  1.98700 43.20800 20.20200
H  4.86400 42.76400 21.14400
H  2.79100 40.42100 20.69200
H  3.94900 41.29500 19.69000
H  2.30900 41.08600 19.21800
H  5.16700 45.01100 21.43400
H  3.51800 45.34500 21.45100
H  4.64200 44.00400 18.83800
H  5.36300 45.38700 19.36400
H  3.52300 45.31400 19.07000
H  7.18000 44.32100 25.58400
H  7.24400 42.61000 25.05300
H  7.80900 43.00500 26.74000
H  3.57100 42.93300 30.51400
H  5.13900 39.85200 33.02800
H  3.82100 39.23000 32.01900
H  3.52500 40.33800 33.48800

