158

Mg 43.18700 42.35800 26.55500
C  42.06300 44.60800 28.89300
C  44.49500 40.46600 29.10400
C  44.29400 40.16700 24.16000
C  42.09700 44.47800 24.06200
N  43.17000 42.47300 28.74800
C  42.57000 43.41000 29.46200
C  42.51900 42.95300 30.95800
C  43.62900 41.87600 30.99700
C  43.76100 41.54300 29.52900
C  44.82500 42.22200 31.85500
C  41.09600 42.63700 31.42300
C  40.45700 43.43600 32.58200
H  39.83500 42.65200 33.70500
N  44.11400 40.50500 26.65900
C  44.64700 39.90700 27.81300
C  45.21000 38.63300 27.48400
C  45.11800 38.50400 26.03500
C  44.47300 39.78500 25.51600
C  45.71000 37.67700 28.58100
C  45.43600 37.30800 25.13900
O  45.32400 37.30900 23.88500
C  45.91400 35.97600 25.84100
N  43.39100 42.48500 24.37600
C  43.86000 41.44900 23.63400
C  43.77400 41.78600 22.14900
C  42.82900 43.00000 22.12100
C  42.77900 43.38100 23.58000
C  45.13400 42.08300 21.50300
C  41.54800 42.40000 21.61200
C  40.69300 41.57600 22.65200
N  42.45500 44.28000 26.43700
C  42.07300 44.99700 25.36500
C  41.53500 46.27000 25.83100
C  41.44700 46.09700 27.24500
C  42.07100 44.86600 27.51700
C  41.09100 47.44800 25.03800
C  40.94900 46.70600 28.45600
O  40.27400 47.76400 28.64100
C  41.20500 45.67000 29.60200
C  42.06100 46.23300 30.79600
O  43.20800 46.58500 30.74600
O  41.33200 46.17200 31.88100
C  41.94200 46.73000 33.05800
H  44.88500 39.82900 29.90100
H  44.70200 39.47000 23.42500
H  41.69200 45.14600 23.29900
H  42.79100 43.72500 31.67800
H  43.22300 40.94500 31.39400
H  44.65400 43.04800 32.54700
H  45.62300 42.69100 31.27900
H  45.08100 41.27500 32.33000
H  41.06200 41.57900 31.68200
H  40.55600 42.79700 30.49000
H  39.76600 44.18900 32.20400
H  41.27200 44.03200 32.99400
H  45.25600 36.68700 28.63100
H  45.62100 38.03100 29.60900
H  46.79700 37.73400 28.53700
H  46.55100 36.28600 26.66900
H  46.52200 35.37100 25.16900
H  45.00600 35.50300 26.21500
H  43.50400 40.85100 21.65800
H  43.18800 43.68200 21.35000
H  45.51500 43.06500 21.78500
H  45.03500 42.05400 20.41800
H  45.93000 41.36100 21.68900
H  41.52900 41.72100 20.76000
H  40.85800 43.22500 21.43400
H  40.62900 42.01200 23.64800
H  41.02000 40.53600 22.63800
H  39.65300 41.61300 22.32700
H  41.22300 48.32000 25.67900
H  40.08200 47.13900 24.76600
H  41.63400 47.56300 24.10000
H  40.26500 45.25500 29.96700
H  41.34700 46.41500 33.91600
H  41.84600 47.81500 33.02200
H  42.99800 46.52900 33.24000
Mg -1.95100 34.27800 26.27500
C  -4.09800 33.04600 28.91000
C  -0.61600 36.45300 28.36300
C  -0.36200 35.35400 23.57300
C  -4.06400 32.26500 24.14600
N  -2.29400 34.66900 28.41100
C  -3.13000 34.03100 29.32800
C  -2.77700 34.51100 30.69400
C  -1.71900 35.71000 30.49800
C  -1.52500 35.64400 28.98400
C  -2.12400 37.03300 31.05200
C  -2.22600 33.41900 31.71700
C  -3.07000 33.36300 32.90300
H  -3.06000 32.04900 33.77800
N  -0.73900 35.83900 25.97700
C  -0.21700 36.64500 26.94900
C  0.78600 37.44600 26.39400
C  0.85600 37.12700 24.97900
C  -0.15100 36.08300 24.76800
C  1.57200 38.50100 27.22700
C  1.77200 37.63700 23.85600
O  1.77900 37.33300 22.64700
C  2.83900 38.62300 24.28900
N  -2.28900 33.93000 24.18100
C  -1.37800 34.51300 23.30300
C  -1.38600 33.79500 21.94500
C  -2.53300 32.72700 22.09100
C  -2.94100 32.94000 23.59800
C  -1.48700 34.73400 20.70500
C  -2.02000 31.33600 21.75400
C  -2.96300 30.47000 20.99500
N  -3.62800 32.85100 26.46500
C  -4.34900 32.14600 25.48500
C  -5.43200 31.30700 26.15800
C  -5.33100 31.62200 27.50600
C  -4.27000 32.53000 27.62700
C  -6.34500 30.32900 25.51300
C  -5.83900 31.23100 28.81300
O  -6.71100 30.34100 29.08800
C  -5.09000 32.18700 29.77700
C  -6.18300 33.02600 30.37900
O  -6.90300 33.85600 29.86000
O  -6.25000 32.77800 31.77200
C  -7.31200 33.47500 32.58000
H  -0.05300 36.98200 29.13400
H  0.36200 35.62900 22.80400
H  -4.69800 31.53900 23.63400
H  -3.69300 34.95900 31.07900
H  -0.74800 35.59100 30.97900
H  -2.51000 37.70000 30.28200
H  -1.35000 37.49900 31.66200
H  -3.05200 36.97900 31.62100
H  -1.21600 33.74300 31.97000
H  -2.16800 32.47900 31.16700
H  -4.08600 33.61800 32.60200
H  -2.85500 34.13900 33.63800
H  1.44100 38.55900 28.30800
H  1.43000 39.50200 26.81900
H  2.62900 38.30900 27.04200
H  3.54700 38.08200 24.91700
H  2.40400 39.40400 24.91200
H  3.37800 39.07300 23.45600
H  -0.37300 33.39400 21.92300
H  -3.35000 32.97900 21.41400
H  -1.58500 35.77100 21.02700
H  -2.27000 34.61800 19.95600
H  -0.70800 34.68600 19.94300
H  -1.57500 30.97300 22.68100
H  -1.17600 31.52600 21.09100
H  -3.80600 31.03400 20.59700
H  -3.27300 29.60200 21.57600
H  -2.39900 30.02100 20.17700
H  -5.83200 29.39600 25.28000
H  -6.74800 30.82100 24.62800
H  -7.13800 30.03600 26.20200
H  -4.47600 31.64000 30.49200
H  -8.11000 32.73700 32.65500
H  -7.72300 34.41800 32.22000
H  -6.89000 33.67300 33.56500

