158

Mg 0.09200 7.60400 25.20700
C  0.85700 9.69100 27.79800
C  0.47100 4.89500 27.28900
C  -0.41800 5.61700 22.61600
C  0.28300 10.31800 23.05200
N  0.70800 7.28800 27.28500
C  0.85600 8.34900 28.18900
C  1.19400 7.81000 29.59500
C  1.14500 6.30400 29.36300
C  0.77700 6.10300 27.92800
C  2.45400 5.55500 29.70000
C  0.22100 8.28600 30.65200
C  0.94800 8.67900 32.00600
H  1.52700 7.50700 32.84000
N  -0.20700 5.57400 25.05800
C  -0.07700 4.63200 25.99100
C  -0.25800 3.27000 25.33900
C  -0.51100 3.40700 23.99300
C  -0.45200 4.97400 23.84300
C  -0.07500 2.01700 26.15800
C  -0.77700 2.29800 22.94900
O  -1.17900 2.54700 21.83900
C  -0.50700 0.77700 23.37200
N  0.09100 7.90300 23.15800
C  -0.24900 6.96500 22.25900
C  -0.56900 7.46400 20.88300
C  -0.37300 8.99900 21.05300
C  0.07400 9.09800 22.51100
C  0.19900 6.86700 19.72800
C  -1.54100 9.95400 20.64500
C  -2.85700 9.85200 21.30400
N  0.59200 9.56700 25.33700
C  0.62900 10.53900 24.37700
C  0.78600 11.86000 24.95100
C  1.01400 11.53500 26.29500
C  0.78100 10.14700 26.50100
C  0.84100 13.18500 24.39100
C  1.30200 12.13300 27.55900
O  1.62000 13.27400 27.90100
C  1.20800 10.97200 28.67900
C  2.43000 10.96900 29.54300
O  3.44900 10.38200 29.30800
O  2.17800 11.57800 30.71800
C  3.32900 11.68900 31.69900
H  0.48300 4.09100 28.02800
H  -0.86800 4.96600 21.86300
H  0.14600 11.24100 22.48600
H  2.22800 8.10500 29.77300
H  0.45800 5.87300 30.09100
H  2.68600 4.86100 28.89100
H  2.33400 4.95100 30.59900
H  3.26900 6.25900 29.86800
H  -0.53200 7.52600 30.86200
H  -0.27600 9.16900 30.25000
H  0.23800 9.31300 32.53700
H  1.85000 9.20000 31.68200
H  -1.04700 1.54200 26.03400
H  0.01000 2.36000 27.19000
H  0.85000 1.47600 25.96100
H  -1.34200 0.43100 23.98300
H  0.46200 0.82200 23.86800
H  -0.39000 0.10900 22.51900
H  -1.62800 7.32300 20.66800
H  0.54400 9.30500 20.54900
H  -0.38700 6.60100 18.84800
H  0.69300 5.94200 20.02300
H  0.88200 7.62600 19.34600
H  -1.69900 9.76900 19.58300
H  -1.13100 10.96400 20.61200
H  -2.78400 9.13200 22.11900
H  -3.58400 9.54800 20.55100
H  -3.19200 10.77700 21.77400
H  0.00400 13.71000 24.85200
H  0.68300 13.21900 23.31300
H  1.77900 13.63100 24.72200
H  0.46200 11.37500 29.36400
H  3.75500 10.71400 31.93700
H  3.03700 12.10100 32.66500
H  4.15300 12.24500 31.25200
Mg 36.17800 49.22900 24.86300
C  36.30900 47.44100 27.83500
C  35.21600 52.01500 26.60800
C  35.51100 50.85400 21.93900
C  36.71700 46.20900 23.17700
N  35.91100 49.68200 27.05800
C  35.98300 48.80300 28.11100
C  35.60400 49.45700 29.48100
C  35.06700 50.90400 29.01100
C  35.34900 50.87600 27.46400
C  33.56100 51.10700 29.35700
C  36.84800 49.66600 30.41500
C  36.61100 49.12400 31.84300
H  35.22700 49.11900 32.41000
N  35.60200 51.20100 24.36500
C  35.28600 52.17100 25.22500
C  34.85400 53.36000 24.53700
C  34.95600 53.14500 23.11400
C  35.37000 51.70400 23.04600
C  34.44100 54.70500 25.21100
C  34.57000 53.98600 21.92600
O  34.56900 53.60200 20.74400
C  34.06500 55.46100 22.22400
N  36.00000 48.61000 22.82200
C  35.94800 49.55400 21.84100
C  36.28900 48.85000 20.44200
C  36.76300 47.43900 20.80100
C  36.57800 47.37800 22.39600
C  35.12000 48.79800 19.44700
C  38.21700 47.14100 20.38900
C  39.30000 47.73500 21.29500
N  36.52000 47.23200 25.35000
C  36.73700 46.13500 24.55500
C  37.14700 45.00900 25.30700
C  36.98800 45.45000 26.66400
C  36.50900 46.79100 26.62700
C  37.58000 43.71100 24.78100
C  37.06000 45.07300 28.00100
O  37.30900 43.97800 28.50600
C  36.60100 46.30700 28.84200
C  35.43900 46.01100 29.78600
O  34.21500 45.92800 29.49500
O  35.82400 45.77900 31.06100
C  34.80200 45.05000 31.82300
H  34.77300 52.89700 27.07400
H  35.33400 51.33100 20.97200
H  36.94600 45.37700 22.50900
H  34.83400 48.81500 29.91000
H  35.70600 51.66900 29.45200
H  33.00900 51.23200 28.42600
H  33.30100 51.91300 30.04400
H  33.14600 50.23300 29.85900
H  37.21100 50.67900 30.58900
H  37.66900 49.16000 29.90800
H  37.22700 49.69500 32.53800
H  37.08800 48.14500 31.82200
H  34.65100 54.88500 26.26500
H  33.35800 54.72500 25.09200
H  34.86700 55.58800 24.73500
H  33.12200 55.44500 22.76900
H  33.99000 55.85800 21.21100
H  34.88000 56.01400 22.69200
H  37.09200 49.37500 19.92400
H  36.06300 46.69600 20.41800
H  34.53400 49.71200 19.54400
H  34.44900 47.94100 19.51400
H  35.65200 48.80400 18.49600
H  38.34900 47.43200 19.34700
H  38.32500 46.05800 20.45100
H  39.90600 48.38900 20.66800
H  39.93600 47.00400 21.79500
H  38.92600 48.37700 22.09300
H  38.08900 43.84800 23.82700
H  36.69400 43.12900 24.52700
H  38.23400 43.19100 25.48100
H  37.44300 46.66700 29.43300
H  34.48600 44.15000 31.29600
H  34.03000 45.74000 32.16500
H  35.33500 44.78100 32.73500

