158

Mg 17.29200 -2.58500 28.29600
C  16.48700 -0.25000 30.64700
C  19.09300 -4.32000 30.56900
C  18.57800 -4.43700 25.73100
C  15.88600 -0.45400 25.82900
N  17.73400 -2.24600 30.35700
C  17.22200 -1.34400 31.19700
C  17.68700 -1.55400 32.65800
C  18.68700 -2.72100 32.49700
C  18.49400 -3.10300 31.05000
C  20.27400 -2.43000 32.75600
C  16.43800 -1.90500 33.54200
C  16.28400 -1.20400 34.88200
H  17.53800 -0.64100 35.53400
N  18.48400 -4.25400 28.18900
C  19.13300 -4.83500 29.26900
C  19.83300 -6.04000 28.90200
C  19.70800 -6.06600 27.48700
C  18.93700 -4.87800 27.03800
C  20.61200 -7.05700 29.86500
C  20.29100 -7.00500 26.55900
O  20.20300 -6.85000 25.36000
C  21.00700 -8.20700 27.09500
N  17.35800 -2.39300 26.14600
C  17.96400 -3.29000 25.32000
C  17.76900 -3.02800 23.85200
C  16.79100 -1.81800 23.88600
C  16.65900 -1.54900 25.39200
C  19.04800 -2.63200 23.14800
C  15.49900 -2.04400 23.15000
C  15.02100 -0.82300 22.35100
N  16.33300 -0.70200 28.20600
C  15.77000 0.04400 27.15700
C  15.00700 1.12700 27.69000
C  15.27200 1.05000 29.10300
C  16.05000 -0.04900 29.31900
C  14.15600 2.09100 26.90500
C  15.01400 1.71000 30.40200
O  14.36400 2.67800 30.64700
C  15.83400 0.87500 31.48400
C  16.70000 1.71800 32.38200
O  17.91900 1.82700 32.37300
O  15.88900 2.42300 33.26500
C  16.51500 3.50800 34.02700
H  19.58000 -4.72500 31.45900
H  18.80700 -5.17400 24.95900
H  15.51800 0.20700 25.04100
H  18.23800 -0.63600 32.86300
H  18.39800 -3.52600 33.17200
H  20.76200 -2.01900 31.87200
H  20.79200 -3.30900 33.13800
H  20.34100 -1.64600 33.51100
H  16.36100 -2.98900 33.62700
H  15.59100 -1.69900 32.88800
H  15.72800 -1.83900 35.57200
H  15.57800 -0.38000 34.77500
H  21.66500 -6.78400 29.93300
H  20.50400 -8.12400 29.66700
H  20.19800 -6.83400 30.84800
H  21.62500 -8.56200 26.27000
H  20.35600 -8.95700 27.54300
H  21.74100 -7.95500 27.86000
H  17.49900 -3.94400 23.32700
H  17.30300 -0.98000 23.41400
H  19.62600 -2.04900 23.86600
H  18.98000 -2.01400 22.25200
H  19.62500 -3.54900 23.03500
H  14.76300 -2.38400 23.87800
H  15.68800 -2.78800 22.37600
H  14.08800 -0.41900 22.74400
H  14.95800 -1.14000 21.31100
H  15.77000 -0.03400 22.28200
H  13.98100 3.09200 27.29900
H  13.24000 1.59600 26.58200
H  14.76200 2.22800 26.00900
H  15.12100 0.37000 32.13500
H  17.53800 3.30900 34.34700
H  16.03000 3.54400 35.00200
H  16.40600 4.31700 33.30400
Mg 40.85000 8.35900 29.47800
C  42.59800 9.90900 32.13800
C  38.48000 7.22700 31.83300
C  39.43600 6.50500 27.08300
C  43.56100 9.07000 27.36500
N  40.59300 8.56300 31.75300
C  41.35800 9.36700 32.58900
C  40.78900 9.48300 33.95700
C  39.51100 8.46500 33.81600
C  39.48100 8.11600 32.35600
C  39.48200 7.30700 34.82900
C  40.44300 10.92800 34.48500
C  41.06000 11.22900 35.83300
H  40.17200 11.95200 36.80300
N  39.14200 7.11800 29.43200
C  38.29600 6.73900 30.50500
C  37.19500 6.06200 29.95500
C  37.36200 5.92300 28.56800
C  38.64600 6.49600 28.29200
C  36.09200 5.45300 30.76600
C  36.45200 5.23900 27.43100
O  36.77100 5.16900 26.19100
C  35.14500 4.77800 27.84200
N  41.36600 7.83700 27.46600
C  40.65500 7.07500 26.71300
C  41.27000 6.92900 25.31200
C  42.59800 7.68900 25.40600
C  42.49600 8.26000 26.82800
C  41.37800 5.47100 24.78800
C  42.84400 8.71700 24.28300
C  41.93200 9.95200 24.31100
N  42.64800 9.30800 29.62300
C  43.69900 9.49200 28.73300
C  44.73600 10.24800 29.32500
C  44.34600 10.43700 30.64600
C  43.06400 9.81800 30.80100
C  45.99300 10.73100 28.68100
C  44.83300 11.00400 31.90100
O  45.91800 11.47300 32.27300
C  43.59200 10.77500 32.89500
C  44.18000 10.12300 34.09800
O  44.55300 9.00500 34.23100
O  44.33900 11.13300 35.03100
C  44.98300 10.91100 36.28200
H  37.72800 7.19200 32.62400
H  38.96000 5.88500 26.32100
H  44.28800 9.40600 26.62200
H  41.60900 9.07700 34.55100
H  38.59100 9.03600 33.94300
H  39.44900 6.29200 34.43200
H  38.58500 7.30300 35.44700
H  40.33400 7.37400 35.50500
H  39.35500 10.93800 34.55000
H  40.68900 11.72000 33.77800
H  41.85700 11.87300 35.46100
H  41.55500 10.40300 36.34400
H  36.17200 4.36600 30.77200
H  35.05100 5.55800 30.46000
H  36.11500 5.72900 31.82000
H  34.71200 4.19600 27.02800
H  34.58700 5.61100 28.27000
H  35.28200 3.94100 28.52600
H  40.76800 7.54900 24.57000
H  43.34700 6.89700 25.43800
H  40.83000 5.41800 23.84800
H  40.95300 4.71300 25.44600
H  42.41200 5.27100 24.50700
H  42.85900 8.24800 23.29900
H  43.84700 9.13200 24.38100
H  41.15600 9.95400 25.07700
H  41.42700 10.11600 23.35900
H  42.56900 10.79200 24.58900
H  46.24200 9.89700 28.02400
H  46.74300 10.86900 29.46000
H  45.85000 11.71300 28.23000
H  43.17400 11.76400 33.08600
H  44.28400 10.44900 36.97900
H  45.36700 11.81400 36.75600
H  45.72200 10.19800 35.91600

