158

Mg 1.60000 -1.60300 43.94000
C  5.08400 -1.09000 43.76800
C  1.14900 1.37600 42.20300
C  -1.62500 -2.39100 43.51100
C  2.24600 -4.79500 45.15500
N  2.93300 0.05200 43.24300
C  4.33100 0.05200 43.20700
C  4.89200 1.29500 42.58100
C  3.54000 2.11200 42.32600
C  2.43200 1.06700 42.58300
C  3.38300 3.40700 43.11400
C  5.77400 0.88600 41.39700
C  5.24400 0.04300 40.27200
H  5.67800 0.36000 38.85800
N  -0.05600 -0.61600 42.99900
C  -0.00900 0.59400 42.26700
C  -1.38000 0.88900 41.81200
C  -2.19400 -0.13100 42.28000
C  -1.29500 -1.15600 42.95400
C  -1.77100 2.24100 41.14000
C  -3.74500 -0.00600 42.25300
O  -4.25400 1.04700 41.81700
C  -4.67000 -1.01700 42.93300
N  0.49100 -3.38800 44.20200
C  -0.82900 -3.33200 44.09000
C  -1.50600 -4.66200 44.56500
C  -0.25700 -5.39300 45.19800
C  0.92200 -4.48300 44.83100
C  -2.73300 -4.44000 45.61800
C  -0.01500 -6.91200 44.80600
C  0.03300 -7.76900 46.12000
N  3.29800 -2.72500 44.53300
C  3.41900 -4.02300 44.95600
C  4.77100 -4.27900 45.36600
C  5.49600 -3.15200 44.89400
C  4.53600 -2.28200 44.31200
C  5.32700 -5.50000 46.00400
C  6.76400 -2.54800 44.80900
O  7.86300 -2.99600 45.15100
C  6.53600 -1.19600 44.08400
C  7.01600 -0.11300 44.96000
O  6.58300 0.18200 46.04000
O  8.04100 0.55000 44.25400
C  8.39600 1.87600 44.72900
H  1.13000 2.31700 41.65000
H  -2.66000 -2.73700 43.52800
H  2.57500 -5.79200 45.45500
H  5.50900 1.82800 43.30400
H  3.56800 2.31500 41.25500
H  4.31800 3.91200 43.35700
H  2.83900 3.16800 44.02800
H  2.79000 4.12200 42.54400
H  6.73600 0.53400 41.77100
H  5.98600 1.82700 40.88900
H  4.15800 0.10200 40.34900
H  5.60400 -0.94600 40.55400
H  -2.13600 2.98500 41.84700
H  -2.49700 2.14200 40.33300
H  -0.85800 2.64600 40.70200
H  -5.64400 -0.81800 42.48600
H  -4.64200 -0.75500 43.99000
H  -4.29000 -2.02900 42.79100
H  -1.83700 -5.23000 43.69500
H  -0.27900 -5.31700 46.28600
H  -2.56300 -5.02300 46.52300
H  -3.72500 -4.62800 45.20800
H  -2.73300 -3.37700 45.86100
H  0.89700 -7.06600 44.22900
H  -0.85200 -7.25200 44.19600
H  -0.79400 -8.47800 46.10700
H  -0.05000 -7.14700 47.01100
H  0.96500 -8.33000 46.05400
H  4.53000 -6.17400 46.31500
H  5.89500 -5.33800 46.92100
H  6.01600 -5.94800 45.28800
H  7.22200 -1.30500 43.24400
H  9.08300 1.98200 45.56800
H  7.51200 2.47100 44.95800
H  8.98000 2.45100 44.01000
Mg 27.15300 50.47800 26.66200
C  24.94000 51.62700 29.23700
C  29.49600 49.87200 29.06700
C  29.19200 49.82600 24.22400
C  25.09700 52.19700 24.39300
N  27.13500 50.79500 28.97800
C  26.14100 51.09400 29.76200
C  26.58400 50.84600 31.19900
C  28.13900 50.64500 31.12400
C  28.34700 50.43800 29.65000
C  28.96400 51.77000 31.80400
C  25.86900 49.68200 31.85800
C  25.49900 49.73700 33.36200
H  26.34000 50.48100 34.40700
N  28.95600 49.76100 26.67000
C  29.80300 49.52000 27.70800
C  31.00000 48.90100 27.25900
C  30.90700 48.85500 25.86300
C  29.64300 49.52700 25.48400
C  32.08400 48.28200 28.22500
C  31.92500 48.32800 24.87900
O  31.75000 48.34800 23.64600
C  33.36700 47.99600 25.41500
N  27.14700 50.98300 24.56700
C  28.03700 50.43800 23.73900
C  27.76800 50.82100 22.25500
C  26.40900 51.48200 22.37300
C  26.14900 51.56000 23.85200
C  28.85400 51.69100 21.55400
C  25.29500 50.62600 21.80900
C  24.87200 49.33100 22.53600
N  25.42700 51.67300 26.67100
C  24.73300 52.34100 25.71300
C  23.55400 53.09500 26.25300
C  23.64900 52.81200 27.68100
C  24.78500 51.94000 27.86400
C  22.38400 53.63300 25.47200
C  22.82900 52.91800 28.87900
O  21.79400 53.53300 29.05200
C  23.66900 52.19900 29.95100
C  23.97700 53.04400 31.11700
O  24.55800 54.11100 31.10200
O  23.45000 52.55700 32.27700
C  23.43400 53.37900 33.46500
H  30.32500 49.63100 29.73700
H  29.84600 49.56000 23.39000
H  24.54400 52.80300 23.67200
H  26.39800 51.72800 31.81000
H  28.45800 49.68500 31.53000
H  29.84600 51.81100 31.16500
H  29.36700 51.60000 32.80200
H  28.53900 52.77400 31.79800
H  26.58900 48.88100 31.69200
H  24.96200 49.59500 31.26100
H  25.40200 48.71300 33.72200
H  24.51700 50.20500 33.43500
H  32.25100 47.20500 28.19600
H  31.94000 48.55300 29.27200
H  33.06100 48.68600 27.96000
H  33.80400 48.84000 25.94900
H  33.85700 47.71500 24.48200
H  33.26100 47.11700 26.05000
H  27.72600 49.95500 21.59400
H  26.50100 52.49400 21.97800
H  28.49500 52.63500 21.14300
H  29.12400 51.01300 20.74400
H  29.71800 51.91300 22.18100
H  25.60200 50.33900 20.80300
H  24.46200 51.32900 21.78700
H  25.45600 49.08800 23.42300
H  24.97500 48.49500 21.84400
H  23.80200 49.39500 22.73500
H  21.51400 53.92700 26.06000
H  22.07300 53.06000 24.59900
H  22.53100 54.58600 24.96500
H  23.04400 51.40200 30.35500
H  22.39100 53.45200 33.77200
H  23.70300 54.39600 33.18100
H  24.10200 53.05100 34.26200

