158

Mg 44.89000 4.54800 46.44800
C  42.92300 7.47300 46.84300
C  41.91000 2.90000 45.95700
C  46.72900 1.87100 45.80900
C  47.72100 6.53800 46.62000
N  42.67800 5.22000 46.38400
C  42.07900 6.41600 46.60300
C  40.58200 6.37600 46.57200
C  40.29100 4.82400 46.60200
C  41.72200 4.26500 46.30300
C  39.51900 4.28800 47.78400
C  39.98700 7.28800 45.42200
C  40.45900 7.23600 43.98400
H  39.74800 6.38700 42.94400
N  44.39100 2.64700 45.86600
C  43.08300 2.13400 45.78900
C  43.20800 0.71600 45.54200
C  44.60000 0.37800 45.41300
C  45.29700 1.67000 45.64300
C  41.99700 -0.22100 45.27500
C  45.16100 -1.02700 45.11600
O  44.44200 -2.03600 45.17600
C  46.44400 -1.22200 44.52400
N  46.99600 4.33900 45.91300
C  47.53700 3.09500 45.86900
C  48.98700 3.09900 46.24600
C  49.36000 4.66500 46.14200
C  47.90000 5.24100 46.24900
C  49.35300 2.55700 47.65100
C  49.96500 5.20300 44.79100
C  51.44600 5.79200 44.90600
N  45.32300 6.60600 46.67900
C  46.54400 7.26700 46.78600
C  46.34500 8.64500 47.12400
C  44.92700 8.78600 47.12800
C  44.35000 7.52100 46.84600
C  47.38800 9.76500 47.08600
C  43.85800 9.68800 47.30700
O  43.78500 10.86600 47.42400
C  42.52200 8.82000 47.21200
C  41.76000 8.96000 48.42900
O  41.98800 8.29300 49.42200
O  40.58000 9.69700 48.24000
C  39.59000 9.54700 49.33800
H  40.90700 2.46900 45.96000
H  47.30800 0.95900 45.65300
H  48.64800 7.04800 46.89100
H  40.40300 6.83600 47.54300
H  39.58700 4.57900 45.80600
H  39.24000 4.98200 48.57700
H  40.12300 3.45100 48.13500
H  38.62200 3.68800 47.63600
H  40.02700 8.33900 45.70700
H  38.95500 6.97100 45.57500
H  41.45000 6.78600 43.93300
H  40.35600 8.24900 43.59400
H  41.81800 -0.33100 44.20500
H  41.00900 0.04700 45.65000
H  42.31200 -1.21400 45.59800
H  46.38700 -1.85800 43.64200
H  47.15300 -1.73900 45.17000
H  46.92100 -0.29700 44.20100
H  49.45800 2.51000 45.45800
H  49.85600 5.14200 46.98700
H  48.41000 2.34600 48.15500
H  49.88700 3.29000 48.25500
H  50.02300 1.70100 47.56100
H  49.24700 5.92300 44.39900
H  49.95200 4.45400 43.99900
H  51.53500 6.59400 44.17300
H  52.11600 4.96900 44.65700
H  51.63400 6.15700 45.91600
H  46.94000 10.67400 46.68400
H  48.31500 9.57300 46.54500
H  47.63300 10.06000 48.10600
H  41.83900 9.30600 46.51500
H  38.62900 9.67400 48.83900
H  39.74200 10.30700 50.10500
H  39.59500 8.57100 49.82300
Mg -1.24200 33.93600 26.76200
C  -3.13900 32.17600 29.28200
C  -0.24000 36.07700 29.17800
C  0.25600 35.63500 24.37300
C  -2.74000 31.81000 24.29500
N  -1.60500 34.04500 28.94900
C  -2.33500 33.22200 29.77600
C  -2.14700 33.68900 31.22500
C  -1.45300 35.04700 31.14900
C  -1.01700 35.07600 29.65300
C  -2.34200 36.23000 31.64500
C  -1.47600 32.65200 32.11000
C  -2.24400 31.90300 33.26000
H  -1.68300 32.17400 34.69200
N  -0.24900 35.66500 26.70700
C  0.19800 36.32100 27.85500
C  1.02600 37.40600 27.44600
C  1.11800 37.38200 26.00000
C  0.40700 36.20300 25.64000
C  1.80000 38.33600 28.44800
C  1.91300 38.32900 25.16000
O  1.89700 38.24000 23.97100
C  2.83000 39.42500 25.81600
N  -1.42200 33.90500 24.58700
C  -0.44700 34.55600 23.93400
C  -0.30200 34.11100 22.48200
C  -1.01000 32.66200 22.58800
C  -1.79900 32.74200 23.90700
C  -1.00200 35.09200 21.49100
C  -0.03200 31.50800 22.55300
C  -0.47700 30.29000 21.64400
N  -2.64200 32.34500 26.70400
C  -3.14300 31.59500 25.63400
C  -4.03900 30.51200 26.16600
C  -4.08200 30.75600 27.59400
C  -3.23400 31.88100 27.86200
C  -4.74800 29.42400 25.37200
C  -4.63900 30.27900 28.81900
O  -5.44600 29.36300 29.03400
C  -3.98600 31.14500 30.00600
C  -5.09700 31.80100 30.69400
O  -5.61600 32.82800 30.29600
O  -5.33900 31.18500 31.90500
C  -6.44600 31.71400 32.69200
H  0.21000 36.71500 29.94100
H  0.90900 36.05900 23.60800
H  -2.97300 30.98700 23.61600
H  -3.14700 33.86700 31.62000
H  -0.50600 35.02400 31.68800
H  -3.32000 35.96600 32.04700
H  -2.41900 37.01100 30.88800
H  -1.78800 36.76700 32.41500
H  -0.63300 33.10200 32.63500
H  -1.11800 31.93800 31.36800
H  -2.30600 30.84200 33.01700
H  -3.23100 32.34300 33.40100
H  2.87500 38.17100 28.51000
H  1.54400 38.19500 29.49800
H  1.63500 39.40600 28.31500
H  2.16700 40.08900 26.37100
H  3.28900 39.95400 24.98100
H  3.65800 39.00500 26.38600
H  0.77600 34.06800 22.32800
H  -1.69800 32.55800 21.74800
H  -1.67900 35.80600 21.96100
H  -1.60700 34.60000 20.72900
H  -0.19100 35.57800 20.94900
H  0.20600 31.19900 23.57100
H  0.86600 31.84300 22.03300
H  -0.57600 29.37600 22.23000
H  0.30900 30.15300 20.90200
H  -1.45900 30.43300 21.19300
H  -4.75100 28.42900 25.81800
H  -4.19300 29.36300 24.43600
H  -5.76100 29.72000 25.09700
H  -3.43900 30.34800 30.50900
H  -6.02900 32.40100 33.43000
H  -6.92700 30.82500 33.10100
H  -7.14800 32.29400 32.09400

