158

Mg 54.28100 24.86700 43.88000
C  51.52600 26.99100 43.68000
C  52.34800 22.27800 42.67700
C  57.02200 22.98100 43.25300
C  56.33000 27.59100 44.47000
N  52.18300 24.65900 43.08500
C  51.18500 25.65000 43.18100
C  49.81900 25.12100 42.74200
C  50.10300 23.55300 42.78900
C  51.63500 23.47600 42.83200
C  49.39700 22.71900 43.93500
C  49.19600 25.57400 41.37800
C  50.06900 25.88100 40.13000
H  49.80100 25.06800 38.83200
N  54.60200 22.88700 43.18100
C  53.70800 22.02500 42.76600
C  54.33400 20.70200 42.48000
C  55.73600 20.88600 42.55300
C  55.84100 22.26700 43.01000
C  53.46400 19.49800 42.07700
C  56.80200 19.89700 42.20000
O  56.39900 18.81300 41.72900
C  58.20700 20.09900 42.45500
N  56.39400 25.29800 43.74200
C  57.33000 24.31100 43.65600
C  58.80000 24.82900 43.84600
C  58.54800 26.29000 44.24400
C  57.04200 26.40800 44.16000
C  59.64600 23.88900 44.85500
C  59.39100 27.35100 43.42600
C  60.67200 27.85600 44.19800
N  53.98800 26.85000 44.20000
C  54.92100 27.84800 44.46900
C  54.21600 29.11400 44.74300
C  52.87100 28.78900 44.42900
C  52.83700 27.45700 44.05900
C  54.83100 30.46700 45.11800
C  51.55100 29.29300 44.34300
O  51.04700 30.34400 44.72500
C  50.66300 28.21200 43.69700
C  50.24800 28.63400 42.32800
O  51.03100 28.56200 41.37900
O  48.93700 29.11700 42.29100
C  48.69600 29.87700 41.04200
H  51.67100 21.49900 42.32000
H  57.99900 22.57400 42.98700
H  56.95900 28.44200 44.73900
H  49.18800 25.44900 43.56800
H  49.75800 23.05500 41.88300
H  48.83300 23.39700 44.57600
H  50.20300 22.10800 44.34200
H  48.66700 22.11700 43.39400
H  48.57700 26.41300 41.69600
H  48.44800 24.85600 41.04200
H  51.12400 25.71300 40.34500
H  49.94300 26.93800 39.89500
H  53.14500 19.48300 41.03500
H  52.46100 19.53200 42.50300
H  53.90100 18.55100 42.39400
H  58.71400 19.14900 42.28800
H  58.32800 20.41200 43.49200
H  58.59100 20.86400 41.78000
H  59.32400 24.70500 42.89800
H  58.91900 26.37900 45.26500
H  59.00400 23.01900 44.99600
H  59.61600 24.40200 45.81600
H  60.65300 23.60000 44.55600
H  58.71500 28.19500 43.28600
H  59.70500 26.89400 42.48700
H  61.50800 27.41500 43.65600
H  60.71000 27.51900 45.23400
H  60.77000 28.93800 44.11500
H  55.91100 30.32200 45.09500
H  54.49700 30.78800 46.10500
H  54.60600 31.22200 44.36500
H  49.77800 28.13300 44.32900
H  49.56300 30.46000 40.73200
H  48.07200 30.70900 41.36800
H  48.27000 29.17100 40.32900
Mg -2.08100 34.15200 27.19000
C  -3.99600 32.17400 29.76000
C  -1.14900 36.10700 29.74000
C  -0.95000 35.98100 24.97100
C  -4.02000 32.25300 24.81800
N  -2.54700 34.08600 29.43500
C  -3.33000 33.30000 30.25500
C  -3.27100 33.75200 31.71100
C  -2.64200 35.22400 31.63200
C  -2.10700 35.15400 30.16600
C  -3.63800 36.39100 31.83600
C  -2.29000 32.76100 32.46400
C  -2.83700 31.70000 33.44100
H  -2.11600 31.73800 34.79600
N  -1.06300 35.82300 27.36200
C  -0.59800 36.41500 28.47200
C  0.37400 37.40400 28.10400
C  0.45900 37.33900 26.68300
C  -0.57800 36.39000 26.27500
C  1.14200 38.15300 29.12700
C  1.41300 38.00900 25.65300
O  1.40000 37.90400 24.47400
C  2.59900 38.80000 26.29900
N  -2.75700 34.31100 25.18900
C  -1.90600 35.05900 24.43900
C  -2.08000 34.92100 22.91800
C  -2.99800 33.65300 22.83000
C  -3.34600 33.37100 24.39700
C  -2.49600 36.14500 22.19100
C  -2.41900 32.36000 22.14200
C  -3.31000 31.85100 21.06000
N  -3.54400 32.45000 27.22400
C  -4.16100 31.82300 26.15400
C  -4.98700 30.75400 26.61200
C  -4.98100 30.90400 27.99600
C  -4.04500 31.90200 28.34200
C  -5.79200 29.85200 25.82900
C  -5.53700 30.36600 29.29900
O  -6.39000 29.50100 29.50600
C  -4.96400 31.20200 30.41100
C  -6.06700 31.96300 31.01600
O  -6.59800 32.96900 30.59800
O  -6.41100 31.35200 32.16100
C  -7.33400 32.13100 33.04700
H  -0.85000 36.79800 30.53100
H  -0.29200 36.45600 24.24000
H  -4.51900 31.64500 24.06100
H  -4.23800 33.73900 32.21500
H  -1.81000 35.29100 32.33300
H  -4.64700 36.03000 32.03900
H  -3.62900 37.10400 31.01200
H  -3.27800 36.93900 32.70700
H  -1.52900 33.23700 33.08200
H  -1.75600 32.12900 31.75500
H  -2.72200 30.65900 33.14000
H  -3.88900 31.93200 33.61000
H  2.19900 38.03500 28.88900
H  1.06900 37.70600 30.11900
H  0.88400 39.21100 29.09300
H  2.81900 39.54300 25.53300
H  3.40200 38.11900 26.58200
H  2.29700 39.45900 27.11200
H  -1.14300 34.50200 22.55200
H  -3.98600 33.89200 22.43800
H  -3.49100 35.98100 21.77600
H  -1.96200 36.29700 21.25300
H  -2.34700 37.00700 22.84100
H  -2.19200 31.54300 22.82700
H  -1.48600 32.64800 21.65700
H  -2.81900 31.91300 20.08900
H  -4.22500 32.44200 21.02000
H  -3.56400 30.83800 21.37300
H  -6.80300 30.23200 25.68200
H  -5.88600 28.90900 26.36700
H  -5.32700 29.67300 24.86000
H  -4.50900 30.65600 31.23800
H  -8.29700 32.18600 32.54100
H  -7.10500 33.14300 33.38200
H  -7.54000 31.60600 33.97900

