158

Mg 49.92200 44.40500 41.55400
C  46.68100 44.97500 40.39500
C  49.43200 41.07800 40.76000
C  53.09700 44.02100 42.10500
C  50.10400 47.81200 42.41200
N  48.22600 43.18400 40.78900
C  46.97400 43.64600 40.43700
C  46.16400 42.53800 39.79700
C  46.89900 41.25300 40.33000
C  48.29900 41.86500 40.61800
C  46.24700 40.62600 41.63000
C  46.22000 42.60500 38.29400
C  44.82800 42.64400 37.57200
H  44.74500 43.57800 36.31300
N  51.20200 42.75500 41.36800
C  50.78500 41.46300 41.04100
C  51.99600 40.64100 41.02600
C  53.07900 41.43200 41.49100
C  52.50900 42.77600 41.69400
C  52.07900 39.31500 40.59500
C  54.57500 41.04900 41.63100
O  55.00500 39.95600 41.38100
C  55.68300 42.06800 41.90500
N  51.40400 45.73300 42.17000
C  52.69900 45.29900 42.36200
C  53.60600 46.43400 42.87200
C  52.63700 47.67800 42.95700
C  51.28600 47.04800 42.53200
C  54.33000 46.08700 44.23100
C  53.12200 48.98400 42.32700
C  54.43500 49.54800 42.72400
N  48.63700 46.11200 41.47400
C  48.86800 47.46100 41.78500
C  47.73000 48.26900 41.39200
C  46.86000 47.28900 40.81700
C  47.46700 46.01700 40.88600
C  47.68300 49.77400 41.41100
C  45.60900 47.16800 40.10800
O  44.75800 47.99200 39.82500
C  45.47300 45.63200 39.82500
C  44.22000 45.13500 40.44700
O  43.32500 44.58300 39.80800
O  44.18500 45.47900 41.78000
C  42.81500 45.62100 42.26900
H  49.31600 40.02700 40.48800
H  54.11000 44.01800 42.51300
H  50.23900 48.80600 42.84300
H  45.14000 42.55000 40.17000
H  46.76600 40.41900 39.64100
H  45.49700 41.17900 42.19500
H  47.09900 40.67800 42.30700
H  45.98300 39.58300 41.45500
H  46.92500 41.88500 37.87800
H  46.58500 43.59200 38.01000
H  43.98900 42.97900 38.18200
H  44.59000 41.62300 37.27500
H  52.32000 39.25300 39.53300
H  51.12600 38.82800 40.80200
H  52.87400 38.79900 41.13200
H  55.73900 42.42200 42.93400
H  55.49200 42.90100 41.22900
H  56.63100 41.71300 41.49900
H  54.41500 46.51500 42.14600
H  52.47600 47.96600 43.99600
H  54.33100 45.02400 44.47500
H  53.90800 46.67600 45.04500
H  55.34400 46.48600 44.20800
H  52.37600 49.75000 42.54000
H  53.29800 48.92300 41.25300
H  54.98400 49.87300 41.83900
H  55.07900 48.89800 43.31700
H  54.12600 50.43900 43.27000
H  47.01000 50.23600 42.13200
H  47.44400 50.12200 40.40600
H  48.71900 50.10800 41.46400
H  45.40400 45.27800 38.79600
H  42.90000 46.16000 43.21200
H  42.64300 44.58700 42.56600
H  42.02200 45.92000 41.58300
Mg 30.13900 57.35600 40.60600
C  27.30700 55.23600 39.48200
C  32.19900 55.00300 39.21400
C  32.53300 59.56200 41.01200
C  27.74600 59.88600 41.34400
N  29.72800 55.39000 39.24900
C  28.54300 54.69300 39.06500
C  28.76900 53.25100 38.47900
C  30.32900 53.11700 38.58600
C  30.82900 54.57100 39.12600
C  30.67200 51.99300 39.46300
C  28.24500 53.11800 37.01100
C  28.95500 54.11300 36.02500
H  28.09200 55.13100 35.32400
N  32.14500 57.27100 40.26400
C  32.77100 56.25100 39.68100
C  34.19200 56.59600 39.75000
C  34.40200 57.89400 40.28000
C  33.01600 58.28400 40.55100
C  35.22800 55.59900 39.30700
C  35.78300 58.56800 40.59500
O  36.74500 58.01000 40.06400
C  35.86500 59.81900 41.57500
N  30.14300 59.45200 41.20600
C  31.30400 60.12500 41.35100
C  31.08700 61.63800 41.69200
C  29.57400 61.64700 41.84100
C  29.11600 60.24800 41.42700
C  31.93100 62.31600 42.88400
C  28.73300 62.90100 41.13600
C  27.65700 63.58400 41.98200
N  27.99900 57.51500 40.47600
C  27.21800 58.60800 40.85500
C  25.83200 58.15400 40.84100
C  25.80600 56.85400 40.35400
C  27.12700 56.50800 40.14800
C  24.63300 58.98500 41.14900
C  24.93600 55.72400 39.99100
O  23.70000 55.62000 40.08900
C  25.92500 54.62100 39.46500
C  25.84100 53.40200 40.28400
O  26.33200 53.29800 41.40700
O  25.05400 52.49500 39.57000
C  24.71200 51.23300 40.27900
H  32.87800 54.22100 38.86500
H  33.37000 60.25700 41.10100
H  27.06800 60.56700 41.86300
H  28.22100 52.53700 39.09300
H  30.73500 52.90600 37.59600
H  30.29300 52.21400 40.46000
H  31.76100 51.94400 39.48200
H  30.22400 51.07400 39.08500
H  27.18900 53.38500 36.97600
H  28.34500 52.07000 36.72800
H  29.41100 53.57600 35.19300
H  29.78700 54.73800 36.35000
H  36.15400 56.00500 38.90000
H  34.81100 55.02800 38.47800
H  35.59100 54.97000 40.12000
H  35.57500 60.72700 41.04700
H  36.89600 59.99700 41.88000
H  35.22700 59.61600 42.43600
H  31.28500 62.21000 40.78600
H  29.28800 61.73900 42.88900
H  32.71100 61.62800 43.21100
H  31.23200 62.57800 43.67800
H  32.32100 63.27600 42.54400
H  28.24400 62.43400 40.28100
H  29.28200 63.81000 40.89200
H  27.91300 64.58400 42.33200
H  27.44400 63.02600 42.89400
H  26.69600 63.55100 41.46800
H  24.74200 59.88900 40.54900
H  24.65700 59.39400 42.15900
H  23.71700 58.40400 41.03800
H  25.53600 54.36800 38.47900
H  25.61500 50.62300 40.27200
H  23.91300 50.74700 39.72000
H  24.20800 51.48300 41.21200

