158

Mg 40.75000 9.00800 29.32000
C  42.64800 10.26800 32.14900
C  38.52500 7.89200 31.62300
C  38.96800 7.91700 26.88200
C  43.43900 9.89900 27.30800
N  40.70000 9.04400 31.63900
C  41.44400 9.69600 32.56500
C  40.82300 9.58900 33.95700
C  39.56500 8.73300 33.80500
C  39.60400 8.56000 32.22600
C  39.50000 7.44000 34.59400
C  40.53800 10.95000 34.71700
C  39.77000 11.00600 36.03500
H  40.65100 11.33300 37.29000
N  38.95600 8.01900 29.26300
C  38.21000 7.67500 30.33700
C  36.97900 7.00600 29.83300
C  37.07600 7.03800 28.41100
C  38.36500 7.66200 28.09000
C  35.84900 6.38600 30.74500
C  36.08400 6.55000 27.38600
O  36.43800 6.46700 26.21900
C  34.62800 6.12900 27.79800
N  41.19300 8.88900 27.39100
C  40.22300 8.44300 26.53600
C  40.60600 8.65000 25.02400
C  41.99900 9.30100 25.20800
C  42.29100 9.29100 26.75600
C  40.65000 7.36600 24.13700
C  42.01600 10.66300 24.45600
C  42.06900 11.96200 25.22100
N  42.67800 9.86500 29.59600
C  43.63900 10.21100 28.67800
C  44.70000 10.97400 29.22000
C  44.37500 11.00000 30.62800
C  43.08200 10.43200 30.78100
C  45.84000 11.52500 28.45100
C  44.82500 11.42800 32.04200
O  45.86300 11.98500 32.39600
C  43.62300 11.04200 33.03600
C  44.16900 10.29100 34.21900
O  44.24300 9.09700 34.37400
O  44.63100 11.21000 35.12500
C  45.24800 10.59800 36.34200
H  37.72400 7.70600 32.34100
H  38.44900 7.65100 25.95900
H  44.23200 10.19600 26.61900
H  41.56600 9.01200 34.50700
H  38.69600 9.35200 34.02500
H  40.45900 7.24200 35.07400
H  39.31900 6.66700 33.84700
H  38.69000 7.45900 35.32300
H  39.98600 11.60900 34.04600
H  41.56900 11.24300 34.91300
H  39.19400 10.10300 36.23900
H  39.10700 11.86000 35.90100
H  34.97200 6.98300 30.49600
H  36.14900 6.38900 31.79300
H  35.69600 5.37900 30.35700
H  34.03400 5.88900 26.91500
H  34.14200 6.94700 28.33000
H  34.65500 5.30200 28.50700
H  39.88800 9.39000 24.66900
H  42.75400 8.69500 24.70700
H  39.92300 7.41700 23.32700
H  40.38600 6.53900 24.79600
H  41.66200 7.24300 23.74900
H  41.16800 10.64900 23.77200
H  42.93800 10.62800 23.87500
H  41.38800 11.96700 26.07200
H  41.68300 12.66400 24.48200
H  43.08800 12.27300 25.44800
H  46.20500 12.35900 29.05000
H  45.44300 11.76000 27.46400
H  46.65300 10.82300 28.26700
H  43.15100 11.92300 33.47100
H  44.59600 10.09800 37.05900
H  45.71900 11.45800 36.81800
H  46.06800 9.92700 36.08700
Mg 48.07800 34.32800 27.58700
C  46.20200 32.92400 30.15000
C  48.09400 37.35200 29.36300
C  49.24400 36.01800 24.84200
C  47.55400 31.50800 25.61600
N  47.41700 34.96400 29.50100
C  46.85200 34.11300 30.40400
C  46.92700 34.75400 31.76700
C  47.10000 36.28300 31.45200
C  47.58000 36.21700 30.03700
C  45.71400 37.03300 31.67700
C  48.16700 34.28500 32.47400
C  48.50400 34.72800 33.91200
H  47.37500 35.40600 34.71200
N  48.76200 36.37100 27.23200
C  48.65800 37.39200 28.12800
C  49.32900 38.49500 27.51300
C  49.70800 38.16600 26.19400
C  49.23500 36.81600 26.06700
C  49.61300 39.79400 28.26200
C  50.50400 39.06700 25.18400
O  50.74300 38.67100 24.01600
C  51.00000 40.45600 25.61800
N  48.32300 33.83400 25.43300
C  48.79700 34.68300 24.53900
C  48.94900 33.97700 23.12000
C  48.77900 32.43100 23.54500
C  48.21100 32.57900 24.92200
C  47.90700 34.41700 22.12600
C  50.00700 31.51100 23.50800
C  50.87100 31.72600 24.72800
N  47.17300 32.54500 27.84000
C  46.96200 31.50000 26.94600
C  46.24700 30.42600 27.58200
C  45.77600 30.96700 28.84800
C  46.42800 32.24200 28.92800
C  45.86400 29.14000 26.97700
C  44.96500 30.75300 30.05500
O  44.26700 29.82500 30.44000
C  45.11600 32.08900 30.92400
C  45.46200 31.53700 32.30800
O  46.45800 30.90500 32.67900
O  44.37900 31.79700 33.10300
C  44.57200 31.45000 34.53400
H  48.25100 38.21900 30.00800
H  49.70200 36.43500 23.94200
H  47.36100 30.56000 25.11000
H  45.99000 34.54100 32.28200
H  47.84700 36.73500 32.10400
H  44.86200 36.38500 31.88200
H  45.51400 37.55600 30.74200
H  45.80600 37.77600 32.46900
H  49.03900 34.49000 31.85300
H  48.20400 33.19900 32.38200
H  49.40300 35.34400 33.89400
H  48.63600 33.79900 34.46600
H  49.36200 40.61800 27.59400
H  50.63300 39.77300 28.64700
H  48.91800 39.88300 29.09700
H  51.55700 40.53600 26.55100
H  50.15500 41.13600 25.50700
H  51.65600 41.00500 24.94300
H  49.95700 34.10600 22.72600
H  48.00900 31.96900 22.92700
H  47.25100 35.16800 22.56500
H  47.30500 33.66600 21.61300
H  48.46800 35.02100 21.41200
H  50.66300 31.79200 22.68400
H  49.74600 30.45300 23.47900
H  51.27200 32.74000 24.75200
H  51.73700 31.12000 24.46100
H  50.57400 31.33500 25.70100
H  44.77400 29.14100 26.95800
H  46.23900 28.35700 27.63700
H  46.34700 28.91400 26.02700
H  44.17000 32.62900 30.96300
H  45.00800 32.20900 35.18400
H  44.98500 30.45400 34.69100
H  43.60600 31.27900 35.00900

