158

Mg 49.20500 47.78100 42.75300
C  45.92300 48.38500 41.93700
C  49.22600 45.05300 40.65700
C  52.65500 47.52500 43.13200
C  49.26200 50.92500 44.39300
N  47.80500 46.98500 41.34200
C  46.47200 47.33600 41.19500
C  45.68000 46.32700 40.29400
C  46.75200 45.20400 40.01800
C  48.06900 45.81800 40.63300
C  46.32600 43.82600 40.67800
C  45.18700 47.03600 39.02300
C  43.66000 46.97100 38.70600
H  43.31400 46.42100 37.32500
N  50.67500 46.40400 42.11800
C  50.48500 45.32400 41.33100
C  51.74500 44.54700 41.20100
C  52.75300 45.29000 41.88100
C  52.04300 46.45300 42.43400
C  51.93200 43.21300 40.47600
C  54.21800 44.97300 41.85900
O  54.56800 43.90600 41.42700
C  55.31500 45.87700 42.30800
N  50.72000 49.05900 43.46000
C  52.06900 48.70100 43.58000
C  52.92300 49.87600 44.20400
C  51.75100 50.82900 44.65200
C  50.46000 50.22800 44.18800
C  53.92800 49.44700 45.36700
C  51.96300 52.26700 44.17200
C  51.62800 53.38600 45.16800
N  47.84500 49.33100 43.33400
C  48.00100 50.54600 43.90500
C  46.74300 51.30300 43.83100
C  45.84900 50.42200 43.21500
C  46.61900 49.33600 42.74700
C  46.52900 52.65200 44.47900
C  44.46600 50.21300 42.83300
O  43.46500 50.92900 43.18100
C  44.44100 48.77200 42.10300
C  43.79800 47.83800 43.03000
O  43.92200 47.73900 44.23600
O  42.84200 47.06900 42.44200
C  42.17700 46.07300 43.30200
H  49.10200 44.17000 40.02600
H  53.74400 47.53300 43.20700
H  49.16900 51.89500 44.88600
H  44.81600 45.93300 40.83000
H  47.01600 44.92100 38.99900
H  46.85600 43.64800 41.61300
H  46.47000 43.00600 39.97500
H  45.25000 43.80800 40.85600
H  45.71000 46.57300 38.18600
H  45.48300 48.08400 39.06400
H  43.14500 47.93200 38.71400
H  43.20900 46.21900 39.35300
H  52.46100 42.50100 41.10900
H  52.38600 43.33200 39.49200
H  50.98000 42.70500 40.32600
H  55.31900 46.77700 41.69300
H  56.17600 45.24000 42.10700
H  55.13600 46.13000 43.35300
H  53.40900 50.36300 43.35800
H  51.62100 50.88700 45.73300
H  54.25800 48.41800 45.22200
H  53.69000 49.68100 46.40400
H  54.82400 50.01600 45.11900
H  51.35200 52.45900 43.29100
H  53.02100 52.37400 43.93100
H  51.14000 52.97100 46.04900
H  51.11500 54.07700 44.49800
H  52.56600 53.88100 45.41900
H  47.12800 52.78200 45.38000
H  45.49100 52.75900 44.79400
H  46.71700 53.47800 43.79300
H  44.00400 48.83800 41.10700
H  41.54500 45.51200 42.61300
H  41.59400 46.41700 44.15700
H  42.92400 45.32500 43.56700
Mg 9.26000 47.85800 26.44700
C  7.37200 47.52100 29.45100
C  11.97200 48.70500 28.29100
C  10.91500 47.88300 23.61000
C  6.18000 47.21300 24.65900
N  9.56700 48.16800 28.58300
C  8.67900 48.01700 29.66200
C  9.34900 48.40000 30.99600
C  10.77700 48.83500 30.57800
C  10.80700 48.58900 29.04700
C  11.14900 50.30900 30.94800
C  9.36300 47.25300 32.10900
C  10.40200 47.14000 33.18200
H  9.93500 47.11400 34.58600
N  11.10800 48.31000 25.99300
C  12.10300 48.62100 26.86800
C  13.34800 48.71200 26.15900
C  13.12900 48.23800 24.81300
C  11.67800 48.13200 24.68200
C  14.68800 48.91500 26.87500
C  14.16300 48.00000 23.74500
O  13.92500 47.57200 22.65200
C  15.64100 48.30900 23.95000
N  8.57400 47.74700 24.33800
C  9.51500 47.69000 23.38400
C  8.95800 47.53800 21.91400
C  7.51900 46.92500 22.30900
C  7.41100 47.28700 23.84700
C  8.61700 48.92000 21.25000
C  7.39900 45.37400 22.02700
C  7.97400 44.34800 23.01900
N  7.22800 47.42900 26.92200
C  6.10800 47.26600 26.04900
C  4.92800 46.94900 26.83600
C  5.41600 47.03300 28.14700
C  6.77800 47.34600 28.19800
C  3.56000 46.61300 26.36200
C  5.12500 46.89100 29.59400
O  4.07300 46.42200 30.09200
C  6.34400 47.19500 30.46300
C  6.64600 45.89500 31.19800
O  7.16800 44.95700 30.63500
O  6.13900 46.00900 32.45600
C  6.77000 45.14100 33.48900
H  12.71900 49.07700 28.99500
H  11.37000 47.85600 22.61800
H  5.32900 46.79000 24.12200
H  8.87800 49.26700 31.46000
H  11.55500 48.19100 30.98900
H  11.92500 50.16000 31.69900
H  10.32500 50.91300 31.32900
H  11.51100 50.80200 30.04600
H  9.54000 46.30800 31.59500
H  8.35700 47.31500 32.52500
H  11.21600 47.86300 33.15800
H  10.93600 46.23900 32.88000
H  15.30800 49.45000 26.15500
H  15.16500 47.97900 27.16600
H  14.53700 49.51700 27.77200
H  16.31100 48.15600 23.10400
H  16.08800 47.73400 24.76100
H  15.78000 49.37100 24.15400
H  9.46200 46.85200 21.23300
H  6.70000 47.30500 21.69900
H  7.79100 48.74300 20.56200
H  9.44900 49.29800 20.65700
H  8.30000 49.64900 21.99500
H  7.77500 45.17300 21.02300
H  6.31800 45.24500 21.97800
H  8.27800 44.75500 23.98400
H  8.85200 43.92500 22.53100
H  7.10200 43.69800 23.09900
H  3.33100 45.54900 26.41800
H  3.31400 46.93000 25.34900
H  2.98200 47.23300 27.04800
H  6.08200 47.99300 31.15800
H  7.58900 45.73600 33.89400
H  7.20000 44.24700 33.03800
H  6.11900 44.83300 34.30700

