158

Mg 7.99800 1.28300 28.83300
C  9.73200 0.12200 31.68100
C  6.07200 3.19600 30.82300
C  6.25600 2.21700 26.03500
C  9.63300 -1.21000 26.93000
N  8.00400 1.63900 31.07000
C  8.86800 1.17600 32.02800
C  8.65400 1.91500 33.41000
C  7.35400 2.76000 33.09700
C  7.14600 2.57900 31.52700
C  6.08600 2.21800 33.79900
C  9.98700 2.65400 33.88200
C  10.58800 2.32500 35.27400
H  9.64200 2.32300 36.50300
N  6.45000 2.49600 28.50800
C  5.80700 3.23300 29.44600
C  4.69800 3.90400 28.88100
C  4.85200 3.77700 27.43200
C  5.91200 2.78200 27.24200
C  3.64300 4.70400 29.71400
C  3.99600 4.37000 26.28100
O  3.99600 3.96300 25.15700
C  3.05000 5.46000 26.60900
N  8.07200 0.67800 26.82600
C  7.26900 1.27100 25.84700
C  7.47000 0.66600 24.45400
C  8.65500 -0.37100 24.74300
C  8.74400 -0.39500 26.26100
C  6.16700 -0.07200 23.88200
C  10.00600 0.01300 24.14500
C  10.78500 1.30000 24.42400
N  9.38800 -0.21700 29.20500
C  9.96800 -1.13200 28.32000
C  10.98900 -1.86800 28.99800
C  10.90200 -1.46000 30.32600
C  9.87400 -0.48200 30.37300
C  11.66900 -3.05100 28.57300
C  11.46500 -1.62500 31.63900
O  12.34000 -2.40000 32.01400
C  10.72500 -0.57600 32.57100
C  9.99200 -1.26200 33.79200
O  8.82700 -1.70400 33.71900
O  10.76000 -1.31400 34.96000
C  10.05100 -1.78600 36.09300
H  5.54900 4.00900 31.33100
H  5.69200 2.51600 25.14900
H  10.21000 -1.93900 26.35800
H  8.40500 1.14000 34.13600
H  7.48800 3.82100 33.31000
H  6.01000 2.80300 34.71600
H  6.20300 1.14700 33.96000
H  5.18100 2.38300 33.21500
H  9.75500 3.69500 34.10700
H  10.77900 2.65400 33.13300
H  11.25300 3.17200 35.44400
H  11.21600 1.43500 35.25800
H  4.07500 5.62900 30.09600
H  3.41400 4.23200 30.66900
H  2.67100 4.87500 29.25100
H  2.64000 6.01100 25.76300
H  3.77000 6.12000 27.09400
H  2.17000 5.16100 27.17800
H  7.72000 1.37500 23.66600
H  8.39600 -1.39500 24.47300
H  5.38500 0.15800 24.60600
H  6.37100 -1.14300 23.84800
H  5.80900 0.34200 22.93900
H  9.88700 0.00500 23.06200
H  10.63500 -0.86300 24.30000
H  10.44700 1.87400 25.28600
H  10.90100 1.84700 23.48800
H  11.75700 0.96500 24.78800
H  11.28600 -3.35700 27.59900
H  11.67500 -3.90500 29.25000
H  12.71800 -2.75600 28.56900
H  11.35400 0.18400 33.03500
H  8.97600 -1.60700 36.09900
H  10.54600 -1.30600 36.93800
H  10.05100 -2.87600 36.12500
Mg 2.02200 42.79300 26.50600
C  3.16900 42.84300 29.66100
C  -0.96300 41.36900 27.62600
C  1.16700 41.69300 23.34400
C  5.08400 43.65700 25.36100
N  1.19100 42.21600 28.36300
C  1.92200 42.28500 29.49300
C  1.01100 42.09500 30.70800
C  -0.27200 41.42300 30.10500
C  0.01500 41.65200 28.62600
C  -0.44500 39.93300 30.59800
C  0.83600 43.29900 31.58200
C  0.99500 43.11600 33.11800
H  0.44800 41.89800 33.73300
N  0.26500 41.85000 25.65700
C  -0.89100 41.46500 26.26000
C  -1.85400 40.95900 25.27300
C  -1.20300 40.97100 23.98100
C  0.11400 41.58200 24.29900
C  -3.14600 40.43200 25.62200
C  -1.68200 40.57700 22.67500
O  -1.09200 40.64300 21.64000
C  -3.01800 39.99500 22.45500
N  2.97300 42.63200 24.63000
C  2.42200 42.29400 23.48600
C  3.41300 42.38400 22.34300
C  4.51700 43.35400 22.89100
C  4.15900 43.29500 24.40700
C  3.97800 41.02100 21.87500
C  4.43700 44.79700 22.24900
C  3.80600 45.98300 23.08800
N  3.75000 43.21800 27.30700
C  4.92500 43.57300 26.76200
C  5.90700 43.67300 27.74800
C  5.28900 43.54400 28.96300
C  3.94500 43.21300 28.60100
C  7.39400 43.86100 27.56700
C  5.50200 43.37100 30.34300
O  6.48100 43.39400 31.09600
C  4.05900 42.92300 30.92900
C  4.31100 41.65900 31.58900
O  4.74900 40.69400 31.03600
O  4.07900 41.79300 32.96000
C  4.15400 40.44900 33.66900
H  -1.92400 41.03400 28.02300
H  1.08300 41.18300 22.38200
H  6.01500 44.16100 25.09400
H  1.56700 41.35700 31.28700
H  -1.14500 42.00800 30.39500
H  0.33900 39.49300 31.21400
H  -0.61500 39.31600 29.71600
H  -1.32900 39.98300 31.23200
H  -0.15600 43.74100 31.48600
H  1.49000 44.15300 31.40700
H  0.54500 43.94200 33.66900
H  2.06900 43.15500 33.30100
H  -3.09900 39.37400 25.88000
H  -3.96000 40.64300 24.92800
H  -3.53600 40.88900 26.53200
H  -3.16300 39.28500 23.27000
H  -3.07600 39.44200 21.51800
H  -3.66200 40.87200 22.50100
H  2.97600 42.78900 21.43000
H  5.49500 42.87200 22.88400
H  3.34800 40.25100 22.32000
H  4.95300 40.89000 22.34400
H  4.08800 40.94400 20.79300
H  3.79800 44.71800 21.36900
H  5.44200 45.05700 21.91500
H  3.46500 45.67800 24.07800
H  2.98300 46.35500 22.47900
H  4.64000 46.65900 23.28000
H  7.65100 44.60400 26.81200
H  7.91900 42.98500 27.18600
H  7.83100 44.09400 28.53900
H  3.72000 43.66000 31.65600
H  5.02800 40.47600 34.32100
H  4.09000 39.55800 33.04500
H  3.44400 40.22500 34.46600

