158

Mg 24.99700 -7.48200 47.37200
C  27.04200 -5.05000 45.83800
C  22.38300 -6.26200 45.24900
C  23.08500 -10.31000 47.94100
C  27.74600 -8.98700 48.71100
N  24.77200 -5.81200 45.63000
C  25.75900 -4.94100 45.28100
C  25.18000 -3.93400 44.27300
C  23.57800 -4.14700 44.31200
C  23.51700 -5.44000 45.15500
C  22.91800 -3.00200 45.06100
C  25.86000 -4.19600 42.87200
C  26.55200 -2.98800 42.18200
H  25.75100 -2.26200 41.06600
N  22.93400 -8.15100 46.72900
C  22.07600 -7.53600 45.96100
C  20.81200 -8.12200 46.01700
C  20.91200 -9.25900 46.82400
C  22.35600 -9.31400 47.21700
C  19.65500 -7.47300 45.30200
C  19.91600 -10.32400 47.12100
O  18.82700 -10.27500 46.49700
C  20.11100 -11.32400 48.21900
N  25.37300 -9.33200 48.20200
C  24.45700 -10.33100 48.32000
C  25.02000 -11.49200 49.18700
C  26.52100 -11.18900 49.08600
C  26.54900 -9.71500 48.63900
C  24.41300 -11.65400 50.68600
C  27.40200 -12.15700 48.11300
C  28.54700 -13.06400 48.85500
N  26.91800 -6.96300 47.58000
C  27.96900 -7.72700 48.13100
C  29.22200 -6.99600 48.01200
C  28.84900 -5.93100 47.17800
C  27.47000 -5.98000 46.83400
C  30.54500 -7.31100 48.61000
C  29.30300 -4.70900 46.51000
O  30.41400 -4.21400 46.50500
C  28.16900 -4.17300 45.53700
C  27.98900 -2.75400 45.78600
O  27.32000 -2.31100 46.72800
O  28.76200 -2.02300 44.91600
C  28.78000 -0.55500 45.22100
H  21.52200 -5.85200 44.71800
H  22.57000 -11.23700 48.20100
H  28.60200 -9.57100 49.05600
H  25.49300 -2.99300 44.72400
H  23.17200 -4.22400 43.30400
H  22.69500 -3.40800 46.04800
H  21.99400 -2.72700 44.55300
H  23.47900 -2.12600 45.38500
H  25.04100 -4.51100 42.22600
H  26.63700 -4.95300 42.98200
H  27.49200 -3.34400 41.76100
H  26.84100 -2.20900 42.88700
H  18.68700 -7.97100 45.34400
H  19.97800 -7.40000 44.26400
H  19.43800 -6.51900 45.78200
H  19.17200 -11.65200 48.66500
H  20.74300 -10.70300 48.85300
H  20.55500 -12.20200 47.74800
H  24.88600 -12.42200 48.63400
H  27.03300 -11.17800 50.04700
H  25.16500 -11.37900 51.42600
H  24.13400 -12.69800 50.83000
H  23.54700 -11.00200 50.79300
H  27.83300 -11.49000 47.36600
H  26.80000 -12.90600 47.59800
H  28.41700 -12.92000 49.92800
H  29.50500 -12.70800 48.47500
H  28.44700 -14.14100 48.72000
H  30.93600 -8.19200 48.10000
H  30.54700 -7.46900 49.68800
H  31.22600 -6.49100 48.37800
H  28.54000 -4.33400 44.52500
H  27.73900 -0.23700 45.27600
H  29.43000 0.02000 44.56100
H  29.06900 -0.32900 46.24800
Mg 25.99400 0.68300 29.85700
C  28.12500 0.37900 32.59700
C  23.33100 0.94800 32.01700
C  23.97000 0.34500 27.20300
C  28.76800 0.27300 27.79500
N  25.77700 0.42300 32.12200
C  26.81200 0.60200 32.97700
C  26.27800 0.86300 34.42800
C  24.74800 0.93600 34.16900
C  24.59100 0.83700 32.68800
C  23.90900 -0.11500 34.94300
C  26.86900 2.17700 35.08400
C  27.48100 1.96200 36.50100
H  26.94200 2.82600 37.63200
N  23.94800 0.68200 29.67200
C  22.99400 0.89600 30.67100
C  21.67300 0.90900 30.19700
C  21.83600 0.63200 28.75400
C  23.28800 0.52900 28.45900
C  20.43900 1.19600 30.92000
C  20.80900 0.48200 27.68600
O  21.11400 0.23200 26.56500
C  19.37700 0.76600 28.00300
N  26.37400 0.44700 27.83900
C  25.35100 0.33300 26.93900
C  25.84800 0.32100 25.48000
C  27.39700 0.27000 25.65300
C  27.54900 0.36800 27.16800
C  25.36200 -0.71100 24.48800
C  28.16200 1.37000 24.85200
C  29.29400 0.90400 23.96300
N  28.03500 0.24000 30.06700
C  29.05900 0.24600 29.11200
C  30.27800 -0.08700 29.73700
C  29.99800 0.04600 31.09200
C  28.61000 0.15900 31.29600
C  31.60500 -0.47500 29.05400
C  30.60700 0.08000 32.46200
O  31.74900 -0.13000 32.84600
C  29.35500 0.37300 33.49900
C  29.38100 -0.70000 34.57300
O  29.03600 -1.85100 34.36300
O  29.72400 -0.11800 35.77300
C  29.69200 -1.04700 36.91000
H  22.49100 1.14000 32.68800
H  23.34100 0.21500 26.32000
H  29.63000 0.00500 27.18100
H  26.57600 0.08100 35.12600
H  24.32000 1.83600 34.61200
H  24.43100 -1.01800 35.25900
H  23.05600 -0.45800 34.35600
H  23.56000 0.24700 35.91000
H  26.08000 2.91900 35.20500
H  27.66100 2.52200 34.42000
H  28.49700 2.34700 36.40400
H  27.43900 0.89400 36.71600
H  19.87200 2.07400 30.61200
H  20.66800 1.29700 31.98100
H  19.79100 0.32400 30.83400
H  18.98700 -0.03400 28.63300
H  18.78600 0.80100 27.08800
H  19.21000 1.68900 28.55800
H  25.47700 1.28300 25.12700
H  27.77300 -0.71000 25.35900
H  24.68700 -1.48100 24.86000
H  26.20900 -1.22300 24.03000
H  24.79700 -0.23100 23.68900
H  28.57100 2.09800 25.55300
H  27.57600 1.91900 24.11600
H  29.43200 -0.17700 23.91600
H  30.21300 1.41700 24.24700
H  29.23200 1.13400 22.89900
H  31.67200 -0.14000 28.01900
H  31.52100 -1.54800 28.88100
H  32.50000 -0.31800 29.65600
H  29.48000 1.27600 34.09600
H  29.72600 -2.12300 36.73800
H  28.82000 -0.79300 37.51200
H  30.60900 -0.96300 37.49200

