158

Mg 45.10100 4.58200 45.34900
C  43.10800 7.39100 45.84700
C  42.43900 2.62700 45.11500
C  47.29400 2.14300 44.58500
C  47.77500 6.88300 45.06600
N  42.94100 4.98700 45.40100
C  42.33400 6.15000 45.69700
C  40.77000 5.95700 45.87600
C  40.65000 4.33300 45.78900
C  42.11200 3.94400 45.44300
C  40.08100 3.64000 47.06900
C  39.91700 6.67400 44.75300
C  40.64100 7.13200 43.50000
H  40.09800 6.79200 42.08900
N  44.86900 2.63900 44.79100
C  43.67900 2.03400 44.82400
C  43.87700 0.61700 44.36900
C  45.31700 0.46600 44.23700
C  45.90000 1.78600 44.53100
C  42.77000 -0.38400 44.28500
C  46.05300 -0.81100 43.87600
O  45.46900 -1.87800 44.00300
C  47.51000 -0.90000 43.63800
N  47.26300 4.56200 44.80100
C  47.92900 3.33200 44.75700
C  49.43100 3.52300 44.66400
C  49.61300 5.11000 44.57300
C  48.14700 5.55300 44.82700
C  50.24700 2.88000 45.75700
C  50.08500 5.58900 43.13900
C  49.20300 5.19800 41.91700
N  45.45100 6.68800 45.46000
C  46.55700 7.40100 45.32400
C  46.28700 8.81000 45.48000
C  44.92300 8.82200 45.85500
C  44.44900 7.55200 45.68600
C  47.25200 9.87400 45.47000
C  43.79500 9.67100 46.16000
O  43.71500 10.91200 46.28600
C  42.57000 8.69900 46.29600
C  42.00400 8.70600 47.67800
O  42.45800 8.10900 48.61100
O  40.77300 9.35800 47.67900
C  39.92400 9.26900 48.91600
H  41.61600 1.92000 45.23300
H  48.05900 1.36600 44.52300
H  48.66300 7.51600 45.11900
H  40.50100 6.37400 46.84600
H  40.02900 4.08600 44.92700
H  39.95700 4.30800 47.92200
H  40.82400 2.87600 47.30000
H  39.09500 3.21100 46.89100
H  39.57800 7.59400 45.22900
H  39.02000 6.13300 44.45400
H  41.60500 6.63500 43.38900
H  40.80800 8.20900 43.48500
H  42.91300 -0.97100 43.37800
H  41.84600 0.19400 44.24600
H  42.68000 -0.98000 45.19300
H  47.81700 -1.84100 43.18200
H  48.06900 -0.91300 44.57400
H  47.78700 -0.05000 43.01500
H  49.59500 3.06400 43.68900
H  50.31800 5.47800 45.31800
H  49.50900 2.58900 46.50400
H  51.04400 3.50100 46.16600
H  50.64800 1.98600 45.28000
H  51.02300 5.12900 42.82700
H  50.28800 6.65800 43.21000
H  49.28600 5.90100 41.08800
H  48.12500 5.13000 42.05900
H  49.51400 4.24200 41.49600
H  47.59000 10.05600 44.45000
H  48.11000 9.61200 46.08800
H  46.82900 10.79600 45.86800
H  41.75900 8.89600 45.59500
H  39.40900 8.31000 48.97200
H  39.14400 10.00100 48.70600
H  40.47600 9.56700 49.80800
Mg 29.42100 57.92800 40.43100
C  26.48800 56.05400 39.41700
C  31.34900 55.42700 39.09300
C  31.94800 59.89500 41.00200
C  27.15400 60.59300 41.07000
N  28.87500 56.02700 39.22800
C  27.70500 55.39000 39.02800
C  27.88100 53.96300 38.62700
C  29.38900 53.81200 38.52500
C  29.95100 55.21900 39.02000
C  30.02200 52.57600 39.22500
C  27.15900 53.40700 37.21300
C  26.88400 54.41400 36.11600
H  27.77900 54.34900 34.83900
N  31.41700 57.71800 40.19500
C  32.03800 56.63700 39.51100
C  33.40500 56.88800 39.37200
C  33.64000 58.14000 39.89300
C  32.36700 58.67600 40.44800
C  34.43200 55.90700 38.73200
C  35.04100 58.80500 40.11300
O  36.03900 58.25500 39.63500
C  35.19900 60.12700 40.83400
N  29.51800 60.01600 41.03700
C  30.73900 60.59100 41.25700
C  30.62200 62.10300 41.64200
C  29.11400 62.18000 41.80000
C  28.55000 60.85600 41.22600
C  31.36200 62.59300 42.97600
C  28.48100 63.45300 41.22400
C  27.45600 64.19000 42.14400
N  27.28000 58.32700 40.27000
C  26.57400 59.40100 40.68200
C  25.14200 59.11600 40.76500
C  25.10100 57.73000 40.36500
C  26.41400 57.35700 39.98600
C  24.15300 60.03800 41.39700
C  24.21800 56.57700 40.17500
O  23.04800 56.45700 40.40300
C  25.10600 55.43300 39.54100
C  25.00300 54.29800 40.49200
O  25.45800 54.39800 41.66200
O  24.49000 53.16400 39.88500
C  24.70900 51.91700 40.66000
H  31.95600 54.57900 38.76800
H  32.72400 60.62600 41.24200
H  26.45300 61.39800 41.30000
H  27.48300 53.36200 39.44500
H  29.65800 53.66700 37.47800
H  30.71800 53.00100 39.94900
H  30.55900 51.89400 38.56600
H  29.21200 52.08200 39.76200
H  26.19400 52.93700 37.40300
H  27.89200 52.70700 36.81000
H  26.84800 55.45600 36.43400
H  25.92800 54.15000 35.66300
H  34.96400 56.37000 37.90100
H  33.85600 55.10600 38.26700
H  35.12000 55.48900 39.46700
H  34.80800 61.01900 40.34500
H  36.27500 60.28500 40.89300
H  34.94100 60.18100 41.89200
H  31.02600 62.59500 40.75700
H  28.88900 62.06600 42.86000
H  31.91500 61.77900 43.44300
H  30.67400 63.08300 43.66500
H  32.13100 63.26300 42.59100
H  27.88000 63.30800 40.32700
H  29.27200 64.15300 40.95300
H  26.48900 64.40800 41.69300
H  27.86200 65.13900 42.49500
H  27.23800 63.61800 43.04600
H  24.60100 60.74000 42.10000
H  23.44300 59.50900 42.03100
H  23.48700 60.56300 40.71200
H  24.78200 55.15200 38.53900
H  24.35100 52.02500 41.68300
H  25.78400 51.78400 40.78800
H  24.20400 51.15000 40.07300

