158

Mg 49.14400 45.33000 42.62100
C  45.73800 45.77100 41.71000
C  48.80700 42.02000 42.03400
C  52.49100 45.03100 42.49600
C  49.46900 48.87900 42.38600
N  47.42000 44.12400 41.84600
C  46.13100 44.42100 41.61800
C  45.29200 43.17900 41.19600
C  46.26000 41.96200 41.54300
C  47.58700 42.75600 41.80000
C  45.91500 41.08800 42.75100
C  44.54900 43.24800 39.80700
C  45.32400 44.10200 38.69200
H  45.67900 43.27100 37.42600
N  50.50300 43.77000 42.44000
C  50.13100 42.46900 42.34400
C  51.30200 41.64200 42.28600
C  52.44400 42.47200 42.42800
C  51.82400 43.80500 42.43100
C  51.22600 40.18000 42.24200
C  53.96800 42.04200 42.54900
O  54.30000 40.87800 42.48500
C  55.06400 43.01700 42.86100
N  50.68800 46.73100 42.28200
C  51.99900 46.36800 42.47200
C  52.89400 47.60400 42.64300
C  51.98000 48.82000 42.50400
C  50.61800 48.11800 42.34500
C  53.70000 47.54200 43.93700
C  52.31000 49.84000 41.39300
C  51.93500 51.27300 41.71400
N  47.86900 47.05500 42.37400
C  48.10400 48.40200 42.33300
C  46.85700 49.12400 42.26500
C  45.92500 48.13500 42.04200
C  46.60400 46.82500 42.06300
C  46.76500 50.62800 42.36900
C  44.55000 47.92200 41.72500
O  43.67000 48.77700 41.68600
C  44.37800 46.40600 41.34200
C  43.25200 45.85300 42.17800
O  42.36500 45.10600 41.72900
O  43.26300 46.23800 43.49500
C  42.14600 45.77900 44.42600
H  48.64500 40.94100 41.98300
H  53.56300 44.88900 42.64900
H  49.58400 49.96500 42.38600
H  44.54900 43.12900 41.99100
H  46.32100 41.26900 40.70400
H  46.05000 40.02300 42.56000
H  44.88100 41.26300 43.04800
H  46.56200 41.27900 43.60700
H  43.53600 43.59900 40.00500
H  44.43100 42.20900 39.49900
H  46.33200 44.44100 38.93300
H  44.71500 44.96500 38.42300
H  51.03400 40.06000 41.17600
H  50.40300 39.71600 42.78600
H  52.16800 39.66200 42.42200
H  54.88100 43.52800 43.80600
H  55.13200 43.70800 42.02100
H  56.07000 42.59700 42.86800
H  53.60300 47.61800 41.81500
H  51.78300 49.39000 43.41200
H  53.64700 46.62400 44.52200
H  53.39600 48.40600 44.52900
H  54.69900 47.86500 43.64700
H  51.84700 49.49200 40.47000
H  53.39200 49.80200 41.26200
H  52.74700 51.98500 41.57000
H  51.45600 51.44300 42.67900
H  51.25700 51.45600 40.88000
H  47.17000 51.06100 43.28300
H  45.74300 51.00700 42.36600
H  47.24700 51.14400 41.53800
H  44.15800 46.16700 40.30100
H  41.22000 45.89800 43.86300
H  42.15500 46.38500 45.33200
H  42.21100 44.72700 44.70300
Mg 36.43800 49.77400 24.61300
C  36.99300 48.32900 27.57100
C  34.95500 52.55900 26.25900
C  35.56000 51.09500 21.58400
C  37.55700 46.94300 22.91400
N  36.15000 50.39500 26.71600
C  36.36600 49.61400 27.79800
C  35.99300 50.29600 29.10700
C  35.05400 51.42900 28.60500
C  35.42300 51.51600 27.10100
C  33.52300 51.26400 29.06200
C  37.19000 50.76200 29.96600
C  37.31900 50.23900 31.41500
H  36.06800 50.12300 32.21400
N  35.58600 51.65400 24.01400
C  35.03600 52.65400 24.82900
C  34.55300 53.75400 24.01200
C  34.56700 53.29000 22.63600
C  35.33300 51.98200 22.68600
C  34.01100 55.05100 24.58400
C  34.01400 53.92300 21.34500
O  34.04200 53.28500 20.25300
C  33.51500 55.37300 21.49100
N  36.50500 49.08400 22.55100
C  36.11700 49.81600 21.53200
C  36.34900 49.10400 20.08600
C  37.11500 47.85100 20.48600
C  37.01500 47.90600 22.12600
C  35.02700 48.89600 19.36100
C  38.60800 47.65200 19.98900
C  39.61600 48.77200 20.39500
N  37.04100 47.98300 25.11200
C  37.55100 46.94600 24.33700
C  37.95800 45.83200 25.15400
C  37.72800 46.34700 26.52600
C  37.19700 47.65800 26.39600
C  38.33800 44.42400 24.70800
C  37.88000 45.98000 27.90000
O  38.14100 44.90500 28.46700
C  37.43000 47.30600 28.64200
C  36.29600 46.79700 29.54400
O  35.11300 46.72400 29.28300
O  36.87500 46.37800 30.77500
C  35.94300 45.78200 31.70900
H  34.55400 53.42000 26.79900
H  35.15500 51.40600 20.61900
H  37.81400 46.01000 22.40800
H  35.43500 49.50900 29.61400
H  35.33700 52.39300 29.02900
H  33.30300 52.24700 29.47800
H  33.35700 50.45800 29.77600
H  32.88200 51.06600 28.20300
H  37.23400 51.84500 30.08500
H  38.09200 50.48500 29.42000
H  38.08000 50.82000 31.93800
H  37.70600 49.22000 31.42900
H  34.61800 55.88200 24.22500
H  34.07600 55.01900 25.67100
H  32.96300 55.09500 24.28800
H  32.68700 55.32800 22.20000
H  33.24200 55.80600 20.52900
H  34.31000 56.00800 21.88300
H  36.93200 49.84600 19.53900
H  36.57900 46.98500 20.09800
H  34.15100 49.10800 19.97400
H  35.00400 47.83800 19.09900
H  34.81000 49.42600 18.43400
H  38.58800 47.62000 18.89900
H  38.91800 46.62700 20.19200
H  39.07300 49.59600 20.85900
H  40.10600 49.12000 19.48600
H  40.21500 48.48600 21.26000
H  38.41000 44.28400 23.63000
H  37.72000 43.65300 25.16900
H  39.39800 44.34800 24.94700
H  38.22700 47.50700 29.35800
H  35.09100 46.46200 31.72600
H  36.38700 45.65600 32.69600
H  35.60200 44.80700 31.36200

