158

Mg 47.21300 35.16000 27.10400
C  45.49100 33.16300 29.43200
C  47.37200 37.77500 29.32100
C  48.70100 36.95200 24.68500
C  46.41200 32.62900 24.67300
N  46.56000 35.42300 29.16600
C  45.99500 34.38800 29.94000
C  45.96300 34.85500 31.28800
C  46.09800 36.40800 31.20000
C  46.67500 36.65400 29.76500
C  44.68800 37.10400 31.56100
C  47.19800 34.22900 32.10500
C  46.96800 34.15700 33.66000
H  45.98200 35.04300 34.33100
N  48.05200 37.01800 27.09100
C  48.05400 37.94400 28.11500
C  48.75200 39.13100 27.72900
C  49.13100 38.92300 26.30300
C  48.70300 37.54700 25.97900
C  48.95600 40.19400 28.78000
C  49.81500 39.94400 25.39900
O  50.25700 39.60000 24.32300
C  50.04600 41.41000 25.75000
N  47.20200 34.96700 24.79500
C  48.04700 35.81000 24.17000
C  48.41400 35.20200 22.76600
C  47.76600 33.75500 22.84400
C  47.07000 33.78000 24.16600
C  47.91800 36.02600 21.61500
C  48.83900 32.56300 22.68000
C  48.31800 31.49400 21.69000
N  46.08500 33.33200 27.07200
C  45.99400 32.42900 25.98200
C  45.40100 31.20500 26.56000
C  45.12700 31.43900 27.90800
C  45.55200 32.74300 28.09900
C  45.16700 29.95200 25.94300
C  44.62300 30.90800 29.08100
O  44.09800 29.83600 29.38300
C  44.56300 32.12500 30.08200
C  45.05000 31.47200 31.35900
O  46.20000 31.01900 31.52300
O  44.06800 31.50500 32.23200
C  44.52400 30.93600 33.48300
H  47.42200 38.68300 29.92600
H  49.00000 37.58000 23.84400
H  46.34400 31.74700 24.03300
H  45.13500 34.57300 31.93700
H  46.90700 36.69600 31.87200
H  43.95300 36.41200 31.97200
H  44.19400 37.55900 30.70300
H  44.86400 37.91400 32.27000
H  48.19100 34.60300 31.85500
H  47.41000 33.20800 31.78900
H  47.94000 34.38100 34.09900
H  46.76700 33.14600 34.01400
H  49.49600 41.05400 28.38500
H  49.43300 39.67800 29.61400
H  48.00100 40.47800 29.22200
H  50.45200 42.00600 24.93300
H  50.69800 41.18800 26.59400
H  49.13900 41.81800 26.19500
H  49.50000 35.26000 22.69300
H  47.00800 33.62200 22.07200
H  47.42300 35.36100 20.90700
H  48.79300 36.45900 21.13100
H  47.24800 36.82700 21.92600
H  49.07700 32.06100 23.61800
H  49.74400 32.98400 22.24100
H  47.53100 31.99300 21.12600
H  47.83800 30.68800 22.24500
H  49.14300 31.26100 21.01700
H  44.40300 29.33900 26.42300
H  46.07600 29.35600 25.86200
H  44.92900 30.04700 24.88400
H  43.55600 32.51700 30.22400
H  44.75300 29.87200 33.41100
H  43.87100 31.21300 34.31000
H  45.37900 31.55100 33.76600
Mg 35.45000 49.56100 26.47800
C  35.73600 47.21900 29.05000
C  34.23500 51.89300 28.82800
C  34.87700 51.59800 24.00100
C  36.33600 47.00900 24.15800
N  35.06900 49.52600 28.65700
C  35.31300 48.47700 29.50900
C  35.14800 48.93200 30.88700
C  34.26900 50.18000 30.74800
C  34.44800 50.55000 29.34700
C  32.78800 49.93300 31.08700
C  36.53400 49.13300 31.54300
C  36.74900 48.68500 33.00300
H  37.02800 49.83100 34.00200
N  34.88300 51.51700 26.51000
C  34.44300 52.33200 27.50900
C  34.29400 53.65800 26.95800
C  34.46700 53.62400 25.56300
C  34.78400 52.17600 25.29000
C  33.83000 54.74000 27.85900
C  34.34300 54.72600 24.54200
O  34.50000 54.56000 23.34700
C  34.03400 56.27700 24.91100
N  35.36000 49.20400 24.35000
C  35.20000 50.28900 23.55400
C  35.43300 49.95800 22.05200
C  36.14800 48.58800 22.16900
C  35.92900 48.26300 23.61400
C  34.03600 49.88300 21.35700
C  37.58500 48.45600 21.76600
C  37.92200 47.23900 20.81700
N  35.84600 47.46700 26.52400
C  36.26700 46.55200 25.52000
C  36.47300 45.24300 26.10800
C  36.32000 45.42300 27.53600
C  35.88300 46.82300 27.74600
C  36.74800 43.96600 25.39200
C  36.40000 44.83100 28.91400
O  36.58600 43.68500 29.30700
C  36.11000 45.97100 29.87500
C  35.03800 45.49800 30.84500
O  33.98800 44.94200 30.61700
O  35.40800 45.90500 32.10000
C  34.46500 45.64700 33.16300
H  33.97500 52.50100 29.69700
H  34.71300 52.24800 23.13900
H  36.58700 46.30800 23.35900
H  34.62000 48.11700 31.38200
H  34.72500 50.86400 31.46400
H  32.61700 48.96600 30.61300
H  32.15900 50.58800 30.48400
H  32.53300 49.98500 32.14500
H  36.87200 50.15200 31.73300
H  37.34000 48.76600 30.90800
H  37.48500 47.88100 32.99800
H  35.82900 48.18100 33.29800
H  34.51200 55.58700 27.78800
H  33.59900 54.43000 28.87800
H  32.85100 55.03600 27.48100
H  33.08100 56.43600 25.41500
H  34.08900 56.74900 23.93100
H  34.82100 56.66800 25.55600
H  36.07700 50.68600 21.55900
H  35.52300 47.95200 21.54200
H  33.24600 49.67800 22.07900
H  33.98600 49.19600 20.51300
H  33.82100 50.86100 20.92600
H  38.21100 48.34400 22.65200
H  37.92200 49.33900 21.22200
H  38.08400 47.63700 19.81500
H  37.17200 46.44800 20.81900
H  38.91500 46.83400 21.01300
H  37.72700 44.15500 24.95000
H  36.07300 43.75500 24.56300
H  36.62800 43.05800 25.98300
H  36.90300 46.34900 30.52000
H  34.39400 46.46200 33.88400
H  34.99600 44.89400 33.74500
H  33.45100 45.27400 33.02200

