158

Mg 23.60300 -5.32400 45.51000
C  25.91200 -3.27100 43.70500
C  21.12400 -4.18300 43.47200
C  21.78100 -8.07800 46.39800
C  26.51900 -7.03100 46.86600
N  23.62400 -3.93100 43.81500
C  24.65200 -3.24600 43.12400
C  24.08700 -2.45400 41.90500
C  22.56900 -2.44100 42.17000
C  22.40100 -3.63800 43.17500
C  22.06600 -1.05000 42.65800
C  24.65500 -2.88200 40.57200
C  25.76400 -1.95100 39.98400
H  25.73200 -1.77200 38.48700
N  21.70600 -5.97700 45.06500
C  20.88300 -5.33500 44.22200
C  19.64100 -6.08600 44.10300
C  19.76400 -7.15200 45.04400
C  21.10000 -7.16200 45.56700
C  18.40900 -5.60000 43.24700
C  18.66500 -8.08000 45.54100
O  17.49600 -7.96200 45.05700
C  18.86900 -8.94600 46.74700
N  24.03300 -7.27400 46.51200
C  23.09700 -8.20500 46.84900
C  23.67000 -9.39200 47.60400
C  25.13000 -8.97200 47.84800
C  25.27600 -7.67000 47.00900
C  22.95000 -9.82100 48.92400
C  26.22300 -10.06600 47.57600
C  26.82200 -10.72900 48.82700
N  25.71300 -5.05400 45.66100
C  26.74000 -5.81600 46.23200
C  27.97400 -5.22100 45.96200
C  27.74800 -4.23900 45.01400
C  26.32500 -4.19100 44.76900
C  29.27100 -5.63300 46.54000
C  28.39200 -3.28100 44.13900
O  29.63900 -3.06900 43.91900
C  27.20600 -2.51800 43.45800
C  27.22900 -1.08500 43.96700
O  26.38500 -0.46100 44.61700
O  28.34400 -0.50400 43.40300
C  28.58000 0.91300 43.60200
H  20.33000 -3.61600 42.98100
H  21.32900 -9.06400 46.51700
H  27.40300 -7.53400 47.26400
H  24.40500 -1.42700 42.08500
H  21.97100 -2.63700 41.28000
H  21.92300 -0.55700 41.69600
H  22.89800 -0.56900 43.17300
H  21.20600 -1.13700 43.32100
H  23.94800 -2.87400 39.74300
H  25.15900 -3.84800 40.54900
H  26.68700 -2.40700 40.34400
H  25.58300 -1.00500 40.49400
H  18.49300 -4.54400 42.99000
H  17.51800 -5.59000 43.87400
H  18.22200 -6.19100 42.35000
H  19.27400 -8.26700 47.49800
H  19.43100 -9.85300 46.52500
H  17.99500 -9.51800 47.05800
H  23.70000 -10.23900 46.91900
H  25.31000 -8.51800 48.82300
H  22.92600 -10.91100 48.91800
H  21.94600 -9.40500 48.84400
H  23.53400 -9.46800 49.77400
H  26.86900 -9.58400 46.84300
H  25.86500 -10.96800 47.07900
H  26.12300 -10.45800 49.61700
H  27.78500 -10.32000 49.13300
H  26.91500 -11.81300 48.75600
H  29.87000 -6.30100 45.92100
H  29.21400 -5.99600 47.56700
H  29.81400 -4.70700 46.72700
H  27.36000 -2.59300 42.38200
H  27.67200 1.51600 43.59600
H  29.25900 1.19600 42.79800
H  29.10700 1.09800 44.53800
Mg 25.67200 1.32900 29.27200
C  27.76600 0.80700 32.04200
C  23.04700 1.70700 31.38000
C  23.80400 1.44500 26.58000
C  28.40600 0.30200 27.24200
N  25.47400 1.31000 31.40500
C  26.48500 1.22900 32.32800
C  25.96000 1.58400 33.68200
C  24.38300 1.47500 33.54000
C  24.24100 1.51300 32.03300
C  23.68200 0.19700 34.21600
C  26.42300 2.96100 34.19600
C  27.50500 3.03300 35.31400
H  27.16100 3.80100 36.59200
N  23.61600 1.57500 29.04000
C  22.71700 1.73600 30.00900
C  21.41300 2.02400 29.36800
C  21.71100 2.03700 27.94500
C  23.06500 1.71900 27.76400
C  20.18500 2.37700 30.11600
C  20.70300 2.27300 26.84300
O  20.97200 2.41600 25.62500
C  19.24100 2.35700 27.15000
N  25.92000 0.56700 27.35300
C  25.05000 0.88700 26.43700
C  25.52200 0.64600 24.99300
C  27.09600 0.57300 25.15800
C  27.12000 0.45900 26.71000
C  24.84600 -0.55000 24.43700
C  27.78100 1.90600 24.72800
C  29.04600 1.66400 23.83900
N  27.69900 0.61100 29.46900
C  28.74000 0.32400 28.58700
C  29.95300 0.06300 29.24100
C  29.62300 0.21900 30.64600
C  28.24000 0.53400 30.68100
C  31.26400 -0.24000 28.61100
C  30.20300 0.17400 31.95700
O  31.30700 -0.10100 32.38200
C  28.98300 0.65000 32.95700
C  28.90600 -0.27000 34.16600
O  28.28300 -1.28500 34.21900
O  29.56100 0.29600 35.18700
C  29.38800 -0.41700 36.43700
H  22.22300 1.91400 32.06600
H  23.26700 1.47700 25.63000
H  29.28500 0.20100 26.60200
H  26.28300 0.85000 34.42100
H  24.02000 2.37900 34.02900
H  22.97900 0.61500 34.93800
H  24.37700 -0.44100 34.76200
H  23.29300 -0.48500 33.46000
H  25.61100 3.64900 34.43300
H  26.78000 3.50000 33.31900
H  28.36800 3.55600 34.90300
H  27.78000 2.01100 35.57600
H  19.68100 3.24600 29.69300
H  20.35200 2.65400 31.15700
H  19.41300 1.60900 30.05900
H  18.88600 1.49900 27.72100
H  18.69900 2.49300 26.21400
H  19.17100 3.30100 27.69100
H  25.27800 1.58800 24.50200
H  27.57500 -0.33500 24.79100
H  24.80400 -1.32300 25.20400
H  25.29300 -1.05500 23.58000
H  23.84300 -0.23400 24.15200
H  28.14500 2.57000 25.51300
H  27.14500 2.44300 24.02400
H  29.84700 2.33000 24.16000
H  28.81300 1.76100 22.77900
H  29.45600 0.65700 23.92200
H  31.09000 -0.97500 27.82500
H  31.91200 -0.74200 29.32800
H  31.70900 0.63300 28.13400
H  29.24200 1.61300 33.39700
H  29.69100 -1.46400 36.39600
H  28.33700 -0.35400 36.71700
H  29.92200 0.05000 37.26400

