158

Mg 2.50500 -1.38700 43.59500
C  5.81900 -0.75600 43.27500
C  1.75100 1.27700 41.61900
C  -0.65600 -2.37600 43.77500
C  3.38800 -4.47700 45.35000
N  3.65300 0.14000 42.52900
C  5.01900 0.16400 42.51300
C  5.51100 1.28800 41.55600
C  4.18400 1.94200 41.03100
C  3.09100 1.12500 41.73000
C  4.11300 3.47100 41.36700
C  6.34100 0.74700 40.28000
C  7.56200 1.60500 39.82600
H  7.41300 2.50100 38.59300
N  0.68200 -0.53700 42.88300
C  0.58200 0.56900 42.11300
C  -0.86900 0.73700 41.69700
C  -1.60600 -0.29800 42.32800
C  -0.56000 -1.09900 43.10400
C  -1.38500 1.72800 40.60500
C  -3.07100 -0.49400 42.22700
O  -3.75500 0.22500 41.46700
C  -3.77400 -1.75000 42.75800
N  1.50600 -3.12700 44.47600
C  0.18900 -3.26100 44.36800
C  -0.34200 -4.51400 45.06900
C  0.95200 -5.22700 45.48400
C  2.01400 -4.21800 45.14200
C  -1.26900 -4.17800 46.19300
C  1.21600 -6.55300 44.72800
C  1.73200 -7.67700 45.61300
N  4.21100 -2.44200 44.29300
C  4.37600 -3.63000 44.93700
C  5.80200 -3.84800 45.12000
C  6.46100 -2.76500 44.50300
C  5.41200 -1.86300 43.98200
C  6.46400 -5.09900 45.89500
C  7.69700 -2.08200 44.16100
O  8.88100 -2.32500 44.35300
C  7.34900 -0.82000 43.43300
C  7.97500 0.29400 44.16400
O  7.67900 0.62800 45.29700
O  8.90400 0.96400 43.37300
C  9.30200 2.35000 43.83800
H  1.38900 1.96800 40.85500
H  -1.69800 -2.69300 43.86400
H  3.66300 -5.45900 45.74200
H  6.11700 2.01800 42.09300
H  4.00600 1.82100 39.96300
H  4.05700 4.13600 40.50500
H  4.91800 3.69100 42.06900
H  3.14400 3.67800 41.81900
H  5.60200 0.68100 39.48100
H  6.72600 -0.25800 40.45600
H  8.33100 0.85600 39.63600
H  7.96600 2.15200 40.67700
H  -1.85400 1.31500 39.71200
H  -0.52500 2.27800 40.22400
H  -1.96300 2.50800 41.10200
H  -4.81100 -1.72800 42.42300
H  -3.72200 -1.89900 43.83700
H  -3.18600 -2.50900 42.24300
H  -0.99700 -5.02900 44.36700
H  1.02700 -5.42100 46.55400
H  -0.98100 -3.18900 46.55000
H  -1.10300 -4.89400 46.99700
H  -2.31700 -4.23300 45.90100
H  1.96500 -6.25000 43.99600
H  0.32700 -6.84900 44.17100
H  2.70400 -8.03100 45.27000
H  1.10000 -8.56400 45.56600
H  1.87000 -7.42700 46.66400
H  6.12000 -6.05100 45.48900
H  6.08200 -5.02400 46.91300
H  7.55300 -5.05100 45.90100
H  7.88500 -0.81900 42.48400
H  9.68500 2.94200 43.00600
H  10.10500 2.13100 44.54200
H  8.55700 2.93900 44.37300
Mg 41.44800 40.64900 27.07200
C  40.80000 43.08800 29.71900
C  42.12600 38.34600 29.44000
C  42.29600 38.66200 24.55400
C  41.29400 43.49700 24.79200
N  41.48200 40.81300 29.37700
C  41.03800 41.83700 30.22100
C  40.96700 41.32500 31.65100
C  41.37000 39.77100 31.58000
C  41.76100 39.61500 30.04500
C  42.53500 39.46400 32.53800
C  39.65900 41.62600 32.39700
C  39.71200 42.70500 33.44900
H  39.04200 42.40500 34.79300
N  41.94000 38.75400 27.00500
C  42.25300 37.97700 28.09100
C  42.77600 36.72000 27.62000
C  42.68900 36.70900 26.20300
C  42.24700 38.07600 25.85200
C  43.28200 35.61600 28.50800
C  42.99400 35.51800 25.23600
O  42.79400 35.59000 24.04900
C  43.62900 34.28400 25.65200
N  41.72800 40.99200 25.00000
C  42.14400 39.98400 24.14000
C  42.12000 40.42400 22.66200
C  41.93300 42.03800 22.79000
C  41.53700 42.17500 24.32700
C  43.28400 40.02000 21.78800
C  40.88100 42.49300 21.78600
C  39.38000 42.62400 22.32400
N  41.12600 42.82600 27.17400
C  40.90400 43.72900 26.18300
C  40.41100 44.93600 26.73000
C  40.40700 44.75500 28.14000
C  40.79200 43.42000 28.37200
C  40.16200 46.21400 25.96300
C  40.17700 45.40000 29.34000
O  39.90000 46.58700 29.56800
C  40.39800 44.36600 30.47100
C  41.38800 44.91800 31.39500
O  42.57700 44.75800 31.20000
O  40.85300 45.61300 32.42300
C  41.73100 46.39200 33.30900
H  42.29800 37.49700 30.10600
H  42.61600 37.95800 23.78300
H  41.24300 44.17600 23.93900
H  41.75300 41.87900 32.16400
H  40.50600 39.13100 31.76000
H  43.41400 39.59100 31.90700
H  42.46700 38.44500 32.91700
H  42.40200 40.15000 33.37500
H  39.27700 40.70600 32.83800
H  38.89300 41.98400 31.70900
H  39.10900 43.48300 32.97900
H  40.71600 43.03300 33.71900
H  42.40800 34.98800 28.67900
H  43.62700 35.90800 29.50000
H  44.09600 35.05000 28.05300
H  42.90400 33.80400 26.30800
H  44.52700 34.60400 26.17900
H  43.83100 33.60700 24.82200
H  41.21400 40.09800 22.15200
H  42.82800 42.58700 22.49700
H  42.94600 39.86500 20.76300
H  43.57200 39.05100 22.19400
H  44.12000 40.71600 21.85900
H  40.89400 42.04200 20.79300
H  41.13200 43.50300 21.46300
H  39.34300 42.38600 23.38800
H  38.68300 41.88300 21.93400
H  38.89900 43.59400 22.19700
H  39.95800 45.96900 24.92100
H  40.98800 46.92200 26.04200
H  39.32800 46.70800 26.46200
H  39.44100 44.47800 30.98100
H  41.61100 46.04400 34.33500
H  41.33900 47.40300 33.42600
H  42.77300 46.47700 33.00100

