158

Mg 44.82100 3.63700 47.20600
C  42.64500 6.34100 46.79400
C  42.03400 1.49400 47.31900
C  46.90500 1.00300 46.81300
C  47.49300 5.99200 46.68500
N  42.55000 3.94900 47.10600
C  41.93000 5.09200 46.83200
C  40.36900 4.87800 46.65100
C  40.20600 3.34000 46.99200
C  41.69500 2.92400 47.28200
C  39.15500 3.15700 48.15500
C  40.03000 5.16300 45.09800
C  38.83600 5.97500 44.76400
H  39.03700 7.03300 43.74500
N  44.53900 1.52500 47.17300
C  43.27300 0.88700 47.22900
C  43.57900 -0.58400 47.31700
C  44.95000 -0.72300 47.09700
C  45.54900 0.60900 46.94500
C  42.47400 -1.67300 47.44700
C  45.73700 -2.06300 47.11100
O  45.16200 -3.13700 47.31500
C  47.25300 -2.16700 46.94100
N  46.83900 3.56000 46.56800
C  47.45600 2.30500 46.67500
C  48.98200 2.53300 46.71400
C  49.13500 4.08900 46.94200
C  47.72600 4.63400 46.76900
C  49.76000 1.82500 47.81900
C  50.11200 4.80700 45.83700
C  51.13800 5.78400 46.49400
N  45.09300 5.78800 46.85000
C  46.21300 6.58300 46.72800
C  45.76200 7.90800 46.61600
C  44.37600 7.96600 46.57200
C  44.00100 6.56200 46.74200
C  46.72800 9.18400 46.34800
C  43.15900 8.77400 46.55800
O  42.92300 9.97900 46.58200
C  42.03500 7.73300 46.61600
C  41.20300 8.11200 47.76900
O  41.32300 7.68400 48.91500
O  40.22500 9.02900 47.36100
C  39.29200 9.50100 48.43700
H  41.19400 0.82000 47.14200
H  47.63300 0.18900 46.81400
H  48.40900 6.58400 46.64000
H  39.72700 5.52600 47.24900
H  39.88000 2.74600 46.13800
H  38.55700 4.06100 48.27600
H  39.55500 2.94800 49.14700
H  38.55500 2.27700 47.92600
H  39.78100 4.21900 44.61200
H  40.84500 5.65000 44.56300
H  38.53900 6.51900 45.66100
H  38.08300 5.26300 44.42600
H  42.37000 -2.38400 46.62700
H  41.56500 -1.17100 47.77800
H  42.73500 -2.38800 48.22700
H  47.83400 -1.63000 47.69000
H  47.38700 -1.89300 45.89400
H  47.57300 -3.20500 47.03400
H  49.42300 2.18400 45.78000
H  49.38400 4.32600 47.97700
H  49.28600 1.98400 48.78700
H  50.82000 2.07700 47.84200
H  49.66200 0.76100 47.60000
H  49.61500 5.18200 44.94200
H  50.78100 4.01300 45.50700
H  52.10000 5.28200 46.39500
H  50.88200 5.98700 47.53400
H  51.15600 6.68700 45.88400
H  46.51800 9.63000 45.37600
H  47.78600 8.94800 46.46300
H  46.51900 9.89000 47.15100
H  41.39300 7.84300 45.74200
H  39.61000 10.53400 48.57800
H  39.44700 9.04800 49.41700
H  38.28500 9.48200 48.02100
Mg -10.69400 38.74000 40.62700
C  -9.06500 35.64000 39.80000
C  -8.02600 40.31500 39.12500
C  -12.56700 41.55000 40.40500
C  -13.47700 36.92100 41.27900
N  -8.76700 38.01000 39.68100
C  -8.33500 36.71800 39.36300
C  -6.91700 36.61800 38.70400
C  -6.59800 38.15200 38.61000
C  -7.84700 38.89600 39.22300
C  -5.18200 38.51900 39.29100
C  -6.92300 35.74700 37.42100
C  -6.45900 36.38900 36.11100
H  -7.45900 37.22300 35.28500
N  -10.27600 40.75900 40.12000
C  -9.11000 41.17200 39.49400
C  -9.11900 42.59200 39.32300
C  -10.39000 43.05500 39.75200
C  -11.16900 41.78500 40.14700
C  -7.94100 43.38700 38.79700
C  -10.81500 44.53100 39.81000
O  -10.09000 45.43900 39.43400
C  -12.12200 44.86300 40.36700
N  -12.73900 39.21700 40.57200
C  -13.22500 40.40200 40.76900
C  -14.77700 40.38000 41.03000
C  -15.04000 38.82800 41.27100
C  -13.67700 38.29300 41.02800
C  -15.16900 41.20500 42.24900
C  -16.10300 38.21800 40.29400
C  -17.48300 38.00100 40.89700
N  -11.20500 36.67600 40.71300
C  -12.42200 36.10200 41.08700
C  -12.23100 34.66100 41.27100
C  -10.94800 34.39400 40.72500
C  -10.36600 35.67100 40.41500
C  -13.23100 33.63300 41.79600
C  -10.01200 33.37300 40.39900
O  -10.01700 32.14700 40.50100
C  -8.72300 34.16600 39.81400
C  -7.44600 33.93200 40.67700
O  -7.39400 33.95000 41.89200
O  -6.32100 33.75500 39.86000
C  -5.01100 33.59500 40.57200
H  -7.17000 40.78500 38.63700
H  -13.26100 42.38500 40.51700
H  -14.28100 36.31100 41.69600
H  -6.34800 36.10700 39.48200
H  -6.41000 38.52000 37.60200
H  -4.79600 37.59900 39.73200
H  -5.21500 39.33100 40.01700
H  -4.55200 38.80100 38.44700
H  -7.97100 35.47600 37.29600
H  -6.32300 34.86700 37.65600
H  -6.12100 35.61800 35.42000
H  -5.60700 37.04700 36.28500
H  -8.23400 43.59300 37.76800
H  -7.04800 42.76800 38.71200
H  -7.65600 44.18500 39.48200
H  -12.22500 44.53800 41.40300
H  -12.86100 44.39400 39.71700
H  -12.30400 45.90800 40.11600
H  -15.29100 40.76600 40.15000
H  -15.37700 38.60500 42.28400
H  -15.81500 41.99000 41.85600
H  -14.31700 41.72000 42.69200
H  -15.65700 40.58000 42.99700
H  -15.64800 37.34600 39.82600
H  -16.28700 38.89500 39.46000
H  -18.20500 38.44200 40.21000
H  -17.60600 38.31100 41.93500
H  -17.54300 36.91600 40.80800
H  -14.22100 33.75200 41.35700
H  -13.25200 33.81300 42.87100
H  -12.94400 32.58300 41.73800
H  -8.68400 33.83200 38.77700
H  -4.87100 32.63200 41.06300
H  -4.85200 34.39200 41.29900
H  -4.29000 33.70600 39.76200

