158

Mg 48.05600 25.71900 27.96000
C  48.99300 27.84500 30.62200
C  46.93400 23.49200 30.50400
C  47.35200 23.54400 25.58300
C  49.68200 27.82800 25.69500
N  48.01100 25.73700 30.26400
C  48.31800 26.73200 31.07300
C  48.02500 26.38400 32.54700
C  47.46300 24.96700 32.54400
C  47.42400 24.70000 30.98600
C  48.19100 23.92200 33.45900
C  47.11200 27.44200 33.12200
C  47.28700 27.60200 34.68300
H  46.08000 27.81600 35.62000
N  47.28000 23.78300 28.10000
C  46.78400 23.09200 29.15400
C  46.35900 21.73600 28.74700
C  46.54500 21.72200 27.30300
C  47.05800 23.04400 26.94300
C  46.13400 20.65900 29.61600
C  46.08800 20.63700 26.31600
O  46.37900 20.76100 25.16300
C  45.17100 19.53000 26.77400
N  48.43400 25.69400 25.96100
C  48.06000 24.65700 25.14600
C  48.31000 25.01000 23.60400
C  49.10500 26.36400 23.67400
C  49.09800 26.62200 25.23500
C  48.96200 23.98000 22.70000
C  48.40300 27.50800 22.83400
C  49.23200 28.29600 21.84000
N  49.19800 27.41600 28.07300
C  49.85100 28.18300 27.09000
C  50.37200 29.44500 27.66200
C  50.09200 29.28000 29.05000
C  49.28400 28.10800 29.25000
C  50.95200 30.55900 26.81200
C  50.19800 29.90600 30.33400
O  50.77200 30.95800 30.67000
C  49.43100 29.06000 31.35000
C  50.28600 28.82400 32.56300
O  51.06900 27.90000 32.67000
O  50.07900 29.91300 33.37300
C  50.70000 29.79600 34.66100
H  46.61700 22.84200 31.32200
H  47.17400 22.89000 24.72800
H  50.13600 28.55100 25.01500
H  48.99700 26.44600 33.03600
H  46.44900 24.97800 32.94400
H  48.88100 24.42900 34.13400
H  48.81400 23.18600 32.95100
H  47.44500 23.37100 34.03100
H  46.06600 27.18100 32.96300
H  47.12500 28.40900 32.61900
H  47.81000 28.54800 34.82600
H  47.92500 26.86200 35.16600
H  46.71600 20.82000 30.52300
H  46.64200 19.80400 29.17000
H  45.07200 20.42000 29.66700
H  45.68800 18.87900 27.48000
H  45.08000 18.94000 25.86200
H  44.17200 19.91500 26.97800
H  47.30700 25.23700 23.24200
H  50.13400 26.35300 23.31700
H  48.68400 22.98500 23.04600
H  50.03100 24.19300 22.68700
H  48.76400 23.99400 21.62900
H  47.98200 28.04700 23.68200
H  47.53700 27.10100 22.31200
H  48.59000 28.30200 20.95900
H  50.15700 27.76500 21.61600
H  49.47500 29.32600 22.10200
H  50.35700 30.70900 25.91100
H  52.00400 30.29000 26.71800
H  50.95800 31.49500 27.37100
H  48.54200 29.64700 31.58200
H  50.36100 28.99900 35.32200
H  50.40000 30.73500 35.12700
H  51.78800 29.74200 34.71500
Mg 26.68300 50.32900 26.65500
C  24.66600 51.27300 29.25300
C  28.92800 49.04600 28.85400
C  28.86000 49.96500 24.19400
C  24.39800 51.83700 24.47600
N  26.68300 50.11500 28.75500
C  25.74400 50.52300 29.68500
C  26.22700 50.38800 31.15700
C  27.63000 49.81700 30.88500
C  27.74200 49.62000 29.44000
C  28.84000 50.55400 31.37600
C  25.26200 49.61800 32.02800
C  24.92800 50.29700 33.43200
H  25.96400 50.94700 34.32600
N  28.60100 49.39900 26.51100
C  29.35500 48.99500 27.56300
C  30.71600 48.74200 27.12100
C  30.67600 49.10100 25.74600
C  29.36100 49.56500 25.41600
C  31.89800 48.39200 28.04200
C  31.85800 49.18100 24.74900
O  31.70600 49.67800 23.64200
C  33.30500 48.89900 25.26600
N  26.71400 51.00900 24.57600
C  27.68300 50.53700 23.72600
C  27.30500 50.94800 22.28400
C  25.80000 51.39000 22.40300
C  25.57000 51.37100 23.95300
C  28.28000 51.90900 21.67200
C  24.78800 50.44800 21.66400
C  23.94600 51.06600 20.47000
N  24.92600 51.35800 26.76700
C  24.07400 51.92000 25.82600
C  23.03700 52.65000 26.40500
C  23.23900 52.46000 27.77900
C  24.39300 51.65000 27.94900
C  22.04800 53.56600 25.82200
C  22.80300 52.82100 29.03500
O  21.98500 53.70000 29.30400
C  23.75300 52.09600 30.11600
C  24.62200 53.21500 30.80700
O  25.52800 53.80800 30.25400
O  24.33600 53.37300 32.14500
C  25.14400 54.42400 32.81800
H  29.68500 48.68200 29.55300
H  29.51600 49.81900 23.33400
H  23.71100 52.31100 23.77200
H  26.35400 51.36900 31.61400
H  27.72500 48.95700 31.54800
H  29.62900 49.84200 31.62100
H  28.70600 51.07500 32.32400
H  29.25400 51.26900 30.66400
H  25.79400 48.71500 32.32700
H  24.37100 49.39200 31.44300
H  24.52500 49.43700 33.96600
H  24.10400 50.97900 33.22200
H  32.17900 47.33900 28.02300
H  31.54500 48.40700 29.07300
H  32.86700 48.88000 27.93600
H  33.95300 49.19800 24.44200
H  33.41100 47.89200 25.67200
H  33.51200 49.65300 26.02500
H  27.22000 50.00300 21.74800
H  25.74200 52.43800 22.11100
H  29.06500 51.76000 22.41300
H  27.94900 52.91400 21.40700
H  28.52700 51.45300 20.71400
H  24.06800 50.06500 22.38600
H  25.27000 49.65600 21.09000
H  23.79900 52.09700 20.79200
H  23.03500 50.48400 20.33200
H  24.52100 50.92100 19.55600
H  22.34400 54.57700 26.10100
H  21.09600 53.37500 26.31800
H  21.97800 53.37600 24.75100
H  23.15900 51.50300 30.81100
H  26.22800 54.36400 32.71700
H  24.73400 54.29500 33.82000
H  24.83200 55.38900 32.42000

