158

Mg 25.33700 1.32600 29.17800
C  27.41100 1.34500 32.13500
C  22.60000 1.35100 31.27400
C  23.52000 1.35300 26.43600
C  28.29500 0.73900 27.28400
N  25.08100 1.37200 31.47200
C  26.06200 1.55000 32.45800
C  25.40000 1.77700 33.79800
C  23.83800 1.61300 33.47800
C  23.83500 1.36300 31.99400
C  23.13800 0.37900 34.19200
C  25.72800 3.12700 34.48500
C  26.66100 3.10300 35.68300
H  26.20800 3.89200 36.87600
N  23.39200 1.26000 28.86500
C  22.39500 1.31600 29.82800
C  21.10500 1.36200 29.15500
C  21.28200 1.29000 27.77100
C  22.80700 1.36100 27.63300
C  19.81500 1.44400 29.99700
C  20.23900 1.37200 26.64200
O  20.54300 1.34000 25.42800
C  18.81500 1.45200 26.86700
N  25.85700 1.14200 27.16700
C  24.88000 1.32400 26.20100
C  25.54400 1.35000 24.75300
C  27.07900 1.09200 25.05200
C  27.13900 1.01800 26.56900
C  25.10700 0.36200 23.66800
C  27.93100 2.18100 24.31900
C  27.86100 3.60200 24.97300
N  27.39400 1.09100 29.60500
C  28.45200 0.84900 28.71800
C  29.69100 0.67200 29.48600
C  29.37700 0.85400 30.90900
C  27.98000 1.11700 30.83800
C  31.09800 0.44600 28.89800
C  29.81800 0.94800 32.23000
O  30.91800 0.76500 32.66200
C  28.60300 1.26900 33.14500
C  28.47300 0.20200 34.17200
O  27.93500 -0.89900 34.03900
O  29.02700 0.66300 35.31200
C  28.92000 -0.18600 36.46600
H  21.74700 1.44600 31.94900
H  22.88600 1.30600 25.54800
H  29.18800 0.44300 26.72900
H  25.64200 0.99300 34.51500
H  23.29000 2.54100 33.64400
H  22.09200 0.62100 34.37600
H  23.69700 0.36100 35.12700
H  23.06800 -0.54500 33.61800
H  24.80200 3.60500 34.80700
H  26.25900 3.63700 33.68200
H  27.54700 3.62500 35.32200
H  26.95800 2.11400 36.03200
H  18.86500 1.19600 29.52400
H  19.74800 2.42800 30.46100
H  19.87900 0.79700 30.87100
H  18.75000 2.42700 27.34800
H  18.50500 0.64200 27.52700
H  18.25200 1.49100 25.93400
H  25.34300 2.33700 24.33700
H  27.33300 0.09500 24.69100
H  24.44600 -0.37800 24.11900
H  25.98000 -0.14600 23.26000
H  24.49600 0.76000 22.85800
H  27.58600 2.21300 23.28600
H  28.95300 1.80200 24.33100
H  28.80600 3.90300 25.42300
H  27.03500 3.52100 25.68000
H  27.53100 4.44200 24.36200
H  31.26400 0.94200 27.94200
H  31.29500 -0.62300 28.81300
H  31.89700 0.79300 29.55400
H  28.74000 2.26300 33.57100
H  28.03300 0.18700 36.97800
H  29.74600 -0.17800 37.17700
H  28.76300 -1.26000 36.36900
Mg -4.24000 25.52700 26.89100
C  -2.94000 27.01500 29.76700
C  -6.24400 23.53700 28.84400
C  -4.84600 23.70900 24.04300
C  -1.91400 27.30200 25.04400
N  -4.56200 25.33700 29.12100
C  -3.87000 25.97600 30.13400
C  -4.49200 25.61700 31.53400
C  -5.35100 24.29600 31.20900
C  -5.40700 24.35500 29.65400
C  -4.67100 22.91100 31.71200
C  -5.45500 26.80000 32.01200
C  -5.60400 26.91300 33.54800
H  -5.31200 25.75400 34.59500
N  -5.41400 24.04200 26.51400
C  -6.22700 23.36800 27.43800
C  -7.16600 22.72600 26.63700
C  -6.84300 22.72600 25.29900
C  -5.60500 23.52300 25.23000
C  -8.20700 21.84200 27.27700
C  -7.57500 22.10700 24.13600
O  -7.25500 22.23100 23.01900
C  -8.91300 21.28600 24.29700
N  -3.45500 25.46800 24.88700
C  -3.77800 24.63900 23.89200
C  -2.94000 24.84700 22.59200
C  -2.18000 26.20300 22.88200
C  -2.54000 26.34500 24.38500
C  -1.99000 23.73800 22.20300
C  -2.79300 27.36700 22.02200
C  -1.95200 28.46100 21.48400
N  -2.78900 26.92500 27.25400
C  -1.99700 27.63700 26.43000
C  -1.25400 28.61700 27.12800
C  -1.54700 28.34200 28.44600
C  -2.51600 27.33900 28.48000
C  -0.27700 29.52800 26.54200
C  -1.37000 28.79300 29.79700
O  -0.61600 29.69900 30.18200
C  -2.18300 27.89400 30.74100
C  -1.42400 27.39300 31.83900
O  -0.42800 26.65200 31.83500
O  -1.94900 27.84500 33.00700
C  -1.44900 27.19500 34.22400
H  -6.75200 22.84300 29.51700
H  -5.02600 23.05800 23.18600
H  -1.14400 27.86500 24.51100
H  -3.68100 25.25900 32.16900
H  -6.33900 24.34300 31.66500
H  -4.23700 22.92800 32.71200
H  -3.92600 22.57800 30.98900
H  -5.39000 22.09200 31.69600
H  -6.46700 26.70800 31.61700
H  -5.15000 27.78100 31.64900
H  -6.60000 27.30900 33.75000
H  -4.95000 27.72300 33.87200
H  -7.88300 20.83100 27.02900
H  -9.13700 22.04500 26.74600
H  -8.35500 22.05100 28.33600
H  -9.74900 21.88800 24.65400
H  -8.74000 20.50500 25.03700
H  -9.16600 20.83200 23.33900
H  -3.68400 24.92400 21.79900
H  -1.09100 26.14900 22.87000
H  -1.01400 24.17700 22.41000
H  -2.12000 23.55300 21.13700
H  -2.17300 22.92400 22.90400
H  -3.66000 27.80400 22.51700
H  -3.19600 26.89700 21.12500
H  -0.92400 28.24800 21.77900
H  -2.16900 29.49400 21.75700
H  -1.91300 28.39700 20.39700
H  -0.36400 29.60800 25.45900
H  0.72800 29.22900 26.84100
H  -0.41100 30.52600 26.95900
H  -2.87800 28.63000 31.14500
H  -0.39400 27.39800 34.41000
H  -1.67600 26.13400 34.12500
H  -1.94700 27.62200 35.09500

