158

Mg 1.80700 -1.81700 43.58400
C  5.23500 -0.80200 43.94700
C  1.37500 0.97400 41.62000
C  -1.19900 -2.97800 43.00700
C  2.80300 -4.99400 44.91400
N  3.14600 -0.07000 42.84000
C  4.45300 0.02500 43.15200
C  5.04400 1.26700 42.46000
C  3.81100 1.94300 41.75400
C  2.70500 0.93100 42.03600
C  3.45300 3.35800 42.36200
C  6.21800 1.08700 41.45200
C  6.33500 -0.18700 40.59300
H  6.40800 0.18400 39.08000
N  0.18700 -1.06500 42.56700
C  0.21200 0.09600 41.81700
C  -1.14400 0.34000 41.35400
C  -1.94200 -0.77400 41.66100
C  -1.03100 -1.71900 42.41300
C  -1.46900 1.57200 40.56700
C  -3.42500 -0.98700 41.39900
O  -4.08400 -0.23400 40.70900
C  -4.15600 -2.18200 41.95700
N  0.99200 -3.81100 43.58000
C  -0.33900 -3.93000 43.56200
C  -0.80400 -5.23200 44.22200
C  0.51600 -5.93800 44.50700
C  1.48100 -4.81400 44.38600
C  -1.71500 -4.93400 45.48200
C  0.93500 -7.11600 43.62600
C  0.73700 -8.45900 44.38500
N  3.60600 -2.75700 44.35200
C  3.88100 -4.05300 44.79200
C  5.32200 -4.13700 45.25900
C  5.87800 -2.87200 44.94500
C  4.83400 -2.10100 44.33900
C  5.91000 -5.19100 46.08600
C  7.01900 -1.92400 45.07300
O  8.08900 -2.04600 45.62800
C  6.71400 -0.71400 44.26300
C  6.99000 0.52900 45.01500
O  6.52000 0.77300 46.08400
O  7.78200 1.43100 44.33100
C  7.81700 2.79700 44.89900
H  1.19600 1.86800 41.01800
H  -2.23600 -3.31700 42.95700
H  2.99700 -5.89500 45.49900
H  5.52700 1.88900 43.21400
H  3.96400 2.02500 40.67800
H  4.35000 3.85100 42.73600
H  2.63900 3.40300 43.08600
H  3.18700 4.02100 41.53900
H  7.17300 1.28300 41.94100
H  6.21300 1.89100 40.71700
H  5.46800 -0.81600 40.79500
H  7.24500 -0.64400 40.98200
H  -0.70600 1.77800 39.81700
H  -1.46100 2.43000 41.24000
H  -2.41500 1.41000 40.05000
H  -5.22600 -2.15900 41.75000
H  -4.09300 -2.06100 43.03800
H  -3.69800 -3.09900 41.58500
H  -1.45000 -5.77000 43.52800
H  0.43500 -6.24700 45.54900
H  -1.47700 -5.54700 46.35100
H  -2.72900 -5.22400 45.20500
H  -1.60500 -3.87200 45.70200
H  2.00000 -7.05000 43.40300
H  0.51200 -7.15000 42.62200
H  -0.02800 -8.38000 45.15700
H  1.70100 -8.70700 44.82800
H  0.44200 -9.32400 43.79200
H  6.28500 -5.98200 45.43700
H  5.11000 -5.57800 46.71800
H  6.79500 -4.88000 46.64100
H  7.45100 -0.77500 43.46200
H  6.84800 3.26300 44.72300
H  8.62400 3.36600 44.43600
H  8.07800 2.74200 45.95600
Mg 36.17600 49.33200 24.95000
C  36.29300 47.62200 27.96400
C  34.70900 52.04300 26.55900
C  35.87100 50.78600 21.94200
C  37.27400 46.34500 23.34900
N  35.60800 49.76400 27.04900
C  35.80600 48.92200 28.18200
C  35.47300 49.67300 29.48000
C  34.84100 51.02600 28.96100
C  35.05400 50.90600 27.39900
C  33.37800 51.33800 29.41300
C  36.84600 49.85600 30.29500
C  36.77800 49.30300 31.69600
H  36.30700 50.31400 32.71700
N  35.45900 51.15100 24.32300
C  34.97400 52.15000 25.12300
C  34.54200 53.29200 24.32400
C  34.95000 52.97400 22.98100
C  35.43400 51.59700 23.03000
C  34.09500 54.64500 24.92600
C  34.98300 53.80700 21.73000
O  35.42300 53.44500 20.62900
C  34.63100 55.27000 21.90100
N  36.48300 48.63800 22.95800
C  36.26300 49.44600 21.86400
C  36.76600 48.72600 20.51400
C  37.61000 47.58200 21.16100
C  37.04700 47.45600 22.60300
C  35.45700 48.24800 19.72400
C  39.17000 47.83600 21.16000
C  39.92500 47.25300 20.00700
N  36.75600 47.37800 25.49700
C  37.16400 46.26200 24.77500
C  37.44000 45.11600 25.65200
C  37.16800 45.62700 26.87500
C  36.73100 46.97900 26.75400
C  37.79200 43.68800 25.30400
C  37.26700 45.24000 28.29500
O  37.64700 44.20500 28.79300
C  36.68600 46.52500 29.05700
C  35.65200 46.12900 30.02900
O  34.41600 46.33200 29.97500
O  36.30400 45.52600 31.10900
C  35.34900 45.16700 32.20200
H  34.14700 52.77800 27.13900
H  35.56100 51.13700 20.95500
H  37.78600 45.60100 22.73600
H  34.77800 49.02200 30.01000
H  35.48800 51.84000 29.28700
H  32.65800 51.25800 28.59900
H  33.35700 52.33400 29.85600
H  32.96700 50.66500 30.16600
H  37.11800 50.90500 30.41100
H  37.61800 49.37100 29.69800
H  37.69600 48.74800 31.89100
H  36.05200 48.49000 31.67300
H  34.80500 55.39800 24.58500
H  34.01200 54.59700 26.01200
H  33.09200 54.87300 24.56300
H  33.64700 55.45000 22.33300
H  34.77000 55.67900 20.90000
H  35.37000 55.77000 22.52600
H  37.33200 49.41400 19.88700
H  37.44100 46.66900 20.58900
H  35.58300 47.19200 19.48200
H  35.15800 48.78000 18.82100
H  34.59400 48.23300 20.39000
H  39.68400 47.61200 22.09500
H  39.29700 48.90500 20.98900
H  39.36800 46.91700 19.13300
H  40.35900 46.32100 20.37000
H  40.64600 48.03300 19.76200
H  37.77200 43.60500 24.21700
H  37.14800 43.05100 25.90900
H  38.81400 43.51300 25.64100
H  37.50400 46.92300 29.65700
H  35.93900 45.18100 33.11900
H  34.80600 44.22200 32.20700
H  34.67800 45.99900 32.41600

