158

Mg 47.50400 14.71700 27.90300
C  45.37900 15.12500 30.57800
C  49.58900 17.07900 29.23800
C  49.18000 14.75100 25.06000
C  44.90500 12.90200 26.31500
N  47.36100 16.09300 29.67500
C  46.51900 15.92700 30.74800
C  47.09200 16.51300 32.03100
C  48.17100 17.43100 31.43400
C  48.42600 16.92100 29.98500
C  47.85600 18.93100 31.49100
C  47.54100 15.55700 33.09300
C  47.20500 15.98200 34.53500
H  48.40000 16.47000 35.34300
N  49.21600 15.65500 27.30900
C  49.93000 16.54300 28.01200
C  51.33200 16.67500 27.44000
C  51.20100 16.05600 26.10800
C  49.80200 15.45800 26.11000
C  52.54200 17.31200 28.17900
C  52.20600 16.03300 24.94500
O  51.97000 15.52900 23.87700
C  53.46200 16.85000 25.05200
N  47.07900 14.03200 26.05400
C  47.91700 14.18500 25.03500
C  47.45600 13.51100 23.74100
C  46.18900 12.72900 24.20100
C  46.00700 13.28000 25.58800
C  47.10100 14.42100 22.50500
C  46.47100 11.22300 24.14900
C  47.38900 10.53000 25.17400
N  45.50900 14.07200 28.34200
C  44.59200 13.26300 27.67500
C  43.48700 12.96700 28.53600
C  43.82600 13.61300 29.74300
C  45.00700 14.33300 29.53500
C  42.30500 12.11100 28.20700
C  43.29100 13.82600 31.07500
O  42.25000 13.45300 31.61800
C  44.35600 14.86500 31.68400
C  43.59700 16.10300 32.08700
O  43.31100 17.05800 31.38200
O  43.10000 15.93300 33.31000
C  42.47300 17.01300 33.99800
H  50.42900 17.59500 29.70800
H  49.67900 14.76100 24.08900
H  44.17300 12.26400 25.81600
H  46.27500 17.08500 32.47100
H  49.09700 17.29100 31.99000
H  47.68000 19.27500 30.47100
H  48.74800 19.45300 31.83700
H  46.98500 19.14600 32.11100
H  48.62200 15.41400 33.07400
H  47.12600 14.58200 32.83600
H  46.62400 15.23700 35.07800
H  46.63300 16.91000 34.54800
H  53.43800 16.77000 27.87800
H  52.25700 17.02100 29.18900
H  52.56300 18.40200 28.18600
H  54.07400 16.42700 25.84900
H  53.22700 17.89500 25.25500
H  53.93700 16.83900 24.07100
H  48.33300 12.94000 23.43700
H  45.27900 12.92600 23.63400
H  46.22600 13.97100 22.03500
H  47.96800 14.57800 21.86400
H  46.85000 15.32000 23.06800
H  46.82500 10.99700 23.14400
H  45.49300 10.75200 24.24700
H  47.66100 11.03000 26.10400
H  48.31800 10.17200 24.73000
H  46.85900 9.66200 25.56500
H  41.40100 12.65900 27.94100
H  42.03600 11.49200 29.06300
H  42.56100 11.57600 27.29300
H  44.72700 14.30600 32.54300
H  42.84000 17.98700 33.67500
H  42.76000 16.80000 35.02800
H  41.38700 16.92000 34.03000
Mg 29.93600 59.46700 39.37800
C  26.79700 58.06200 38.51800
C  31.43700 56.82600 38.28300
C  32.49800 61.46000 39.34600
C  28.01600 62.58200 39.86300
N  29.15200 57.73700 38.26000
C  27.91700 57.25400 38.22500
C  27.90100 55.84300 37.70700
C  29.32900 55.34300 38.12600
C  30.04100 56.71500 38.27600
C  29.34600 54.53400 39.44800
C  27.60700 55.73400 36.17000
C  26.66400 54.60600 35.71200
H  26.04400 54.76800 34.26300
N  31.72600 59.12500 38.91500
C  32.20500 57.95600 38.40800
C  33.65400 58.10600 38.28800
C  34.01200 59.39700 38.65600
C  32.72700 60.09000 39.00200
C  34.42000 56.90300 37.65500
C  35.42800 60.04300 38.72400
O  36.39600 59.42500 38.32800
C  35.84700 61.24600 39.48300
N  30.18500 61.73600 39.73600
C  31.41200 62.21800 39.58300
C  31.43400 63.68900 39.40600
C  30.07100 64.12800 39.94300
C  29.34800 62.71500 39.83500
C  32.54900 64.62800 39.91700
C  29.35000 65.28600 39.23700
C  28.54900 66.11600 40.28500
N  27.84900 60.17400 39.35600
C  27.24800 61.42200 39.66300
C  25.81600 61.31800 39.59600
C  25.61400 59.99400 39.14900
C  26.83500 59.34300 39.05600
C  24.70700 62.44100 39.71200
C  24.57100 59.00800 38.78800
O  23.33300 59.01700 38.77700
C  25.37100 57.72800 38.30100
C  24.97300 56.51000 39.11300
O  25.53100 56.15600 40.14900
O  24.07200 55.82100 38.43300
C  23.94100 54.45600 38.94800
H  32.06300 55.95100 38.09500
H  33.38500 62.09500 39.29900
H  27.36800 63.46000 39.87200
H  27.05400 55.30500 38.13300
H  29.82200 54.65900 37.43500
H  28.59100 54.93000 40.12700
H  30.35500 54.71500 39.81600
H  29.25100 53.45400 39.33700
H  28.55000 55.43500 35.71300
H  27.28500 56.70600 35.79700
H  25.83600 54.54200 36.41800
H  27.20000 53.65900 35.65500
H  34.51700 56.09500 38.38100
H  35.44000 57.15800 37.36500
H  33.77200 56.48800 36.88400
H  36.93500 61.31200 39.48400
H  35.31600 61.25200 40.43400
H  35.50300 62.08900 38.88400
H  31.54300 63.95000 38.35300
H  30.14800 64.32000 41.01300
H  32.85900 65.33700 39.14900
H  33.38000 64.08700 40.36800
H  32.11600 65.18800 40.74600
H  28.53000 65.03500 38.56400
H  30.05200 65.92600 38.70300
H  28.26900 66.94200 39.63300
H  29.09800 66.37000 41.19200
H  27.61600 65.58800 40.48800
H  24.24000 62.75200 38.77800
H  25.08700 63.34700 40.18500
H  23.93300 61.97700 40.32300
H  25.21000 57.61300 37.22900
H  23.27500 53.82800 38.35600
H  23.42300 54.36700 39.90300
H  24.94100 54.02500 38.99900

