158

Mg 50.23200 35.04400 26.23100
C  48.09600 33.62600 28.71300
C  50.18300 37.98800 28.09500
C  52.09800 36.51600 23.77100
C  49.75400 32.26200 24.28400
N  49.28000 35.69700 28.12700
C  48.54000 34.89800 29.00200
C  48.29200 35.63400 30.31700
C  48.82300 37.08000 30.03500
C  49.48300 36.94000 28.65600
C  47.82800 38.26400 30.18500
C  49.23600 34.90000 31.38500
C  48.73100 34.68400 32.81700
H  47.47200 35.52000 33.31000
N  51.03000 36.98800 25.99500
C  50.89500 38.03400 26.89000
C  51.67800 39.13100 26.44300
C  52.34400 38.75500 25.23700
C  51.89400 37.37500 24.93700
C  51.75700 40.42700 27.15900
C  53.30900 39.53400 24.37600
O  53.82000 39.06000 23.37300
C  53.66600 40.93900 24.72800
N  50.75400 34.58000 24.20500
C  51.58100 35.26800 23.39900
C  51.78500 34.50500 22.08600
C  51.46600 33.08400 22.53000
C  50.53900 33.33400 23.69300
C  51.05200 35.11200 20.87000
C  52.72500 32.22300 22.99200
C  53.49300 31.47200 21.88500
N  49.20700 33.24600 26.47000
C  49.08400 32.23300 25.56000
C  48.30700 31.13000 26.14400
C  47.79200 31.68300 27.33000
C  48.46100 32.93500 27.52700
C  48.08000 29.75000 25.51900
C  46.99500 31.39600 28.45800
O  46.45200 30.31900 28.70400
C  47.13300 32.60400 29.38400
C  47.62700 31.96800 30.67400
O  48.59000 31.24000 30.79500
O  46.59200 32.03500 31.54600
C  46.66100 31.18400 32.73900
H  50.13600 38.84900 28.76600
H  52.74300 37.03400 23.05800
H  49.93500 31.29500 23.80900
H  47.22600 35.75000 30.51100
H  49.70200 37.21900 30.66400
H  46.97900 37.83300 30.71600
H  47.51600 38.66800 29.22100
H  48.34400 38.97300 30.83300
H  50.13300 35.50300 31.52400
H  49.44700 33.90900 30.98400
H  49.47000 34.99300 33.55600
H  48.48700 33.62400 32.87700
H  52.81900 40.49500 27.39500
H  51.16900 40.60500 28.06000
H  51.38300 41.21500 26.50500
H  52.77900 41.56300 24.83600
H  54.38900 41.40100 24.05600
H  54.12600 40.93000 25.71600
H  52.85000 34.60100 21.87400
H  51.01200 32.39900 21.81400
H  50.48400 34.24900 20.52100
H  51.67700 35.37100 20.01500
H  50.50900 36.04400 21.02600
H  52.33900 31.54400 23.75100
H  53.42600 32.83000 23.56600
H  54.55700 31.68900 21.98800
H  53.05200 31.66700 20.90700
H  53.26100 30.41200 21.97900
H  48.79300 29.34100 24.80300
H  47.09100 29.62600 25.07800
H  48.07500 29.14900 26.42800
H  46.14100 33.02600 29.54300
H  45.86600 31.52500 33.40200
H  47.59600 31.21900 33.29800
H  46.32600 30.19300 32.43400
Mg 42.56700 41.19500 26.39500
C  41.48400 43.38400 28.95500
C  43.81900 39.02100 28.87300
C  43.92600 39.31400 23.91000
C  41.50700 43.57600 24.06500
N  42.86800 41.35400 28.67300
C  42.10200 42.19400 29.42900
C  42.07000 41.78900 30.91700
C  42.89000 40.39000 30.84200
C  43.29400 40.27100 29.39700
C  44.00500 40.25000 31.88200
C  40.67400 41.61600 31.55100
C  40.38400 42.19900 32.95000
H  39.83300 41.19800 34.02400
N  43.75400 39.52900 26.36300
C  44.11700 38.76500 27.45200
C  44.81900 37.60000 26.98500
C  44.89700 37.70800 25.54800
C  44.10400 38.94600 25.17200
C  45.48600 36.56200 27.90800
C  45.60900 36.67800 24.64700
O  45.59300 36.77900 23.43400
C  46.34100 35.51500 25.16800
N  42.85700 41.50900 24.36100
C  43.31100 40.49500 23.55000
C  43.13700 40.82900 22.08000
C  42.12300 42.01400 22.11600
C  42.09100 42.35700 23.62300
C  44.40300 41.16700 21.28900
C  40.75900 41.56500 21.46800
C  39.97500 40.38800 22.07200
N  41.69500 43.11700 26.39900
C  41.35800 43.96400 25.39800
C  40.98600 45.24200 25.96900
C  40.85600 45.01900 27.36500
C  41.40800 43.72700 27.57500
C  40.56400 46.43400 25.25300
C  40.48900 45.62700 28.63100
O  40.02400 46.74500 28.88900
C  40.84300 44.57600 29.68700
C  41.61500 45.25700 30.78400
O  42.65500 45.81600 30.72000
O  40.73100 45.37200 31.84700
C  41.28400 46.08500 33.06500
H  44.21000 38.34400 29.63500
H  44.14100 38.69600 23.03600
H  41.04600 44.21400 23.30800
H  42.64800 42.56600 31.41800
H  42.20200 39.59400 31.12600
H  44.99300 40.42800 31.45600
H  43.93100 39.28800 32.38800
H  43.83300 41.08800 32.55800
H  40.29300 40.59500 31.57100
H  39.95600 42.05000 30.85600
H  39.58900 42.91700 32.75000
H  41.28900 42.70800 33.28300
H  44.81400 35.70500 27.87200
H  45.48300 36.79400 28.97300
H  46.48200 36.51500 27.46700
H  47.25300 35.86300 25.65300
H  46.64300 34.84300 24.36500
H  45.75800 34.83500 25.78900
H  42.75100 39.99500 21.49400
H  42.46700 42.93600 21.64800
H  45.31200 40.94900 21.84900
H  44.43900 42.19400 20.92500
H  44.56100 40.41800 20.51400
H  40.92100 41.41400 20.40100
H  40.11700 42.43900 21.35800
H  39.53600 39.79900 21.26700
H  39.15500 40.85300 22.61900
H  40.63200 39.79700 22.71100
H  40.52200 47.31000 25.90000
H  39.69100 46.42900 24.60100
H  41.42600 46.59500 24.60600
H  39.83900 44.32700 30.03200
H  42.09500 46.78900 32.87700
H  41.57000 45.43700 33.89300
H  40.52300 46.82600 33.31000

