158

Mg 42.67600 42.29100 25.88900
C  41.54200 44.46800 28.45200
C  43.87100 40.15500 28.18300
C  44.15300 40.69200 23.32300
C  41.66800 44.81400 23.54900
N  42.91900 42.44500 28.16100
C  42.21400 43.29800 28.99900
C  42.30900 42.83700 30.46300
C  43.15800 41.52800 30.33200
C  43.30000 41.34300 28.78900
C  44.49400 41.58700 31.09200
C  41.05800 42.67600 31.21600
C  41.28700 42.06600 32.62100
H  40.92500 43.00600 33.88200
N  43.71500 40.55600 25.73000
C  44.11700 39.77700 26.77200
C  44.62600 38.58300 26.32900
C  44.97900 38.80000 24.92900
C  44.33100 40.08300 24.59100
C  45.04100 37.45000 27.21500
C  45.66400 37.87200 23.87400
O  46.11800 38.32700 22.81400
C  46.00500 36.38400 24.28400
N  42.97700 42.75800 23.78900
C  43.56600 41.87100 22.96700
C  43.47300 42.28700 21.50600
C  42.25000 43.32300 21.60900
C  42.33300 43.69900 23.04700
C  44.73300 42.91300 20.88800
C  40.85100 42.85400 21.07100
C  40.13800 41.82100 21.99700
N  41.93000 44.25900 25.95000
C  41.45400 45.10800 24.95100
C  40.85900 46.25500 25.52000
C  40.80600 46.01300 26.87500
C  41.48300 44.78600 27.09500
C  40.39300 47.44800 24.68900
C  40.40000 46.53900 28.18100
O  39.86800 47.57900 28.59300
C  40.73800 45.44700 29.22600
C  41.61400 46.11700 30.33600
O  42.77700 46.24100 30.28500
O  40.88600 46.40000 31.39600
C  41.58500 46.83200 32.59500
H  44.19700 39.37300 28.87200
H  44.56100 40.24200 22.41600
H  41.16700 45.49600 22.85800
H  43.03900 43.52600 30.88800
H  42.54300 40.72200 30.73300
H  44.62500 42.49800 31.67600
H  45.35000 41.58900 30.41700
H  44.63300 40.77100 31.80100
H  40.35100 42.17600 30.55400
H  40.89900 43.73400 31.42300
H  42.26900 41.62600 32.79500
H  40.60700 41.21500 32.60400
H  46.11900 37.31800 27.11600
H  44.61000 36.57400 26.73100
H  44.60800 37.52700 28.21200
H  46.40500 35.73900 23.50100
H  45.11400 35.91400 24.70000
H  46.62800 36.50300 25.17000
H  43.07300 41.49700 20.87000
H  42.45600 44.24900 21.07300
H  44.41200 43.80300 20.34600
H  45.30300 42.27500 20.21300
H  45.35400 43.08400 21.76800
H  41.08400 42.51600 20.06100
H  40.26000 43.77000 21.06500
H  39.41100 42.41600 22.55000
H  40.83800 41.30300 22.65200
H  39.68500 40.97500 21.47900
H  39.86300 48.12900 25.35500
H  39.61800 47.18300 23.97000
H  41.21500 47.83700 24.08900
H  39.74500 45.15100 29.56400
H  41.49200 46.02200 33.31800
H  41.01400 47.70800 32.90100
H  42.62000 47.12300 32.41600
Mg 9.71100 48.28100 25.80500
C  7.38700 48.54900 28.48000
C  12.23300 49.29000 27.84400
C  11.70800 48.11400 23.16600
C  6.95500 47.54000 23.69400
N  9.76800 48.83400 27.89800
C  8.77200 48.78100 28.85900
C  9.16700 49.16000 30.22100
C  10.64000 49.71200 29.90600
C  10.92600 49.22300 28.45400
C  10.99800 51.17300 30.25300
C  9.15800 47.92700 31.24700
C  8.67600 48.18400 32.68400
H  8.59900 47.04400 33.69100
N  11.68700 48.59400 25.56200
C  12.58100 48.97500 26.52900
C  13.94400 48.89200 26.01800
C  13.79800 48.59600 24.62500
C  12.33600 48.43100 24.37100
C  15.21600 49.16300 26.84100
C  14.94800 48.31900 23.58000
O  14.69200 48.06300 22.44800
C  16.40900 48.17900 24.09000
N  9.35400 48.00600 23.75300
C  10.34900 48.00500 22.88300
C  9.98500 47.48800 21.48500
C  8.44300 47.27800 21.72800
C  8.22900 47.65300 23.14600
C  10.31500 48.45400 20.29100
C  8.01600 45.76100 21.44300
C  8.67100 44.74000 22.40000
N  7.56700 48.05700 25.97200
C  6.58100 47.75600 25.05600
C  5.25000 47.71400 25.65700
C  5.59500 47.96900 27.00500
C  6.95600 48.21300 27.13700
C  3.95800 47.33200 25.09000
C  4.98400 48.00800 28.29300
O  3.81200 47.89700 28.67600
C  6.09900 48.43800 29.31200
C  6.10500 47.37900 30.34500
O  6.51300 46.24400 30.09000
O  5.48000 47.76800 31.50500
C  5.08400 46.65900 32.38700
H  12.93900 49.72300 28.55600
H  12.37600 47.82300 22.35200
H  6.23000 47.07200 23.02500
H  8.66700 49.97500 30.74400
H  11.35900 49.13800 30.49000
H  11.65300 51.25300 31.12100
H  10.07300 51.68200 30.52200
H  11.35500 51.67700 29.35500
H  10.17400 47.72200 31.58600
H  8.68500 46.97900 30.99300
H  7.76300 48.77900 32.65400
H  9.37200 48.91000 33.10300
H  14.92100 49.46500 27.84600
H  15.83000 49.93700 26.38000
H  15.80600 48.24700 26.86700
H  16.46500 47.58500 25.00200
H  16.72900 49.17000 24.41100
H  17.01400 47.81500 23.25900
H  10.56000 46.57700 21.32000
H  7.76400 47.91300 21.15900
H  10.76200 49.37300 20.67200
H  9.45900 48.85700 19.75000
H  11.01300 47.95500 19.61900
H  8.33000 45.52800 20.42500
H  6.93800 45.60500 21.39700
H  8.95700 45.24900 23.32100
H  9.56800 44.35800 21.91400
H  8.04800 43.90800 22.72800
H  3.53400 46.36300 25.35300
H  4.08900 47.28100 24.00900
H  3.09500 47.95700 25.31900
H  5.91800 49.37300 29.84200
H  4.09300 46.81900 32.81200
H  5.76000 46.55200 33.23600
H  5.15300 45.66600 31.94200

