158

Mg 17.64300 -2.82600 27.60600
C  16.31700 -0.99000 30.28900
C  19.83700 -4.34000 29.87400
C  19.42500 -3.97300 25.07100
C  15.64100 -0.85200 25.41300
N  18.07500 -2.58600 29.76900
C  17.33700 -1.85700 30.67900
C  17.74800 -2.12800 32.09100
C  19.08500 -2.97100 31.88700
C  18.99000 -3.37700 30.37100
C  20.39000 -2.20500 32.27600
C  16.65900 -2.85700 32.94100
C  16.74300 -2.53400 34.48100
H  18.02100 -2.03800 35.22100
N  19.23500 -4.17900 27.53500
C  19.96700 -4.77200 28.51700
C  20.73900 -5.82100 27.89500
C  20.76600 -5.65200 26.48300
C  19.74600 -4.56200 26.32200
C  21.51500 -6.84900 28.76100
C  21.53500 -6.41900 25.32700
O  21.39700 -6.13800 24.15300
C  22.30000 -7.67000 25.67400
N  17.62700 -2.34200 25.61800
C  18.44500 -2.98900 24.68500
C  18.37200 -2.31100 23.27700
C  16.85400 -1.77000 23.43000
C  16.69300 -1.66000 24.88300
C  19.42100 -1.14700 22.97600
C  15.72500 -2.73100 22.89100
C  14.60600 -2.09300 22.02100
N  16.20600 -1.23000 27.75700
C  15.42700 -0.57300 26.80100
C  14.47600 0.23200 27.45300
C  14.80200 0.10200 28.85300
C  15.91200 -0.74600 28.98700
C  13.62400 1.23500 26.82900
C  14.66800 0.72800 30.15600
O  14.13100 1.79000 30.44000
C  15.43500 -0.09800 31.18800
C  16.14000 0.85600 32.07600
O  17.06000 1.57900 31.76100
O  15.44700 1.02400 33.32000
C  15.80600 2.20600 34.08300
H  20.33400 -4.84200 30.70700
H  19.99600 -4.33100 24.21200
H  14.80100 -0.49600 24.81200
H  17.94200 -1.14500 32.51900
H  18.98400 -3.81100 32.57500
H  21.01700 -2.77900 32.95800
H  20.05300 -1.40900 32.94000
H  20.89500 -1.75100 31.42300
H  16.74700 -3.94300 32.91300
H  15.70800 -2.49700 32.54700
H  16.32900 -3.34800 35.07400
H  16.13300 -1.63400 34.55300
H  22.50700 -7.01300 28.34000
H  20.87700 -7.71400 28.94200
H  21.81200 -6.55000 29.76600
H  22.46700 -8.06500 24.67200
H  21.68900 -8.42300 26.17100
H  23.24200 -7.37900 26.13900
H  18.37800 -3.06800 22.49300
H  16.89700 -0.77600 22.98500
H  19.04700 -0.51300 22.17200
H  20.46500 -1.43500 22.84800
H  19.50500 -0.57500 23.90000
H  15.24600 -3.30800 23.68200
H  16.28700 -3.40400 22.24300
H  14.75700 -1.03500 21.80300
H  13.65900 -2.24000 22.54100
H  14.68200 -2.75000 21.15500
H  13.39100 1.91800 27.64500
H  12.65900 0.87900 26.46600
H  14.12700 1.70000 25.98000
H  14.75400 -0.52700 31.92300
H  15.09900 2.34700 34.90100
H  15.78100 3.15900 33.55400
H  16.79500 2.22300 34.54200
Mg -8.87800 40.22600 42.47400
C  -7.92900 36.99300 41.57500
C  -6.27100 41.47400 40.57500
C  -10.09700 43.22700 42.98600
C  -11.70000 38.90200 44.06200
N  -7.31800 39.26900 41.09300
C  -7.04800 37.96700 40.99600
C  -5.77300 37.68000 40.12500
C  -5.25400 39.14400 39.77600
C  -6.35100 40.05600 40.50300
C  -3.81100 39.47800 40.13300
C  -6.01100 36.81500 38.92800
C  -4.86100 35.80000 38.63600
H  -3.92000 36.11800 37.40400
N  -8.16800 42.13000 41.89900
C  -7.04700 42.45400 41.14700
C  -6.91800 43.92800 41.07800
C  -8.14800 44.45700 41.61900
C  -8.90200 43.27000 42.22200
C  -5.83500 44.62600 40.30100
C  -8.59600 45.94000 41.65600
O  -7.94200 46.79300 41.02600
C  -9.81400 46.40800 42.23100
N  -10.79300 41.02900 43.19200
C  -10.95800 42.31500 43.51800
C  -12.31300 42.59100 44.24200
C  -12.62000 41.13400 44.77900
C  -11.63700 40.29700 43.91200
C  -12.15300 43.64400 45.39100
C  -14.17200 40.74900 44.59100
C  -14.85200 40.24800 45.89100
N  -9.74400 38.35800 42.85200
C  -10.87100 37.94900 43.44800
C  -10.96200 36.55200 43.52400
C  -9.84000 36.08600 42.76600
C  -9.14100 37.22100 42.33600
C  -12.15000 35.75400 44.06700
C  -9.01400 34.90200 42.33500
O  -9.19400 33.73800 42.60800
C  -7.81300 35.44800 41.51300
C  -6.53900 34.94500 42.11800
O  -6.17400 35.26000 43.24000
O  -5.92000 34.17100 41.18100
C  -4.58000 33.62700 41.50900
H  -5.34200 41.59200 40.01500
H  -10.45500 44.21700 43.27600
H  -12.64000 38.62700 44.54300
H  -5.01900 37.30400 40.81600
H  -5.28000 39.38200 38.71200
H  -3.27600 38.53200 40.21800
H  -3.82900 39.95100 41.11500
H  -3.38800 40.02800 39.29300
H  -6.16800 37.41200 38.03000
H  -6.97600 36.31900 39.03600
H  -5.25500 34.81900 38.36800
H  -4.24400 35.71500 39.53000
H  -5.38600 45.26200 41.06300
H  -6.25500 45.17100 39.45600
H  -5.07200 43.87100 40.10900
H  -9.82700 47.48300 42.04900
H  -9.70500 46.30000 43.31000
H  -10.57700 46.04900 41.54100
H  -13.16500 42.91900 43.64800
H  -12.27400 41.00600 45.80400
H  -12.16200 43.26900 46.41500
H  -13.02000 44.25400 45.13800
H  -11.20900 44.16500 45.23300
H  -14.31300 40.03600 43.77900
H  -14.80800 41.59100 44.31700
H  -15.24300 39.26400 45.62900
H  -15.58600 40.92500 46.32700
H  -14.16400 40.06200 46.71500
H  -12.76200 36.39400 44.70300
H  -11.78000 34.91900 44.66100
H  -12.86100 35.40800 43.31600
H  -8.03600 35.11500 40.50000
H  -4.46800 33.03400 42.41600
H  -3.86800 34.44900 41.58100
H  -4.32100 33.08600 40.59800

