158

Mg -1.98700 17.35500 26.47400
C  -2.50800 15.01500 29.11300
C  -2.78000 19.84400 28.72500
C  -1.67000 19.41500 23.99000
C  -1.54600 14.53300 24.33500
N  -2.45500 17.36200 28.72600
C  -2.63400 16.33100 29.55200
C  -3.09900 16.85300 30.95500
C  -3.45000 18.37800 30.65700
C  -2.87900 18.59400 29.28900
C  -4.99600 18.67400 30.77800
C  -2.03000 16.59300 32.02700
C  -2.61100 16.10500 33.34200
H  -1.66800 15.89900 34.45500
N  -2.06000 19.39300 26.43000
C  -2.26900 20.24900 27.46800
C  -1.96500 21.61200 27.01200
C  -1.70100 21.43000 25.60800
C  -1.83700 20.03600 25.26900
C  -2.01200 22.77400 27.88800
C  -1.28800 22.47100 24.61900
O  -0.96300 22.27300 23.41400
C  -1.09200 23.79500 25.08900
N  -1.82500 16.97900 24.43200
C  -1.64600 18.03100 23.56500
C  -1.39500 17.57300 22.15600
C  -1.13400 16.07800 22.38100
C  -1.63700 15.84800 23.80200
C  -2.50800 17.91900 21.12900
C  0.36400 15.63200 22.14100
C  1.33500 15.52900 23.40300
N  -2.12800 15.20400 26.58200
C  -1.93500 14.19800 25.61900
C  -2.25500 12.91600 26.22700
C  -2.45300 13.15900 27.54400
C  -2.30800 14.57600 27.76500
C  -2.17300 11.62900 25.57900
C  -2.70600 12.53900 28.82600
O  -2.82000 11.38800 29.20800
C  -2.77400 13.70600 29.89400
C  -1.63000 13.49000 30.90400
O  -0.45500 13.75700 30.68300
O  -2.05100 12.87400 32.03500
C  -1.21800 12.63000 33.20100
H  -2.89500 20.65400 29.44700
H  -1.43700 20.06000 23.14000
H  -1.32000 13.70700 23.65800
H  -4.03100 16.29600 31.05400
H  -2.93500 19.00600 31.38300
H  -5.38100 19.30500 29.97800
H  -5.24000 19.17200 31.71700
H  -5.62300 17.79000 30.65700
H  -1.58600 17.56400 32.24600
H  -1.11000 16.06900 31.76600
H  -3.02900 15.15000 33.02500
H  -3.32500 16.87200 33.64000
H  -2.29300 22.50300 28.90500
H  -2.83300 23.44200 27.62700
H  -1.10100 23.36800 27.96100
H  -1.96200 24.20800 25.59900
H  -0.99800 24.41200 24.19500
H  -0.13400 23.92000 25.59300
H  -0.48800 18.06900 21.80800
H  -1.81200 15.45800 21.79400
H  -3.13500 18.73200 21.49500
H  -3.17400 17.06500 21.00200
H  -2.03300 18.15900 20.17800
H  0.87800 16.38600 21.54600
H  0.31400 14.73400 21.52600
H  0.87900 16.03800 24.25200
H  2.31600 16.00000 23.34400
H  1.50200 14.45900 23.53000
H  -1.17800 11.33700 25.24300
H  -2.79800 11.53300 24.69100
H  -2.51700 10.89300 26.30500
H  -3.70700 13.70600 30.45700
H  -1.60400 13.33200 33.94100
H  -0.14200 12.68200 33.04000
H  -1.41700 11.61500 33.54400
Mg 42.18700 41.09800 27.05300
C  41.36300 43.35000 29.45300
C  43.00800 38.71300 29.12200
C  42.91500 38.99300 24.34600
C  41.29500 43.52300 24.58500
N  42.40000 41.15900 29.11900
C  41.93700 42.12900 29.95800
C  41.96200 41.70600 31.45300
C  42.58300 40.17800 31.31100
C  42.64500 39.96600 29.77200
C  43.86900 39.81500 32.00400
C  40.58600 41.88600 32.22000
C  40.58200 42.71800 33.56100
H  39.85400 42.12400 34.78400
N  42.97200 39.15500 26.79800
C  43.21700 38.31500 27.83300
C  43.65900 37.01700 27.32100
C  43.80900 37.11100 25.94800
C  43.25000 38.51100 25.63500
C  43.90100 35.85200 28.29000
C  44.34800 36.21000 24.89900
O  44.69200 36.56300 23.76300
C  44.67600 34.85000 25.24600
N  42.14400 41.26500 24.76600
C  42.29300 40.19200 23.97400
C  42.04900 40.54300 22.46500
C  41.51900 42.04100 22.54000
C  41.60700 42.30800 24.06200
C  43.34700 40.43400 21.46300
C  40.11200 42.24800 21.91700
C  40.11400 42.25400 20.41900
N  41.62200 43.07300 26.97400
C  41.22900 43.86000 25.88500
C  40.68900 45.11600 26.40600
C  40.71400 44.95600 27.78900
C  41.33000 43.73100 28.10200
C  40.10700 46.27200 25.60500
C  40.38700 45.59300 28.98400
O  39.88600 46.73000 29.23800
C  40.77900 44.55700 30.18400
C  41.71600 45.07200 31.16100
O  42.89200 45.18500 31.01800
O  41.08100 45.47700 32.27400
C  41.88300 46.22600 33.22600
H  43.08000 37.88300 29.82800
H  42.91700 38.23400 23.56100
H  40.79400 44.23500 23.92600
H  42.80400 42.19500 31.94300
H  41.89500 39.37700 31.58300
H  43.94900 40.44100 32.89300
H  44.73800 39.86000 31.34900
H  43.87600 38.76900 32.31000
H  40.23900 40.87900 32.45200
H  39.88500 42.36600 31.53600
H  39.97100 43.61900 33.50400
H  41.57600 43.04900 33.86200
H  43.41200 34.96800 27.88000
H  43.62600 36.02400 29.33100
H  44.97400 35.69100 28.39200
H  45.07900 34.81500 26.25800
H  45.39400 34.31800 24.62200
H  43.68100 34.40900 25.29500
H  41.33800 39.79000 22.12600
H  42.11500 42.72800 21.94000
H  44.29600 40.40400 21.99800
H  43.41000 41.31200 20.82000
H  43.23600 39.52200 20.87600
H  39.78200 43.19400 22.34800
H  39.40700 41.49100 22.26100
H  39.50200 43.08300 20.06600
H  39.62600 41.37300 20.00000
H  41.05700 42.38500 19.88900
H  39.22000 45.97900 25.04300
H  40.77400 46.55300 24.79000
H  40.03900 47.17200 26.21500
H  39.82000 44.24800 30.60100
H  41.19900 46.73700 33.90300
H  42.44000 46.98700 32.68000
H  42.44500 45.42700 33.70900

