158

Mg 9.22200 48.36300 26.07400
C  7.17900 48.61100 28.94800
C  11.89400 49.51100 28.11200
C  11.23400 48.17000 23.39400
C  6.55600 47.81900 24.18700
N  9.52700 48.87000 28.30600
C  8.54600 48.79500 29.26600
C  9.15600 49.11700 30.66500
C  10.41200 49.88000 30.25200
C  10.65500 49.39900 28.78600
C  10.48700 51.44100 30.42000
C  9.41300 47.88400 31.67800
C  8.92300 48.12400 33.09700
H  8.98000 46.90100 34.09700
N  11.28100 48.83100 25.79200
C  12.16600 49.27500 26.81200
C  13.42000 49.39900 26.14000
C  13.26200 49.03200 24.78500
C  11.86700 48.60400 24.59600
C  14.72800 49.84700 26.91600
C  14.30900 49.05700 23.65100
O  13.95500 48.67400 22.53200
C  15.72100 49.42100 23.95400
N  8.95500 48.08100 24.12300
C  9.91100 47.99200 23.16400
C  9.36700 47.65900 21.76300
C  7.83200 47.62400 22.02500
C  7.79500 47.85100 23.57400
C  9.77800 48.60500 20.58000
C  7.17900 46.22500 21.57500
C  5.74200 46.27500 21.10200
N  7.22100 48.21100 26.44400
C  6.18100 48.03400 25.51700
C  4.93700 48.06400 26.13300
C  5.28500 48.21900 27.52600
C  6.68700 48.33000 27.64200
C  3.57300 47.79800 25.45100
C  4.75900 48.30600 28.82600
O  3.57700 48.26500 29.17300
C  5.92900 48.56500 29.81500
C  5.84600 47.53000 30.80900
O  6.39200 46.42100 30.81400
O  4.97900 47.94200 31.81500
C  4.77900 46.94700 32.86200
H  12.71600 49.83600 28.75400
H  11.82400 48.13900 22.47500
H  5.72700 47.84700 23.47700
H  8.55200 49.84000 31.21300
H  11.26800 49.61900 30.87300
H  10.44800 51.87800 29.42200
H  11.38500 51.75500 30.95100
H  9.70800 51.86000 31.05600
H  10.46600 47.60300 31.67900
H  8.71700 47.10600 31.36500
H  7.88100 48.44200 33.05700
H  9.46700 48.98200 33.49200
H  14.70700 49.76800 28.00300
H  15.04400 50.86600 26.69400
H  15.50000 49.14700 26.59600
H  15.60700 50.28500 24.60800
H  16.30500 49.79800 23.11500
H  16.08900 48.51800 24.44200
H  9.60600 46.63600 21.47400
H  7.28500 48.50200 21.68200
H  9.07800 48.65500 19.74700
H  10.65300 48.04800 20.24600
H  9.95800 49.63800 20.87900
H  7.24800 45.54500 22.42500
H  7.87100 45.89200 20.80200
H  5.16800 45.80700 21.90200
H  5.57800 45.74300 20.16500
H  5.28900 47.26600 21.06400
H  3.42600 48.66600 24.80800
H  2.75500 47.64700 26.15600
H  3.60500 46.90900 24.82100
H  5.67400 49.54100 30.22800
H  3.94400 47.17500 33.52600
H  5.67900 47.08200 33.46300
H  4.59300 45.94000 32.49000
Mg 0.48700 43.73400 26.34700
C  2.91900 43.35100 28.94800
C  -1.94600 42.90500 28.68100
C  -1.59300 43.44300 23.88800
C  3.23200 43.94300 24.09800
N  0.58500 43.29300 28.56100
C  1.58500 43.23000 29.36900
C  1.14900 43.10400 30.88800
C  -0.24500 42.51400 30.65700
C  -0.58200 42.92800 29.23300
C  -0.21600 40.86500 30.78900
C  1.12500 44.49900 31.51300
C  1.47700 44.56300 32.99800
H  1.09600 43.43000 33.91700
N  -1.52900 43.35400 26.31800
C  -2.36900 43.06200 27.36700
C  -3.66300 43.05900 26.84700
C  -3.60700 43.07600 25.45300
C  -2.26000 43.30400 25.13700
C  -4.81600 43.13900 27.78200
C  -4.82000 42.98200 24.40100
O  -4.66000 43.32000 23.22800
C  -6.25700 42.75100 24.85500
N  0.79700 43.52400 24.31800
C  -0.26400 43.48800 23.48400
C  0.19200 43.22000 22.05000
C  1.70300 43.59000 22.08600
C  1.95600 43.61700 23.62200
C  -0.05700 41.74700 21.62100
C  1.94400 44.96300 21.44500
C  2.51500 44.95200 20.02000
N  2.66500 43.80000 26.48800
C  3.57500 43.96500 25.47600
C  4.94200 43.99200 26.00400
C  4.71300 43.88800 27.38300
C  3.39200 43.59400 27.58500
C  6.16700 43.99400 25.24700
C  5.31400 43.77600 28.73500
O  6.50100 43.82700 28.96900
C  4.24700 43.41700 29.82000
C  4.53700 42.20000 30.52400
O  4.46700 41.05800 30.06500
O  4.87700 42.53800 31.81100
C  5.30400 41.51600 32.71400
H  -2.74200 42.74100 29.41000
H  -2.31400 43.27700 23.08600
H  3.97800 44.07000 23.31000
H  1.87600 42.43900 31.35400
H  -0.95300 42.85600 31.41200
H  -0.80200 40.61400 31.67200
H  0.78300 40.43200 30.73800
H  -0.74600 40.41900 29.94700
H  0.19700 45.03800 31.32000
H  1.85400 45.03500 30.90500
H  1.04700 45.45700 33.45000
H  2.55000 44.73300 33.08800
H  -5.11600 42.14600 28.11600
H  -5.62300 43.64300 27.25000
H  -4.57800 43.68100 28.69700
H  -6.90400 42.47300 24.02300
H  -6.60600 43.75400 25.10000
H  -6.22400 41.90700 25.54500
H  -0.42500 43.85400 21.41200
H  2.42600 42.90400 21.64500
H  0.74200 41.08200 21.94800
H  -0.34200 41.59300 20.58100
H  -0.93300 41.35500 22.13800
H  2.69600 45.58200 21.93400
H  0.98600 45.46400 21.30600
H  1.74500 45.17200 19.28100
H  2.81500 43.94000 19.74700
H  3.31300 45.67500 19.84600
H  6.22400 44.96000 24.74600
H  6.15100 43.18600 24.51500
H  7.10500 44.03900 25.80200
H  4.12300 44.24200 30.52100
H  6.32100 41.12400 32.68300
H  4.67000 40.63300 32.63700
H  5.10600 41.99100 33.67500

