158

Mg 47.57800 25.56100 28.14300
C  48.80100 27.65000 30.68200
C  46.90000 23.21500 30.49300
C  47.06200 23.44600 25.68000
C  49.24400 27.65500 25.74700
N  47.98600 25.39600 30.31900
C  48.27900 26.43900 31.18000
C  47.98600 26.06600 32.68900
C  47.53900 24.53000 32.59800
C  47.45100 24.34600 31.03900
C  48.60200 23.64600 33.28300
C  47.11200 27.12700 33.43300
C  46.24600 26.65700 34.60000
H  46.16300 27.61300 35.71400
N  46.96200 23.57000 28.07300
C  46.69800 22.76200 29.14500
C  46.11600 21.50000 28.67000
C  46.14900 21.55800 27.28500
C  46.71700 22.90600 26.90200
C  45.63700 20.50400 29.60500
C  45.59100 20.54900 26.33200
O  45.62800 20.75900 25.13200
C  45.03100 19.19100 26.93100
N  48.30800 25.48000 25.99000
C  47.76400 24.51900 25.21300
C  48.05600 24.73500 23.69900
C  48.68400 26.20400 23.73900
C  48.73600 26.50700 25.21700
C  48.96800 23.66100 23.04300
C  47.99700 27.28500 22.88900
C  48.68500 27.82900 21.60600
N  48.68300 27.32700 28.14500
C  49.21500 28.09200 27.14200
C  49.74700 29.30300 27.75400
C  49.62500 29.14600 29.10800
C  48.98500 27.97100 29.33300
C  50.50300 30.46500 27.02200
C  49.85700 29.87000 30.40600
O  50.35000 30.96400 30.65800
C  49.29300 28.87200 31.44700
C  50.48500 28.51200 32.29200
O  51.27000 27.61100 32.06200
O  50.40700 29.22700 33.44500
C  51.30000 28.88200 34.55600
H  46.72600 22.55200 31.34300
H  46.77000 22.91500 24.77200
H  49.85700 28.27500 25.09000
H  48.93900 26.31000 33.15700
H  46.60900 24.41900 33.15500
H  49.29300 24.25100 33.87200
H  49.21400 23.09600 32.56800
H  48.16500 22.93000 33.97900
H  46.56200 27.65800 32.65600
H  47.78000 27.87900 33.85300
H  46.55900 25.69000 34.99200
H  45.25700 26.49600 34.17100
H  46.41500 19.74200 29.65600
H  44.61900 20.24700 29.31300
H  45.30700 20.89400 30.56800
H  45.78700 18.77300 27.59600
H  44.87200 18.53800 26.07300
H  44.09600 19.30400 27.48000
H  47.08600 24.67800 23.20500
H  49.74300 26.21400 23.48000
H  49.72500 24.19200 22.46500
H  48.34600 23.14600 22.31200
H  49.38600 23.01500 23.81600
H  47.86400 28.18500 23.48900
H  47.06200 26.87500 22.50700
H  48.96300 28.87700 21.70900
H  47.87400 27.83900 20.87700
H  49.53900 27.28300 21.20500
H  49.90500 30.98400 26.27200
H  51.45600 30.11800 26.62400
H  50.71100 31.17500 27.82300
H  48.44100 29.18300 32.05200
H  50.83300 28.03000 35.05200
H  51.36800 29.74000 35.22500
H  52.28900 28.64400 34.16600
Mg 1.96800 41.63000 25.22500
C  2.72200 41.77500 28.71600
C  -1.04800 40.36800 26.10000
C  1.49900 40.84600 21.97200
C  5.16300 42.95600 24.57200
N  1.02300 41.01200 27.18100
C  1.43800 41.24400 28.49100
C  0.33900 41.01600 29.52800
C  -0.81500 40.49500 28.66700
C  -0.28000 40.64700 27.20800
C  -1.30400 39.01600 28.91900
C  -0.01300 42.26200 30.42600
C  0.09500 41.86800 31.88800
H  -0.77100 40.76900 32.50500
N  0.44100 40.79200 24.16800
C  -0.74000 40.37700 24.69500
C  -1.62600 39.88500 23.57800
C  -0.88000 40.10600 22.38600
C  0.43800 40.55800 22.82800
C  -3.02100 39.23300 23.72300
C  -1.29500 39.82600 20.93400
O  -0.65300 40.24600 19.97300
C  -2.54300 39.14900 20.61300
N  3.25900 41.85000 23.47800
C  2.83600 41.36100 22.23600
C  3.81900 41.85300 21.17600
C  4.90400 42.72000 21.96900
C  4.42400 42.48800 23.41900
C  4.47900 40.67500 20.36800
C  4.88700 44.29100 21.47300
C  3.87500 45.26200 22.12300
N  3.64300 42.32700 26.39500
C  4.83400 42.90200 25.94100
C  5.66000 43.19200 27.09000
C  4.81000 42.70600 28.15800
C  3.61500 42.21500 27.72000
C  7.03600 43.72900 27.10900
C  4.89600 42.55100 29.59400
O  5.75700 42.84800 30.40300
C  3.54800 41.82200 29.94600
C  3.78700 40.53200 30.51600
O  4.43600 39.60300 29.94500
O  3.27900 40.43900 31.77500
C  3.47700 39.24100 32.60100
H  -2.00800 39.90100 26.33000
H  1.38600 40.75200 20.89000
H  6.08000 43.50000 24.33700
H  0.70200 40.16100 30.09900
H  -1.67000 41.14200 28.86800
H  -0.83400 38.54500 29.78200
H  -1.06400 38.39700 28.05500
H  -2.38300 39.05900 29.06600
H  -0.96100 42.75600 30.21000
H  0.61000 43.15300 30.33500
H  0.20200 42.79500 32.45200
H  1.07500 41.41200 32.02700
H  -3.73000 39.66800 23.01900
H  -3.32700 39.35500 24.76200
H  -2.99000 38.16000 23.53400
H  -3.41100 39.79400 20.75100
H  -2.61400 38.24400 21.21600
H  -2.43200 38.95900 19.54600
H  3.15600 42.48000 20.58000
H  5.90600 42.31600 21.82100
H  5.48900 40.49300 20.73700
H  4.46500 41.09000 19.36000
H  3.76700 39.86000 20.49800
H  4.73900 44.28600 20.39300
H  5.86000 44.73400 21.68500
H  3.33600 45.58700 21.23300
H  4.35600 46.08000 22.65800
H  3.20300 44.88500 22.89400
H  7.19700 44.15300 26.11800
H  7.74700 42.91100 27.22700
H  7.10300 44.46900 27.90800
H  3.07800 42.51000 30.64900
H  4.29900 39.64500 33.19300
H  3.67500 38.26500 32.15900
H  2.46600 39.14200 32.99700

