158

Mg 48.03700 16.41100 28.68200
C  46.09400 16.16900 31.64100
C  50.33500 18.17300 30.39600
C  49.54800 16.70600 25.74200
C  45.18400 14.83700 27.06500
N  48.14300 17.11300 30.73500
C  47.31900 16.83700 31.78800
C  47.82400 17.32500 33.16300
C  49.04100 18.22000 32.70000
C  49.20900 17.82900 31.16300
C  48.98600 19.73000 33.03600
C  48.11000 16.03400 34.06800
C  47.94200 16.14700 35.61600
H  47.49400 17.50000 36.22900
N  49.76700 17.20900 28.13200
C  50.62200 17.90800 29.00200
C  51.90100 18.15300 28.32900
C  51.72900 17.70500 26.95700
C  50.37200 17.19600 26.91400
C  53.18400 18.74000 29.06300
C  52.69200 17.72700 25.87800
O  52.38100 17.26400 24.78400
C  54.06700 18.19600 26.07400
N  47.45000 15.75900 26.75600
C  48.30000 16.12200 25.69100
C  47.64200 15.71600 24.33900
C  46.34500 14.96800 24.75400
C  46.31400 15.19000 26.26600
C  47.52200 16.82600 23.35800
C  46.25700 13.41600 24.50500
C  46.04600 12.95600 23.06400
N  46.14900 15.53300 29.29100
C  45.12000 14.98200 28.45000
C  43.94600 14.78300 29.25800
C  44.30100 15.18000 30.53000
C  45.59500 15.67300 30.47500
C  42.57700 14.25700 28.69000
C  43.75600 15.28900 31.83000
O  42.66500 14.99800 32.38400
C  45.01900 15.77800 32.64600
C  44.57700 16.96100 33.36900
O  44.13800 18.00700 32.87600
O  44.45100 16.60700 34.70700
C  43.50300 17.24100 35.66300
H  51.07600 18.75000 30.95400
H  50.03200 16.71100 24.76300
H  44.34000 14.51200 26.45300
H  46.96800 17.86600 33.56700
H  49.94000 17.78200 33.13400
H  48.86700 20.44100 32.21800
H  49.86200 19.96600 33.64000
H  48.08400 19.89000 33.62600
H  49.13100 15.73500 33.83100
H  47.48500 15.23200 33.67500
H  48.91400 15.91600 36.05300
H  47.17400 15.38000 35.71100
H  53.93800 17.95900 29.15300
H  53.05400 19.05700 30.09700
H  53.47100 19.61900 28.48700
H  54.61500 18.04400 25.14400
H  54.38500 17.56100 26.90200
H  54.01700 19.25700 26.32000
H  48.33700 15.04000 23.84100
H  45.49100 15.51700 24.35800
H  48.21200 16.62800 22.53800
H  47.89800 17.71900 23.85800
H  46.48900 17.00200 23.06000
H  45.77000 12.85400 25.30200
H  47.26700 13.07200 24.72700
H  46.49000 11.96900 22.93000
H  46.47100 13.66400 22.35300
H  44.96200 12.93300 22.95200
H  42.20000 14.77100 27.80600
H  41.87000 14.45100 29.49800
H  42.68400 13.19100 28.48900
H  45.25500 14.99700 33.36700
H  42.80500 16.43800 35.89800
H  42.88800 17.98100 35.15000
H  43.90800 17.60100 36.60900
Mg 34.73300 48.63300 26.06400
C  35.52000 46.72400 28.80500
C  33.52700 51.13500 28.26500
C  33.84500 50.43300 23.47400
C  35.84100 46.07800 24.00500
N  34.52500 48.89500 28.26300
C  35.08000 48.01500 29.18000
C  34.92100 48.53100 30.62800
C  34.08100 49.85300 30.44200
C  34.09600 49.96600 28.87500
C  32.62200 49.83700 31.05400
C  36.35100 48.75200 31.33500
C  36.58400 48.45300 32.81500
H  36.18200 49.62700 33.74100
N  33.86000 50.46600 25.90500
C  33.43300 51.34400 26.89300
C  32.96400 52.54100 26.28300
C  33.03400 52.33600 24.86900
C  33.72400 51.07500 24.73500
C  32.44200 53.73100 27.11100
C  32.51200 53.30800 23.74200
O  32.56500 53.01000 22.55600
C  31.88000 54.60300 24.18800
N  34.78300 48.28400 23.99600
C  34.34200 49.20200 23.06600
C  34.47800 48.72900 21.63500
C  35.29400 47.36100 21.88500
C  35.40000 47.24400 23.39000
C  33.08100 48.44000 20.98900
C  36.67300 47.22800 21.14700
C  36.90700 45.84200 20.56400
N  35.42000 46.73900 26.25000
C  35.81400 45.83800 25.37500
C  36.26300 44.62100 26.07100
C  36.26000 45.01600 27.42300
C  35.74100 46.29300 27.52200
C  36.82200 43.35400 25.54200
C  36.59100 44.54800 28.77900
O  37.01000 43.45500 29.15300
C  36.11500 45.61500 29.70900
C  35.18600 45.13900 30.74500
O  33.95900 45.10100 30.66900
O  35.86200 44.86300 31.86200
C  35.09800 44.81800 33.06600
H  33.28700 51.74700 29.13600
H  33.62300 50.98300 22.55700
H  36.29100 45.27300 23.42200
H  34.28700 47.86200 31.20900
H  34.58700 50.70600 30.89300
H  31.84300 50.41900 30.56200
H  32.80200 50.24100 32.05000
H  32.28000 48.80400 31.12000
H  36.60000 49.78900 31.11000
H  37.15900 48.15200 30.91500
H  37.64700 48.42900 33.05500
H  35.99800 47.58700 33.12100
H  32.89200 54.65100 26.74000
H  32.80200 53.80800 28.13700
H  31.35400 53.78700 27.13100
H  32.71200 55.19600 24.56800
H  31.20000 54.42300 25.02000
H  31.34200 55.13200 23.40100
H  35.08300 49.54400 21.23600
H  34.71500 46.44200 21.80600
H  32.83200 47.38900 20.84000
H  33.10500 48.87200 19.98900
H  32.30000 48.91800 21.58100
H  37.43400 47.39000 21.91000
H  36.68600 47.94200 20.32400
H  37.94200 45.66100 20.27500
H  36.19100 45.79100 19.74400
H  36.69600 45.04600 21.27800
H  36.22200 42.52300 25.91200
H  37.89700 43.29400 25.71400
H  36.76800 43.36200 24.45300
H  36.97800 46.01900 30.23800
H  34.53100 45.74900 33.05300
H  35.75000 44.66500 33.92600
H  34.46900 43.92800 33.08200

