158

Mg 35.06500 3.48300 29.30100
C  32.64200 4.37600 31.71700
C  37.27300 2.93500 31.85900
C  37.19500 2.31600 27.07100
C  32.69100 3.96700 26.87500
N  34.94000 3.79200 31.48200
C  33.87800 4.22900 32.29300
C  34.28200 4.24800 33.80300
C  35.84800 4.10100 33.75600
C  36.10600 3.62200 32.25500
C  36.66900 5.36500 33.99700
C  33.62600 3.17700 34.73400
C  33.26900 3.56700 36.23700
H  34.06800 4.83700 36.69500
N  36.99800 2.74800 29.42900
C  37.69400 2.47200 30.58600
C  38.95700 1.84500 30.27600
C  39.01000 1.62900 28.82100
C  37.68900 2.20200 28.37200
C  40.08400 1.61100 31.27200
C  40.09600 1.06000 27.88300
O  39.98900 1.10400 26.64300
C  41.36400 0.49400 28.32700
N  34.93700 3.14000 27.28400
C  36.03400 2.80300 26.55400
C  35.81100 3.06700 25.00900
C  34.25100 3.25800 24.96600
C  33.93200 3.46300 26.45900
C  36.50000 4.32500 24.49900
C  33.46500 2.11800 24.29500
C  32.96000 0.94500 25.03700
N  33.04100 4.09900 29.22600
C  32.23300 4.25500 28.13700
C  30.97000 4.83300 28.58200
C  31.08100 4.77800 30.00500
C  32.38300 4.31600 30.30400
C  29.85900 5.19400 27.66000
C  30.34600 4.93900 31.26800
O  29.16600 5.23300 31.43400
C  31.33800 4.65000 32.40700
C  31.41600 5.90000 33.23100
O  31.88000 6.97800 32.90300
O  30.85800 5.70600 34.52600
C  30.80600 6.88400 35.38900
H  37.81000 2.62100 32.75700
H  37.82400 1.87000 26.29800
H  31.92700 4.07400 26.10100
H  34.03500 5.24900 34.15700
H  36.14000 3.37300 34.51200
H  37.00600 5.72800 33.02600
H  37.55800 5.09100 34.56600
H  36.12500 6.19400 34.45000
H  34.19500 2.25700 34.87000
H  32.77900 2.75300 34.19400
H  33.62100 2.73200 36.84300
H  32.20000 3.64300 36.43300
H  39.59300 1.54100 32.24300
H  40.65200 2.53800 31.35100
H  40.61800 0.67000 31.13800
H  42.04800 1.14700 28.87000
H  41.90600 0.39300 27.38700
H  41.15100 -0.50400 28.71000
H  36.13200 2.13900 24.53600
H  34.06100 4.16800 24.39600
H  35.92800 5.16700 24.10800
H  37.05100 3.78100 23.73200
H  37.19700 4.67100 25.26300
H  34.08500 1.78800 23.46200
H  32.59100 2.62500 23.88800
H  33.38100 0.96900 26.04200
H  33.34000 -0.01000 24.67600
H  31.87300 0.86900 25.08200
H  29.12100 5.76100 28.22800
H  29.36900 4.24300 27.45100
H  30.14900 5.57300 26.68000
H  30.98700 3.88700 33.10100
H  31.76200 7.40600 35.43700
H  30.50800 6.47000 36.35200
H  30.10300 7.63600 35.03100
Mg 27.66800 58.65100 42.21700
C  25.74500 56.15900 40.54200
C  30.42200 57.42300 40.65000
C  29.23900 61.17200 43.55000
C  24.48400 60.07200 43.22600
N  27.97100 57.05500 40.64200
C  27.10400 56.09500 40.18300
C  27.87300 54.94000 39.45000
C  29.33600 55.28400 39.76300
C  29.24900 56.70000 40.44800
C  30.21500 54.17100 40.43900
C  27.54300 54.85200 37.90800
C  27.14600 53.55800 37.17400
H  26.82600 53.55800 35.65100
N  29.63600 59.26900 42.12000
C  30.62900 58.63700 41.41000
C  31.83700 59.31600 41.64200
C  31.60900 60.41000 42.57600
C  30.15700 60.39800 42.80100
C  33.21100 58.89300 41.04500
C  32.60600 61.35400 43.15200
O  33.81900 61.18300 43.05600
C  32.14800 62.61400 43.86800
N  26.94100 60.33600 43.29500
C  27.87300 61.27000 43.58900
C  27.09800 62.50300 44.24700
C  25.58200 62.15900 44.19600
C  25.64700 60.77200 43.50200
C  27.49900 62.90600 45.70300
C  24.63000 63.18500 43.54500
C  23.96100 64.12100 44.51600
N  25.51000 58.21700 42.03600
C  24.38200 58.84900 42.53500
C  23.18700 58.11600 42.15800
C  23.69500 57.11700 41.34800
C  25.09500 57.21900 41.31600
C  21.80300 58.24200 42.66900
C  23.30400 55.90500 40.66000
O  22.17000 55.41300 40.48200
C  24.60200 55.20200 40.17700
C  24.75700 53.87800 40.86900
O  24.98900 53.66300 42.04300
O  24.54800 52.76200 40.00300
C  24.35700 51.43900 40.49400
H  31.37200 57.00600 40.31000
H  29.75500 61.96700 44.09100
H  23.49700 60.49100 43.43100
H  27.54700 54.08600 40.04400
H  29.82400 55.47400 38.80700
H  31.26800 54.30900 40.19400
H  29.89500 53.16300 40.17300
H  30.14900 54.18600 41.52700
H  28.32700 55.34400 37.33200
H  26.62100 55.41500 37.76300
H  26.33300 53.09600 37.73400
H  27.85300 52.73000 37.22600
H  33.78100 58.15400 41.60700
H  33.86000 59.75300 40.88200
H  32.91200 58.49600 40.07500
H  31.49500 63.16500 43.19100
H  32.89200 63.35700 44.15400
H  31.60700 62.35400 44.77800
H  27.35600 63.34200 43.60100
H  25.24900 62.01600 45.22400
H  28.06400 63.83700 45.74500
H  28.06700 62.16000 46.25900
H  26.66100 63.02500 46.38900
H  23.92700 62.67200 42.88900
H  25.13600 63.81500 42.81300
H  24.05500 65.14600 44.16000
H  24.50100 64.03100 45.45900
H  22.97000 63.70100 44.69100
H  21.13300 58.75500 41.97900
H  21.71100 58.79600 43.60300
H  21.37500 57.25100 42.82600
H  24.66700 55.00800 39.10700
H  24.13200 50.73800 39.69000
H  23.49600 51.35700 41.15700
H  25.23100 50.96800 40.94400

