158

Mg 25.73600 -6.31900 48.41100
C  27.33800 -3.65900 46.82600
C  23.22300 -6.17300 46.08400
C  24.55300 -9.13200 49.59200
C  28.75300 -6.80600 50.17500
N  25.39600 -5.08700 46.61100
C  26.12200 -4.03600 46.19000
C  25.65500 -3.53500 44.82800
C  24.24200 -4.16000 44.74900
C  24.25700 -5.23400 45.89500
C  23.12500 -3.08500 44.93400
C  26.63500 -3.92000 43.68600
C  26.97000 -2.85900 42.64000
H  25.95600 -2.71500 41.47300
N  24.10500 -7.49600 47.92500
C  23.14300 -7.20700 47.01500
C  22.06500 -8.16900 47.08600
C  22.44800 -9.12200 48.05200
C  23.70800 -8.58500 48.60300
C  20.78600 -8.17000 46.32800
C  21.71300 -10.43000 48.32400
O  20.89200 -10.89700 47.50200
C  22.20200 -11.43600 49.35000
N  26.49400 -7.61500 49.83300
C  25.85400 -8.76700 50.06500
C  26.67400 -9.83600 50.92500
C  28.07700 -9.06300 51.02000
C  27.77700 -7.77900 50.28200
C  26.08100 -10.19200 52.31000
C  29.19100 -9.88500 50.30800
C  29.41700 -11.39300 50.78300
N  27.64000 -5.37600 48.58300
C  28.71800 -5.65900 49.42000
C  29.76100 -4.66700 49.15900
C  29.27100 -3.83900 48.17300
C  27.97600 -4.35200 47.83300
C  31.12200 -4.66400 49.75100
C  29.46200 -2.62600 47.38600
O  30.34400 -1.83400 47.41300
C  28.30300 -2.60600 46.37500
C  27.76800 -1.23900 46.44300
O  27.73000 -0.43900 45.48000
O  27.39300 -0.98400 47.76300
C  27.21600 0.34600 48.20900
H  22.33200 -6.12200 45.45500
H  24.16000 -10.04800 50.03800
H  29.74400 -6.92000 50.62100
H  25.60000 -2.45000 44.73200
H  24.09400 -4.66000 43.79200
H  22.90000 -2.44500 44.08100
H  23.57800 -2.52100 45.74900
H  22.18400 -3.56800 45.19700
H  26.18600 -4.74700 43.13700
H  27.59200 -4.26500 44.07700
H  27.93600 -3.04400 42.17000
H  26.94200 -1.88500 43.12800
H  20.47300 -7.26300 45.81000
H  19.91500 -8.55000 46.86200
H  20.80800 -8.89500 45.51400
H  23.08700 -11.92400 48.94200
H  21.50000 -12.26900 49.38200
H  22.36200 -11.05000 50.35700
H  26.79800 -10.78200 50.39800
H  28.26800 -8.91600 52.08400
H  25.67100 -11.20200 52.33200
H  25.32000 -9.44100 52.52400
H  26.87700 -10.17700 53.05400
H  30.15600 -9.39500 50.43100
H  29.06700 -9.82100 49.22600
H  30.48800 -11.50900 50.95000
H  29.23400 -12.14000 50.01100
H  28.87500 -11.57200 51.71200
H  31.88400 -4.14000 49.17400
H  31.42400 -5.67800 50.01400
H  31.05500 -4.03500 50.63900
H  28.81000 -2.73100 45.41800
H  27.33700 1.03700 47.37600
H  28.04100 0.55700 48.89000
H  26.23900 0.50400 48.66700
Mg 53.66900 23.74800 44.79800
C  51.19300 26.26800 44.14900
C  51.53800 21.52800 43.18500
C  56.02700 21.70000 45.19200
C  55.53900 26.26100 46.27100
N  51.69300 23.99800 43.64300
C  50.93900 25.12400 43.41900
C  49.82500 24.71900 42.42800
C  49.76000 23.23400 42.58400
C  51.10300 22.88000 43.08600
C  48.49500 22.60400 43.36200
C  50.23200 25.17900 41.02600
C  49.09100 25.41500 40.08000
H  49.41900 25.86900 38.67100
N  53.75900 21.81500 44.31000
C  52.79100 21.03400 43.78100
C  53.21700 19.66600 43.87400
C  54.49500 19.65700 44.49900
C  54.84900 21.12100 44.74100
C  52.39600 18.56100 43.35300
C  55.33700 18.35500 44.79500
O  54.91000 17.21900 44.51500
C  56.62700 18.35300 45.39600
N  55.62600 24.05200 45.27500
C  56.44700 22.97400 45.41900
C  57.88500 23.37100 45.81600
C  57.65500 24.87600 46.21900
C  56.16900 25.06500 45.91400
C  58.64000 22.58400 46.94000
C  58.62500 25.75600 45.38100
C  59.66300 26.67200 46.17300
N  53.47000 25.90600 45.15200
C  54.29200 26.70300 45.88500
C  53.71000 28.07300 45.94400
C  52.46600 27.92000 45.27200
C  52.35300 26.55100 44.90600
C  54.32600 29.20200 46.73300
C  51.29400 28.64200 44.92200
O  50.97600 29.79700 45.05100
C  50.39800 27.57900 44.22200
C  49.95900 28.12400 42.95900
O  50.68600 28.67300 42.12300
O  48.58600 27.96200 42.80700
C  48.07700 28.80300 41.70600
H  50.86700 20.84500 42.66100
H  56.74000 20.88100 45.30400
H  56.15000 27.08300 46.64900
H  48.87500 25.09800 42.80400
H  49.64900 22.79000 41.59400
H  47.72200 23.36900 43.43700
H  48.80900 22.26400 44.34900
H  48.05400 21.73400 42.87600
H  51.02200 24.55600 40.60700
H  50.77800 26.11900 41.11800
H  48.50100 26.20300 40.54900
H  48.49700 24.50800 39.96800
H  52.38800 18.52800 42.26400
H  51.35400 18.76200 43.60400
H  52.57700 17.62000 43.87300
H  56.46500 18.74600 46.40000
H  57.11700 19.01300 44.68100
H  57.01500 17.34000 45.50100
H  58.47300 23.18100 44.91800
H  57.80400 24.99800 47.29100
H  58.71200 23.08700 47.90400
H  59.61700 22.33100 46.52700
H  58.09300 21.65300 47.08700
H  58.04600 26.52600 44.87100
H  59.07600 25.15600 44.59100
H  60.69500 26.37400 45.99200
H  59.44500 26.88800 47.21900
H  59.57800 27.63800 45.67500
H  54.96900 29.83500 46.12100
H  54.78900 28.76400 47.61700
H  53.41100 29.66500 47.10300
H  49.50600 27.40200 44.82300
H  48.15400 28.34700 40.71900
H  48.50000 29.80600 41.63800
H  47.01700 29.05200 41.75700

