158

Mg 5.67700 54.56100 41.21800
C  5.20800 50.87900 40.58000
C  8.64300 54.16400 39.74000
C  5.68600 57.68500 41.26500
C  2.41300 54.35500 42.54500
N  6.69400 52.74100 40.17200
C  6.38600 51.37400 40.03700
C  7.55800 50.68400 39.41300
C  8.80200 51.70300 39.51900
C  7.97800 52.95800 39.79600
C  9.81800 51.32700 40.61800
C  7.36700 50.00300 38.00400
C  6.37200 50.70400 37.00300
H  5.68000 49.74400 35.98000
N  6.93700 55.76700 40.39400
C  8.21100 55.44500 39.86700
C  8.91700 56.61100 39.58000
C  8.11000 57.72000 40.07200
C  6.83700 57.07600 40.61300
C  10.35300 56.69200 39.13000
C  8.56800 59.15300 40.10300
O  9.64500 59.52900 39.62100
C  7.76800 60.26000 40.80900
N  4.25000 55.85600 41.84900
C  4.49900 57.14300 41.72700
C  3.28900 57.96800 42.24300
C  2.20200 56.91200 42.64900
C  3.04800 55.62800 42.40900
C  3.70100 58.86900 43.38500
C  0.87800 57.00600 41.79300
C  0.87000 56.39100 40.38100
N  4.15600 52.96800 41.69500
C  2.89000 53.10000 42.24000
C  2.24000 51.76100 42.29900
C  3.21700 50.91100 41.69700
C  4.27800 51.71100 41.24400
C  0.82300 51.46900 42.68400
C  3.40500 49.56700 41.24400
O  2.63500 48.60700 41.25100
C  4.72800 49.46400 40.60900
C  4.55500 48.69100 39.34900
O  3.96200 48.96500 38.28500
O  5.14500 47.44700 39.54700
C  5.01300 46.46000 38.46200
H  9.61600 54.12200 39.24600
H  5.65300 58.77300 41.17700
H  1.40600 54.39800 42.96500
H  7.77700 49.90800 40.14700
H  9.37200 51.89600 38.61000
H  9.70900 50.26500 40.83800
H  9.60300 51.96600 41.47500
H  10.85100 51.56000 40.35800
H  6.88500 49.06800 38.28800
H  8.31100 49.92200 37.46500
H  7.10300 51.28700 36.44100
H  5.65500 51.34800 37.51200
H  10.92300 56.80400 40.05200
H  10.51100 57.52500 38.44400
H  10.57200 55.73900 38.64800
H  8.40000 61.08200 41.14800
H  7.45100 59.92100 41.79500
H  7.03000 60.60300 40.08400
H  2.86300 58.57000 41.44100
H  1.97900 57.09600 43.70000
H  3.44600 59.88100 43.06800
H  4.76200 59.06600 43.53900
H  3.17600 58.65500 44.31600
H  0.68300 58.07700 41.74100
H  0.13800 56.64100 42.50500
H  0.71800 57.08000 39.55000
H  -0.00700 55.74800 40.30700
H  1.75500 55.76600 40.26900
H  0.27300 52.38700 42.89100
H  0.71000 50.74600 43.49200
H  0.38900 50.99300 41.80500
H  5.37700 48.90200 41.28200
H  5.86500 45.78900 38.57400
H  5.16500 46.90700 37.47900
H  4.17900 45.75900 38.49900
Mg 16.98900 51.59700 25.60500
C  18.57400 50.15200 28.45900
C  14.21800 52.08600 27.45100
C  15.58400 52.50400 22.86800
C  19.83400 50.54100 23.72500
N  16.57700 51.30500 27.73900
C  17.37100 50.75900 28.71700
C  16.73000 51.18500 30.11000
C  15.23200 51.40100 29.71000
C  15.26000 51.65000 28.20400
C  14.36400 50.10100 30.01200
C  17.28100 52.47000 30.81600
C  16.86900 52.89100 32.24100
H  15.81400 52.03500 33.01100
N  15.19300 52.28100 25.23000
C  14.14900 52.46500 26.12200
C  13.07400 53.13500 25.45700
C  13.48200 53.35700 24.14600
C  14.75200 52.73100 24.04200
C  11.61300 53.30000 25.97500
C  12.69500 54.05700 22.95400
O  13.10600 54.27900 21.82000
C  11.39500 54.62000 23.24300
N  17.72300 51.53500 23.56200
C  16.86000 51.95200 22.66900
C  17.41600 51.82400 21.24700
C  18.79900 51.22900 21.47300
C  18.85600 51.19600 23.01700
C  16.63500 50.89100 20.29000
C  20.04600 51.96500 20.86600
C  20.31600 53.34400 21.50500
N  18.91200 50.68400 25.95500
C  19.90500 50.26900 25.11100
C  20.93100 49.55700 25.87000
C  20.41100 49.46300 27.21400
C  19.22300 50.13700 27.21500
C  22.06300 48.87600 25.21800
C  20.70300 48.88400 28.46700
O  21.62400 48.20600 28.83200
C  19.61300 49.49000 29.42500
C  19.05500 48.51500 30.40400
O  18.38300 47.51300 30.10900
O  19.08900 49.06800 31.70800
C  18.55700 48.10900 32.66000
H  13.29900 52.17000 28.03500
H  15.10300 52.85700 21.95400
H  20.61100 50.13100 23.07800
H  16.84100 50.32900 30.77700
H  14.82700 52.34400 30.07900
H  13.76900 50.43800 30.86100
H  14.94700 49.23300 30.32100
H  13.79300 49.81800 29.12800
H  16.98400 53.32400 30.20800
H  18.37000 52.42300 30.79100
H  16.54100 53.92700 32.16400
H  17.75500 52.82700 32.87200
H  11.08800 54.25100 25.88700
H  11.76500 53.17800 27.04700
H  10.97800 52.53200 25.53300
H  11.46500 55.58500 23.74600
H  10.75600 53.85500 23.68300
H  10.96600 54.71200 22.24500
H  17.40400 52.85800 20.90400
H  18.87000 50.22600 21.05200
H  17.25800 50.33800 19.58800
H  15.86700 51.44000 19.74500
H  16.12300 50.11100 20.85300
H  19.85900 52.18300 19.81500
H  20.90800 51.30400 20.78700
H  20.30700 54.23700 20.88000
H  21.32100 53.27600 21.92200
H  19.59100 53.49800 22.30400
H  22.86800 49.61100 25.23600
H  21.93000 48.54800 24.18700
H  22.20200 47.99900 25.84900
H  20.11800 50.22300 30.05400
H  17.57100 47.82100 32.29700
H  18.42600 48.61600 33.61600
H  19.23400 47.25700 32.70800

