158

Mg 30.38900 57.96900 40.09300
C  27.67800 55.78200 39.29400
C  32.57600 55.39800 38.96900
C  32.93900 60.07500 40.22000
C  28.08300 60.39100 40.66700
N  30.13700 55.88600 39.13300
C  28.95400 55.20700 39.00700
C  29.23300 53.81700 38.48000
C  30.80800 53.72000 38.54100
C  31.19500 55.09700 38.94500
C  31.39800 52.66700 39.53900
C  28.69400 53.51900 37.05800
C  28.92200 54.56500 35.92000
H  27.71700 54.82600 34.93200
N  32.47000 57.67000 39.76800
C  33.12800 56.62700 39.28500
C  34.53200 56.95800 39.10500
C  34.69100 58.26000 39.62900
C  33.29700 58.73700 39.88800
C  35.62100 56.01400 38.63700
C  36.06300 59.00700 39.89400
O  37.13800 58.41000 39.91400
C  36.01000 60.50900 40.30500
N  30.47800 60.02400 40.35100
C  31.66200 60.73500 40.32300
C  31.40500 62.28800 40.48500
C  29.91900 62.34800 40.76100
C  29.42100 60.84000 40.56900
C  32.22500 62.90600 41.67800
C  29.15400 63.42900 39.97000
C  28.75500 64.64000 40.76300
N  28.28200 58.09500 40.17900
C  27.49700 59.14600 40.49100
C  26.09000 58.84900 40.35300
C  26.10800 57.50400 39.87800
C  27.47400 57.11000 39.80500
C  24.89900 59.79000 40.54000
C  25.29600 56.39600 39.38700
O  24.07700 56.33100 39.23900
C  26.22000 55.21400 39.09100
C  26.00800 54.08600 40.08000
O  26.76900 53.66900 40.87100
O  24.71400 53.60200 39.86500
C  24.33700 52.51700 40.79600
H  33.23800 54.58500 38.66400
H  33.65400 60.88200 40.39700
H  27.36900 61.20100 40.83200
H  28.88800 53.14300 39.26500
H  31.36200 53.61200 37.60800
H  32.03900 51.91200 39.08300
H  30.62400 52.03300 39.97300
H  31.86500 53.22400 40.35200
H  27.64100 53.23600 37.09300
H  29.25300 52.69700 36.61000
H  29.79800 54.19800 35.38500
H  29.20400 55.54300 36.30800
H  36.44200 56.46500 38.07900
H  35.34600 55.26600 37.89400
H  35.98200 55.42400 39.47900
H  35.46200 61.12700 39.59400
H  37.00000 60.87600 40.57300
H  35.44700 60.48500 41.23800
H  31.59400 62.80500 39.54400
H  29.69800 62.44700 41.82400
H  32.85500 63.69300 41.26400
H  32.80900 62.16900 42.22900
H  31.53500 63.35800 42.39100
H  28.25000 63.11000 39.45300
H  29.69200 63.69800 39.06100
H  29.55600 65.35300 40.95800
H  28.50100 64.23900 41.74400
H  27.95400 65.26500 40.36900
H  24.45000 59.96900 39.56400
H  25.24700 60.68700 41.05300
H  24.15200 59.28700 41.15400
H  26.07100 54.83700 38.07900
H  23.26000 52.35000 40.79300
H  24.60300 52.82700 41.80700
H  24.89300 51.63500 40.48000
Mg 5.35700 54.96200 40.63600
C  4.87800 51.45500 40.78000
C  8.41200 54.63100 39.68300
C  5.26700 58.31400 39.92400
C  1.87000 55.28700 41.49000
N  6.38800 53.24900 40.09900
C  6.10900 51.90100 40.18100
C  7.32200 51.05000 39.71400
C  8.49900 52.12500 39.75900
C  7.67500 53.40900 39.81800
C  9.60700 52.00100 40.87900
C  7.03100 50.41600 38.31800
C  5.99200 51.14200 37.37700
H  6.69800 51.93300 36.28100
N  6.81200 56.44200 40.07000
C  8.03500 56.04500 39.58000
C  8.76900 57.23900 39.20600
C  7.84600 58.39600 39.37100
C  6.56000 57.78700 39.80600
C  10.14800 57.33400 38.64100
C  8.08100 59.84100 39.12600
O  9.10600 60.19200 38.54300
C  7.01200 60.90400 39.40000
N  3.73900 56.59800 40.71200
C  4.02200 57.87200 40.33700
C  2.74800 58.78400 40.36200
C  1.63100 57.74000 40.70300
C  2.43900 56.51600 41.00400
C  2.74500 60.03200 41.24800
C  0.48500 57.46300 39.69900
C  -0.09400 58.67600 38.98800
N  3.64100 53.68600 41.02200
C  2.36300 53.96500 41.45800
C  1.72200 52.71400 41.88700
C  2.62600 51.66700 41.71200
C  3.73700 52.33100 41.13000
C  0.45500 52.51900 42.59100
C  3.01100 50.30000 41.94000
O  2.48700 49.41900 42.61300
C  4.40000 50.04600 41.20400
C  4.28600 49.02500 40.04900
O  3.81000 49.23800 38.97300
O  4.63800 47.83200 40.48100
C  4.31500 46.59900 39.76600
H  9.48300 54.45100 39.57000
H  5.01900 59.35800 39.72400
H  0.84800 55.25900 41.87100
H  7.46200 50.29200 40.48500
H  8.92500 52.11900 38.75600
H  10.58200 51.87300 40.40800
H  9.43500 51.07800 41.43200
H  9.56800 52.86700 41.54000
H  6.68000 49.40000 38.49900
H  7.94900 50.31900 37.73800
H  5.29700 51.78000 37.92400
H  5.39200 50.37800 36.88300
H  10.82500 57.52500 39.47300
H  10.38000 57.91100 37.74500
H  10.43100 56.28400 38.56000
H  6.22700 60.92800 38.64500
H  7.49700 61.87200 39.53200
H  6.48900 60.64900 40.32200
H  2.61800 59.16300 39.34900
H  1.20200 58.05200 41.65500
H  1.78900 60.14900 41.75900
H  2.91900 60.94000 40.67200
H  3.60700 59.97600 41.91300
H  -0.31400 56.96100 40.24500
H  0.91600 56.77500 38.97200
H  0.50300 58.89300 38.10300
H  -0.09800 59.46500 39.74000
H  -1.12800 58.47200 38.71100
H  0.59200 52.13300 43.60100
H  -0.12100 51.77800 42.03600
H  -0.10600 53.44600 42.71500
H  5.06500 49.58600 41.93500
H  4.71400 46.68200 38.75500
H  3.24900 46.45200 39.59500
H  4.69500 45.71400 40.27700

