158

Mg 24.86400 -4.81000 45.87500
C  26.97100 -2.53000 44.54700
C  22.26500 -3.60300 43.80600
C  23.11000 -7.75200 46.19600
C  27.67700 -6.37800 47.46300
N  24.62700 -3.30500 44.38300
C  25.67500 -2.46900 43.95200
C  25.21300 -1.52600 42.81200
C  23.66100 -1.72100 42.69900
C  23.47900 -2.95600 43.67900
C  22.74600 -0.47900 43.20400
C  26.07600 -1.53700 41.43500
C  25.63600 -0.55800 40.30100
H  25.93400 -0.92600 38.82200
N  22.89000 -5.53900 45.23300
C  21.94900 -4.84500 44.44500
C  20.69800 -5.55900 44.48000
C  20.97100 -6.75800 45.20700
C  22.37600 -6.78200 45.54900
C  19.45600 -5.18600 43.69400
C  19.86900 -7.83200 45.49400
O  18.75700 -7.64200 45.06200
C  20.14300 -9.04200 46.28000
N  25.35100 -6.84100 46.66200
C  24.42400 -7.80500 46.67000
C  25.11100 -9.08500 47.39800
C  26.54500 -8.58900 47.80100
C  26.51100 -7.18500 47.25300
C  24.44200 -9.61700 48.65600
C  27.79300 -9.38700 47.38500
C  28.73700 -9.78300 48.51700
N  26.96800 -4.38100 46.11400
C  27.97100 -5.09100 46.81500
C  29.21800 -4.25000 46.76800
C  28.81600 -3.25000 45.82600
C  27.44900 -3.44100 45.49400
C  30.51200 -4.53200 47.39500
C  29.27000 -2.03600 45.17600
O  30.39000 -1.49200 45.34300
C  28.12100 -1.60000 44.19100
C  27.84000 -0.20600 44.41600
O  27.17800 0.22600 45.34300
O  28.53600 0.56000 43.48600
C  28.18600 1.93100 43.61400
H  21.41200 -3.25100 43.22000
H  22.53300 -8.66100 46.38000
H  28.49000 -6.84500 48.02300
H  25.42900 -0.55700 43.26400
H  23.49400 -2.10700 41.69300
H  22.21900 -0.17500 42.30000
H  23.44800 0.29200 43.52100
H  21.93000 -0.68500 43.89700
H  26.02800 -2.55500 41.04800
H  27.14600 -1.43200 41.61100
H  26.25300 0.28200 40.62100
H  24.58600 -0.30700 40.44900
H  19.12400 -5.77600 42.84000
H  19.64700 -4.14900 43.41600
H  18.55800 -5.04700 44.29600
H  19.28000 -9.68800 46.44400
H  20.65900 -8.68100 47.17000
H  20.88400 -9.60400 45.71200
H  25.14000 -9.82700 46.60000
H  26.53200 -8.46800 48.88400
H  23.75200 -8.81300 48.91200
H  25.03100 -9.79300 49.55500
H  23.92200 -10.55700 48.46700
H  28.42400 -8.84300 46.68100
H  27.46700 -10.32700 46.94000
H  28.29100 -9.58100 49.49100
H  29.64900 -9.19100 48.44100
H  28.96700 -10.84600 48.44200
H  31.00200 -3.56800 47.53300
H  31.17100 -5.13300 46.76900
H  30.44600 -5.09300 48.32700
H  28.50100 -1.72700 43.17700
H  27.10000 2.02000 43.61200
H  28.45000 2.37800 42.65600
H  28.76300 2.38100 44.42200
Mg 46.90800 16.30100 27.66900
C  45.11700 15.99700 30.68400
C  49.49500 17.88000 29.44600
C  48.55900 16.57700 24.84700
C  44.05900 14.94100 26.04600
N  47.28100 16.85800 29.86900
C  46.41700 16.60500 30.87100
C  46.98500 17.16200 32.17300
C  48.22200 18.00200 31.77600
C  48.33400 17.58600 30.28100
C  47.97300 19.53300 32.04300
C  47.17600 15.99900 33.20800
C  47.35100 16.44300 34.65300
H  47.23200 17.94900 35.08900
N  48.76200 17.06000 27.24500
C  49.67600 17.63600 28.04100
C  50.93200 17.83600 27.35600
C  50.68000 17.55800 26.02700
C  49.24300 17.07900 25.99300
C  52.16300 18.31600 28.05800
C  51.66800 17.49100 24.77300
O  51.33600 17.15900 23.65200
C  53.01100 18.02400 24.94300
N  46.30400 15.94500 25.70800
C  47.20400 16.12200 24.66700
C  46.60100 15.70800 23.31200
C  45.25300 14.99400 23.83100
C  45.21300 15.23500 25.29100
C  46.54500 16.93100 22.35900
C  45.31600 13.46700 23.49200
C  44.50200 13.17500 22.22300
N  45.02100 15.51700 28.18400
C  43.94800 15.08100 27.42600
C  42.80100 14.82800 28.23800
C  43.20900 15.13200 29.55300
C  44.54000 15.62200 29.45400
C  41.45200 14.27100 27.79000
C  42.83100 15.11800 30.84500
O  41.81000 14.56100 31.31100
C  43.98400 15.76300 31.74600
C  43.46100 16.95700 32.39900
O  43.26700 18.05600 31.88600
O  43.17400 16.62900 33.73400
C  42.81400 17.71900 34.63600
H  50.15200 18.49700 30.06400
H  49.17100 16.40200 23.95900
H  43.26700 14.49600 25.44000
H  46.16800 17.77400 32.55500
H  49.06900 17.79800 32.43100
H  48.87900 20.09500 32.27100
H  47.28200 19.66100 32.87600
H  47.52500 19.93100 31.13200
H  48.09500 15.49300 32.91300
H  46.32100 15.32400 33.16700
H  48.39000 16.23100 34.90700
H  46.64600 15.83400 35.21800
H  51.91900 19.37800 28.02400
H  53.11200 17.95600 27.66000
H  52.19100 18.14600 29.13400
H  53.46700 17.28300 25.60000
H  53.02700 19.04100 25.33500
H  53.61400 17.94000 24.03900
H  47.22500 14.94100 22.85300
H  44.55000 15.58100 23.24000
H  47.20200 17.69900 22.76700
H  45.52700 17.30600 22.25400
H  46.87900 16.71700 21.34400
H  44.87700 12.95100 24.34500
H  46.30700 13.01400 23.48500
H  45.15000 12.56600 21.59200
H  44.31600 14.09700 21.67200
H  43.54800 12.67000 22.37200
H  40.64200 14.64900 28.41300
H  41.42800 13.19200 27.93800
H  41.14500 14.38300 26.75000
H  44.09500 14.99800 32.51500
H  41.86900 18.10600 34.25400
H  43.59500 18.46700 34.49500
H  42.82400 17.53700 35.71000

