158

Mg 26.11800 50.56300 26.04600
C  23.95800 51.66800 28.50000
C  28.42900 49.94100 28.57100
C  28.37300 49.84300 23.66800
C  23.91700 51.76900 23.60900
N  26.20900 50.89800 28.28000
C  25.13500 51.23900 29.04500
C  25.43300 51.19700 30.59000
C  26.99900 50.87600 30.57100
C  27.24100 50.54300 29.04800
C  27.93600 51.96900 31.19300
C  24.58800 50.20100 31.35100
C  24.10500 50.63400 32.77800
H  24.23300 49.44500 33.78700
N  28.10300 49.85100 26.10500
C  28.87000 49.65600 27.25200
C  30.15100 49.03300 26.80300
C  30.14400 48.98200 25.39800
C  28.85600 49.56200 24.94200
C  31.30300 48.73100 27.73100
C  31.20600 48.65000 24.41400
O  31.05600 48.82800 23.21200
C  32.42900 47.97800 24.88000
N  26.06100 50.74900 23.97600
C  27.17100 50.35900 23.16000
C  26.76600 50.35900 21.66500
C  25.35200 51.00700 21.70800
C  25.04700 51.14200 23.20900
C  27.71100 51.16700 20.83800
C  24.31700 50.11000 20.84600
C  23.86500 48.84200 21.49600
N  24.29100 51.55100 26.03800
C  23.45800 51.90700 24.98100
C  22.26600 52.44500 25.42900
C  22.42800 52.42800 26.84400
C  23.64400 51.82200 27.12100
C  21.25500 53.04200 24.51700
C  21.69800 52.73400 28.13400
O  20.59000 53.23600 28.37700
C  22.71800 52.12700 29.22500
C  23.07900 53.29200 30.11500
O  23.84200 54.18800 29.83100
O  22.38300 53.22300 31.28300
C  22.46500 54.26500 32.33200
H  29.20900 49.69300 29.29400
H  28.95700 49.55400 22.79200
H  23.16700 52.05900 22.87100
H  25.43200 52.19700 31.02300
H  27.13500 49.98000 31.17600
H  27.69600 52.99300 30.90800
H  28.96000 51.74600 30.89300
H  27.75600 51.80500 32.25500
H  25.16500 49.28700 31.49200
H  23.81500 49.85200 30.66700
H  23.02900 50.79800 32.72000
H  24.65600 51.51000 33.12000
H  31.66600 47.70400 27.69100
H  30.99800 48.72900 28.77800
H  32.13900 49.43100 27.73700
H  33.12900 47.73200 24.08200
H  32.40300 47.13800 25.57500
H  32.90900 48.82900 25.36300
H  26.69900 49.30600 21.39000
H  25.41100 52.02600 21.32600
H  28.51300 51.64500 21.40000
H  27.24200 51.91600 20.20000
H  28.32100 50.46800 20.26600
H  24.80700 49.87400 19.90200
H  23.39300 50.62100 20.57500
H  24.39000 48.03000 20.99400
H  22.78300 48.75200 21.39700
H  24.04000 48.79300 22.57100
H  20.92600 53.90500 25.09600
H  20.53500 52.23200 24.40500
H  21.68600 53.30700 23.55100
H  22.40000 51.36500 29.93700
H  21.42500 54.48000 32.57900
H  22.84000 55.23800 32.01200
H  22.88700 54.01100 33.30400
Mg -10.53900 17.10900 43.09300
C  -6.94300 17.07300 43.08700
C  -10.36600 20.54400 42.27100
C  -13.79300 17.02500 42.67600
C  -10.47900 13.59600 42.92900
N  -8.82100 18.57300 42.76800
C  -7.46000 18.38700 42.84200
C  -6.72500 19.68200 42.56200
C  -7.84400 20.79600 42.81400
C  -9.13100 19.92500 42.62300
C  -7.77100 21.40400 44.23100
C  -6.06800 19.76500 41.19800
C  -4.49100 19.70800 41.16500
H  -3.72000 18.93300 40.08800
N  -11.95700 18.58300 42.60100
C  -11.66000 19.88100 42.22400
C  -12.89200 20.52500 41.90700
C  -13.93400 19.55500 42.09400
C  -13.24000 18.31900 42.44600
C  -13.08500 21.98900 41.70100
C  -15.51400 19.83400 41.89500
O  -15.90100 20.88000 41.46600
C  -16.56500 18.73600 42.16800
N  -11.97800 15.51900 42.87000
C  -13.27400 15.82300 42.90700
C  -14.02300 14.52000 43.19200
C  -13.02000 13.36200 43.04700
C  -11.74100 14.18200 42.88500
C  -14.70300 14.53500 44.58300
C  -13.17800 12.26000 41.96700
C  -12.83100 12.62100 40.48100
N  -9.05000 15.62000 43.09500
C  -9.19700 14.23400 42.99500
C  -7.85800 13.67200 43.15000
C  -6.96900 14.73100 43.21900
C  -7.76400 15.90800 43.17800
C  -7.51300 12.23500 43.45200
C  -5.58700 15.07800 43.38900
O  -4.66100 14.34900 43.75800
C  -5.48100 16.60500 43.34600
C  -4.91600 17.10600 44.58500
O  -5.45400 17.11000 45.67900
O  -3.59300 17.33500 44.36000
C  -2.87900 17.82100 45.59000
H  -10.35400 21.61800 42.07400
H  -14.86300 16.81800 42.74600
H  -10.45100 12.50600 42.97900
H  -5.92900 19.70400 43.30600
H  -7.83300 21.57100 42.04800
H  -6.89100 21.06700 44.77700
H  -8.51800 21.01200 44.92200
H  -7.78100 22.49400 44.22200
H  -6.31400 20.67200 40.64500
H  -6.53400 19.02600 40.54500
H  -4.08800 19.48500 42.15200
H  -4.26200 20.77400 41.17000
H  -13.99400 22.25000 42.24500
H  -13.38900 22.22200 40.68000
H  -12.27500 22.68100 41.93100
H  -17.60700 19.00500 41.99400
H  -16.49300 18.31500 43.17100
H  -16.45400 18.00900 41.36300
H  -14.82500 14.43700 42.45800
H  -12.89500 12.83700 43.99400
H  -14.27500 15.33700 45.18400
H  -14.52600 13.70000 45.26000
H  -15.78600 14.63400 44.51000
H  -14.21100 11.91700 41.90300
H  -12.51200 11.43300 42.21300
H  -11.91100 12.15400 40.13200
H  -12.77200 13.70900 40.45100
H  -13.59000 12.28600 39.77200
H  -8.19700 11.60800 42.88000
H  -7.60600 12.10800 44.53100
H  -6.44900 12.00100 43.41500
H  -4.77000 16.92700 42.58400
H  -1.80800 17.93800 45.42400
H  -3.02900 17.09500 46.39000
H  -3.08200 18.84700 45.89600

