158

Mg 9.26600 4.12500 26.89000
C  10.75900 2.55000 29.74600
C  7.10800 5.73800 29.12400
C  7.73500 5.40300 24.26400
C  10.86600 1.67500 24.92700
N  9.04200 4.22900 29.25100
C  9.70800 3.47500 30.11100
C  9.38900 3.90300 31.57400
C  8.19900 4.90700 31.42100
C  8.07900 4.95800 29.84800
C  6.91800 4.54500 32.20800
C  10.60400 4.54900 32.38900
C  10.61200 4.17800 33.88000
H  11.05600 5.07900 35.10000
N  7.75300 5.42700 26.71800
C  7.07700 6.13100 27.77500
C  6.10500 7.02700 27.15900
C  6.29600 6.91800 25.75400
C  7.29900 5.89300 25.51200
C  5.24300 7.85100 28.07100
C  5.63500 7.74300 24.57500
O  5.98800 7.65300 23.39100
C  4.47600 8.73200 24.85400
N  9.37000 3.62500 24.90400
C  8.62100 4.32700 24.00600
C  8.81300 3.83500 22.56800
C  9.59000 2.42800 22.87000
C  10.09000 2.59900 24.29100
C  7.55900 3.75100 21.65900
C  10.69300 2.21200 21.82100
C  10.95700 0.83000 21.32600
N  10.56300 2.51900 27.18900
C  11.19100 1.65000 26.30400
C  12.09300 0.77700 27.01900
C  12.01100 1.08500 28.41400
C  11.05800 2.15600 28.42400
C  12.90600 -0.28000 26.41400
C  12.52600 0.81300 29.70700
O  13.43900 0.10100 30.18100
C  11.69300 1.74800 30.70000
C  10.93500 0.88800 31.68200
O  9.98600 0.12900 31.32600
O  11.38200 1.02700 32.95900
C  10.61000 0.27400 33.96300
H  6.42100 6.21800 29.82400
H  7.25900 5.76600 23.35100
H  11.10900 0.87500 24.22400
H  9.09400 3.02700 32.15100
H  8.36400 5.94000 31.72700
H  6.52900 5.51100 32.53000
H  7.06900 3.81600 33.00500
H  6.16900 4.08100 31.56600
H  10.65400 5.62600 32.22700
H  11.44600 3.99700 31.97100
H  11.27300 3.31100 33.90700
H  9.63700 3.86200 34.25000
H  4.49400 8.39600 27.49500
H  5.86700 8.65100 28.46900
H  4.87600 7.24500 28.89900
H  4.76200 9.65100 25.36600
H  3.60800 8.19900 25.24200
H  4.17200 9.17000 23.90300
H  9.60200 4.43600 22.11600
H  8.98200 1.52500 22.93100
H  6.77000 3.99300 22.37100
H  7.35300 2.73600 21.31800
H  7.69600 4.51600 20.89500
H  11.64000 2.47200 22.29500
H  10.59200 2.83000 20.92900
H  10.08900 0.18000 21.42300
H  11.80900 0.32200 21.77900
H  11.25000 0.96100 20.28400
H  12.39900 -1.23400 26.26800
H  13.77100 -0.50800 27.03600
H  13.15600 0.08900 25.41900
H  12.50100 2.25600 31.22700
H  11.33900 -0.35700 34.47200
H  9.86800 -0.42900 33.58500
H  10.14000 0.92600 34.69900
Mg -12.82200 39.36800 42.78100
C  -11.11100 36.36600 41.76100
C  -10.42500 41.10900 41.04000
C  -14.61900 41.99500 43.26100
C  -15.46200 37.22200 43.82600
N  -10.92300 38.71300 41.54700
C  -10.45600 37.43700 41.31700
C  -9.19500 37.52200 40.34000
C  -8.87300 39.06500 40.30600
C  -10.09300 39.70700 40.97900
C  -7.55800 39.51800 40.95400
C  -9.34200 36.87400 38.97700
C  -8.14700 36.02700 38.43600
H  -7.23200 36.75300 37.56900
N  -12.51100 41.31300 42.33000
C  -11.50600 41.85300 41.55100
C  -11.75800 43.26300 41.39000
C  -12.88600 43.60100 42.23200
C  -13.41400 42.29500 42.65700
C  -10.75700 44.25400 40.66700
C  -13.40600 45.04000 42.59200
O  -12.90200 45.97700 41.94300
C  -14.29100 45.25900 43.69600
N  -14.80300 39.52900 43.34300
C  -15.27200 40.80600 43.58100
C  -16.58000 40.75700 44.35300
C  -16.82300 39.19300 44.63900
C  -15.63500 38.63000 43.87500
C  -16.73100 41.71900 45.56700
C  -18.17800 38.69200 44.14400
C  -19.12100 38.41200 45.43300
N  -13.23200 37.20400 42.77600
C  -14.34800 36.53700 43.22200
C  -14.07700 35.12700 43.29800
C  -12.79800 34.99700 42.67500
C  -12.37200 36.29200 42.42800
C  -14.94700 34.07200 43.90900
C  -11.74600 34.05000 42.38600
O  -11.72600 32.79600 42.49000
C  -10.67700 34.90800 41.66000
C  -9.33100 34.62800 42.20800
O  -8.90000 35.00300 43.25000
O  -8.78200 33.48900 41.60600
C  -7.53900 32.88200 42.13000
H  -9.65000 41.65600 40.49900
H  -15.17900 42.91100 43.46300
H  -16.29200 36.57400 44.11500
H  -8.42100 36.88700 40.77100
H  -8.74600 39.39100 39.27400
H  -7.13600 38.78000 41.63700
H  -7.63600 40.35100 41.65200
H  -6.88900 39.83400 40.15300
H  -9.36800 37.62100 38.18400
H  -10.28600 36.33600 38.88300
H  -8.64100 35.22400 37.88900
H  -7.74300 35.38000 39.21500
H  -10.29100 45.05400 41.24200
H  -11.25300 44.73200 39.82200
H  -9.83100 43.85200 40.25600
H  -15.32500 45.34200 43.36000
H  -14.14100 46.23100 44.16600
H  -14.12000 44.54600 44.50200
H  -17.37100 41.09700 43.68500
H  -16.69300 38.99700 45.70400
H  -16.82700 41.26000 46.55100
H  -17.65700 42.27000 45.40900
H  -15.91600 42.44100 45.62300
H  -18.03800 37.77900 43.56600
H  -18.64700 39.44600 43.51300
H  -20.05900 38.92700 45.22700
H  -18.72100 39.01300 46.25000
H  -19.23500 37.38700 45.78700
H  -15.21000 34.47100 44.88900
H  -14.69200 33.01500 43.97700
H  -15.90600 34.23500 43.41700
H  -10.65900 34.56900 40.62400
H  -6.68800 33.54200 42.29600
H  -7.17800 32.21900 41.34500
H  -7.72400 32.31300 43.04200

