158

Mg 47.22100 44.65900 43.36200
C  43.61500 44.28800 43.06700
C  47.34600 41.24400 42.59800
C  50.42100 45.08300 42.76800
C  46.59700 48.16600 43.58900
N  45.67100 43.01000 42.73700
C  44.27300 43.09200 42.82800
C  43.61800 41.68800 42.84200
C  44.85700 40.73500 42.80400
C  46.03100 41.75100 42.70100
C  44.85300 39.71800 44.01800
C  42.53600 41.41900 41.78500
C  42.73600 42.18800 40.47000
H  42.56300 41.50300 39.04600
N  48.67800 43.37100 42.70500
C  48.54300 42.03200 42.54300
C  49.87000 41.49000 42.42000
C  50.81500 42.51000 42.31600
C  50.01800 43.77100 42.62100
C  50.14300 40.08100 42.46100
C  52.26900 42.41800 41.91300
O  52.69100 41.33100 41.59200
C  53.19300 43.62300 41.86000
N  48.31400 46.40400 43.03900
C  49.70600 46.29100 42.91400
C  50.37800 47.66500 43.17500
C  49.11900 48.67700 43.29400
C  47.92200 47.70700 43.32400
C  51.37500 47.61200 44.34300
C  49.00400 49.70600 42.17100
C  48.94600 51.14800 42.63000
N  45.50200 45.97100 43.52600
C  45.42000 47.33200 43.63700
C  43.99900 47.73000 43.64600
C  43.28600 46.59800 43.52700
C  44.23700 45.54600 43.34600
C  43.58400 49.14300 44.01100
C  41.99700 46.09400 43.44900
O  40.95600 46.72500 43.49300
C  42.10400 44.50200 43.06600
C  41.34500 43.79100 44.05100
O  40.23300 43.37700 43.83900
O  41.92100 43.92300 45.30300
C  41.23900 43.30300 46.42900
H  47.57700 40.20100 42.37500
H  51.50000 45.22200 42.86800
H  46.56300 49.25500 43.67000
H  43.16000 41.72400 43.83100
H  44.82500 40.24500 41.83100
H  45.57900 40.00100 44.78100
H  45.29100 38.77300 43.69900
H  43.82600 39.58100 44.35700
H  41.61500 41.89000 42.12600
H  42.18400 40.41200 41.56200
H  43.70200 42.69200 40.43100
H  42.06100 43.03300 40.33600
H  50.95900 39.98900 43.17700
H  50.47400 39.69500 41.49800
H  49.31800 39.45600 42.80400
H  52.82700 44.47900 41.29400
H  54.08200 43.30000 41.31900
H  53.59700 43.80100 42.85700
H  50.85000 47.92600 42.22800
H  49.21900 49.19400 44.24800
H  52.39600 47.52200 43.97200
H  51.07300 46.69600 44.85200
H  51.24700 48.44100 45.03900
H  48.07000 49.51800 41.64300
H  49.90900 49.85800 41.58200
H  48.86800 51.22000 43.71500
H  48.02900 51.68300 42.38600
H  49.85000 51.70100 42.37400
H  42.72600 49.40700 43.39200
H  44.50200 49.72100 43.90700
H  43.26700 49.05600 45.05100
H  41.63000 44.24900 42.11800
H  40.37800 42.72800 46.09000
H  40.88100 44.13800 47.03100
H  41.81000 42.62100 47.06000
Mg -1.53700 33.86600 27.55200
C  -2.95000 32.16700 30.39900
C  -0.05100 35.92900 29.81500
C  -1.15600 36.21200 25.03000
C  -3.42000 31.91400 25.45700
N  -1.60200 34.02500 29.86400
C  -2.13300 33.16700 30.79300
C  -1.64300 33.42700 32.22700
C  -0.88400 34.74000 31.99500
C  -0.83500 35.01600 30.47400
C  -1.32400 36.00400 32.84100
C  -1.02100 32.19500 33.05500
C  -1.65500 31.81700 34.37800
H  -0.69500 32.01100 35.57900
N  -0.55900 35.67000 27.37200
C  0.07100 36.29100 28.41100
C  0.73600 37.45000 27.95300
C  0.34900 37.63400 26.57900
C  -0.50200 36.47000 26.26400
C  1.72500 38.21100 28.75000
C  0.95200 38.56300 25.51500
O  0.72800 38.47500 24.28600
C  1.86400 39.71700 25.85800
N  -2.05000 33.91700 25.46200
C  -1.86600 35.00200 24.63100
C  -2.59100 34.83500 23.29600
C  -2.88200 33.30300 23.34200
C  -2.73600 32.97300 24.80400
C  -3.76900 35.84200 23.00700
C  -1.94600 32.45900 22.32400
C  -0.79300 31.71500 22.86700
N  -2.80500 32.31700 27.80700
C  -3.53900 31.62000 26.86400
C  -4.24700 30.54200 27.46300
C  -4.04600 30.68900 28.79300
C  -3.20500 31.83500 28.99000
C  -5.03900 29.55700 26.76700
C  -4.46600 30.24200 30.09800
O  -5.26100 29.34600 30.36100
C  -3.73100 31.12400 31.20600
C  -4.70400 31.59900 32.22300
O  -5.38900 32.61300 32.15200
O  -4.75600 30.68800 33.24400
C  -5.71600 30.86900 34.32800
H  0.66400 36.31900 30.54300
H  -1.14400 37.01800 24.29300
H  -3.98300 31.23100 24.81700
H  -2.56400 33.66000 32.76200
H  0.12000 34.42800 32.28100
H  -1.97700 35.76800 33.68100
H  -1.72300 36.80500 32.21800
H  -0.39600 36.47200 33.16900
H  0.06500 32.29000 33.07600
H  -1.11900 31.26900 32.48900
H  -1.87600 30.75000 34.38400
H  -2.57900 32.39200 34.43000
H  1.32600 39.22300 28.82100
H  2.65000 38.21400 28.17200
H  2.00200 37.79700 29.71900
H  1.29400 40.30100 26.58100
H  2.12200 40.34500 25.00600
H  2.69700 39.21000 26.34500
H  -1.85400 34.99100 22.50900
H  -3.94100 33.11400 23.16500
H  -3.81700 36.56300 23.82300
H  -4.72500 35.31900 22.96800
H  -3.56300 36.33600 22.05700
H  -1.51700 33.12500 21.57500
H  -2.61500 31.75500 21.82900
H  -0.90000 31.62200 23.94800
H  0.17500 32.15200 22.62400
H  -0.79000 30.71300 22.43700
H  -4.63100 29.43300 25.76400
H  -6.04300 29.97300 26.67600
H  -5.19200 28.69400 27.41600
H  -3.06900 30.42400 31.71700
H  -5.81200 29.94700 34.90200
H  -6.65400 31.14600 33.84800
H  -5.45100 31.67500 35.01200

