158

Mg 42.87300 3.91500 47.18700
C  40.55700 6.35100 47.40200
C  40.48100 1.58900 47.41800
C  45.28200 1.44700 46.84000
C  45.34900 6.24300 46.15900
N  40.79100 3.98500 47.26400
C  40.01700 5.07400 47.47300
C  38.55500 4.65800 47.49100
C  38.65900 3.18500 47.83600
C  40.07800 2.88200 47.52300
C  38.40600 2.83200 49.37200
C  37.74800 5.02100 46.17300
C  38.23700 4.62800 44.85100
H  38.39800 5.76200 43.77400
N  42.85800 1.81100 46.98000
C  41.75700 1.06600 47.11500
C  42.10400 -0.35900 47.10800
C  43.47000 -0.47900 46.85000
C  43.96700 0.97800 46.83700
C  41.04400 -1.47300 47.17300
C  44.29400 -1.83200 46.71000
O  43.81900 -2.92400 46.82700
C  45.71900 -1.72700 46.40300
N  44.98400 3.83700 46.43400
C  45.80000 2.73100 46.68100
C  47.27300 3.07800 46.65800
C  47.25800 4.53900 46.02400
C  45.76200 4.93500 46.18800
C  48.03600 2.98900 48.11200
C  47.82000 4.62800 44.54800
C  49.14400 5.30500 44.32700
N  43.02500 5.89800 46.95500
C  44.07300 6.79900 46.53000
C  43.60900 8.18300 46.59900
C  42.29700 8.04800 47.04600
C  41.96400 6.66000 47.14400
C  44.48500 9.43000 46.35900
C  41.07700 8.83000 47.34500
O  40.84700 10.04500 47.33800
C  39.91800 7.73300 47.56300
C  39.20000 7.91800 48.79000
O  39.53600 7.37600 49.83200
O  38.14600 8.73000 48.63700
C  37.11800 8.94300 49.69000
H  39.68500 0.84800 47.51800
H  46.07200 0.69900 46.93400
H  46.20100 6.81500 45.78600
H  38.04000 5.21100 48.27600
H  37.99500 2.58600 47.21300
H  38.12100 3.77100 49.84700
H  39.34500 2.55400 49.85200
H  37.67600 2.02600 49.44000
H  37.73300 6.11100 46.20500
H  36.76000 4.59800 46.35800
H  37.43700 4.04200 44.40000
H  39.13400 4.01100 44.91200
H  40.30300 -1.64200 46.39200
H  40.49100 -1.31400 48.09900
H  41.48900 -2.45900 47.30900
H  46.28000 -1.55800 47.32200
H  45.85200 -1.03100 45.57500
H  46.11800 -2.63700 45.95700
H  47.72900 2.34300 45.99500
H  47.86600 5.19900 46.64200
H  47.41900 2.35600 48.75000
H  48.26900 3.92900 48.61200
H  49.03100 2.54600 48.05000
H  47.06300 5.05900 43.89400
H  47.97200 3.61300 44.18200
H  49.77300 4.68700 43.68600
H  49.66000 5.44900 45.27600
H  49.01500 6.22900 43.76300
H  45.53800 9.15700 46.42000
H  44.23500 10.28200 46.99100
H  44.33200 9.74000 45.32500
H  39.19200 7.92600 46.77300
H  37.53900 8.93000 50.69500
H  36.42400 8.10300 49.66900
H  36.56100 9.86700 49.53400
Mg 47.47300 16.34900 28.50200
C  45.13400 16.52900 31.09800
C  49.29900 18.61400 30.28700
C  49.76800 16.06100 26.13000
C  45.24600 14.61000 26.57300
N  47.19500 17.45500 30.40300
C  46.21100 17.24500 31.31800
C  46.63900 17.74300 32.72400
C  47.81000 18.69100 32.33600
C  48.10200 18.27400 30.94500
C  47.56600 20.24900 32.39300
C  47.00100 16.58100 33.74400
C  46.59400 16.84500 35.17200
H  47.59500 16.59200 36.33700
N  49.32300 17.21100 28.29000
C  49.96600 18.08900 29.11300
C  51.32700 18.31700 28.60300
C  51.40700 17.52100 27.49800
C  50.12200 16.92300 27.19600
C  52.38100 19.11300 29.28400
C  52.69500 17.30800 26.63500
O  52.75300 16.62800 25.61000
C  53.96600 17.92600 27.11100
N  47.52000 15.44700 26.64200
C  48.54400 15.49900 25.79700
C  48.31700 14.69100 24.49900
C  46.94900 14.07700 24.73500
C  46.50700 14.77500 25.94300
C  48.37700 15.63800 23.20500
C  46.96100 12.59600 24.81500
C  47.33600 11.88300 23.51700
N  45.54400 15.81200 28.67400
C  44.77100 15.05600 27.81600
C  43.49500 14.70200 28.49200
C  43.59300 15.29300 29.78400
C  44.84900 15.87100 29.81800
C  42.31500 13.99000 27.72700
C  42.96400 15.44300 31.13000
O  41.91800 15.00600 31.57500
C  44.07500 16.16800 32.06700
C  43.51500 17.37200 32.78400
O  43.62100 18.56900 32.49500
O  42.90000 16.97800 33.92600
C  42.14800 18.00000 34.63300
H  49.95600 19.27100 30.86100
H  50.55000 15.87600 25.39000
H  44.65900 14.04800 25.84300
H  45.95800 18.45000 33.19800
H  48.70000 18.37500 32.87900
H  48.33000 20.71900 33.01300
H  46.58800 20.56900 32.75400
H  47.78400 20.84800 31.50900
H  48.07700 16.43100 33.82100
H  46.54200 15.62400 33.49300
H  45.75700 16.17200 35.36000
H  46.12900 17.83100 35.18400
H  52.90500 19.85900 28.68600
H  53.17200 18.61900 29.84800
H  51.93600 19.81100 29.99300
H  53.94700 18.99700 26.90900
H  54.77800 17.50600 26.51800
H  54.18100 17.56500 28.11700
H  49.04400 13.90600 24.29200
H  46.27200 14.27500 23.90300
H  47.49500 16.27700 23.22100
H  48.32200 15.11400 22.25100
H  49.19100 16.36300 23.19200
H  46.01200 12.17700 25.14900
H  47.74600 12.34800 25.53000
H  46.73800 10.97500 23.44800
H  48.35700 11.50900 23.59400
H  47.40000 12.53500 22.64600
H  42.58700 13.47800 26.80400
H  41.55700 14.65800 27.31800
H  41.91900 13.24100 28.41400
H  44.31500 15.36200 32.76100
H  41.58700 17.46800 35.40100
H  41.36200 18.34500 33.96100
H  42.68000 18.85400 35.05200

