158

Mg -0.81100 7.66000 25.17200
C  -0.05500 9.47900 28.23400
C  -0.82100 4.75600 27.09600
C  -1.13900 5.94800 22.40900
C  -0.08700 10.61400 23.40800
N  -0.44500 7.20600 27.44500
C  -0.21400 8.11800 28.48300
C  -0.30500 7.49000 29.83700
C  -0.36900 5.88900 29.52500
C  -0.55300 5.92500 27.92600
C  0.80100 5.09000 30.14800
C  -1.42400 7.89100 30.82500
C  -1.08300 7.95900 32.31000
H  0.06600 7.16500 32.95800
N  -0.94500 5.67600 24.77900
C  -0.91600 4.57000 25.68500
C  -1.16500 3.35900 24.99800
C  -1.22900 3.69700 23.65100
C  -1.07500 5.17200 23.51300
C  -1.28300 2.04600 25.73800
C  -1.39300 2.80200 22.40600
O  -1.49400 3.28600 21.30300
C  -1.59100 1.31100 22.63000
N  -0.52700 8.26900 23.25000
C  -0.86900 7.35200 22.25300
C  -0.82200 7.94800 20.86800
C  -0.51400 9.39500 21.16800
C  -0.35200 9.46800 22.69300
C  0.06500 7.27900 19.78500
C  -1.46200 10.49000 20.67000
C  -2.75700 10.68500 21.49500
N  -0.18300 9.72100 25.65500
C  0.05300 10.80000 24.83000
C  0.48100 11.93100 25.62000
C  0.46000 11.47700 26.95500
C  0.02300 10.13900 26.94800
C  0.73900 13.40300 25.20500
C  0.68800 11.87400 28.35900
O  1.05600 12.99400 28.77400
C  0.29300 10.57600 29.25200
C  1.44800 10.29300 30.17000
O  2.31600 9.43900 29.94200
O  1.30900 11.06700 31.31000
C  2.51500 10.98900 32.18500
H  -0.83100 3.83900 27.68800
H  -1.47000 5.57400 21.43800
H  0.09100 11.51200 22.81100
H  0.59900 7.74100 30.39200
H  -1.30600 5.42900 29.84000
H  1.53900 5.69000 30.68000
H  1.24300 4.67000 29.24500
H  0.42900 4.31800 30.82200
H  -2.26000 7.19200 30.79000
H  -1.69000 8.92600 30.61200
H  -2.00400 7.61200 32.77900
H  -0.92200 8.99500 32.60800
H  -0.84100 2.18800 26.72500
H  -0.66500 1.29900 25.24000
H  -2.35100 1.82600 25.73800
H  -2.49800 1.13400 23.20700
H  -0.64800 1.01000 23.08600
H  -1.63800 0.80500 21.66600
H  -1.84900 7.74100 20.56800
H  0.51900 9.68600 20.97900
H  0.70800 6.48000 20.15300
H  0.73500 8.01500 19.34200
H  -0.57700 6.71900 19.10500
H  -1.74200 10.45300 19.61700
H  -0.88900 11.41600 20.69900
H  -2.79900 10.03500 22.36900
H  -3.65900 10.56500 20.89400
H  -2.80900 11.71300 21.85300
H  1.37500 13.78800 26.00300
H  -0.19800 13.94400 25.33700
H  1.21000 13.58300 24.23900
H  -0.68800 10.71400 29.70700
H  2.74900 9.93300 32.32100
H  2.21900 11.36800 33.16300
H  3.30700 11.59600 31.74700
Mg 47.59400 25.33200 29.51600
C  48.37400 27.74800 31.90200
C  46.07800 23.46700 32.05800
C  47.15500 22.90900 27.26900
C  49.34300 27.22500 27.05000
N  47.28100 25.54000 31.79200
C  47.73400 26.65400 32.48400
C  47.33000 26.45400 34.05500
C  46.87600 24.88500 34.04000
C  46.75000 24.59400 32.56600
C  47.88500 23.90000 34.69800
C  46.37800 27.52500 34.48000
C  46.35800 27.91800 35.93200
H  47.21500 27.18500 36.97100
N  46.71400 23.50800 29.63500
C  46.06800 22.91400 30.71300
C  45.49700 21.65600 30.30900
C  45.79500 21.52200 28.86600
C  46.64100 22.64000 28.54600
C  44.70600 20.74700 31.13300
C  45.28600 20.52900 27.82800
O  45.35200 20.66300 26.58900
C  44.59400 19.29900 28.42600
N  48.10800 25.15000 27.45900
C  47.78300 24.05800 26.74500
C  48.35200 24.09600 25.33200
C  48.81600 25.60700 25.23000
C  48.74900 26.05900 26.65500
C  49.51100 23.18200 25.11200
C  47.94000 26.49100 24.25400
C  48.65200 26.96400 22.95300
N  48.61500 27.05800 29.36800
C  49.24800 27.71300 28.34400
C  49.62900 29.05600 28.78500
C  49.28700 29.16400 30.16300
C  48.74500 27.87400 30.48200
C  50.22500 30.09000 27.81200
C  49.29300 30.04200 31.32500
O  49.65000 31.17400 31.50800
C  48.83300 29.09300 32.44200
C  49.96100 28.89800 33.40700
O  51.07300 28.63300 33.01900
O  49.48300 29.01500 34.69600
C  50.52300 28.68400 35.63000
H  45.57300 22.91100 32.85100
H  47.22100 22.06600 26.57900
H  49.87700 27.83600 26.32000
H  48.29000 26.67000 34.52400
H  45.86400 24.72900 34.41400
H  48.31100 23.27000 33.91700
H  47.33500 23.22000 35.34900
H  48.57100 24.54500 35.24700
H  45.45600 26.94500 34.43700
H  46.13700 28.34500 33.80400
H  45.30200 27.94400 36.19900
H  46.62000 28.97600 35.90200
H  45.01400 19.70200 31.15200
H  43.63100 20.74800 30.95500
H  44.76600 21.15500 32.14200
H  45.14500 18.76300 29.19800
H  44.33500 18.63000 27.60500
H  43.68600 19.74600 28.83200
H  47.54600 23.72500 24.69800
H  49.85000 25.71700 24.90400
H  50.24700 23.49700 24.37300
H  48.98700 22.36900 24.60900
H  49.94800 22.76200 26.01800
H  47.59200 27.39600 24.75100
H  47.08600 25.91200 23.90400
H  48.18600 26.39000 22.15200
H  49.72000 26.74900 22.95000
H  48.37000 28.00100 22.77000
H  51.31400 30.10400 27.77400
H  49.96100 31.07700 28.19300
H  49.83400 29.88600 26.81500
H  47.97900 29.50600 32.98000
H  50.82400 27.65500 35.43100
H  50.19300 28.69900 36.66900
H  51.37600 29.36300 35.63700

