158

Mg 16.13400 -1.46000 27.83500
C  14.81000 0.40800 30.47600
C  17.99800 -3.28000 30.09600
C  17.43200 -3.12600 25.35800
C  14.08300 0.38000 25.68600
N  16.45500 -1.38500 29.98600
C  15.76600 -0.57300 30.91500
C  16.22900 -0.82700 32.26400
C  17.36800 -1.88500 32.18300
C  17.32000 -2.20300 30.64700
C  18.77500 -1.47100 32.65900
C  15.04300 -1.08300 33.20400
C  15.05600 -0.27200 34.44600
H  16.35100 0.24600 35.14000
N  17.41800 -3.10500 27.73000
C  18.02700 -3.70700 28.73400
C  18.79200 -4.83200 28.21500
C  18.57800 -4.90300 26.84000
C  17.77100 -3.66900 26.56900
C  19.49600 -5.81200 29.14900
C  19.14400 -5.89700 25.90300
O  18.97300 -5.72700 24.73800
C  20.02500 -6.98000 26.28300
N  15.87500 -1.21400 25.85900
C  16.62300 -2.05000 25.04100
C  16.39300 -1.64300 23.48400
C  15.21700 -0.65000 23.61300
C  15.02900 -0.49800 25.13900
C  17.69200 -1.10400 22.77500
C  13.83300 -0.97100 22.95500
C  13.50600 -0.07800 21.79400
N  14.72900 0.09100 27.98700
C  13.98500 0.74100 27.02500
C  13.11400 1.72300 27.57800
C  13.36600 1.69100 28.92800
C  14.36400 0.63300 29.13600
C  12.13700 2.55400 26.86300
C  13.06900 2.22300 30.22800
O  12.35500 3.22000 30.55300
C  13.95900 1.43000 31.30700
C  14.87900 2.38300 32.05200
O  15.92100 2.85800 31.63500
O  14.28700 2.68700 33.30600
C  14.99700 3.70700 34.20400
H  18.59500 -3.86000 30.80400
H  18.02800 -3.49900 24.52200
H  13.41700 0.88300 24.98200
H  16.68300 0.04800 32.73000
H  17.06600 -2.75100 32.77200
H  18.69900 -0.63100 33.35000
H  19.29100 -1.30800 31.71300
H  19.31600 -2.21000 33.25200
H  15.23500 -2.05800 33.65100
H  14.04500 -1.09300 32.76600
H  14.65300 -0.84300 35.28300
H  14.26200 0.46200 34.30800
H  20.27000 -6.32100 28.57400
H  18.83300 -6.54600 29.60700
H  19.93800 -5.28200 29.99200
H  19.54200 -7.66700 26.97700
H  20.94500 -6.52700 26.65100
H  20.29900 -7.56200 25.40400
H  16.12400 -2.56500 22.96800
H  15.53900 0.32800 23.25700
H  18.40400 -0.92500 23.58000
H  17.48200 -0.11700 22.36100
H  18.01800 -1.86200 22.06300
H  13.03600 -1.00600 23.69700
H  13.93800 -1.96000 22.50700
H  13.71400 -0.56100 20.84000
H  13.94700 0.90100 21.98400
H  12.44200 0.10300 21.94800
H  11.44100 2.78200 27.67000
H  11.56700 1.96700 26.14300
H  12.61500 3.46500 26.50300
H  13.32600 0.95000 32.05300
H  16.08200 3.71500 34.09300
H  14.75300 3.37400 35.21300
H  14.68800 4.70300 33.88600
Mg 45.09400 4.34100 45.85200
C  43.32300 7.30900 45.77200
C  42.05000 2.62400 45.20500
C  46.79200 1.54100 45.24400
C  48.03700 6.23300 45.67800
N  43.03900 4.89000 45.39600
C  42.56700 6.17400 45.54700
C  41.03900 6.27700 45.49000
C  40.59000 4.79000 45.34300
C  41.98000 4.01500 45.28200
C  39.63300 4.32300 46.51500
C  40.48100 7.23700 44.21500
C  41.39900 7.41300 42.94400
H  40.76000 7.21000 41.56500
N  44.51900 2.33300 45.41800
C  43.21300 1.84900 45.19100
C  43.22000 0.45400 44.96900
C  44.63300 0.05500 44.93500
C  45.38300 1.32200 45.22600
C  42.02700 -0.39900 44.69500
C  45.21900 -1.38300 44.69100
O  44.46000 -2.32300 44.50000
C  46.79100 -1.55800 44.50100
N  47.17400 3.98000 45.41600
C  47.60000 2.68500 45.45800
C  49.13300 2.63000 45.67500
C  49.51100 4.14100 45.68600
C  48.18500 4.85400 45.55100
C  49.58700 1.93600 47.02900
C  50.53900 4.58300 44.58700
C  51.70100 3.69000 44.15000
N  45.64600 6.44500 45.84400
C  46.88500 7.07600 45.79800
C  46.71200 8.50000 45.95200
C  45.30300 8.67300 46.00500
C  44.74200 7.41300 45.86800
C  47.84600 9.46900 45.90200
C  44.23600 9.59300 46.14900
O  44.24100 10.81100 46.39700
C  42.91600 8.74900 46.07600
C  42.19600 9.06100 47.29600
O  42.24900 8.43200 48.35700
O  41.42300 10.13000 47.14700
C  40.93400 10.88800 48.27900
H  41.04800 2.26900 44.95200
H  47.51000 0.72300 45.15400
H  48.98900 6.75100 45.80700
H  40.55900 6.72900 46.35800
H  40.02300 4.66900 44.42000
H  39.14600 3.42500 46.13600
H  39.03800 5.16800 46.86200
H  40.37900 4.04300 47.26000
H  40.13200 8.20200 44.58300
H  39.53300 6.76200 43.96200
H  42.20200 6.67600 42.96500
H  41.84500 8.40000 42.82400
H  42.12700 -0.70100 43.65200
H  41.00500 -0.08600 44.90900
H  42.26000 -1.32400 45.22200
H  47.07300 -2.59600 44.32400
H  47.20300 -1.34800 45.48800
H  47.09500 -0.94400 43.65300
H  49.59900 2.21000 44.78400
H  50.02100 4.50100 46.58000
H  49.94700 2.64500 47.77500
H  50.34600 1.16700 46.88600
H  48.74800 1.42700 47.50300
H  50.88700 5.59000 44.81700
H  49.94600 4.89000 43.72500
H  51.65400 3.39100 43.10300
H  51.81300 2.79900 44.76700
H  52.64100 4.22900 44.26600
H  48.35500 9.43200 46.86500
H  47.26800 10.36700 45.68300
H  48.63800 9.27100 45.17900
H  42.41600 9.14100 45.19000
H  41.79700 11.46000 48.61800
H  40.76400 10.25500 49.15000
H  40.10400 11.49500 47.91500

