158

Mg 8.15700 2.32800 28.54200
C  9.65600 0.87900 31.44100
C  6.32000 4.38600 30.68800
C  6.69800 3.48800 25.95700
C  9.59100 -0.33900 26.69400
N  8.00100 2.60900 30.80800
C  8.81900 2.03400 31.76000
C  8.48800 2.59600 33.17000
C  7.29600 3.58300 32.90400
C  7.22400 3.57000 31.34900
C  6.07600 3.16100 33.59500
C  9.68000 3.13600 33.82800
C  10.11100 2.60000 35.15900
H  10.71200 3.52800 36.16700
N  6.60000 3.72100 28.28300
C  6.00300 4.48300 29.32700
C  5.15100 5.42800 28.65400
C  5.23800 5.26200 27.20400
C  6.15800 4.11400 27.08300
C  4.25800 6.34700 29.27300
C  4.71200 5.97700 26.09900
O  4.95200 5.64300 24.94900
C  3.84400 7.26300 26.29000
N  8.12100 1.62300 26.59800
C  7.53800 2.40100 25.69800
C  7.64800 1.73000 24.24700
C  8.73000 0.68800 24.50700
C  8.82600 0.66100 25.99900
C  6.30200 1.22400 23.66100
C  10.14300 1.06400 23.81500
C  11.34500 1.66000 24.70100
N  9.41300 0.60400 28.94900
C  9.88600 -0.37200 28.11100
C  10.73900 -1.22000 28.78600
C  10.70000 -0.78600 30.17300
C  9.86200 0.33600 30.18600
C  11.71900 -2.25800 28.17400
C  11.13800 -1.05800 31.50700
O  11.77600 -2.03800 31.89600
C  10.53600 0.04100 32.42400
C  9.74300 -0.69700 33.44500
O  8.60300 -1.13100 33.26100
O  10.39300 -0.67800 34.67400
C  9.66400 -1.07700 35.92600
H  5.74700 5.02000 31.36800
H  6.30300 3.77000 24.97900
H  9.96600 -1.07800 25.98200
H  8.09300 1.77200 33.76300
H  7.68800 4.54400 33.23900
H  5.50500 2.45100 32.99600
H  5.27800 3.90200 33.63000
H  6.27400 2.85600 34.62300
H  9.64400 4.22000 33.93700
H  10.50800 2.95100 33.14400
H  10.85700 1.84500 34.91200
H  9.29600 2.05300 35.63400
H  4.65100 7.33200 29.02200
H  4.12600 6.12200 30.33100
H  3.33500 6.13500 28.73300
H  2.82000 7.03300 26.58700
H  3.90300 7.69700 25.29200
H  4.30100 7.97400 26.97800
H  8.05400 2.50600 23.59800
H  8.35000 -0.25300 24.10900
H  5.48400 1.20500 24.38000
H  6.38900 0.18800 23.33600
H  5.98100 1.73600 22.75400
H  10.00400 1.71700 22.95300
H  10.39200 0.13000 23.31300
H  10.91400 1.75200 25.69800
H  11.53700 2.67300 24.34500
H  12.21300 1.00200 24.67000
H  12.34900 -1.82200 27.39800
H  11.24300 -3.12300 27.71300
H  12.34400 -2.52700 29.02600
H  11.35200 0.63100 32.84100
H  8.85300 -0.37900 36.13900
H  10.37300 -1.09900 36.75300
H  9.17400 -2.05000 35.90800
Mg 16.59200 -2.42800 28.86700
C  15.50000 -0.41500 31.50400
C  18.37500 -4.24500 31.01900
C  17.59500 -4.20000 26.25300
C  14.95100 -0.20200 26.64700
N  17.01600 -2.20900 31.01500
C  16.40900 -1.36800 31.95600
C  16.93500 -1.59400 33.39900
C  17.89000 -2.82500 33.09800
C  17.71800 -3.16700 31.60300
C  19.35900 -2.57900 33.63800
C  15.84600 -1.84300 34.47800
C  15.94300 -0.89700 35.70400
H  17.32800 -0.37100 36.13200
N  17.82600 -4.11200 28.63500
C  18.49000 -4.67400 29.66000
C  19.11800 -5.90300 29.19300
C  19.01800 -5.87900 27.73600
C  18.15100 -4.69900 27.46100
C  19.87800 -6.86300 30.07300
C  19.61500 -6.78800 26.71600
O  19.29500 -6.65900 25.55100
C  20.51200 -7.87600 27.03600
N  16.31400 -2.23700 26.76300
C  16.76300 -3.10000 25.89300
C  16.36700 -2.70300 24.40200
C  15.29600 -1.63100 24.65900
C  15.50200 -1.33900 26.08500
C  17.49400 -2.36400 23.48800
C  13.84600 -2.10100 24.37100
C  13.60400 -2.42900 22.89900
N  15.48500 -0.65600 28.96200
C  14.93900 0.20800 27.98600
C  14.11400 1.32400 28.61100
C  14.25800 1.05200 29.97200
C  15.15500 -0.11500 30.13300
C  13.19400 2.30400 28.02400
C  13.85900 1.48000 31.31600
O  13.00300 2.28600 31.69100
C  14.84100 0.64600 32.34400
C  15.69700 1.58900 33.02300
O  16.94800 1.65500 32.88600
O  15.01200 2.33500 33.93900
C  15.85400 3.27600 34.68700
H  18.94300 -4.87800 31.70400
H  18.08000 -4.65400 25.38600
H  14.43800 0.36300 25.86700
H  17.57100 -0.73600 33.61400
H  17.73000 -3.70500 33.72200
H  20.09900 -2.88800 32.90000
H  19.47900 -3.26800 34.47300
H  19.58700 -1.57500 33.99700
H  15.78000 -2.85800 34.87000
H  14.92200 -1.74400 33.90700
H  15.49500 -1.47100 36.51500
H  15.35100 0.01100 35.59000
H  19.34200 -6.82100 31.02100
H  20.86900 -6.43100 30.21400
H  19.99500 -7.93300 29.90500
H  21.29400 -7.40800 27.63400
H  20.91000 -8.26900 26.10100
H  20.05300 -8.66600 27.63000
H  15.79000 -3.47500 23.89200
H  15.46600 -0.66700 24.18000
H  18.36600 -2.31300 24.14100
H  17.34000 -1.40700 22.99100
H  17.64900 -3.12800 22.72700
H  13.13400 -1.31700 24.62900
H  13.44700 -2.92200 24.96700
H  12.77300 -1.87000 22.47000
H  13.30600 -3.47200 22.79300
H  14.47400 -2.27900 22.26000
H  12.21900 1.81900 27.96600
H  13.39800 2.66000 27.01500
H  13.30200 3.17100 28.67600
H  14.23500 0.16700 33.11200
H  15.83400 4.21400 34.13300
H  16.88300 3.01200 34.93000
H  15.33000 3.37600 35.63700

