158

Mg -2.23200 17.87400 27.34500
C  -2.61500 15.56900 30.17200
C  -2.33300 20.25300 29.61300
C  -2.24600 19.78800 24.80200
C  -2.96100 15.01300 25.26700
N  -2.62000 17.88500 29.62600
C  -2.52900 16.90700 30.59100
C  -2.52500 17.48900 32.03300
C  -2.83800 18.96500 31.71100
C  -2.63600 19.04600 30.17000
C  -4.19800 19.53300 32.03700
C  -1.20800 17.19900 32.83100
C  -0.87300 18.11300 34.02600
H  -0.60300 17.43700 35.35200
N  -2.09500 19.78100 27.26200
C  -2.07500 20.64300 28.27300
C  -1.84000 21.93200 27.68700
C  -1.62300 21.78500 26.26200
C  -2.01700 20.39100 26.08000
C  -1.95300 23.21000 28.51500
C  -1.31900 22.80100 25.20700
O  -1.22200 22.55900 24.01900
C  -0.99800 24.23300 25.66600
N  -2.46900 17.40100 25.36500
C  -2.50600 18.46100 24.48300
C  -2.83100 17.94800 23.02800
C  -2.98900 16.48200 23.24600
C  -2.78000 16.29900 24.71700
C  -3.92400 18.69800 22.41100
C  -2.12300 15.59100 22.32700
C  -0.65000 15.43200 22.67200
N  -2.67300 15.68900 27.56600
C  -2.94100 14.70900 26.65700
C  -2.90700 13.43200 27.28600
C  -2.91600 13.72300 28.64400
C  -2.77000 15.12000 28.83600
C  -2.80800 12.11400 26.65400
C  -2.90000 13.15800 29.98800
O  -2.89700 11.92200 30.25900
C  -2.81100 14.38900 30.99500
C  -1.70000 14.07100 31.91800
O  -0.51400 14.18400 31.72700
O  -2.29800 13.45700 33.07800
C  -1.34600 13.32600 34.19000
H  -2.11100 21.11500 30.24600
H  -2.24800 20.56300 24.03300
H  -3.21900 14.14400 24.65800
H  -3.32900 16.94700 32.53000
H  -2.30100 19.75500 32.23600
H  -4.91800 19.61100 31.22200
H  -4.24600 20.40600 32.68800
H  -4.63900 18.74100 32.64200
H  -0.37700 17.21600 32.12600
H  -1.47400 16.23900 33.27400
H  -1.74600 18.75600 34.14200
H  -0.01000 18.73700 33.79300
H  -2.29300 23.05000 29.53800
H  -2.57100 23.93400 27.98400
H  -1.02200 23.77500 28.46800
H  -0.34100 24.19500 26.53500
H  -1.95200 24.74600 25.78900
H  -0.57200 24.74500 24.80300
H  -1.94900 18.12600 22.41300
H  -4.03100 16.16600 23.19200
H  -3.71000 19.76700 22.41200
H  -4.97000 18.56000 22.68400
H  -3.92500 18.59600 21.32600
H  -2.13300 15.99200 21.31300
H  -2.69000 14.66200 22.27400
H  -0.42000 15.83300 23.65900
H  -0.06800 15.95000 21.91000
H  -0.27000 14.41200 22.71900
H  -2.20500 11.50300 27.32600
H  -2.37600 12.15500 25.65400
H  -3.82000 11.73800 26.50200
H  -3.81700 14.51900 31.39500
H  -1.89800 13.37300 35.12800
H  -0.63900 14.15600 34.18000
H  -0.89100 12.34700 34.03900
Mg 16.20800 -1.45100 28.92700
C  15.08100 0.80800 31.52000
C  18.04100 -3.08500 31.12600
C  17.43200 -3.28500 26.29000
C  14.32300 0.43200 26.75100
N  16.23300 -1.28200 31.06500
C  15.85300 -0.27400 31.93300
C  16.24900 -0.60400 33.37600
C  17.19100 -1.86900 33.23500
C  17.11000 -2.15400 31.71400
C  18.64600 -1.66500 33.67000
C  15.03200 -0.95700 34.19100
C  15.14700 -0.52600 35.58700
H  16.52100 -0.24500 36.24700
N  17.50200 -2.99300 28.73400
C  18.15700 -3.48600 29.79200
C  18.99500 -4.57400 29.32300
C  18.86500 -4.60400 27.90900
C  17.92300 -3.53700 27.58700
C  19.75400 -5.52300 30.21700
C  19.62600 -5.55700 26.93200
O  19.42700 -5.41000 25.74200
C  20.59000 -6.60300 27.46100
N  16.06200 -1.22600 26.76600
C  16.64800 -2.18300 25.95200
C  16.26000 -1.83900 24.45900
C  15.14500 -0.77700 24.62000
C  15.14000 -0.53200 26.11700
C  17.51100 -1.40000 23.61900
C  13.75100 -1.23000 24.14200
C  12.97100 -0.15300 23.38200
N  14.95700 0.31600 29.07100
C  14.21600 0.82400 28.09100
C  13.39700 1.91700 28.58900
C  13.75300 1.99800 29.95100
C  14.65900 1.01200 30.20400
C  12.49600 2.71300 27.76400
C  13.50100 2.63400 31.25800
O  12.67100 3.53900 31.53400
C  14.38200 1.84000 32.32500
C  15.30900 2.86600 32.80700
O  16.20500 3.34800 32.13700
O  15.02200 3.04300 34.15200
C  15.48100 4.38900 34.56400
H  18.57700 -3.67700 31.87000
H  17.63900 -4.01800 25.50800
H  13.70700 1.06600 26.10900
H  16.74700 0.28200 33.77000
H  16.69000 -2.64900 33.80800
H  19.43700 -1.92300 32.96500
H  18.61800 -2.26800 34.57700
H  18.73900 -0.60700 33.91400
H  14.75900 -2.01000 34.26200
H  14.16100 -0.48700 33.73500
H  14.50100 -1.22000 36.12400
H  14.65600 0.44200 35.68600
H  20.79300 -5.37700 29.92200
H  19.37600 -6.52000 29.98900
H  19.70100 -5.33400 31.28900
H  21.02500 -7.24100 26.69100
H  20.24200 -7.29600 28.22700
H  21.37700 -5.99600 27.91000
H  15.91900 -2.77700 24.02100
H  15.56500 0.10800 24.14000
H  17.70100 -0.32800 23.67800
H  17.26400 -1.60300 22.57700
H  18.43200 -1.91400 23.89100
H  13.11800 -1.40600 25.01200
H  13.87300 -2.19200 23.64300
H  12.07500 -0.59800 22.94900
H  13.53900 0.45100 22.67400
H  12.57700 0.56100 24.10500
H  11.87900 2.05800 27.14900
H  13.10600 3.22600 27.02000
H  11.98200 3.44700 28.38400
H  13.72400 1.40700 33.07800
H  15.24600 5.22400 33.90400
H  16.54700 4.32500 34.78400
H  14.88200 4.64200 35.43900

