158

Mg -0.21800 7.52400 26.92500
C  0.73400 9.48600 29.75000
C  -0.84500 4.96100 28.98900
C  -0.65700 5.56900 24.15700
C  0.69800 10.17700 24.83200
N  0.01000 7.26600 29.15200
C  0.26500 8.21400 30.10200
C  -0.09900 7.73300 31.54600
C  -0.41000 6.21000 31.27900
C  -0.37700 6.05700 29.69800
C  0.71800 5.24200 31.82900
C  -1.30600 8.41600 32.31400
C  -1.19800 8.61100 33.83000
H  -0.40900 7.61300 34.72100
N  -0.73800 5.49100 26.64200
C  -1.06000 4.57500 27.64000
C  -1.52500 3.33000 27.05000
C  -1.46700 3.47800 25.63800
C  -0.92000 4.87100 25.43000
C  -1.75700 2.12400 27.94400
C  -1.92700 2.51900 24.61700
O  -1.79700 2.79300 23.38900
C  -2.42400 1.10400 24.89700
N  -0.00000 7.85400 24.77900
C  -0.25000 6.88800 23.86500
C  -0.04700 7.52400 22.38200
C  -0.07600 9.09200 22.63300
C  0.22200 9.06700 24.17900
C  1.19200 6.93700 21.75600
C  -1.41100 9.80100 22.34300
C  -1.39100 11.22200 21.75500
N  0.69800 9.42800 27.15700
C  0.92600 10.43800 26.19000
C  1.42300 11.59500 26.95500
C  1.37300 11.34200 28.33900
C  0.92800 9.96400 28.40800
C  1.85600 12.86200 26.26000
C  1.61700 11.81800 29.76400
O  2.01700 12.84000 30.25800
C  0.95400 10.69100 30.67800
C  1.87400 10.51100 31.81300
O  2.87300 9.80700 31.83100
O  1.54300 11.42800 32.80200
C  2.28600 11.18400 34.05500
H  -1.02200 4.05200 29.56900
H  -0.83900 4.99200 23.24900
H  0.90500 11.08900 24.26800
H  0.87400 7.71900 32.03600
H  -1.34200 5.94600 31.77900
H  1.53500 5.82100 32.25900
H  1.09500 4.67800 30.97600
H  0.28600 4.55800 32.55900
H  -2.19600 7.81500 32.12500
H  -1.46700 9.35900 31.79100
H  -2.19700 8.67400 34.26100
H  -0.70800 9.56300 34.03200
H  -2.73400 1.78100 27.60400
H  -1.92000 2.31800 29.00400
H  -1.06300 1.28900 27.84800
H  -2.78700 0.57700 24.01400
H  -3.29000 1.27200 25.53900
H  -1.67400 0.53500 25.44600
H  -0.99900 7.19100 21.96700
H  0.73500 9.52400 22.04700
H  1.05500 6.38000 20.82900
H  1.65500 6.17600 22.38500
H  1.92300 7.68500 21.45200
H  -1.87800 9.95900 23.31500
H  -2.08100 9.10400 21.83900
H  -1.64200 11.28300 20.69600
H  -0.43200 11.73100 21.85500
H  -1.94200 11.87600 22.43100
H  2.42500 12.55800 25.38200
H  2.54500 13.32900 26.96300
H  0.98100 13.48800 26.08200
H  0.02700 11.15600 31.01200
H  3.00400 10.36400 34.09700
H  1.68300 11.18500 34.96300
H  2.72600 12.18100 34.02000
Mg -10.97800 16.56000 40.99200
C  -7.53900 15.68000 40.93600
C  -10.04900 19.79000 40.46700
C  -14.21900 17.20600 40.35900
C  -11.71700 13.09000 40.99600
N  -8.96100 17.66300 40.87100
C  -7.72300 17.04000 40.90600
C  -6.64000 18.10200 40.74200
C  -7.42800 19.49300 40.91100
C  -8.89400 18.96200 40.72000
C  -7.28600 20.15600 42.23300
C  -5.85900 17.91400 39.48200
C  -4.35000 17.76700 39.48500
H  -3.83000 16.56500 38.68300
N  -11.99100 18.29400 40.55800
C  -11.41300 19.52900 40.43100
C  -12.51200 20.42200 40.10300
C  -13.78100 19.72100 40.14300
C  -13.39000 18.32000 40.31600
C  -12.19200 21.84700 39.91400
C  -15.16400 20.32200 40.01500
O  -15.26600 21.50900 39.92200
C  -16.43800 19.56100 40.13800
N  -12.69700 15.33200 40.63900
C  -13.91200 15.87500 40.48200
C  -14.97500 14.86400 40.45800
C  -14.24100 13.48100 40.66200
C  -12.77500 13.97700 40.73900
C  -16.16700 15.09300 41.38700
C  -14.45100 12.47600 39.48100
C  -14.81500 10.93900 39.65800
N  -9.90200 14.73700 41.03400
C  -10.35900 13.41100 41.07900
C  -9.25700 12.48200 41.19000
C  -8.13100 13.27400 41.09900
C  -8.53900 14.67900 40.92800
C  -9.36900 10.99100 41.27800
C  -6.73500 13.28900 41.09300
O  -5.96100 12.36900 41.17300
C  -6.30000 14.84700 41.07600
C  -5.62100 14.98300 42.32400
O  -6.15700 15.48900 43.33200
O  -4.25900 14.62400 42.26100
C  -3.53300 14.61900 43.49800
H  -9.87400 20.85200 40.28500
H  -15.30800 17.27300 40.33900
H  -12.02700 12.04600 41.07400
H  -5.97800 17.96100 41.59600
H  -7.04900 20.23000 40.20300
H  -6.80100 19.54600 42.99600
H  -8.13300 20.66600 42.69300
H  -6.64700 21.01900 42.04600
H  -6.02500 18.79300 38.85900
H  -6.27000 17.03900 38.97800
H  -4.03000 17.74900 40.52700
H  -3.86900 18.60100 38.97300
H  -11.66100 21.96300 38.97000
H  -11.41300 22.08600 40.63900
H  -12.95700 22.62400 39.93100
H  -16.48200 19.07800 39.16200
H  -17.34800 20.15800 40.19100
H  -16.50900 18.83800 40.95100
H  -15.41600 14.93100 39.46300
H  -14.52800 13.09000 41.63800
H  -16.46000 14.20500 41.94800
H  -16.95300 15.57600 40.80600
H  -15.87700 15.81700 42.14800
H  -13.47500 12.46100 38.99700
H  -15.16600 12.84200 38.74400
H  -15.11200 10.73800 40.68800
H  -13.98700 10.26000 39.45400
H  -15.61100 10.66200 38.96600
H  -10.26400 10.68900 41.82200
H  -8.52700 10.61000 41.85500
H  -9.31800 10.57300 40.27200
H  -5.63500 14.91300 40.21400
H  -3.27200 15.65700 43.70500
H  -2.65800 14.01900 43.24700
H  -4.02700 14.10800 44.32400

