158

Mg 10.11500 47.79300 25.92500
C  8.29300 48.11300 29.07600
C  12.89000 49.07300 27.64600
C  11.71800 47.66300 23.08700
C  7.03500 47.05000 24.45600
N  10.51200 48.54300 28.10800
C  9.65700 48.45900 29.21800
C  10.46600 48.83400 30.47900
C  11.79900 49.49600 29.91700
C  11.75300 48.88700 28.50700
C  11.83600 51.04400 29.90400
C  10.69800 47.62700 31.50700
C  10.38100 48.00900 32.96400
H  10.26200 46.89600 34.06200
N  12.08800 48.34500 25.36700
C  13.07400 48.89600 26.19800
C  14.27500 49.03200 25.40000
C  13.92500 48.60900 24.07200
C  12.51100 48.23100 24.11600
C  15.57000 49.53700 25.98400
C  14.72900 48.51300 22.83400
O  14.25900 48.26900 21.74000
C  16.18700 48.74000 22.88300
N  9.47800 47.47100 24.08400
C  10.33500 47.34700 23.08400
C  9.66800 46.94100 21.78000
C  8.22100 46.55700 22.22500
C  8.22400 47.05300 23.61500
C  9.62100 48.03200 20.58800
C  7.93500 45.00700 22.19300
C  8.88100 44.13300 23.13500
N  8.04200 47.65100 26.53100
C  6.89200 47.41000 25.82800
C  5.68900 47.41800 26.64500
C  6.21200 47.56900 27.96100
C  7.63000 47.69900 27.84500
C  4.30900 47.37200 26.16600
C  5.91100 47.64900 29.35500
O  4.82900 47.65600 29.89400
C  7.20900 47.88300 30.18500
C  7.30100 46.68200 31.00900
O  7.76500 45.61200 30.62300
O  6.87900 46.88700 32.33800
C  6.85500 45.71400 33.13000
H  13.78400 49.22300 28.25500
H  12.09500 47.48400 22.07800
H  6.10500 46.73500 23.97700
H  9.87200 49.62300 30.94000
H  12.71700 49.25200 30.45200
H  11.97900 51.35600 28.86900
H  12.60900 51.36900 30.60000
H  10.86800 51.36400 30.29000
H  11.72100 47.26700 31.39500
H  9.97900 46.84700 31.25800
H  9.56700 48.73300 32.99900
H  11.22800 48.57100 33.35700
H  15.45300 49.79500 27.03700
H  15.96400 50.34700 25.37000
H  16.33500 48.76100 25.95400
H  16.50900 49.77100 22.74000
H  16.48900 48.11800 22.04100
H  16.71200 48.31900 23.74000
H  10.23400 46.08500 21.41200
H  7.43200 47.03200 21.64200
H  10.57600 48.03700 20.06300
H  9.39200 49.01200 21.00700
H  8.77700 47.75400 19.95600
H  8.04000 44.69800 21.15400
H  6.87100 44.93400 22.41800
H  8.29100 43.61500 23.89100
H  9.76900 44.71300 23.38400
H  9.20500 43.34500 22.45500
H  3.65600 47.32200 27.03700
H  4.19400 46.49200 25.53300
H  4.02100 48.33000 25.73200
H  6.96700 48.78900 30.74200
H  7.59800 45.90100 33.90600
H  7.10700 44.73600 32.72100
H  5.88700 45.70300 33.63100
Mg -5.30000 25.13300 26.04000
C  -4.03600 26.31000 28.93300
C  -7.35600 23.07400 27.69000
C  -6.34500 23.97500 23.09500
C  -3.00700 27.34800 24.32500
N  -5.71900 24.80800 28.10600
C  -5.10800 25.45600 29.17000
C  -5.63900 24.85600 30.53500
C  -6.49000 23.67200 30.06800
C  -6.55000 23.82800 28.50900
C  -6.13100 22.21400 30.44400
C  -6.46600 26.01100 31.23000
C  -6.31500 26.06000 32.79300
H  -5.72200 24.86900 33.59700
N  -6.66500 23.63300 25.43900
C  -7.46500 23.02100 26.26300
C  -8.41500 22.24700 25.51000
C  -8.13800 22.48100 24.14300
C  -6.97100 23.35600 24.16800
C  -9.39700 21.37800 26.17700
C  -8.85300 22.05400 22.90600
O  -8.48600 22.38300 21.76900
C  -10.08300 21.22500 23.06600
N  -4.74400 25.60500 23.95500
C  -5.32200 24.92600 22.91800
C  -4.60100 25.21200 21.64500
C  -3.72700 26.45000 21.98200
C  -3.77300 26.45000 23.52000
C  -3.81400 23.87400 21.07000
C  -4.24300 27.82000 21.36400
C  -3.11300 28.89500 21.06600
N  -3.78400 26.51200 26.45600
C  -2.93600 27.35700 25.73900
C  -2.05300 28.09000 26.59900
C  -2.48100 27.70600 27.86300
C  -3.50300 26.78300 27.72900
C  -0.98400 29.09200 26.30300
C  -2.20700 28.04800 29.28600
O  -1.40100 28.82200 29.85000
C  -3.29900 27.17700 29.99500
C  -2.55500 26.41700 30.96500
O  -2.04400 25.32300 30.76600
O  -2.61800 27.05400 32.18200
C  -1.85600 26.31400 33.16800
H  -7.94000 22.39500 28.31500
H  -6.62300 23.64000 22.09400
H  -2.45600 28.07000 23.71900
H  -4.88300 24.52800 31.24800
H  -7.53300 23.85600 30.32600
H  -5.51500 21.69000 29.71200
H  -7.10900 21.73400 30.48700
H  -5.73000 22.06600 31.44700
H  -7.52100 26.00500 30.95300
H  -5.99000 26.93100 30.89100
H  -7.29700 26.28100 33.21300
H  -5.59800 26.85200 33.00900
H  -9.73800 20.51400 25.60600
H  -10.19500 22.06900 26.44700
H  -8.99900 21.06200 27.14200
H  -9.69600 20.30800 23.51100
H  -10.45800 20.92800 22.08600
H  -10.69600 21.73600 23.80700
H  -5.28900 25.52100 20.85800
H  -2.68600 26.32300 21.68200
H  -2.96600 23.60500 21.70000
H  -3.36400 24.01600 20.08800
H  -4.39200 22.96300 21.22800
H  -4.96300 28.19500 22.09200
H  -4.86800 27.61700 20.49500
H  -3.48100 29.82300 21.50600
H  -2.98300 29.10800 20.00500
H  -2.14700 28.68600 21.52400
H  -0.57600 29.10100 25.29200
H  -0.11700 29.06000 26.96300
H  -1.49500 30.03400 26.50600
H  -3.90400 27.92000 30.51400
H  -2.34600 25.39200 33.48300
H  -1.71100 26.99400 34.00700
H  -0.84000 26.15300 32.80700

