158

Mg 49.39000 44.55500 42.95700
C  45.99100 45.16300 42.40000
C  48.72900 41.21600 42.29500
C  52.70900 43.97300 42.77200
C  49.94100 47.94500 43.04400
N  47.59300 43.34200 42.29500
C  46.32800 43.80100 42.06600
C  45.44700 42.62400 41.58700
C  46.28000 41.38000 42.16000
C  47.64600 42.04500 42.15100
C  45.86500 40.88500 43.58900
C  45.28800 42.55000 40.03400
C  43.85400 42.27900 39.51100
H  43.44000 42.91700 38.28700
N  50.56800 42.81500 42.73400
C  50.12900 41.52900 42.50700
C  51.19000 40.68800 42.50200
C  52.36200 41.38400 42.72200
C  51.93200 42.74800 42.81600
C  51.03300 39.23500 42.27900
C  53.77100 40.83500 42.66900
O  53.95800 39.64100 42.37000
C  54.97500 41.68600 42.90900
N  51.09400 45.73900 42.75200
C  52.33800 45.28100 42.81800
C  53.37700 46.49200 42.93600
C  52.47300 47.74000 43.03100
C  51.07100 47.13700 42.80800
C  54.34500 46.37700 44.13600
C  52.74900 48.88200 42.09800
C  52.75500 50.34100 42.78800
N  48.23200 46.27800 42.93200
C  48.57200 47.56200 43.00600
C  47.34000 48.33600 43.14700
C  46.27900 47.44900 42.95200
C  46.91200 46.20300 42.76400
C  47.26600 49.89000 43.29000
C  44.91500 47.35600 42.80500
O  44.09900 48.21200 42.97600
C  44.62900 45.81400 42.48900
C  43.88600 45.06800 43.50000
O  44.27800 44.63700 44.54900
O  42.62800 44.67700 43.01500
C  41.70300 43.98700 43.92300
H  48.53200 40.18400 42.00100
H  53.79900 44.01200 42.84000
H  50.13400 48.98200 43.32800
H  44.49500 42.66500 42.11500
H  46.30100 40.50200 41.51500
H  44.77800 40.86200 43.66300
H  46.26400 41.60300 44.30500
H  46.20300 39.87100 43.80500
H  46.03300 41.86400 39.63000
H  45.54500 43.55400 39.69700
H  43.16800 42.55600 40.31100
H  43.86600 41.19500 39.39800
H  51.70300 38.58500 42.84100
H  51.19500 39.04000 41.21900
H  50.02000 38.87200 42.45300
H  55.19400 42.22000 41.98500
H  55.76600 40.93600 42.91700
H  54.83000 42.24500 43.83400
H  53.95700 46.54600 42.01500
H  52.44800 48.14500 44.04300
H  54.18700 47.12600 44.91200
H  55.31300 46.60200 43.68900
H  54.28400 45.37100 44.55000
H  51.96100 48.87700 41.34500
H  53.71600 48.78900 41.60400
H  53.72500 50.82600 42.89800
H  52.26800 50.25700 43.76000
H  52.11000 51.03800 42.25200
H  48.24100 50.33200 43.49300
H  46.61300 50.17100 44.11700
H  46.76700 50.31300 42.41700
H  44.18200 45.65700 41.50700
H  41.86800 44.38100 44.92600
H  41.98200 42.93400 43.88900
H  40.65700 44.14000 43.66000
Mg 47.54000 33.87000 26.75400
C  45.49100 33.09400 29.51500
C  48.17200 36.81400 28.46700
C  48.97300 35.04100 24.00400
C  46.20700 31.24000 25.02700
N  47.17100 34.65000 28.94500
C  46.37700 34.09000 29.88500
C  46.59700 34.76900 31.26100
C  47.07200 36.19800 30.71600
C  47.50400 35.92100 29.29500
C  46.07100 37.36200 30.78600
C  47.61400 34.00800 32.19000
C  47.28200 33.78300 33.63800
H  46.31400 34.78600 34.19400
N  48.50000 35.62100 26.36300
C  48.72400 36.72200 27.15600
C  49.45000 37.74500 26.50200
C  49.76600 37.19800 25.20900
C  49.09000 35.87500 25.15800
C  49.92900 39.04600 27.18700
C  50.61300 37.83200 24.05500
O  51.01700 37.20700 23.08100
C  51.02300 39.29300 24.14200
N  47.44000 33.27400 24.67400
C  48.30200 33.83000 23.85200
C  48.31100 33.07600 22.51700
C  47.46300 31.80100 22.85400
C  47.01700 32.09000 24.27300
C  47.89600 33.81900 21.24100
C  48.14600 30.42600 22.57100
C  48.97200 29.84600 23.71500
N  46.08300 32.47300 27.12300
C  45.68200 31.41900 26.33400
C  44.72100 30.56200 27.07300
C  44.56000 31.17700 28.27600
C  45.44900 32.30800 28.29900
C  44.11000 29.29800 26.64100
C  43.90300 31.13500 29.56600
O  43.04300 30.41300 30.06000
C  44.36000 32.46400 30.23900
C  44.61500 31.98700 31.63100
O  45.27900 30.94800 31.93500
O  43.87300 32.69100 32.59400
C  43.80500 32.06600 33.96400
H  48.36300 37.81900 28.84900
H  49.51800 35.42800 23.14000
H  45.90500 30.30700 24.54600
H  45.62500 34.88200 31.74000
H  47.87900 36.59200 31.33200
H  46.36800 38.15000 31.47900
H  45.13400 36.87200 31.05000
H  45.94000 37.85200 29.82100
H  48.56600 34.53700 32.15100
H  47.72000 33.05400 31.67400
H  48.11900 33.82700 34.33500
H  46.90500 32.76100 33.59000
H  50.84200 39.48300 26.78400
H  50.22400 38.62000 28.14600
H  49.09000 39.72600 27.33700
H  50.33700 39.97100 24.64900
H  51.30200 39.75800 23.19700
H  52.00000 39.29700 24.62500
H  49.35600 32.82300 22.34000
H  46.50500 31.86500 22.34000
H  47.45100 34.79700 21.42800
H  47.24500 33.23200 20.59400
H  48.83100 33.92400 20.69000
H  48.85900 30.37800 21.74800
H  47.30400 29.78600 22.31100
H  49.08000 30.57100 24.52200
H  49.96900 29.67300 23.30900
H  48.44300 28.97400 24.10100
H  43.21800 29.52600 26.05700
H  43.80500 28.74900 27.53200
H  44.65500 28.66100 25.94500
H  43.47900 33.10100 30.16600
H  44.85300 31.92300 34.22700
H  43.20600 31.15600 33.98700
H  43.23500 32.75600 34.58700

