158

Mg 45.09900 4.77200 46.31400
C  43.11300 7.58800 46.07500
C  42.26700 2.74000 46.13900
C  47.18800 2.09200 45.54300
C  47.91500 6.79200 45.72800
N  42.89600 5.13600 45.96700
C  42.34800 6.38100 45.97000
C  40.84300 6.31300 45.79100
C  40.56400 4.77000 46.13600
C  41.96000 4.11000 46.16100
C  39.83400 4.60500 47.58400
C  40.09100 6.90400 44.58000
C  41.02800 7.38500 43.39300
H  40.38300 7.48800 41.98400
N  44.78400 2.73500 45.78900
C  43.53000 2.12800 45.83800
C  43.78700 0.71600 45.83500
C  45.14400 0.47300 45.54800
C  45.79200 1.80100 45.57600
C  42.69200 -0.24600 46.14800
C  45.81500 -0.82100 45.17000
O  45.06300 -1.76400 45.27100
C  47.22000 -1.11400 44.67500
N  47.30000 4.46900 45.76400
C  47.88200 3.25600 45.61400
C  49.47400 3.44700 45.61000
C  49.58000 4.93500 45.03400
C  48.18200 5.43100 45.50700
C  50.12800 3.12100 46.99300
C  49.77100 5.00100 43.47000
C  51.22500 5.33700 42.91400
N  45.50500 6.76700 46.13800
C  46.72200 7.46400 46.05100
C  46.42800 8.88300 46.14300
C  45.07400 8.97000 46.25700
C  44.52200 7.67900 46.10600
C  47.23200 10.05600 46.00300
C  43.99700 9.89200 46.47900
O  43.92600 11.07900 46.64400
C  42.70800 9.03900 46.49200
C  41.97500 9.14400 47.77500
O  41.78500 8.31400 48.69300
O  41.34300 10.30400 47.76600
C  40.71400 10.71700 49.01500
H  41.37700 2.12300 46.28100
H  47.86400 1.23700 45.61800
H  48.77500 7.46500 45.70500
H  40.52400 6.94800 46.61800
H  39.98000 4.23000 45.39100
H  39.49000 5.50000 48.10300
H  40.58200 4.11400 48.20600
H  38.94200 3.98100 47.65000
H  39.49600 7.69500 45.03600
H  39.51000 6.06200 44.20500
H  41.89900 6.73100 43.34600
H  41.36900 8.35000 43.76800
H  42.68100 -0.84300 45.23600
H  41.69400 0.16600 46.30000
H  42.94400 -0.90200 46.98100
H  47.31100 -2.10900 44.23900
H  47.80300 -1.08700 45.59600
H  47.38800 -0.29600 43.97400
H  49.96300 2.77600 44.90400
H  50.24600 5.44900 45.72600
H  49.19800 2.91700 47.52400
H  50.60500 3.97400 47.47500
H  50.83800 2.31400 46.81000
H  49.06000 5.70600 43.04000
H  49.51000 4.01600 43.08500
H  51.61900 4.49900 42.34000
H  51.96600 5.56800 43.67900
H  51.27700 6.29700 42.40000
H  47.34200 10.11600 44.92000
H  48.24400 10.03100 46.40600
H  46.67100 10.89600 46.41300
H  42.01900 9.45300 45.75500
H  41.40200 11.04200 49.79600
H  40.15200 9.90300 49.47400
H  39.99900 11.52500 48.86200
Mg 1.24500 41.86800 24.86100
C  3.29000 41.97100 27.79100
C  -1.46500 41.40500 26.99700
C  -0.73100 41.70000 22.18900
C  4.09700 42.44200 22.94800
N  0.94500 41.77100 27.08500
C  1.91700 41.77600 28.11700
C  1.34900 41.58700 29.55200
C  -0.15900 41.47800 29.20500
C  -0.25300 41.55800 27.65000
C  -0.85900 40.24600 29.93900
C  1.61400 42.83900 30.49200
C  1.83600 42.58500 32.00000
H  0.62200 42.86800 32.88800
N  -0.82900 41.77200 24.58200
C  -1.75500 41.54600 25.56900
C  -3.03400 41.43000 24.98400
C  -2.92000 41.57200 23.60600
C  -1.45400 41.69300 23.35500
C  -4.31400 41.30200 25.84800
C  -3.93900 41.68400 22.59200
O  -3.69900 41.66100 21.36600
C  -5.32000 41.78900 22.90100
N  1.71000 41.85600 22.84200
C  0.68700 41.80400 21.96100
C  1.30000 42.00800 20.54300
C  2.70500 42.60000 20.79300
C  2.91200 42.23400 22.26700
C  1.29800 40.78100 19.55200
C  2.83800 44.13300 20.59100
C  4.28300 44.59100 20.12900
N  3.34100 42.07500 25.20600
C  4.38700 42.27400 24.31000
C  5.59800 42.24200 25.01600
C  5.27600 42.13500 26.37100
C  3.84400 42.08400 26.45500
C  6.95400 42.46600 24.49700
C  5.77000 41.99700 27.75400
O  6.90200 42.06700 28.15500
C  4.51000 42.00400 28.70400
C  4.62300 40.92600 29.71000
O  4.35300 39.75500 29.65200
O  5.21400 41.48100 30.79500
C  5.49000 40.71000 31.98500
H  -2.26700 41.02100 27.63200
H  -1.24600 41.80100 21.23200
H  4.91300 42.72100 22.27800
H  1.68400 40.63500 29.96500
H  -0.76000 42.28100 29.63400
H  -1.75900 40.57700 30.45800
H  -0.30100 39.79100 30.75800
H  -1.02400 39.43500 29.23000
H  0.86600 43.62000 30.35400
H  2.58200 43.18300 30.12800
H  2.49200 43.39800 32.31100
H  2.27000 41.61800 32.25400
H  -4.74500 40.35400 25.52700
H  -5.02500 42.12200 25.74500
H  -4.03300 41.10700 26.88300
H  -5.59000 40.78800 23.23800
H  -5.79400 42.03000 21.95000
H  -5.56500 42.60000 23.58700
H  0.71800 42.83600 20.13800
H  3.46900 42.17600 20.14100
H  0.61300 40.84200 18.70600
H  0.93400 39.92300 20.11600
H  2.28100 40.62000 19.10900
H  2.73900 44.59200 21.57400
H  2.09400 44.44600 19.85800
H  4.66100 45.33700 20.82800
H  4.21700 45.07500 19.15500
H  4.99900 43.78200 20.28000
H  7.66300 41.96700 25.15700
H  7.26900 43.50500 24.39500
H  7.10600 41.95600 23.54600
H  4.62400 42.95900 29.21800
H  6.35500 40.07600 31.79200
H  4.57100 40.22700 32.31900
H  5.86900 41.32900 32.79800

