158

Mg 26.75700 0.82800 29.31300
C  28.45900 1.01700 32.35100
C  23.82700 1.73700 31.09300
C  24.98900 0.62500 26.43100
C  29.55000 -0.21800 27.74300
N  26.20500 1.40200 31.51500
C  27.04100 1.34700 32.61600
C  26.34900 1.65800 34.02500
C  24.87300 1.69000 33.49100
C  24.98800 1.58900 31.91000
C  24.01700 0.54700 34.08900
C  26.82700 3.02200 34.53900
C  27.50300 3.00500 35.90000
H  26.82600 3.67100 37.04400
N  24.65000 1.07900 28.86600
C  23.63400 1.41900 29.69700
C  22.43300 1.58900 28.99100
C  22.75800 1.33300 27.63200
C  24.18100 0.90400 27.57300
C  21.06400 1.85400 29.69900
C  21.88600 1.43100 26.35900
O  22.27200 1.20900 25.17200
C  20.44500 1.91900 26.54800
N  27.22700 0.38800 27.40100
C  26.34400 0.32200 26.35200
C  27.01800 0.09800 25.03100
C  28.54200 -0.22400 25.41200
C  28.49300 0.04900 26.90900
C  26.33500 -0.94500 24.12300
C  29.55700 0.64300 24.55400
C  30.53900 -0.21000 23.71700
N  28.56700 0.36900 29.93700
C  29.65000 -0.00600 29.12100
C  30.84100 0.01800 29.92600
C  30.49400 0.36600 31.16200
C  29.03100 0.57000 31.14300
C  32.13200 -0.27500 29.42700
C  30.92100 0.77200 32.47500
O  32.05000 0.89800 32.98900
C  29.65000 0.95300 33.35300
C  29.69200 -0.13500 34.41200
O  29.35600 -1.29500 34.19800
O  30.16500 0.32600 35.64700
C  29.88100 -0.51600 36.79000
H  23.01300 2.05100 31.75000
H  24.41700 0.64600 25.50100
H  30.52500 -0.38500 27.28100
H  26.63400 0.88500 34.73900
H  24.32500 2.60200 33.73000
H  23.27500 1.08400 34.68000
H  24.75700 -0.13200 34.51300
H  23.61800 -0.04900 33.26900
H  26.07000 3.80300 34.60200
H  27.60500 3.29900 33.82800
H  28.46700 3.49400 35.76300
H  27.72000 1.97700 36.19000
H  20.51500 2.61300 29.14100
H  21.12400 2.06500 30.76600
H  20.55700 0.90300 29.53800
H  20.01700 1.82200 25.55100
H  20.54000 2.96800 26.82500
H  19.83800 1.43300 27.31200
H  26.97500 1.07500 24.54800
H  28.71100 -1.28900 25.25000
H  25.58900 -1.46600 24.72300
H  27.12400 -1.58500 23.72700
H  25.83800 -0.38600 23.33000
H  30.06000 1.26300 25.29600
H  28.97700 1.15400 23.78600
H  31.54500 0.15100 23.93000
H  30.38800 0.01900 22.66200
H  30.46500 -1.28800 23.85900
H  32.56200 0.57600 28.89900
H  31.98900 -1.10300 28.73100
H  32.82500 -0.59700 30.20400
H  29.91400 1.85600 33.90400
H  29.48600 0.06300 37.62400
H  30.79300 -0.94500 37.20400
H  29.09700 -1.23900 36.56900
Mg 41.30000 40.42400 26.72100
C  40.11400 42.78100 29.12200
C  41.83600 38.24200 29.37600
C  42.21000 38.04100 24.45900
C  40.86000 42.69600 24.36500
N  41.20800 40.60000 28.92800
C  40.58700 41.57600 29.63800
C  40.44200 41.17200 31.09800
C  41.06100 39.72900 31.19000
C  41.37200 39.49100 29.73000
C  42.12800 39.45500 32.28600
C  39.03900 41.24700 31.78900
C  39.05500 42.10500 33.09200
H  38.32800 41.57600 34.33700
N  41.98300 38.47500 26.88300
C  42.17900 37.78500 28.06700
C  42.83200 36.52000 27.72700
C  42.71500 36.36300 26.31600
C  42.30800 37.66700 25.80500
C  43.41000 35.59000 28.76300
C  42.91900 35.12900 25.41800
O  42.72200 35.10000 24.18100
C  43.50700 33.76700 25.91800
N  41.44100 40.35200 24.65800
C  41.84200 39.28600 23.94500
C  42.07700 39.57900 22.45400
C  41.71100 41.07700 22.41800
C  41.23200 41.44700 23.90700
C  43.46500 39.28900 21.90200
C  40.59200 41.47900 21.42500
C  39.29700 40.60400 21.43800
N  40.72200 42.38000 26.69500
C  40.53000 43.16000 25.59000
C  39.93000 44.46600 26.02700
C  39.72100 44.30700 27.42600
C  40.29300 43.08600 27.79100
C  39.38700 45.53400 25.07400
C  39.16600 44.97500 28.56000
O  38.66200 46.04000 28.57200
C  39.61300 44.03800 29.78100
C  40.54500 44.70800 30.65300
O  41.75100 44.72400 30.45000
O  39.90000 45.35400 31.73000
C  40.93200 45.80000 32.76600
H  42.16500 37.51200 30.11900
H  42.62700 37.36100 23.71400
H  40.69700 43.45200 23.59400
H  41.16000 41.82700 31.59000
H  40.31200 38.99700 31.49200
H  42.97400 38.95300 31.81500
H  41.72700 38.70000 32.96200
H  42.41300 40.38700 32.77400
H  38.68900 40.23600 31.99900
H  38.33600 41.62600 31.04700
H  38.36900 42.90900 32.82700
H  40.00900 42.58800 33.29900
H  42.56900 35.22800 29.35400
H  44.14100 36.09200 29.39600
H  44.03200 34.75000 28.45400
H  44.58500 33.82800 26.06900
H  43.33800 33.05800 25.10700
H  43.05800 33.44600 26.85800
H  41.39000 38.97600 21.86000
H  42.57800 41.73500 22.36300
H  43.86400 40.18600 21.42800
H  43.35900 38.50400 21.15300
H  44.19900 38.89700 22.60600
H  40.96900 41.35600 20.41000
H  40.34400 42.53300 21.55200
H  38.51800 41.26300 21.82300
H  39.45800 39.73300 22.07300
H  39.07900 40.37300 20.39500
H  38.70700 46.19600 25.60900
H  38.75800 45.08500 24.30500
H  40.19600 46.05700 24.56300
H  38.75100 43.82800 30.41500
H  41.97300 45.63100 32.49300
H  40.74400 45.14700 33.61800
H  40.70100 46.84100 32.99400

