158

Mg 40.29700 9.49200 29.26100
C  42.60400 10.75000 31.88500
C  38.32700 8.18100 31.74500
C  38.42100 8.16200 26.80400
C  42.78200 10.14300 27.00600
N  40.48500 9.45800 31.56800
C  41.34500 10.18400 32.38100
C  40.80300 10.20300 33.88100
C  39.57300 9.21600 33.80700
C  39.40400 8.95400 32.26300
C  39.65500 7.95900 34.70400
C  40.62100 11.65500 34.38400
C  41.09800 12.09900 35.74800
H  39.90300 12.36000 36.70400
N  38.54900 8.46200 29.35500
C  37.86900 7.94600 30.44800
C  36.81600 7.11200 30.00100
C  36.75200 7.19300 28.51600
C  37.91500 7.94000 28.17400
C  35.99900 6.29600 30.97300
C  35.75300 6.54900 27.60200
O  35.77800 6.60500 26.35800
C  34.72100 5.71100 28.19800
N  40.46900 9.37900 27.15000
C  39.54500 8.85300 26.30100
C  39.98000 8.96400 24.82100
C  41.51500 9.35400 24.99700
C  41.64200 9.63900 26.48700
C  39.72700 7.70800 24.04800
C  41.84600 10.52900 24.08300
C  41.48800 11.99100 24.49900
N  42.19600 10.30300 29.35200
C  43.10900 10.45100 28.29300
C  44.33300 11.15400 28.81700
C  44.10600 11.19500 30.13400
C  42.85100 10.63500 30.43800
C  45.46200 11.61600 27.91700
C  44.77800 11.60300 31.41500
O  45.90500 12.09000 31.60400
C  43.71700 11.50600 32.48700
C  44.30100 10.85200 33.69500
O  44.52400 9.64200 33.83500
O  44.54200 11.77500 34.70900
C  44.75000 11.45200 36.10600
H  37.70400 7.76800 32.54200
H  37.94700 7.52800 26.05200
H  43.54600 10.45600 26.29100
H  41.58600 9.67200 34.42200
H  38.67100 9.69500 34.18800
H  39.57800 7.07600 34.06900
H  38.79500 7.91400 35.37200
H  40.50200 7.98500 35.38900
H  39.56100 11.90200 34.43200
H  40.99000 12.34000 33.62100
H  41.61300 13.01300 35.45200
H  41.78000 11.31500 36.07700
H  35.92400 5.29100 30.55700
H  35.08100 6.87900 31.04600
H  36.34300 6.20500 32.00400
H  34.28500 6.16900 29.08600
H  35.21600 4.78600 28.49700
H  33.93300 5.47600 27.48200
H  39.51300 9.80700 24.31300
H  42.13500 8.49900 24.72700
H  38.75500 7.78800 23.56000
H  39.69600 6.95800 24.83900
H  40.52000 7.47900 23.33600
H  41.43600 10.32200 23.09400
H  42.93000 10.47400 23.98300
H  41.25600 12.01000 25.56300
H  40.68800 12.38900 23.87500
H  42.31300 12.70300 24.45500
H  44.85400 12.05900 27.12800
H  46.06800 10.86500 27.41100
H  46.02900 12.33100 28.51400
H  43.37500 12.44400 32.92400
H  45.27100 10.51400 36.30200
H  43.88000 11.41800 36.76200
H  45.50300 12.20800 36.32800
Mg -11.66400 38.91700 41.92800
C  -9.65700 36.08200 40.69100
C  -9.34800 40.92400 40.25900
C  -13.83200 41.41100 42.24600
C  -13.88800 36.53000 43.17100
N  -9.79800 38.50500 40.55100
C  -9.16600 37.33100 40.18900
C  -7.96900 37.56800 39.30200
C  -7.84100 39.19500 39.24000
C  -9.01700 39.55800 40.10700
C  -6.43900 39.60800 39.69700
C  -8.09300 36.85600 37.91400
C  -6.83700 35.88300 37.65100
H  -5.76900 36.43100 36.60300
N  -11.55400 40.96800 41.39300
C  -10.50100 41.61200 40.78400
C  -10.77400 42.99400 40.80500
C  -12.14300 43.17500 41.26200
C  -12.58800 41.83600 41.69200
C  -9.86700 44.00900 40.34300
C  -12.95600 44.50900 41.20800
O  -12.41100 45.55100 40.74400
C  -14.36900 44.62400 41.76600
N  -13.68500 38.97500 42.36700
C  -14.29400 40.14200 42.65400
C  -15.56700 39.92100 43.50400
C  -15.47500 38.38100 43.79500
C  -14.28800 37.89900 43.05900
C  -15.61300 40.74300 44.79400
C  -16.79200 37.56800 43.52600
C  -17.99300 37.91800 44.43400
N  -11.72700 36.83700 41.99100
C  -12.62700 35.99800 42.66300
C  -12.21700 34.66600 42.55100
C  -11.02800 34.69700 41.80000
C  -10.80900 36.01300 41.43300
C  -12.90700 33.49800 43.32600
C  -10.02600 33.82700 41.18600
O  -9.92800 32.55500 41.19000
C  -8.92000 34.78200 40.68000
C  -7.92000 34.76700 41.75400
O  -8.01600 35.29500 42.85700
O  -6.89800 33.85700 41.51500
C  -5.96500 33.37300 42.54600
H  -8.69500 41.61000 39.71600
H  -14.49700 42.24500 42.47900
H  -14.47700 35.82300 43.75800
H  -7.13600 37.21100 39.90700
H  -7.97000 39.63700 38.25200
H  -6.38800 39.53900 40.78400
H  -6.18400 40.55800 39.22800
H  -5.71300 38.93900 39.23500
H  -7.99100 37.55300 37.08300
H  -9.01600 36.27900 37.95900
H  -7.22500 34.98400 37.17200
H  -6.24000 35.71900 38.54900
H  -9.76000 44.86100 41.01500
H  -10.32300 44.30800 39.40000
H  -8.88600 43.59000 40.12200
H  -15.04400 43.97900 41.20300
H  -14.66300 45.66700 41.65300
H  -14.48400 44.25000 42.78300
H  -16.36200 40.17400 42.80200
H  -15.08300 38.16000 44.78800
H  -16.41600 41.47700 44.73900
H  -14.70000 41.32300 44.93100
H  -15.55900 40.09700 45.66900
H  -16.66800 36.49800 43.69400
H  -17.12200 37.67700 42.49300
H  -18.91000 37.99700 43.85100
H  -17.89600 38.83600 45.01300
H  -18.02500 37.02700 45.06100
H  -13.75900 33.71200 43.97100
H  -12.12000 33.13800 43.98800
H  -13.20700 32.85700 42.49700
H  -8.51100 34.39300 39.74700
H  -5.71300 32.32400 42.39100
H  -6.38300 33.34800 43.55200
H  -5.07900 34.00800 42.55900

