158

Mg 8.83900 3.72500 27.84500
C  10.00500 1.99600 30.73100
C  6.89900 5.56000 29.83900
C  7.63900 5.15500 25.04300
C  10.56000 1.39700 25.83400
N  8.53800 3.70600 30.08400
C  9.16000 3.08200 30.98500
C  8.66100 3.46200 32.38400
C  7.69000 4.63500 32.14900
C  7.70600 4.62400 30.60300
C  6.25100 4.57700 32.90600
C  9.81000 3.87400 33.37200
C  9.64200 5.10200 34.32400
H  10.29900 5.26900 35.68300
N  7.51400 5.14500 27.46700
C  6.85600 5.85300 28.44200
C  6.09100 6.92900 27.81200
C  6.33000 6.80600 26.42700
C  7.18000 5.65100 26.27600
C  5.18000 7.84400 28.61200
C  5.92400 7.72100 25.36700
O  6.10500 7.49000 24.17000
C  5.17200 8.96000 25.75400
N  9.10200 3.34100 25.78300
C  8.43900 4.07300 24.79600
C  8.83700 3.65300 23.38800
C  9.77900 2.45900 23.63800
C  9.87500 2.39300 25.17100
C  7.62700 3.35700 22.47600
C  11.14300 2.47900 22.89200
C  11.22700 1.28300 21.82300
N  10.02200 2.00900 28.13800
C  10.63300 1.18500 27.23900
C  11.27900 0.13600 27.99100
C  11.05800 0.37800 29.30700
C  10.29300 1.51200 29.40000
C  12.17400 -0.91800 27.30600
C  11.47500 -0.03300 30.70700
O  12.14600 -0.93000 31.12000
C  10.72300 1.05800 31.70100
C  9.87400 0.29900 32.74100
O  8.83300 -0.23500 32.51900
O  10.53100 0.37200 33.98000
C  9.97700 -0.18800 35.26100
H  6.33100 6.24400 30.47200
H  7.42100 5.67300 24.10700
H  11.16300 0.82200 25.12800
H  8.08000 2.61800 32.75800
H  8.07800 5.64900 32.24100
H  5.49600 4.21600 32.20800
H  6.04000 5.59200 33.24100
H  6.26000 3.91200 33.76900
H  10.72700 4.11000 32.83300
H  10.07200 3.01600 33.99100
H  8.61300 5.43900 34.45400
H  10.21500 5.88000 33.82000
H  4.26200 8.14300 28.10500
H  5.71000 8.72900 28.96400
H  4.73800 7.34500 29.47400
H  5.80500 9.57200 26.39600
H  4.16500 8.69600 26.08000
H  5.08500 9.45700 24.78800
H  9.35100 4.39800 22.78100
H  9.26600 1.52500 23.41000
H  7.70300 2.31700 22.15800
H  7.43500 4.01800 21.63100
H  6.80100 3.44900 23.18100
H  11.99500 2.37500 23.56400
H  11.26500 3.38900 22.30400
H  10.29800 0.74100 21.64400
H  12.05900 0.60100 22.00000
H  11.36100 1.70400 20.82600
H  13.19000 -0.52500 27.30600
H  11.76100 -1.22900 26.34600
H  12.05400 -1.79300 27.94400
H  11.57800 1.60000 32.10500
H  9.74500 0.55900 36.02000
H  10.72400 -0.83100 35.72600
H  9.08700 -0.75500 34.98800
Mg 34.85200 48.84900 26.22600
C  35.42100 46.73100 29.02000
C  34.05800 51.39700 28.29300
C  34.34900 50.82900 23.54100
C  35.94100 46.24600 24.21700
N  34.62300 49.06700 28.39400
C  34.96400 48.08500 29.34800
C  34.83200 48.62400 30.74500
C  34.10100 50.00600 30.48700
C  34.29700 50.24900 28.97900
C  32.61900 50.07800 30.94800
C  36.20900 48.65400 31.45600
C  36.25400 48.10600 32.92300
H  36.21600 49.18100 34.13900
N  34.28400 50.88300 25.96700
C  34.01000 51.77300 26.93900
C  33.67700 53.07400 26.43300
C  33.69400 52.88700 24.96900
C  34.12400 51.51300 24.73800
C  33.25800 54.34100 27.23400
C  33.42300 53.84500 23.83600
O  33.69400 53.62900 22.68900
C  32.99800 55.20900 24.17100
N  35.16000 48.55000 24.19300
C  34.76400 49.49500 23.28200
C  34.94300 48.96000 21.83400
C  35.77300 47.65500 22.02000
C  35.67200 47.46200 23.52100
C  33.67600 48.77700 21.03900
C  37.23000 47.80700 21.54500
C  37.68700 46.77300 20.51200
N  35.28800 46.81800 26.50200
C  35.74600 45.88600 25.59800
C  36.01400 44.49500 26.24500
C  36.04100 44.89600 27.62400
C  35.51800 46.27200 27.72000
C  36.45600 43.26100 25.58400
C  36.29500 44.47300 28.99100
O  36.66900 43.42300 29.37900
C  35.96400 45.69200 29.92200
C  34.84700 45.30100 30.89900
O  33.69800 44.96500 30.61900
O  35.42800 45.13000 32.17100
C  34.50700 44.86600 33.29800
H  33.81000 52.17400 29.02000
H  34.20200 51.31000 22.57200
H  36.52000 45.48900 23.68300
H  34.15100 48.09800 31.41500
H  34.67200 50.77100 31.01300
H  31.86300 50.34100 30.20800
H  32.68300 50.88200 31.68100
H  32.31700 49.20000 31.51900
H  36.54000 49.68500 31.58100
H  37.00700 48.20100 30.86700
H  37.12200 47.44600 32.91500
H  35.35000 47.50700 33.03200
H  34.14600 54.97000 27.29600
H  32.95200 54.18000 28.26700
H  32.40900 54.80500 26.73100
H  32.01800 55.30700 24.63900
H  32.82100 55.81400 23.28100
H  33.72300 55.77600 24.75500
H  35.47300 49.70900 21.24600
H  35.32100 46.77500 21.56300
H  33.83100 49.37700 20.14300
H  32.91300 49.14400 21.72500
H  33.45300 47.72400 20.86300
H  37.98200 47.86900 22.33200
H  37.33500 48.70700 20.94000
H  38.03500 47.20100 19.57100
H  36.92800 45.99600 20.42900
H  38.57700 46.25400 20.86900
H  36.98300 43.45100 24.64900
H  35.59100 42.61900 25.41500
H  37.16400 42.76900 26.25000
H  36.84500 45.90100 30.52900
H  34.25700 43.80800 33.37000
H  33.59300 45.44200 33.15600
H  35.05000 45.07400 34.22000

