158

Mg 0.49100 7.68500 25.75600
C  1.36900 9.75700 28.35100
C  0.70000 4.92900 27.86700
C  -0.18900 5.69100 23.04500
C  0.61700 10.47000 23.53600
N  1.07200 7.36400 27.83800
C  1.20400 8.40900 28.75100
C  1.21300 7.77900 30.19400
C  1.30200 6.26300 29.98700
C  1.01100 6.18900 28.45500
C  2.56500 5.48900 30.50300
C  -0.13800 8.20700 31.06900
C  0.24100 8.78300 32.44300
H  1.47200 8.15100 33.20100
N  0.22300 5.61600 25.52700
C  0.33300 4.65800 26.55200
C  0.03700 3.34800 26.02000
C  -0.10400 3.53200 24.56300
C  -0.03600 4.97300 24.27700
C  -0.01600 2.12200 26.86200
C  -0.42800 2.50000 23.56000
O  -0.46100 2.62300 22.36200
C  -0.89500 1.21700 24.09900
N  0.44000 7.95900 23.56200
C  -0.05000 6.98400 22.74900
C  -0.26000 7.45900 21.31400
C  -0.20200 9.03500 21.51000
C  0.30300 9.19600 22.98100
C  0.90100 6.87800 20.42900
C  -1.57300 9.69600 21.33600
C  -1.58100 11.05800 20.78000
N  0.90700 9.72100 25.87100
C  0.83300 10.69200 24.91900
C  1.11500 11.93800 25.54100
C  1.36400 11.61700 26.88800
C  1.26100 10.26600 27.06300
C  1.35300 13.27100 24.93300
C  1.76400 12.09000 28.21900
O  2.09900 13.21100 28.56000
C  1.59600 10.95200 29.16300
C  2.76300 10.91900 30.05700
O  3.71700 10.21400 29.89000
O  2.37900 11.54700 31.24300
C  3.50600 11.79900 32.19600
H  0.63800 4.13000 28.61000
H  -0.49000 5.07700 22.19400
H  0.44300 11.37400 22.94900
H  2.07900 8.23200 30.67600
H  0.37800 5.78000 30.30600
H  2.27100 4.89500 31.36800
H  3.33100 6.17900 30.85900
H  3.10400 4.91300 29.75100
H  -0.78600 7.33900 31.18600
H  -0.63400 9.00000 30.50900
H  -0.55200 8.69000 33.18600
H  0.42200 9.85500 32.36000
H  0.44800 2.31800 27.82900
H  0.76900 1.45200 26.51000
H  -1.00600 1.69000 27.00600
H  -1.74100 1.39700 24.76200
H  -0.17200 0.70700 24.73600
H  -1.13100 0.56900 23.25500
H  -1.20400 7.19600 20.83700
H  0.46600 9.53000 20.80600
H  1.77000 6.84700 21.08600
H  0.98400 7.56300 19.58600
H  0.57200 5.87900 20.14300
H  -2.08400 9.76900 22.29700
H  -2.15200 9.09800 20.63200
H  -2.25100 11.07100 19.91900
H  -0.57600 11.31000 20.44200
H  -1.95300 11.83300 21.45000
H  0.34900 13.68900 24.86200
H  1.83300 13.37500 23.95900
H  1.79100 14.02900 25.58100
H  0.71000 11.04300 29.79200
H  3.47800 12.78600 32.65800
H  4.40200 11.69800 31.58400
H  3.68500 11.00700 32.92300
Mg -5.82500 25.36000 26.51600
C  -3.90400 26.95700 28.89800
C  -6.73500 22.99600 28.95400
C  -7.42200 23.57200 24.13500
C  -4.21300 27.20800 23.96000
N  -5.35500 25.02700 28.66600
C  -4.77700 26.00500 29.44700
C  -5.02200 25.68300 30.91100
C  -5.45100 24.18900 30.90900
C  -5.89200 24.03800 29.40000
C  -4.32400 23.24900 31.24800
C  -5.92400 26.78600 31.55800
C  -5.50200 27.15300 33.01700
H  -5.09800 25.99300 33.95500
N  -6.96200 23.59000 26.60800
C  -7.24600 22.77100 27.63700
C  -7.91100 21.49200 27.24800
C  -8.19200 21.74000 25.88700
C  -7.51600 22.99800 25.47500
C  -8.38400 20.41100 28.18200
C  -9.00700 20.89000 24.88400
O  -9.15200 21.19200 23.73100
C  -9.53800 19.56900 25.38800
N  -5.67600 25.34800 24.36500
C  -6.65300 24.63900 23.64100
C  -6.64000 24.97200 22.20400
C  -5.50700 26.06400 22.08800
C  -5.20400 26.33100 23.55300
C  -6.32900 23.73000 21.24800
C  -5.95600 27.33100 21.36200
C  -5.63500 27.33100 19.84900
N  -4.34100 26.81500 26.41600
C  -3.79800 27.43200 25.34500
C  -2.76400 28.36700 25.79900
C  -2.74900 28.27400 27.16000
C  -3.71700 27.19300 27.48600
C  -2.05700 29.32600 24.84400
C  -2.15400 28.67700 28.45000
O  -1.25200 29.46800 28.78400
C  -2.84600 27.75200 29.62200
C  -1.66000 26.95900 30.20900
O  -0.89700 26.34300 29.48800
O  -1.67800 26.94300 31.58200
C  -0.82600 25.93500 32.18700
H  -7.09800 22.32300 29.73400
H  -7.94900 23.06300 23.32500
H  -3.71800 27.79300 23.18200
H  -4.04800 25.77900 31.39100
H  -6.25200 24.21200 31.64800
H  -3.59700 23.65400 31.95200
H  -3.80800 23.04300 30.31100
H  -4.65600 22.35900 31.78200
H  -6.92000 26.37300 31.72000
H  -5.98200 27.72900 31.01400
H  -6.33500 27.62600 33.53700
H  -4.56900 27.70900 32.92800
H  -8.28500 20.77900 29.20300
H  -7.83100 19.50700 27.92900
H  -9.43400 20.19700 27.98200
H  -9.91800 18.93900 24.58400
H  -10.42500 19.80200 25.97700
H  -8.75100 19.00400 25.88700
H  -7.65600 25.31800 22.01700
H  -4.66500 25.57000 21.60500
H  -6.35400 22.78300 21.78800
H  -5.44600 23.71700 20.61000
H  -7.13000 23.55200 20.53100
H  -5.57000 28.21900 21.86300
H  -7.03700 27.44900 21.42900
H  -6.60200 27.51300 19.38000
H  -5.09200 26.47500 19.44800
H  -5.02600 28.21400 19.65700
H  -2.83400 29.66600 24.16000
H  -1.36200 28.67500 24.31400
H  -1.59700 30.19700 25.31100
H  -3.24400 28.38000 30.41900
H  0.19600 26.30400 32.09600
H  -0.96900 25.02000 31.61200
H  -0.99200 25.75200 33.24800

