158

Mg 35.27000 2.53600 30.55700
C  32.68500 3.36100 32.72900
C  37.53800 2.95100 33.20200
C  37.84400 2.00200 28.35800
C  33.14400 2.48200 27.84600
N  35.12400 3.13400 32.72700
C  33.94300 3.29500 33.40000
C  34.20800 3.31100 34.94800
C  35.73800 3.74700 34.93900
C  36.16800 3.20600 33.53400
C  36.26300 5.16100 35.14700
C  33.96900 1.97100 35.65500
C  33.77400 1.94200 37.16500
H  34.60500 3.00700 37.92200
N  37.37000 2.39100 30.72800
C  38.13100 2.51700 31.94600
C  39.50100 2.26200 31.65500
C  39.50200 1.81700 30.28700
C  38.21600 2.06700 29.68800
C  40.63300 2.20200 32.66300
C  40.64000 1.27300 29.48900
O  40.48600 0.68800 28.41500
C  42.03300 1.25500 30.08000
N  35.46900 2.30500 28.42500
C  36.58100 2.02900 27.75500
C  36.40100 1.71300 26.28000
C  34.84500 1.66300 26.20100
C  34.45100 2.17900 27.57900
C  37.13100 2.72900 25.41400
C  34.17200 0.31700 25.83000
C  33.25100 0.31100 24.60500
N  33.31100 2.90100 30.25100
C  32.55000 2.90400 29.13100
C  31.21000 3.21100 29.44200
C  31.16000 3.40900 30.86000
C  32.48600 3.11900 31.27700
C  30.15700 3.32100 28.37500
C  30.35500 3.72100 32.04400
O  29.15300 3.91700 32.14600
C  31.30300 3.65800 33.30200
C  31.32000 4.84100 34.14400
O  31.52800 5.95100 33.69200
O  30.94400 4.57300 35.43400
C  30.85400 5.69400 36.43100
H  38.24300 2.99600 34.03500
H  38.62500 1.97300 27.59500
H  32.47700 2.34500 26.99200
H  33.51700 4.04000 35.37100
H  36.13600 3.07800 35.70200
H  37.05400 5.26400 35.89100
H  35.48800 5.91100 35.30400
H  36.71800 5.57800 34.24900
H  34.73700 1.24800 35.37900
H  32.99400 1.67900 35.26500
H  34.17400 0.97900 37.48300
H  32.71900 2.07100 37.40600
H  40.19400 2.72200 33.51400
H  41.44500 2.83900 32.31300
H  40.93300 1.18600 32.92000
H  42.03300 0.63300 30.97600
H  42.37900 2.27100 30.27000
H  42.70500 0.81000 29.34800
H  36.86400 0.72600 26.28100
H  34.65600 2.38100 25.40300
H  36.45600 2.81600 24.56300
H  38.15900 2.50700 25.12700
H  37.21500 3.70400 25.89400
H  33.80400 -0.06300 26.78300
H  34.95500 -0.36800 25.50700
H  33.71500 -0.26900 23.80700
H  32.82100 1.23900 24.22900
H  32.36100 -0.27400 24.83500
H  29.36700 2.60400 28.59600
H  30.48400 2.88700 27.43100
H  29.94400 4.38900 28.31400
H  31.02100 2.83000 33.95300
H  31.50400 5.50100 37.28400
H  29.88500 5.80400 36.91900
H  31.09500 6.67200 36.01400
Mg 6.19900 53.55200 39.35000
C  5.91600 50.06800 38.98800
C  9.55700 53.28100 38.57300
C  6.38100 56.98100 39.32100
C  2.76900 53.64900 39.85000
N  7.58000 51.81900 38.66100
C  7.21600 50.52500 38.58100
C  8.46000 49.73200 38.23900
C  9.62800 50.73700 38.41900
C  8.89400 52.03100 38.57600
C  10.47000 50.50500 39.71200
C  8.47500 49.07900 36.79800
C  8.39000 50.09100 35.65100
H  7.01800 50.16400 34.95700
N  7.71400 54.92500 38.98000
C  9.02500 54.56600 38.71700
C  9.84400 55.77400 38.54000
C  8.96400 56.86000 38.79400
C  7.62100 56.30200 39.07600
C  11.32800 55.78500 38.04900
C  9.32500 58.27000 38.81100
O  10.52000 58.60100 38.68300
C  8.46500 59.46600 39.05600
N  4.74200 55.14300 39.47400
C  5.07300 56.45400 39.54300
C  3.79500 57.33200 39.62300
C  2.65300 56.26000 39.57700
C  3.42600 54.91800 39.73200
C  3.83900 58.28200 40.83600
C  1.78000 56.20000 38.25700
C  0.22300 55.84600 38.46400
N  4.62300 52.16200 39.50200
C  3.31800 52.38900 39.82700
C  2.66300 51.12400 40.03400
C  3.63600 50.16200 39.74700
C  4.75800 50.86600 39.44200
C  1.15900 50.90500 40.37800
C  3.91800 48.75800 39.57400
O  3.13900 47.81400 39.78300
C  5.43200 48.60000 39.13500
C  5.41400 47.87100 37.82700
O  5.11400 48.42700 36.74200
O  5.78300 46.51800 37.86400
C  5.47500 45.73400 36.66100
H  10.61200 53.13900 38.32900
H  6.34800 58.07000 39.25600
H  1.69100 53.65900 40.02200
H  8.52800 48.88000 38.91600
H  10.36000 50.86900 37.62300
H  11.47600 50.17800 39.44700
H  9.92000 49.77200 40.30100
H  10.53600 51.46800 40.21800
H  7.70900 48.30400 36.78600
H  9.45100 48.59600 36.76600
H  9.07700 49.74300 34.88000
H  8.64400 51.11000 35.94400
H  11.35200 56.45100 37.18600
H  11.65700 54.78300 37.77400
H  12.06400 56.08100 38.79600
H  9.11700 60.33600 38.98000
H  8.19700 59.54900 40.10900
H  7.55700 59.46800 38.45200
H  3.75600 57.91600 38.70400
H  1.92400 56.33900 40.38400
H  3.01300 58.26400 41.54700
H  3.76000 59.29300 40.43600
H  4.78300 58.26900 41.38100
H  2.24800 55.49200 37.57300
H  1.71100 57.16600 37.75500
H  0.13100 54.96600 37.82600
H  -0.50700 56.47700 37.95700
H  -0.15900 55.65300 39.46700
H  0.64200 50.85000 39.42000
H  0.76700 51.64400 41.07700
H  0.98700 49.90100 40.76800
H  5.97200 47.92900 39.80300
H  6.08100 46.07300 35.82100
H  4.43500 45.94300 36.40900
H  5.60600 44.68900 36.93900

