158

Mg 44.02700 4.31100 47.10500
C  42.17100 7.23000 46.93800
C  41.05000 2.45700 46.87500
C  45.84900 1.42400 47.18400
C  46.93600 6.15200 46.97400
N  41.90300 4.82200 46.79100
C  41.31800 6.11200 46.89800
C  39.79000 6.07000 46.78500
C  39.54400 4.53300 46.88200
C  40.92400 3.88200 46.93900
C  38.62100 4.02600 48.00600
C  38.95900 6.57200 45.58500
C  39.67800 6.33800 44.25900
H  39.88600 7.57900 43.42200
N  43.55300 2.20600 47.09000
C  42.23700 1.69000 47.02600
C  42.31200 0.24100 47.05000
C  43.68700 -0.09900 47.17600
C  44.47600 1.17000 47.13800
C  41.10600 -0.65900 46.99700
C  44.23100 -1.50300 47.45600
O  43.46400 -2.48400 47.55300
C  45.67600 -1.77800 47.47700
N  46.17400 3.82500 46.71200
C  46.65700 2.58700 47.04000
C  48.15100 2.63800 47.17000
C  48.52000 4.18400 47.16200
C  47.20000 4.79600 46.84600
C  48.69800 1.93200 48.39500
C  49.71500 4.63100 46.22700
C  51.02300 5.06100 46.95300
N  44.51300 6.20000 47.05600
C  45.70300 6.84300 47.05400
C  45.48300 8.25800 47.13100
C  44.12500 8.42100 47.19000
C  43.60100 7.19200 47.07500
C  46.56700 9.33800 47.09900
C  43.00500 9.46600 47.18100
O  43.01200 10.67800 47.33800
C  41.70600 8.63000 47.14700
C  41.06600 8.87800 48.46100
O  41.57400 8.67000 49.57500
O  39.80100 9.48200 48.33700
C  38.92200 9.56400 49.53200
H  40.18600 1.86900 46.56100
H  46.45100 0.62100 47.61400
H  47.86200 6.73000 46.99600
H  39.37400 6.52000 47.68700
H  39.06900 4.18000 45.96600
H  38.67800 4.80500 48.76700
H  39.00400 3.12000 48.47400
H  37.58000 3.91500 47.70100
H  38.97200 7.64200 45.79100
H  37.93100 6.20900 45.58300
H  39.03300 5.67300 43.68300
H  40.68000 5.91200 44.30700
H  41.01200 -1.07200 45.99300
H  40.18100 -0.13900 47.24800
H  41.21900 -1.42100 47.76800
H  46.15800 -1.37800 48.36900
H  46.09200 -1.41400 46.53700
H  46.01700 -2.81300 47.48200
H  48.52900 2.20900 46.24200
H  48.79700 4.38600 48.19700
H  49.03200 0.90900 48.22300
H  47.97500 1.92100 49.21100
H  49.58900 2.45800 48.73700
H  49.37100 5.42200 45.56000
H  50.09300 3.84700 45.57100
H  51.21300 6.10100 46.68700
H  51.91300 4.56300 46.56900
H  50.88900 4.91700 48.02500
H  47.19600 9.22100 46.21700
H  47.11900 9.21500 48.03100
H  46.04100 10.28000 46.94300
H  41.04400 9.03100 46.37900
H  39.20400 9.00000 50.42200
H  37.93900 9.24700 49.18200
H  38.79300 10.61900 49.77100
Mg 10.08200 47.30300 25.42300
C  8.17100 47.30900 28.38200
C  12.55400 48.97500 27.14200
C  11.86900 47.06500 22.66300
C  7.11900 46.60300 23.69400
N  10.33000 47.92500 27.60900
C  9.47400 47.81300 28.62400
C  9.95500 48.48200 29.90300
C  11.12700 49.39600 29.31700
C  11.35100 48.76600 27.90400
C  10.85000 50.90700 29.24200
C  10.54800 47.37300 30.91600
C  10.30200 47.34100 32.43500
H  10.51000 45.98700 33.26000
N  12.01200 47.92000 24.98300
C  12.92800 48.46700 25.85200
C  14.19600 48.49200 25.16900
C  14.01400 47.87300 23.90700
C  12.57100 47.59600 23.76700
C  15.43400 48.82900 25.81800
C  14.98400 47.63600 22.76100
O  14.61800 47.29100 21.68700
C  16.38900 47.99300 22.95200
N  9.52700 47.08000 23.43000
C  10.46900 47.00800 22.46200
C  9.92100 46.47300 21.17400
C  8.42400 46.30200 21.49700
C  8.32300 46.70800 22.91300
C  10.13900 47.38400 19.90400
C  7.77800 44.90900 21.20500
C  6.35400 45.04700 20.58800
N  8.06300 46.90000 25.87100
C  7.01000 46.62000 25.07300
C  5.81800 46.40200 25.84200
C  6.25000 46.59200 27.17900
C  7.59600 46.96000 27.12800
C  4.49500 46.13700 25.31800
C  5.80100 46.56200 28.57100
O  4.70000 46.25100 29.05900
C  7.04000 46.99500 29.43500
C  7.41600 45.87900 30.38000
O  8.21300 44.96200 30.14800
O  6.77300 46.04900 31.60200
C  6.93600 44.99400 32.57500
H  13.35700 49.48400 27.68000
H  12.43700 46.69200 21.80900
H  6.16500 46.34100 23.23300
H  9.09600 49.01300 30.31300
H  12.03800 49.42300 29.91500
H  9.83400 51.03700 29.61700
H  10.93100 51.11900 28.17600
H  11.44500 51.55200 29.88900
H  11.63700 47.36700 30.85500
H  10.31200 46.37400 30.54900
H  9.23300 47.52800 32.54300
H  10.77700 48.20400 32.90100
H  16.12800 47.99000 25.87400
H  15.26900 49.19300 26.83200
H  15.86700 49.74000 25.40500
H  16.88100 47.19300 23.50400
H  16.50600 48.95700 23.44700
H  16.80600 47.95800 21.94600
H  10.44400 45.55800 20.89500
H  7.86200 47.05500 20.94400
H  10.46500 48.38400 20.18900
H  9.23100 47.57300 19.33200
H  10.98300 47.05900 19.29500
H  7.90900 44.31700 22.11100
H  8.35100 44.41100 20.42400
H  5.65100 44.26700 20.88000
H  6.26400 44.92200 19.50900
H  5.89200 46.02200 20.74200
H  4.63600 45.73400 24.31500
H  3.96200 47.08800 25.30900
H  4.02100 45.37900 25.94200
H  6.70200 47.84400 30.02900
H  7.14200 45.28600 33.60500
H  7.77500 44.31100 32.44500
H  6.00500 44.43400 32.65500

