158

Mg 16.66100 -2.16000 27.31000
C  15.69100 -0.10400 30.03500
C  18.90400 -3.70900 29.40800
C  18.34500 -3.56800 24.54900
C  14.77700 -0.26300 25.07200
N  17.14100 -1.96200 29.54100
C  16.73500 -0.97600 30.41600
C  17.30500 -1.34200 31.84700
C  18.43600 -2.33800 31.49200
C  18.14400 -2.71700 30.10100
C  19.86600 -1.73600 31.69400
C  16.31000 -1.62600 33.00900
C  16.45800 -0.98800 34.40500
H  17.83500 -0.49100 35.05600
N  18.16500 -3.58800 27.03900
C  18.86900 -4.19700 28.05300
C  19.68800 -5.23300 27.52300
C  19.65000 -5.15600 26.06100
C  18.67800 -4.08700 25.85700
C  20.39200 -6.23800 28.41600
C  20.40400 -5.98100 25.00800
O  20.30300 -5.80700 23.77000
C  21.40900 -7.02500 25.44900
N  16.59600 -1.95500 25.28500
C  17.40100 -2.57600 24.32800
C  16.84000 -2.35800 22.82900
C  15.76800 -1.27900 22.99400
C  15.62400 -1.20300 24.57600
C  17.90900 -2.00900 21.77000
C  14.40400 -1.67000 22.26200
C  14.28100 -1.27600 20.76700
N  15.40900 -0.61900 27.48400
C  14.61100 0.06500 26.47100
C  13.84900 1.10200 27.16900
C  14.24700 0.95700 28.54900
C  15.22100 -0.01200 28.68200
C  12.78500 2.04800 26.50100
C  13.89600 1.61500 29.84700
O  13.13300 2.54000 30.15100
C  14.85600 0.88100 30.90300
C  15.68500 1.81100 31.64300
O  16.81900 2.07600 31.35800
O  14.92300 2.28500 32.70400
C  15.46600 3.35500 33.56400
H  19.61400 -4.16600 30.10200
H  18.82000 -3.88000 23.61700
H  14.13200 0.29700 24.39200
H  17.72400 -0.37300 32.11600
H  18.42800 -3.15200 32.21700
H  19.79400 -0.90100 32.39100
H  20.32800 -1.47400 30.74300
H  20.53200 -2.44400 32.18800
H  16.11900 -2.69300 33.12900
H  15.35000 -1.27500 32.62900
H  16.11600 -1.73300 35.12400
H  15.87000 -0.07900 34.53000
H  21.25200 -5.88200 28.98300
H  20.59500 -7.16200 27.87600
H  19.66800 -6.36700 29.22100
H  21.91700 -6.53400 26.27900
H  22.05500 -7.24800 24.60000
H  20.89200 -7.89400 25.85700
H  16.41500 -3.31900 22.54100
H  16.09600 -0.26600 22.76000
H  18.85800 -1.92200 22.29900
H  17.60800 -1.05300 21.34000
H  18.03600 -2.81700 21.05000
H  13.60300 -1.31300 22.90900
H  14.26600 -2.74700 22.35200
H  15.16000 -0.72700 20.43000
H  13.47700 -0.57500 20.54100
H  14.18800 -2.21500 20.22100
H  11.88500 2.22500 27.09100
H  12.34000 1.69900 25.56900
H  13.32400 2.97900 26.32600
H  14.18800 0.39000 31.61100
H  16.45900 3.01700 33.85900
H  14.87200 3.60700 34.44200
H  15.57600 4.17400 32.85300
Mg 9.23600 48.11600 25.83000
C  7.30700 48.32600 28.68000
C  11.90200 49.46100 27.60800
C  10.97400 48.34300 23.05700
C  6.18100 47.44300 23.94100
N  9.52300 48.83400 27.92800
C  8.61100 48.80500 28.94200
C  9.23100 49.18800 30.33100
C  10.60200 49.85800 29.85500
C  10.71000 49.30500 28.38100
C  10.51300 51.41000 29.90200
C  9.53400 48.07300 31.32300
C  9.02900 48.36700 32.72400
H  9.32400 47.24800 33.70000
N  11.25000 48.69000 25.39200
C  12.17600 49.11800 26.26700
C  13.38900 49.24300 25.49200
C  13.14700 48.94400 24.09300
C  11.74500 48.63800 24.14200
C  14.71300 49.38500 26.10100
C  14.13400 48.91300 22.89700
O  13.66700 48.67000 21.76100
C  15.48800 49.26800 23.02100
N  8.63700 47.82800 23.75900
C  9.58100 48.04900 22.81500
C  9.02900 47.70700 21.41400
C  7.53000 47.19400 21.72000
C  7.40600 47.49100 23.22700
C  9.11400 48.86500 20.41900
C  7.25800 45.70500 21.51800
C  8.13600 44.74400 22.34900
N  7.08900 47.93600 26.10600
C  6.02700 47.61500 25.32000
C  4.83300 47.46000 26.17400
C  5.29100 47.74400 27.48200
C  6.69900 48.01800 27.40900
C  3.54700 46.98900 25.69200
C  4.89600 47.88200 28.85800
O  3.80400 47.72700 29.40000
C  6.23000 48.10400 29.66400
C  6.49800 46.89000 30.42200
O  6.90000 45.86800 29.88900
O  6.04900 47.07900 31.67400
C  6.46900 45.97400 32.59200
H  12.74200 49.93000 28.12500
H  11.43400 48.40100 22.06900
H  5.30300 47.24400 23.32400
H  8.63100 49.87900 30.92200
H  11.41700 49.53800 30.50400
H  9.48300 51.72300 29.73000
H  11.14100 51.94500 29.18900
H  10.79100 51.73200 30.90600
H  10.59700 47.89600 31.49200
H  8.98400 47.18100 31.02200
H  7.95900 48.54300 32.62300
H  9.44800 49.26400 33.18000
H  14.62900 49.40400 27.18800
H  15.17000 50.31200 25.75600
H  15.27100 48.49300 25.81500
H  16.05600 48.37700 23.29200
H  15.62000 50.11600 23.69200
H  15.75900 49.65100 22.03700
H  9.75100 47.01300 20.98400
H  6.76200 47.76000 21.19300
H  8.24500 49.01500 19.77700
H  9.99300 48.76000 19.78200
H  9.31400 49.78500 20.96700
H  7.40900 45.53700 20.45200
H  6.22200 45.56100 21.82200
H  7.35200 44.27600 22.94200
H  8.95900 45.30900 22.78700
H  8.48700 43.90700 21.74500
H  3.68900 45.99200 25.27600
H  3.29700 47.63300 24.84800
H  2.82100 47.08000 26.50000
H  6.18200 49.00400 30.27800
H  7.40900 45.46600 32.38100
H  5.65200 45.27200 32.76100
H  6.72200 46.47200 33.52800

