158

Mg 25.06800 2.03300 30.05000
C  27.14300 2.02800 32.80300
C  22.36700 1.83100 32.27500
C  22.90000 1.83200 27.38800
C  27.78500 1.81400 27.92100
N  24.76500 2.12600 32.29400
C  25.78800 2.19900 33.18900
C  25.29300 2.45900 34.68600
C  23.69100 1.97500 34.50400
C  23.55200 1.93000 32.96800
C  23.41600 0.59400 35.10700
C  25.52400 3.95100 35.16900
C  26.64400 4.09100 36.32600
H  26.41400 5.03100 37.47500
N  22.95200 1.96000 29.83900
C  22.01600 1.88300 30.90300
C  20.69200 1.82700 30.33400
C  20.83900 1.69700 28.94000
C  22.25300 1.88300 28.63600
C  19.46900 1.73700 31.17300
C  19.80900 1.40600 27.91700
O  19.97800 1.32600 26.70200
C  18.39900 1.11400 28.33700
N  25.34200 1.71200 27.97800
C  24.31800 1.78000 27.10500
C  24.83800 1.94300 25.64700
C  26.36100 1.97200 25.86600
C  26.49500 1.84100 27.34200
C  24.38700 0.72200 24.70700
C  27.01900 3.25100 25.25100
C  26.72700 4.63700 25.89600
N  27.06000 1.89100 30.20900
C  28.04600 1.79200 29.29600
C  29.32800 1.84200 30.02500
C  29.02900 1.95500 31.35000
C  27.64300 1.94100 31.43100
C  30.67600 1.65800 29.33600
C  29.60200 2.01100 32.70500
O  30.75400 2.00200 33.05000
C  28.37100 2.16800 33.66600
C  28.44800 1.21200 34.78800
O  28.15200 0.03300 34.68500
O  29.09600 1.80400 35.89900
C  29.02900 0.91400 37.13300
H  21.54800 1.86400 32.99700
H  22.31000 1.92800 26.47400
H  28.59900 1.95300 27.20600
H  25.73900 1.69300 35.32100
H  23.11800 2.75400 35.00600
H  22.53100 0.17700 34.62700
H  23.12500 0.80800 36.13500
H  24.25400 -0.10300 35.10800
H  24.55700 4.37100 35.44600
H  25.93100 4.49600 34.31700
H  27.53800 4.35200 35.76000
H  26.84300 3.09900 36.73200
H  18.83300 2.57300 30.88100
H  19.62300 1.76500 32.25200
H  18.88500 0.82200 31.07200
H  17.93200 1.97400 28.81800
H  18.42800 0.26200 29.01700
H  17.90800 0.90200 27.38800
H  24.50400 2.85300 25.14900
H  26.82400 1.12900 25.35100
H  24.65600 1.07100 23.71000
H  23.33100 0.45300 24.66900
H  25.07100 -0.06200 25.03100
H  26.81900 3.40700 24.19100
H  28.10000 3.23900 25.39300
H  27.68200 5.09700 26.14900
H  26.13500 4.42100 26.78500
H  26.26100 5.44200 25.32700
H  30.68200 2.40900 28.54600
H  30.77700 0.63800 28.96400
H  31.47200 1.95000 30.02200
H  28.36300 3.17400 34.08500
H  30.01100 0.94600 37.60400
H  28.84100 -0.14500 36.95800
H  28.29300 1.15100 37.90100
Mg 34.81800 3.16500 29.72500
C  32.80500 4.63700 32.22600
C  37.20900 2.71300 32.12400
C  36.88000 2.23000 27.27700
C  32.41400 4.18000 27.38800
N  35.02500 3.70600 31.90100
C  34.00000 4.21800 32.69300
C  34.40700 4.15200 34.17700
C  35.97300 3.80000 34.13600
C  36.09300 3.30500 32.62600
C  36.92900 5.02800 34.36800
C  33.55600 3.21700 35.07900
C  33.11200 3.87100 36.45800
H  33.87200 5.10500 36.95600
N  36.73500 2.52700 29.66500
C  37.57700 2.35900 30.79900
C  38.87500 1.91600 30.39400
C  38.84600 1.83900 28.94700
C  37.44400 2.20200 28.57600
C  39.95100 1.72600 31.37200
C  39.92300 1.31400 27.96500
O  39.74400 1.34600 26.73100
C  41.21300 0.71800 28.50900
N  34.54700 2.98900 27.57700
C  35.56300 2.56900 26.74200
C  35.10100 2.68700 25.24000
C  33.72500 3.27100 25.36800
C  33.51900 3.45000 26.87300
C  36.22000 3.58900 24.55200
C  32.56800 2.54600 24.64100
C  31.87500 1.32000 25.35800
N  32.97100 4.15600 29.69800
C  32.10000 4.47800 28.64600
C  30.84400 5.00900 29.22300
C  31.06200 5.08800 30.66400
C  32.40300 4.61300 30.87000
C  29.69600 5.38000 28.40000
C  30.48600 5.38200 31.93200
O  29.32600 5.68300 32.15400
C  31.66800 5.22100 32.97300
C  31.95200 6.50500 33.64000
O  32.75500 7.35900 33.27600
O  31.12400 6.50000 34.74600
C  31.10300 7.77700 35.45200
H  37.99600 2.58200 32.87000
H  37.58000 1.99300 26.47300
H  31.69700 4.53800 26.64600
H  34.37900 5.20700 34.44700
H  36.29400 3.04100 34.85000
H  36.38100 5.77800 34.93700
H  37.14800 5.43600 33.38100
H  37.88000 4.79100 34.84400
H  34.07500 2.30000 35.36300
H  32.66400 2.77000 34.64000
H  33.07900 3.07600 37.20300
H  32.09300 4.21800 36.28700
H  40.67500 0.97100 31.06500
H  39.53100 1.36400 32.31100
H  40.45000 2.68200 31.52700
H  41.80600 0.19800 27.75700
H  41.03800 -0.06400 29.24700
H  41.79400 1.53100 28.94500
H  35.15200 1.65100 24.90700
H  33.81800 4.23300 24.86200
H  35.81700 4.39100 23.93400
H  36.78500 2.90800 23.91600
H  36.93400 4.02200 25.25300
H  32.88800 2.08200 23.70800
H  31.81400 3.29300 24.39300
H  32.68700 0.59500 25.41900
H  31.12200 0.92100 24.67800
H  31.46600 1.35200 26.36700
H  29.70900 4.83300 27.45700
H  29.79800 6.40500 28.04300
H  28.74600 5.21800 28.90800
H  31.33400 4.50100 33.72000
H  30.53100 8.54600 34.93300
H  32.12300 8.14200 35.56700
H  30.69600 7.62600 36.45200

