158

Mg 53.67400 23.30400 45.77000
C  51.41500 25.87800 44.93200
C  51.52000 21.02200 44.41700
C  56.15600 21.06300 45.86600
C  55.79800 25.82800 47.01800
N  51.79200 23.50600 44.60900
C  50.94600 24.61100 44.51600
C  49.69200 24.27700 43.65900
C  49.64900 22.75100 43.93300
C  51.03900 22.34800 44.40800
C  48.37500 22.28500 44.74500
C  49.98400 24.61400 42.12800
C  48.74800 24.99300 41.24200
H  48.35400 23.90200 40.18400
N  53.83000 21.23400 45.30800
C  52.76900 20.51800 44.68700
C  53.19800 19.22200 44.45800
C  54.60000 19.09700 44.88500
C  54.92800 20.48000 45.37400
C  52.26700 18.11400 43.79600
C  55.39900 17.80700 44.83600
O  54.95900 16.74800 44.49600
C  56.76900 17.79300 45.46500
N  55.69600 23.43600 46.11600
C  56.49200 22.39200 46.22300
C  57.81400 22.74800 46.93600
C  57.82400 24.28400 47.19300
C  56.34300 24.52200 46.78400
C  58.05600 22.02400 48.24700
C  58.96000 25.00100 46.44600
C  59.48500 26.27600 47.18000
N  53.58300 25.43100 46.12100
C  54.56300 26.31000 46.62100
C  54.04200 27.60200 46.66400
C  52.72800 27.52300 46.08300
C  52.51200 26.17800 45.69100
C  54.75600 28.85800 47.04500
C  51.58000 28.27500 45.61200
O  51.32400 29.49500 45.60700
C  50.68800 27.22200 44.90100
C  50.55700 27.72500 43.49900
O  51.50000 27.93300 42.73500
O  49.27600 28.15300 43.30400
C  48.89400 28.65200 42.00800
H  50.67300 20.44800 44.03400
H  57.02700 20.40800 45.93000
H  56.41500 26.56200 47.54000
H  48.91000 24.90500 44.08500
H  49.62100 22.18800 43.00000
H  48.69400 21.83600 45.68600
H  47.89600 21.45500 44.22600
H  47.68800 23.10000 44.97400
H  50.33600 23.65900 41.73700
H  50.78100 25.35400 42.04600
H  49.01500 25.87000 40.65200
H  47.84100 25.08600 41.83900
H  51.43400 18.59500 43.28400
H  51.81000 17.43700 44.51700
H  52.91600 17.63200 43.06400
H  57.40200 18.59100 45.07600
H  57.19600 16.81600 45.23900
H  56.78700 18.01900 46.53100
H  58.58300 22.50100 46.20400
H  57.95000 24.48300 48.25800
H  58.27000 22.64600 49.11600
H  58.97900 21.44500 48.20900
H  57.19800 21.41800 48.54000
H  58.55300 25.27200 45.47200
H  59.84900 24.38300 46.32100
H  58.95000 27.11500 46.73500
H  60.50200 26.38000 46.80000
H  59.40000 26.26500 48.26700
H  54.24000 29.72100 46.62300
H  55.77500 28.83500 46.65700
H  54.81500 29.01600 48.12200
H  49.76800 27.17600 45.48400
H  48.50200 29.66300 42.12100
H  48.03600 28.07000 41.67300
H  49.70000 28.75100 41.28100
Mg 35.39000 48.80200 24.82900
C  35.61100 47.38500 27.84800
C  34.50300 51.85000 26.26100
C  34.92800 50.34600 21.70800
C  36.34900 46.00800 23.27600
N  35.16900 49.57600 26.85900
C  35.26600 48.75500 27.97200
C  35.22200 49.64000 29.21800
C  34.76400 51.05700 28.68500
C  34.86100 50.85200 27.15000
C  33.28200 51.53700 29.12200
C  36.57200 49.80900 30.00900
C  36.59800 49.34500 31.46200
H  35.32200 49.56500 32.26200
N  34.75900 50.80200 24.04700
C  34.40000 51.86700 24.87100
C  34.02000 52.99800 24.06100
C  34.18300 52.58300 22.69900
C  34.60500 51.18500 22.81100
C  33.58000 54.34700 24.58900
C  33.92300 53.33100 21.44000
O  33.92200 52.76600 20.37100
C  33.67400 54.82800 21.45000
N  35.60800 48.24500 22.75000
C  35.42200 49.00000 21.64200
C  35.82200 48.28800 20.38500
C  36.72400 47.04900 21.00700
C  36.27200 47.11800 22.48200
C  34.59600 47.99300 19.49800
C  38.26800 47.16000 20.82400
C  39.01000 45.80600 20.73600
N  35.89800 47.00300 25.38500
C  36.21800 45.89100 24.67800
C  36.43800 44.73400 25.58400
C  36.10500 45.31200 26.82300
C  35.81300 46.67500 26.66400
C  36.69600 43.35100 25.12300
C  35.94800 44.98200 28.23400
O  36.02700 43.95100 28.89600
C  35.74400 46.35800 28.94000
C  34.45000 46.28800 29.87200
O  33.32900 46.61900 29.48500
O  34.74000 45.55600 31.02200
C  33.59000 45.17700 31.80800
H  34.20100 52.80400 26.69800
H  34.89500 50.68300 20.67000
H  36.52600 45.09300 22.70800
H  34.41100 49.28400 29.85400
H  35.45700 51.88900 28.80500
H  33.28000 52.49700 29.63700
H  32.75500 50.84500 29.77800
H  32.66800 51.74900 28.24700
H  36.87300 50.84800 30.14100
H  37.43000 49.41200 29.46700
H  37.41800 49.76700 32.04200
H  36.69300 48.26000 31.51200
H  32.56300 54.55700 24.25800
H  34.24800 55.06800 24.11700
H  33.53000 54.42400 25.67500
H  34.45100 55.43900 21.90900
H  32.73300 54.98300 21.97800
H  33.48600 55.18500 20.43700
H  36.57100 48.85500 19.83200
H  36.38200 46.07700 20.65100
H  34.66700 48.28200 18.44900
H  33.65600 48.40400 19.86600
H  34.53000 46.90900 19.58300
H  38.80900 47.79700 21.52500
H  38.56900 47.60000 19.87300
H  39.22500 45.61100 19.68600
H  38.39600 45.05200 21.22900
H  40.02600 45.86900 21.12600
H  35.76600 42.82500 24.90300
H  37.29500 42.87700 25.90000
H  37.28000 43.32700 24.20300
H  36.54200 46.58200 29.64800
H  33.00200 44.50600 31.18100
H  32.92000 46.01900 31.98200
H  33.87900 44.78700 32.78400

