158

Mg 1.66700 -1.49500 43.80400
C  5.06200 -0.79100 43.17000
C  0.70400 1.04600 41.83600
C  -1.36200 -2.95500 43.63500
C  2.84500 -4.59800 45.48600
N  2.80200 -0.05500 42.69700
C  4.15600 0.06300 42.57200
C  4.49500 1.28400 41.73600
C  3.09100 1.94400 41.36900
C  2.11200 0.92800 41.98700
C  3.02700 3.33000 42.05400
C  5.36700 1.11500 40.46500
C  6.38100 2.25900 40.01400
H  6.09200 3.09800 38.68400
N  -0.11500 -0.91400 43.06200
C  -0.36700 0.21400 42.30700
C  -1.73000 0.41900 42.17400
C  -2.33300 -0.71500 42.75300
C  -1.25000 -1.62000 43.18100
C  -2.23100 1.79000 41.68500
C  -3.80900 -0.86600 42.83200
O  -4.64500 -0.08700 42.28700
C  -4.48900 -1.95800 43.61200
N  0.84500 -3.54000 44.52800
C  -0.42500 -3.80500 44.24000
C  -0.81100 -5.13600 44.84300
C  0.52700 -5.75000 45.52000
C  1.51900 -4.63900 45.08500
C  -2.05600 -5.15900 45.72700
C  1.05400 -7.17200 45.18400
C  1.26400 -8.03800 46.47400
N  3.49800 -2.51000 44.28400
C  3.72800 -3.66000 44.93900
C  5.20500 -3.77300 45.05700
C  5.77000 -2.69700 44.44100
C  4.64300 -1.98600 43.96100
C  5.92600 -4.88600 45.72900
C  6.97300 -1.89500 44.16700
O  8.13100 -2.09800 44.46500
C  6.60300 -0.70400 43.24400
C  6.92700 0.53400 43.99600
O  6.47700 0.91500 45.10200
O  7.75500 1.31900 43.12000
C  8.24600 2.63500 43.66300
H  0.31400 1.86600 41.23000
H  -2.38700 -3.33200 43.63400
H  3.16000 -5.50600 46.00600
H  5.17400 1.84400 42.37900
H  2.89000 2.09800 40.30900
H  3.99300 3.58700 42.49000
H  2.22100 3.39500 42.78500
H  2.71500 4.00000 41.25300
H  4.75100 0.90000 39.59200
H  5.93200 0.19100 40.58600
H  7.34700 1.78500 39.84100
H  6.35300 2.93100 40.87200
H  -3.24800 1.71200 41.30200
H  -1.64800 2.06700 40.80700
H  -2.15200 2.51700 42.49400
H  -3.88800 -2.17100 44.49600
H  -4.44200 -2.81500 42.94000
H  -5.50700 -1.77100 43.95300
H  -0.90200 -5.73300 43.93500
H  0.54100 -5.62400 46.60300
H  -2.63600 -4.23800 45.66800
H  -1.80700 -5.43500 46.75100
H  -2.74900 -5.83800 45.22900
H  1.91300 -7.28400 44.52200
H  0.25600 -7.56200 44.55300
H  2.18400 -8.59100 46.28300
H  0.38300 -8.67400 46.56800
H  1.42000 -7.46700 47.38900
H  5.55300 -5.03800 46.74200
H  7.00600 -4.73900 45.72100
H  5.71900 -5.82400 45.21500
H  7.11700 -0.64400 42.28500
H  9.33200 2.66400 43.75900
H  7.91800 2.89300 44.67000
H  7.91900 3.51800 43.11500
Mg 49.15400 45.22000 42.74000
C  45.86900 45.76200 41.62000
C  48.86000 41.91300 41.72600
C  52.43000 44.89500 42.73400
C  49.42700 48.73800 43.09600
N  47.53000 43.98600 41.63400
C  46.26000 44.45600 41.28300
C  45.41300 43.30200 40.57900
C  46.26900 42.03400 41.06800
C  47.64000 42.64000 41.46600
C  45.67200 41.15100 42.16000
C  45.40900 43.47700 39.10800
C  44.33100 42.68800 38.40800
H  44.76800 41.61200 37.30500
N  50.46500 43.62500 42.48400
C  50.14000 42.37600 42.04200
C  51.31700 41.56800 42.05300
C  52.39000 42.34600 42.36500
C  51.80600 43.66900 42.57800
C  51.47700 40.10100 41.70000
C  53.86600 41.92900 42.46200
O  54.23300 40.77200 42.22100
C  54.98500 42.93900 42.85800
N  50.66700 46.60000 43.18400
C  51.93300 46.19900 42.97900
C  52.92300 47.43200 42.96200
C  51.95400 48.63500 43.28800
C  50.60500 47.96300 43.12800
C  54.19600 47.33000 43.94000
C  52.21000 49.79500 42.27600
C  52.46200 51.12700 42.98800
N  47.88700 46.88500 42.55000
C  48.12800 48.23200 42.80200
C  46.94300 48.97000 42.60000
C  45.96800 48.04300 42.20000
C  46.60800 46.82800 42.20500
C  46.84500 50.48900 42.75100
C  44.68500 47.93100 41.68000
O  43.78200 48.69500 41.44000
C  44.53000 46.42600 41.25900
C  43.25100 45.83800 41.72000
O  42.53100 45.05100 41.08400
O  42.87800 46.28100 42.94800
C  41.61900 45.74600 43.55900
H  48.63200 40.85500 41.58700
H  53.51700 44.97400 42.65800
H  49.45300 49.76800 43.46000
H  44.39600 43.42200 40.95300
H  46.36200 41.32300 40.24600
H  46.16900 41.01100 43.12000
H  45.56700 40.11700 41.83200
H  44.67400 41.57100 42.28900
H  46.43300 43.22500 38.83400
H  45.29400 44.55400 38.98700
H  43.78100 43.44000 37.84300
H  43.68200 42.21000 39.14200
H  51.93100 39.54600 42.52100
H  52.05900 40.01800 40.78300
H  50.49700 39.64300 41.57100
H  55.12100 43.49800 41.93200
H  55.86000 42.31600 43.04600
H  54.76800 43.46300 43.78800
H  53.30400 47.49200 41.94300
H  51.96500 48.84000 44.35800
H  55.09000 47.13300 43.34800
H  54.15900 46.59100 44.74000
H  54.30800 48.29700 44.43100
H  51.38200 49.91100 41.57700
H  53.14600 49.64000 41.73800
H  53.49700 51.38400 42.76200
H  52.51700 51.07800 44.07600
H  51.76300 51.93200 42.75800
H  46.72800 50.71100 43.81200
H  45.99200 50.89400 42.20600
H  47.75300 50.97500 42.39600
H  44.33800 46.42500 40.18600
H  40.77300 45.88000 42.88500
H  41.39000 46.21600 44.51600
H  41.71400 44.71500 43.89900

