158

Mg 6.46700 54.55900 40.43900
C  5.73700 51.09000 40.14600
C  9.66900 53.86900 39.96500
C  6.83300 57.59600 39.49400
C  2.98300 54.98500 40.90700
N  7.48200 52.75400 39.93200
C  7.04900 51.43400 39.92600
C  8.24200 50.42700 39.63100
C  9.38600 51.41100 40.05700
C  8.85200 52.77400 40.06200
C  9.98900 51.05900 41.48400
C  8.26700 49.95200 38.19300
C  8.01600 50.99300 37.09700
H  6.84100 50.65900 36.09800
N  8.15800 55.66500 39.99900
C  9.41900 55.26800 39.90400
C  10.28600 56.32800 39.64700
C  9.43800 57.50900 39.32400
C  8.05800 56.96500 39.56400
C  11.85600 56.26400 39.58900
C  9.90500 58.94400 38.98100
O  11.06900 59.25100 38.93900
C  8.97800 60.09600 38.95000
N  5.07400 56.06000 40.18000
C  5.52900 57.27000 39.81100
C  4.27400 58.27500 39.58900
C  3.09400 57.47400 40.17800
C  3.66400 56.07200 40.36200
C  4.51500 59.54500 40.49800
C  1.78800 57.47300 39.26900
C  0.43600 57.84900 39.84700
N  4.67900 53.30200 40.54600
C  3.43500 53.62500 40.92100
C  2.67600 52.47200 41.25200
C  3.53300 51.40300 40.84000
C  4.72800 51.98400 40.42600
C  1.23900 52.48100 41.65000
C  3.66500 49.91100 40.82100
O  2.96800 49.00600 41.28900
C  5.09900 49.73500 40.32800
C  5.02300 48.93500 38.99600
O  4.59800 49.45300 37.96000
O  5.37300 47.66500 39.20600
C  5.40000 46.89900 37.99000
H  10.71700 53.56800 40.02800
H  6.93000 58.60200 39.08000
H  1.97900 55.23900 41.25100
H  8.12300 49.60900 40.34200
H  10.27100 51.35100 39.42400
H  10.94700 50.58500 41.27400
H  9.35900 50.35100 42.02300
H  10.09700 51.89200 42.17900
H  7.58100 49.11500 38.06600
H  9.28500 49.65500 37.93900
H  8.91200 51.17300 36.50300
H  7.76400 51.93900 37.57600
H  12.25700 56.23100 38.57600
H  12.20400 55.40300 40.15800
H  12.36800 56.97000 40.24300
H  9.52200 60.99800 39.23100
H  8.19000 60.07100 39.70200
H  8.58200 60.14700 37.93600
H  4.22900 58.49100 38.52200
H  2.77700 57.83700 41.15600
H  4.16500 60.40600 39.92800
H  5.53200 59.60100 40.88600
H  3.93100 59.50900 41.41800
H  1.56100 56.43100 39.04100
H  1.92500 58.07500 38.37100
H  -0.38300 57.13200 39.79700
H  0.09100 58.66500 39.21200
H  0.61600 58.09200 40.89400
H  1.12000 53.32100 42.33400
H  0.90300 51.66100 42.28500
H  0.55600 52.64000 40.81600
H  5.59700 49.05300 41.01700
H  5.76500 47.49900 37.15800
H  4.36500 46.60100 37.82400
H  5.96700 45.97800 38.13300
Mg -10.39000 39.77300 38.92000
C  -9.07200 36.63600 38.29700
C  -7.05200 40.99100 38.33300
C  -11.56100 42.93500 38.57000
C  -13.54200 38.50300 39.17300
N  -8.40400 38.87100 38.40400
C  -8.08600 37.56900 38.22200
C  -6.58000 37.31900 37.80500
C  -6.03100 38.56500 38.53600
C  -7.18100 39.55800 38.40200
C  -5.69700 38.23600 40.06800
C  -6.34000 37.41800 36.28300
C  -6.17800 36.07800 35.54900
H  -7.29000 35.78300 34.49500
N  -9.44700 41.69000 38.51100
C  -8.06600 41.95500 38.25300
C  -7.89500 43.33200 38.09200
C  -9.16300 43.98400 38.10500
C  -10.13900 42.86800 38.47000
C  -6.55800 43.93500 37.75900
C  -9.45600 45.40800 37.86600
O  -8.54100 46.21700 37.63400
C  -10.83800 46.02400 37.94800
N  -12.26800 40.56600 38.85900
C  -12.49400 41.91300 38.90700
C  -13.99000 42.21700 39.15100
C  -14.66500 40.80500 39.27300
C  -13.41800 39.87500 39.10100
C  -14.21300 43.10000 40.39100
C  -15.82300 40.56400 38.22900
C  -17.17500 40.14400 38.90300
N  -11.16100 37.90900 38.89000
C  -12.49500 37.55800 39.06100
C  -12.56700 36.11900 39.01800
C  -11.30100 35.69500 38.63800
C  -10.46600 36.79700 38.64200
C  -13.83600 35.35900 39.18700
C  -10.41000 34.57200 38.27200
O  -10.65300 33.44200 38.11700
C  -8.96600 35.09200 38.04100
C  -8.10400 34.38800 38.99600
O  -8.41800 34.11800 40.16100
O  -6.93900 33.86600 38.46200
C  -6.16700 32.92500 39.23800
H  -6.01700 41.32900 38.25100
H  -11.89000 43.96300 38.73400
H  -14.49000 38.01500 39.40500
H  -6.05500 36.46300 38.22900
H  -5.08900 38.88100 38.09000
H  -6.49100 38.63300 40.70100
H  -4.71300 38.65500 40.28000
H  -5.47700 37.18700 40.26600
H  -5.42700 38.00100 36.16100
H  -7.17000 37.97500 35.84800
H  -6.04100 35.23400 36.22400
H  -5.20700 36.24400 35.08300
H  -6.54400 44.29500 36.73000
H  -5.71300 43.25300 37.85800
H  -6.45400 44.86700 38.31500
H  -11.54200 45.44800 37.34800
H  -10.94000 47.03300 37.54700
H  -11.26100 45.95700 38.95100
H  -14.33800 42.76100 38.27400
H  -15.04200 40.58000 40.27000
H  -15.06600 42.90300 41.04000
H  -14.33200 44.15600 40.15000
H  -13.23600 42.97800 40.85900
H  -15.55800 39.82900 37.46800
H  -16.16700 41.47600 37.74100
H  -17.32700 40.81500 39.74900
H  -17.05300 39.07100 39.05200
H  -17.88800 40.31900 38.09800
H  -14.76100 35.89700 38.98200
H  -13.91000 35.06900 40.23500
H  -13.75600 34.51400 38.50300
H  -8.65200 34.93500 37.00900
H  -5.84300 33.39200 40.16800
H  -5.32400 32.54800 38.65900
H  -6.75400 32.07300 39.57900

