158

Mg 49.52300 45.47000 42.37600
C  45.96100 45.69600 41.51500
C  49.17600 42.16900 41.43800
C  52.70900 45.44000 42.09400
C  49.46600 48.93600 42.78900
N  47.70500 44.06500 41.49400
C  46.40900 44.40400 41.22100
C  45.75400 43.20400 40.55000
C  46.69100 42.10400 41.04600
C  47.90800 42.81700 41.30000
C  46.27000 41.27000 42.26700
C  45.60000 43.41600 39.04200
C  44.59600 42.52100 38.27500
H  44.97100 41.74700 36.96200
N  50.78400 43.96800 41.95400
C  50.50500 42.65700 41.60100
C  51.75900 41.93200 41.61700
C  52.83300 42.88000 41.65300
C  52.13600 44.17200 41.92600
C  51.77500 40.45300 41.65600
C  54.34800 42.61800 41.63900
O  54.82800 41.50300 41.39900
C  55.30300 43.81600 41.95000
N  50.89900 46.98800 42.47300
C  52.26200 46.72200 42.49200
C  53.10500 48.03800 42.65100
C  51.99200 49.14800 42.84300
C  50.66300 48.32600 42.74600
C  54.18800 47.98200 43.80800
C  52.13000 50.25700 41.65600
C  51.87000 51.68600 42.15400
N  48.10900 47.06600 42.27700
C  48.26700 48.38600 42.54800
C  46.95400 49.01600 42.48700
C  46.03400 48.06200 42.03200
C  46.75200 46.86000 41.90300
C  46.65800 50.49600 42.68100
C  44.64200 47.82700 41.66000
O  43.74000 48.68100 41.63800
C  44.59400 46.29300 41.21200
C  43.55900 45.48700 41.80500
O  42.81700 44.71300 41.21200
O  43.37200 45.83100 43.07800
C  42.12900 45.37200 43.84500
H  49.11400 41.09100 41.27200
H  53.79400 45.53400 42.02200
H  49.35600 50.02200 42.81500
H  44.73300 42.94200 40.82900
H  47.00700 41.39900 40.27700
H  47.12200 41.09400 42.92300
H  46.06300 40.30200 41.81100
H  45.31800 41.61000 42.67800
H  46.58900 43.44500 38.58500
H  45.12900 44.39400 38.94400
H  43.77800 43.19000 38.00600
H  44.07900 41.88000 38.98900
H  51.47700 40.05800 42.62700
H  52.69000 40.00300 41.27200
H  51.08400 40.05400 40.91400
H  56.28800 43.37100 42.08600
H  54.90600 44.15100 42.90800
H  55.41000 44.50300 41.11100
H  53.67100 48.27900 41.75100
H  51.98400 49.55400 43.85500
H  55.18400 48.18500 43.41500
H  54.35500 47.02500 44.30400
H  53.93100 48.56300 44.69400
H  51.30600 49.98700 40.99600
H  53.05000 50.29600 41.07300
H  51.09700 52.07800 41.49300
H  52.78300 52.28000 42.20600
H  51.66500 51.72000 43.22400
H  47.50500 50.92100 43.21900
H  45.82000 50.52600 43.37700
H  46.40100 51.12600 41.83000
H  44.39300 46.29900 40.14000
H  41.21000 45.75500 43.40300
H  42.15200 45.72300 44.87700
H  42.01900 44.29800 43.69000
Mg 30.46600 57.80400 39.41300
C  27.63600 55.81900 38.73500
C  32.30100 55.08700 38.11900
C  33.04300 59.78200 39.58200
C  28.28300 60.45400 40.39400
N  29.99000 55.71900 38.59900
C  28.79500 55.14500 38.45000
C  28.75400 53.70500 37.90400
C  30.29600 53.45400 38.09100
C  30.91500 54.82100 38.24500
C  30.61700 52.47500 39.23400
C  28.29000 53.60300 36.49100
C  28.58300 54.77300 35.60400
H  27.64400 55.03100 34.36300
N  32.38900 57.42300 39.06400
C  32.95900 56.34600 38.41700
C  34.40100 56.62400 38.22700
C  34.59500 57.90600 38.59500
C  33.34400 58.38600 39.18100
C  35.35900 55.60500 37.70500
C  35.92200 58.70600 38.48100
O  36.87300 58.17900 37.96900
C  36.15100 60.09400 38.84300
N  30.60200 59.85200 39.84900
C  31.80500 60.40500 39.97200
C  31.76200 61.84000 40.32700
C  30.24700 61.99200 40.83700
C  29.69600 60.67000 40.38900
C  32.75700 62.40300 41.36000
C  29.45300 63.17700 40.20100
C  28.68100 63.99900 41.23800
N  28.37800 58.15400 39.57700
C  27.66800 59.25300 39.94700
C  26.27600 59.00400 39.78100
C  26.17600 57.70300 39.32700
C  27.45600 57.20700 39.23100
C  25.18500 59.96200 40.01500
C  25.30300 56.67000 38.77400
O  24.05000 56.67800 38.66100
C  26.16800 55.42100 38.48800
C  25.85900 54.31800 39.47500
O  26.48200 54.10500 40.48800
O  24.69100 53.66100 39.05600
C  24.05800 52.43800 39.71000
H  33.01200 54.30700 37.83800
H  33.82600 60.54200 39.53600
H  27.66700 61.26600 40.78600
H  28.03400 53.18600 38.53700
H  30.69100 52.96900 37.19800
H  31.65300 52.13800 39.18800
H  30.10600 51.52300 39.09300
H  30.27200 52.83600 40.20300
H  27.25400 53.29900 36.34100
H  28.87500 52.83500 35.98500
H  29.56300 54.47500 35.23000
H  28.69500 55.74600 36.08200
H  35.74400 55.89700 36.72900
H  34.96900 54.63000 37.41200
H  36.13400 55.40500 38.44500
H  35.76000 60.18400 39.85700
H  35.67500 60.74700 38.11100
H  37.20900 60.32500 38.96600
H  32.02400 62.32300 39.38600
H  30.27200 61.96800 41.92700
H  32.79800 61.60700 42.10300
H  32.27800 63.24300 41.86400
H  33.70300 62.83100 41.02900
H  28.82900 62.68500 39.45500
H  30.26100 63.78300 39.78900
H  29.15900 64.94600 41.48900
H  28.37200 63.45600 42.13200
H  27.79200 64.31000 40.69000
H  25.48500 60.54700 40.88500
H  24.31100 59.37400 40.29700
H  24.90200 60.61600 39.19000
H  25.92300 55.01400 37.50700
H  24.94800 51.89200 40.02300
H  23.33700 51.89400 39.10000
H  23.32300 52.64900 40.48600

