158

Mg 23.80600 -5.35700 45.44100
C  26.00300 -2.94100 44.14700
C  21.31800 -4.05700 43.47500
C  22.18300 -8.07300 45.98800
C  26.63300 -6.70200 47.18900
N  23.70700 -3.61900 44.17600
C  24.71100 -2.79900 43.77600
C  24.09500 -1.77900 42.71300
C  22.57900 -1.94100 42.87400
C  22.49900 -3.28500 43.59900
C  21.77000 -0.87000 43.69900
C  24.68400 -2.09500 41.27800
C  25.16400 -0.86500 40.42500
H  24.67200 -0.78300 38.96600
N  21.85600 -5.99700 44.88400
C  21.06500 -5.35700 43.98900
C  19.94400 -6.23700 43.66400
C  20.13800 -7.43900 44.34000
C  21.43000 -7.24800 45.11400
C  18.83900 -5.89300 42.60200
C  19.11900 -8.57400 44.31600
O  18.06100 -8.44700 43.61300
C  19.39500 -9.87400 45.07700
N  24.41100 -7.17300 46.35800
C  23.45000 -8.12300 46.52300
C  23.96700 -9.42800 47.18800
C  25.26900 -8.79200 47.84400
C  25.48400 -7.48200 47.11700
C  23.03400 -10.09600 48.24400
C  26.54200 -9.80100 47.85500
C  27.39800 -9.65800 49.15700
N  25.96800 -4.92100 45.67500
C  26.86700 -5.52100 46.43300
C  28.05900 -4.84200 46.33000
C  27.82000 -3.78200 45.43200
C  26.48900 -3.88100 45.05700
C  29.27300 -5.12500 47.07700
C  28.35000 -2.57300 44.81500
O  29.50400 -2.09000 44.80700
C  27.23300 -2.07400 43.88400
C  26.86400 -0.66200 44.22600
O  26.60100 -0.28300 45.34800
O  27.03400 0.06400 43.07900
C  26.78500 1.55900 43.24000
H  20.54900 -3.55400 42.88400
H  21.52700 -8.94300 46.06200
H  27.34500 -7.05500 47.93700
H  24.27000 -0.72300 42.91700
H  22.14000 -1.97500 41.87700
H  22.38900 -0.15000 44.23500
H  21.13000 -1.37100 44.42600
H  21.22100 -0.27200 42.97100
H  23.81900 -2.45700 40.72300
H  25.29900 -2.99500 41.28800
H  26.20500 -1.09300 40.19400
H  25.09300 0.07200 40.97700
H  18.64700 -6.57300 41.77300
H  19.02500 -4.95400 42.07900
H  17.90200 -5.91800 43.15700
H  19.16000 -9.66700 46.12100
H  20.43500 -10.18600 44.97700
H  18.69300 -10.57600 44.62800
H  24.21500 -10.02400 46.31000
H  25.07700 -8.45100 48.86100
H  21.99700 -9.83300 48.03500
H  23.27600 -9.92100 49.29300
H  22.95200 -11.16900 48.07500
H  27.19800 -9.58500 47.01300
H  26.12800 -10.80700 47.77400
H  28.45300 -9.81500 48.93100
H  27.16800 -10.42900 49.89200
H  27.16900 -8.70300 49.63000
H  29.54800 -4.15800 47.49700
H  30.06400 -5.37700 46.36900
H  29.15800 -5.81500 47.91300
H  27.53300 -2.21400 42.84500
H  26.49300 1.81300 44.25900
H  25.93100 1.79300 42.60400
H  27.70300 1.99000 42.84200
Mg 28.38800 56.41400 40.56100
C  26.07900 53.62200 39.95200
C  30.89200 54.56900 39.45100
C  30.16000 59.21300 40.50900
C  25.42600 58.37300 40.69900
N  28.41200 54.36200 39.86500
C  27.44700 53.39800 39.72300
C  28.08400 52.16900 39.10300
C  29.62600 52.36800 39.41700
C  29.63500 53.86100 39.57800
C  30.21000 51.67000 40.69600
C  27.66300 51.82000 37.68300
C  27.20300 52.97100 36.78200
H  27.34400 52.74900 35.22600
N  30.25800 56.81000 40.08000
C  31.15600 55.88900 39.62800
C  32.49200 56.56500 39.43600
C  32.34300 57.92200 39.76200
C  30.90200 58.01400 40.18600
C  33.76100 55.83000 39.13100
C  33.41100 58.95700 39.72700
O  34.43200 58.65100 39.11700
C  33.24900 60.35000 40.33900
N  27.83800 58.47800 40.45300
C  28.80700 59.38500 40.68600
C  28.26000 60.76100 40.81900
C  26.69900 60.58300 40.88600
C  26.66100 59.04200 40.61100
C  28.93800 61.49500 42.03100
C  25.88000 61.47300 39.86200
C  25.38900 62.77000 40.41000
N  26.20000 56.14000 40.57700
C  25.16100 56.99800 40.62900
C  23.86400 56.25400 40.65000
C  24.20500 54.96800 40.48900
C  25.58400 54.96300 40.34400
C  22.56300 56.94800 40.86400
C  23.63500 53.68200 40.30900
O  22.50100 53.23300 40.43700
C  24.80700 52.71900 39.86700
C  24.82400 51.51700 40.78200
O  24.50200 50.36900 40.51400
O  25.31700 51.93800 42.01200
C  25.81700 50.79900 42.72600
H  31.72700 53.91500 39.19100
H  30.68400 60.16000 40.64900
H  24.57100 59.04100 40.81800
H  27.83100 51.31700 39.73400
H  30.35500 52.11000 38.64800
H  29.84200 50.64400 40.67900
H  29.79800 52.16500 41.57600
H  31.29800 51.64300 40.74600
H  26.80400 51.15100 37.74100
H  28.41100 51.28400 37.09900
H  27.78900 53.85800 37.02100
H  26.13100 53.07900 36.95200
H  33.86600 55.94800 38.05200
H  33.68600 54.75000 39.25500
H  34.67600 56.14800 39.63000
H  32.70500 60.31500 41.28300
H  32.65900 60.84100 39.56600
H  34.20100 60.85300 40.50900
H  28.47700 61.28600 39.88900
H  26.22800 60.74600 41.85500
H  28.22700 62.00500 42.68200
H  29.64800 62.16700 41.55000
H  29.59100 60.78000 42.53100
H  25.05300 60.93800 39.39400
H  26.58600 61.81500 39.10600
H  25.75900 62.91500 41.42500
H  24.30500 62.85100 40.49400
H  25.81100 63.56200 39.79100
H  22.40000 57.62400 40.02500
H  22.57000 57.51100 41.79800
H  21.87200 56.10700 40.80100
H  24.63800 52.35800 38.85300
H  26.52700 51.11100 43.49200
H  26.42500 50.08800 42.16700
H  25.05000 50.26000 43.28300

