158

Mg 25.81500 0.15000 29.41200
C  27.57800 0.14300 32.34600
C  22.88800 0.43000 31.16400
C  24.17600 0.03600 26.51500
C  28.85300 -0.47800 27.75000
N  25.37100 0.33100 31.46800
C  26.27400 0.43300 32.55700
C  25.57700 0.91700 33.89300
C  24.04300 0.98700 33.41200
C  24.08500 0.48000 31.96500
C  22.94000 0.29400 34.34700
C  26.14100 2.26100 34.43900
C  25.32800 2.81500 35.63800
H  26.03600 2.79300 36.98200
N  23.77100 0.23500 28.94800
C  22.68200 0.33500 29.74200
C  21.45600 0.40200 29.01600
C  21.88100 0.49600 27.68800
C  23.35500 0.21900 27.67200
C  20.07600 0.54800 29.53800
C  21.03800 0.80600 26.44700
O  21.45500 0.87100 25.25900
C  19.60300 1.06200 26.62100
N  26.44200 -0.30200 27.37000
C  25.51400 -0.20300 26.36300
C  26.28600 -0.34700 25.07100
C  27.75300 -0.25400 25.42900
C  27.69600 -0.44500 26.93600
C  25.83600 -1.66700 24.47200
C  28.33500 1.22000 24.95500
C  29.88700 1.28100 24.75700
N  27.74900 -0.32900 29.93300
C  28.85100 -0.54600 29.12600
C  30.03400 -0.75600 29.95200
C  29.57700 -0.48000 31.25300
C  28.22000 -0.13200 31.17000
C  31.36300 -1.16300 29.47600
C  29.91900 -0.33000 32.67100
O  30.93400 -0.60100 33.29600
C  28.66500 0.09200 33.38300
C  28.39700 -0.99300 34.33100
O  27.63300 -1.92400 34.11600
O  29.09700 -0.76800 35.46000
C  28.91200 -1.66700 36.60100
H  21.96400 0.60900 31.71800
H  23.68200 -0.05600 25.54500
H  29.81400 -0.51100 27.23300
H  25.51500 0.16700 34.68100
H  23.81900 2.05100 33.33200
H  22.30300 1.08500 34.74200
H  23.34400 -0.30000 35.16700
H  22.37200 -0.43400 33.76800
H  26.31400 2.91100 33.58100
H  27.13100 2.00300 34.81600
H  24.35900 2.32300 35.72500
H  25.09200 3.86100 35.44200
H  19.37900 -0.22600 29.22000
H  19.59500 1.50900 29.35400
H  20.16800 0.47000 30.62200
H  18.98800 1.13200 25.72500
H  19.55600 2.06300 27.05000
H  19.14400 0.27100 27.21500
H  25.93900 0.55500 24.56600
H  28.39100 -1.05300 25.05100
H  26.60500 -2.41900 24.30000
H  25.26400 -1.47400 23.56400
H  25.09600 -2.13200 25.12300
H  27.98400 2.06700 25.54400
H  27.85500 1.49000 24.01500
H  30.13300 1.32900 23.69700
H  30.39300 0.42400 25.20200
H  30.35700 2.13700 25.24200
H  31.65400 -2.20900 29.57700
H  32.07100 -0.69600 30.16100
H  31.62800 -0.81000 28.48000
H  28.74500 1.07800 33.84000
H  29.16400 -1.13700 37.52000
H  29.62500 -2.49200 36.60400
H  27.90600 -2.07800 36.67800
Mg 48.19200 15.00900 28.57100
C  45.96800 15.49500 31.27400
C  50.39800 17.25000 30.09200
C  50.08900 14.91900 25.81600
C  45.54900 13.42100 26.83400
N  48.18400 16.36600 30.47600
C  47.23700 16.14600 31.41900
C  47.70900 16.72900 32.77400
C  48.98900 17.59100 32.30100
C  49.22900 17.08200 30.90200
C  48.97300 19.12700 32.47000
C  48.00900 15.70400 33.85700
C  47.34600 15.85400 35.26200
H  47.36400 17.28200 35.86000
N  49.96500 15.91400 27.98300
C  50.70900 16.76900 28.75400
C  51.94500 17.11200 27.97900
C  51.82500 16.48000 26.71000
C  50.61900 15.73300 26.78400
C  52.97100 18.09200 28.54800
C  52.86200 16.56000 25.51100
O  52.66200 15.96300 24.45500
C  54.13300 17.40300 25.67200
N  47.84900 14.39400 26.54600
C  48.85600 14.27000 25.66600
C  48.43500 13.68800 24.27900
C  46.98300 13.18200 24.70600
C  46.75300 13.71100 26.09900
C  48.43100 14.69000 23.12100
C  47.02400 11.60400 24.64800
C  47.45500 10.81300 25.86700
N  46.15800 14.52300 28.91900
C  45.26000 13.82200 28.17900
C  44.11400 13.50300 29.01600
C  44.38700 14.04100 30.28200
C  45.62300 14.72400 30.13100
C  42.94000 12.77900 28.42400
C  43.85800 14.19600 31.71000
O  42.85800 13.71100 32.23800
C  44.89100 15.14800 32.35000
C  44.09200 16.26700 32.99500
O  43.59300 17.17800 32.40900
O  44.06800 16.07500 34.38000
C  43.39800 17.05100 35.20300
H  51.09500 17.90000 30.62500
H  50.78000 14.78900 24.98100
H  44.87000 12.77600 26.27300
H  46.94800 17.41300 33.15000
H  49.87400 17.26800 32.85000
H  48.71600 19.53100 31.49000
H  49.92000 19.53200 32.82600
H  48.12500 19.36400 33.11300
H  49.07400 15.50200 33.97500
H  47.67400 14.73800 33.47800
H  47.97400 15.14400 35.80100
H  46.31300 15.51500 35.19400
H  53.81800 17.41400 28.65400
H  52.72700 18.57500 29.49400
H  53.13800 18.81600 27.75100
H  53.89700 18.45600 25.51900
H  54.85000 17.11600 24.90400
H  54.45000 17.17000 26.68900
H  49.10000 12.87100 24.00000
H  46.23800 13.50400 23.97900
H  47.93800 14.38300 22.19900
H  49.44600 14.90700 22.78600
H  47.85500 15.56900 23.41100
H  47.65500 11.18100 23.86600
H  45.99900 11.28000 24.46800
H  48.00500 9.94000 25.51500
H  46.57300 10.50000 26.42600
H  48.09700 11.43400 26.49300
H  42.10000 13.26700 27.93000
H  42.56400 12.21000 29.27400
H  43.33000 12.03200 27.73100
H  45.42400 14.67800 33.17600
H  43.45600 18.05900 34.79400
H  43.98100 16.98300 36.12100
H  42.34200 16.78400 35.20600

