158

Mg 40.39600 9.24500 29.76400
C  41.96700 10.85400 32.21000
C  38.17700 7.89900 31.93500
C  38.78200 7.99600 27.10800
C  42.94000 10.22400 27.49100
N  40.22700 9.29900 31.90400
C  40.87700 10.15700 32.70800
C  40.39700 9.98600 34.13300
C  39.26700 8.91600 34.05400
C  39.19000 8.65300 32.54300
C  39.43400 7.58200 34.74600
C  40.04200 11.39500 34.71200
C  39.23200 11.50800 35.96400
H  39.67800 12.41900 37.06100
N  38.66500 8.15300 29.51800
C  37.86700 7.66300 30.61100
C  36.72000 6.96700 30.02000
C  36.84900 7.06200 28.58900
C  38.14400 7.71400 28.38300
C  35.50200 6.46500 30.88300
C  35.82600 6.71600 27.46900
O  36.07700 6.63000 26.27800
C  34.41100 6.41700 27.91600
N  40.91200 9.00500 27.66200
C  40.00700 8.47900 26.78900
C  40.49100 8.52100 25.29000
C  41.97200 9.12300 25.42500
C  41.90800 9.49800 26.92800
C  40.37900 7.27300 24.41100
C  42.28200 10.29000 24.40600
C  41.85200 11.74900 24.62800
N  42.13000 10.25900 29.74000
C  43.05800 10.67300 28.81200
C  44.07500 11.44000 29.42200
C  43.74500 11.50200 30.74400
C  42.51800 10.85200 30.86000
C  45.39200 11.92700 28.73800
C  44.12500 12.05900 32.02800
O  45.10700 12.68300 32.39000
C  42.92600 11.69400 33.09600
C  43.58400 10.95300 34.19300
O  43.99000 9.82100 34.17200
O  43.65500 11.79800 35.24900
C  44.03400 11.14500 36.54400
H  37.58800 7.49800 32.76200
H  38.21200 7.70300 26.22400
H  43.65200 10.64900 26.78100
H  41.24400 9.61100 34.70700
H  38.31600 9.40700 34.26100
H  38.45700 7.39700 35.19100
H  40.24600 7.63300 35.47100
H  39.76800 6.74800 34.12800
H  39.50100 11.90900 33.91700
H  40.95200 11.99300 34.75700
H  39.16000 10.55300 36.48500
H  38.25000 11.89100 35.68800
H  35.69600 6.51100 31.95500
H  35.31000 5.47600 30.46800
H  34.67500 7.13400 30.64700
H  33.96600 7.15900 28.58000
H  34.24300 5.47400 28.43700
H  33.82500 6.44300 26.99700
H  39.84100 9.22500 24.77000
H  42.67000 8.28900 25.49000
H  41.34500 6.77400 24.48600
H  40.18100 7.58500 23.38500
H  39.55600 6.60400 24.66000
H  41.72800 10.08000 23.49100
H  43.35300 10.40000 24.23300
H  41.24700 12.07700 23.78300
H  42.73200 12.39100 24.65200
H  41.22600 11.76900 25.52100
H  46.24000 11.92300 29.42300
H  45.37800 12.94900 28.35900
H  45.64300 11.31700 27.87000
H  42.59200 12.70400 33.33300
H  43.24000 11.34900 37.26300
H  44.98600 11.54100 36.89700
H  44.16400 10.06400 36.58400
Mg 29.69600 58.78600 41.47000
C  27.23600 56.82800 39.92300
C  32.13900 56.47900 40.13700
C  32.32200 60.93300 41.90600
C  27.32400 61.16400 42.25100
N  29.61700 56.88700 40.10800
C  28.50800 56.29000 39.68200
C  28.85800 55.06400 38.80300
C  30.24700 54.74300 39.38900
C  30.79200 56.11100 39.92400
C  30.38100 53.61300 40.42300
C  28.78600 55.34700 37.25300
C  28.08200 54.34500 36.39700
H  27.27900 54.88400 35.21100
N  31.89000 58.70800 41.14200
C  32.60500 57.75400 40.56700
C  33.95600 58.05100 40.43500
C  34.12600 59.27500 41.06500
C  32.73900 59.67300 41.55100
C  35.00900 57.14200 39.77200
C  35.39200 60.03800 41.10300
O  36.47500 59.55700 40.74600
C  35.40800 61.37100 41.66500
N  29.78400 60.79300 41.99000
C  30.99900 61.39400 42.25400
C  30.73200 62.83800 42.70800
C  29.13000 62.94200 42.88900
C  28.66700 61.54500 42.39100
C  31.56800 63.20000 43.97800
C  28.35200 64.15300 42.12600
C  27.14600 64.66800 43.07100
N  27.71600 58.93300 41.26900
C  26.88600 59.94600 41.67900
C  25.47500 59.57000 41.43300
C  25.55100 58.36900 40.67500
C  26.94600 58.02100 40.62900
C  24.20200 60.31900 41.69200
C  24.84200 57.38700 39.98700
O  23.60200 57.28900 39.75900
C  25.86900 56.30600 39.48600
C  25.51100 54.95500 40.09000
O  25.19100 54.72700 41.24900
O  25.53800 54.02400 39.06500
C  25.13400 52.67400 39.53000
H  32.78100 55.64100 39.85900
H  33.00100 61.78300 41.81000
H  26.55600 61.85000 42.61500
H  28.26700 54.21400 39.14300
H  30.93700 54.49200 38.58400
H  29.41400 53.48000 40.90900
H  31.07100 54.09200 41.11800
H  30.76600 52.70700 39.95500
H  29.75900 55.44100 36.77100
H  28.33600 56.34000 37.22900
H  27.41400 53.75100 37.02200
H  28.83300 53.64800 36.02500
H  35.86000 57.61600 39.28300
H  34.54800 56.55400 38.97900
H  35.37000 56.34100 40.41700
H  36.46400 61.60800 41.78600
H  34.78600 61.34000 42.56000
H  34.89200 61.91800 40.87600
H  31.02500 63.52800 41.91700
H  28.95400 62.89000 43.96300
H  32.15100 62.31400 44.23100
H  30.96200 63.53800 44.81800
H  32.25400 64.04000 43.86700
H  28.03000 63.77200 41.15700
H  29.07600 64.95000 41.95400
H  26.27600 64.31700 42.51600
H  26.95400 65.73700 43.15100
H  27.10200 64.14700 44.02800
H  23.60300 59.92900 42.51500
H  23.65200 60.12800 40.77000
H  24.40400 61.39000 41.72200
H  25.88100 56.23300 38.39900
H  24.09100 52.64500 39.84600
H  25.69600 52.48200 40.44400
H  25.18100 51.97700 38.69300

