158

Mg -0.19800 7.96100 24.62200
C  0.44100 8.95900 28.01600
C  -0.38300 4.72900 25.70700
C  -0.58500 7.16900 21.48700
C  0.02900 11.35400 23.74700
N  0.05100 6.94900 26.67300
C  0.32400 7.53200 27.89400
C  0.62100 6.48100 28.96500
C  0.43500 5.08800 28.13000
C  0.01500 5.59600 26.79000
C  1.66100 3.99500 28.12500
C  -0.27900 6.41900 30.25600
C  0.56600 6.61800 31.52100
H  1.77900 5.77800 31.84700
N  -0.43300 6.19200 23.72800
C  -0.46600 4.92900 24.36400
C  -0.49400 3.89800 23.31100
C  -0.54000 4.62400 22.05100
C  -0.54200 6.03400 22.37600
C  -0.66600 2.42300 23.60300
C  -0.63000 4.07200 20.62500
O  -0.73700 4.82700 19.62200
C  -0.50500 2.56600 20.42500
N  -0.30400 9.10500 22.86400
C  -0.44500 8.50300 21.68200
C  -0.40400 9.54500 20.48100
C  -0.33600 10.83400 21.28500
C  -0.13100 10.40900 22.75300
C  0.79800 9.42800 19.49600
C  -1.63300 11.76800 21.15700
C  -2.89100 11.21700 21.86600
N  0.26500 9.81600 25.61000
C  0.18800 11.12500 25.13100
C  0.61500 12.05000 26.20600
C  0.66900 11.25800 27.29800
C  0.47300 9.88800 26.94300
C  0.86700 13.45900 26.02700
C  0.89600 11.32900 28.73600
O  1.10500 12.30600 29.51000
C  0.83700 9.81600 29.21900
C  2.18600 9.63300 29.73700
O  3.11300 9.15400 29.15100
O  2.19000 9.92300 31.09000
C  3.32400 9.44800 31.87600
H  -0.20200 3.68300 25.96300
H  -0.72900 6.87400 20.44600
H  0.01900 12.35700 23.31500
H  1.68000 6.54800 29.21400
H  -0.48100 4.61600 28.48600
H  1.53300 3.56700 27.13100
H  1.57900 3.23000 28.89700
H  2.60900 4.51000 28.28000
H  -0.75400 5.45200 30.41800
H  -1.04100 7.19500 30.19000
H  -0.14600 6.48500 32.33500
H  0.78400 7.68100 31.42000
H  -1.50900 2.07300 23.00700
H  -0.91700 2.25600 24.65100
H  0.28900 2.00100 23.29200
H  0.35200 2.16100 20.96300
H  -0.39100 2.49300 19.34300
H  -1.40600 2.07500 20.79300
H  -1.36100 9.34300 19.99900
H  0.55300 11.42300 21.05900
H  1.35800 10.34200 19.29700
H  0.38200 9.03700 18.56800
H  1.43000 8.66600 19.95200
H  -1.96900 11.87000 20.12500
H  -1.32100 12.71700 21.59400
H  -3.59800 10.97300 21.07300
H  -3.32700 12.11500 22.30400
H  -2.70800 10.30700 22.43800
H  1.65500 13.74900 26.72100
H  0.01000 14.09900 26.23800
H  1.19500 13.62500 25.00100
H  0.07600 9.78600 29.99800
H  3.47300 10.20100 32.65100
H  4.15300 9.35100 31.17500
H  3.16000 8.51500 32.41600
Mg -12.37500 39.73700 42.40300
C  -10.86300 36.82100 41.27200
C  -9.79400 41.56400 40.91000
C  -14.26800 42.58500 42.92200
C  -15.23900 37.93400 43.30800
N  -10.62300 39.23100 40.95300
C  -10.08700 37.96300 40.86800
C  -8.68900 37.99900 40.31300
C  -8.34400 39.58700 40.24100
C  -9.66400 40.15200 40.84200
C  -7.00600 39.95400 40.95000
C  -8.65400 37.22300 38.94100
C  -7.41400 36.32700 39.02200
H  -7.02600 35.66300 37.75900
N  -12.04900 41.77200 41.98500
C  -10.91100 42.34600 41.40500
C  -11.05400 43.82400 41.43800
C  -12.27100 44.09100 42.16800
C  -12.98000 42.76900 42.36500
C  -10.08800 44.81100 40.79600
C  -12.83700 45.52700 42.61800
O  -12.20400 46.56100 42.36900
C  -14.13800 45.68800 43.37800
N  -14.57000 40.18900 42.87600
C  -14.97900 41.40000 43.21100
C  -16.39300 41.38400 43.82200
C  -16.76700 39.90700 43.66100
C  -15.40200 39.31100 43.34600
C  -16.45400 41.82800 45.34300
C  -17.80600 39.54300 42.57200
C  -18.83500 38.48900 43.00200
N  -12.94400 37.72700 42.41000
C  -14.11400 37.20700 42.82400
C  -14.00100 35.73800 42.62700
C  -12.68200 35.54400 42.14000
C  -12.15400 36.81100 41.89100
C  -15.09200 34.79300 43.11500
C  -11.68200 34.56100 41.78600
O  -11.61300 33.38600 41.99100
C  -10.44100 35.37300 41.24000
C  -9.28900 35.06400 42.08900
O  -9.08600 35.45700 43.22800
O  -8.49800 34.11700 41.40500
C  -7.33900 33.59800 42.18500
H  -8.92300 42.18700 40.69700
H  -14.95500 43.36800 43.24800
H  -16.02400 37.35300 43.79500
H  -8.06700 37.51800 41.06800
H  -8.12800 39.88100 39.21500
H  -6.50800 40.68000 40.30700
H  -6.38000 39.07400 41.10000
H  -7.23000 40.41400 41.91300
H  -8.53100 37.90100 38.09600
H  -9.53500 36.59800 38.79500
H  -7.63100 35.57100 39.77600
H  -6.59900 36.95300 39.38600
H  -10.32200 45.00900 39.75000
H  -9.04700 44.49100 40.76700
H  -10.17300 45.81500 41.21100
H  -14.19200 44.93500 44.16500
H  -14.92500 45.43000 42.66900
H  -14.28600 46.65500 43.85800
H  -17.09200 42.03400 43.29600
H  -17.16100 39.46700 44.57700
H  -16.32900 41.07700 46.12300
H  -17.42200 42.26500 45.58900
H  -15.75200 42.57600 45.71200
H  -17.33800 39.12000 41.68300
H  -18.22700 40.42500 42.09100
H  -18.44600 37.47900 42.87700
H  -19.79200 38.58700 42.48900
H  -18.98600 38.41800 44.07900
H  -14.78100 34.30800 44.04000
H  -15.11500 33.97500 42.39400
H  -16.08500 35.18000 43.34300
H  -10.33000 35.03600 40.20900
H  -6.60900 33.31700 41.42600
H  -7.62900 32.71300 42.75200
H  -6.88800 34.47400 42.65000

