158

Mg 0.14300 7.03600 25.61900
C  0.90000 9.09400 28.44900
C  0.32500 4.37700 27.81600
C  -0.47000 5.23500 23.01200
C  0.69000 9.82800 23.63400
N  0.45700 6.80600 27.96800
C  0.70600 7.77700 28.88500
C  0.62400 7.24200 30.29500
C  0.75800 5.69500 30.00100
C  0.38500 5.60600 28.54400
C  2.20800 5.11100 30.39100
C  -0.78600 7.65200 30.89400
C  -0.85500 7.82200 32.43800
H  0.30600 7.58700 33.40900
N  -0.08300 5.05700 25.40400
C  0.10500 4.10400 26.35000
C  0.05700 2.81800 25.73100
C  -0.32900 3.01700 24.32400
C  -0.26300 4.49100 24.18800
C  0.27200 1.63900 26.60400
C  -0.62400 2.00300 23.27200
O  -0.79500 2.27700 22.11300
C  -0.86100 0.61200 23.68500
N  0.24900 7.47100 23.55100
C  -0.25600 6.54500 22.70100
C  -0.63700 7.23300 21.36900
C  -0.42900 8.67800 21.67000
C  0.20500 8.66900 23.04800
C  0.18500 6.59100 20.21200
C  -1.71000 9.65600 21.62700
C  -1.79200 10.70300 20.44800
N  0.59200 9.12200 25.93600
C  0.94600 10.10500 25.04700
C  1.44000 11.29700 25.71300
C  1.38100 10.97700 27.05200
C  0.92300 9.64300 27.14700
C  1.59800 12.68000 25.10100
C  1.61100 11.45100 28.39100
O  2.01600 12.52100 28.92100
C  1.20300 10.25400 29.28200
C  2.26600 10.08100 30.29600
O  3.23100 9.38000 30.13700
O  1.94000 10.80200 31.40200
C  2.79600 10.76300 32.56300
H  0.55000 3.57900 28.52700
H  -0.80400 4.55200 22.22700
H  0.76100 10.73900 23.03600
H  1.46200 7.64600 30.86300
H  0.13700 5.04200 30.61400
H  2.62300 4.80300 29.43100
H  2.02600 4.26600 31.05600
H  2.75100 5.87500 30.94600
H  -1.47600 6.89600 30.51800
H  -1.03000 8.61400 30.44400
H  -1.65800 7.20300 32.83800
H  -1.16200 8.84300 32.66500
H  0.92700 1.91600 27.43000
H  0.82900 0.96100 25.95600
H  -0.61900 1.14800 26.99700
H  -1.35900 0.49800 24.64800
H  0.06800 0.04200 23.72300
H  -1.46600 0.05800 22.96700
H  -1.70800 7.04000 21.30100
H  0.39100 9.01500 21.03700
H  -0.48300 6.02700 19.56100
H  0.94700 5.96600 20.67500
H  0.71900 7.30400 19.58300
H  -1.71800 10.14100 22.60300
H  -2.64000 9.08800 21.63800
H  -0.85200 10.58500 19.91000
H  -1.77100 11.66100 20.96900
H  -2.71300 10.67700 19.86600
H  2.48100 12.77200 24.46800
H  1.62000 13.46700 25.85500
H  0.76400 12.90800 24.43700
H  0.39200 10.59600 29.92500
H  3.50200 9.93200 32.55900
H  2.30300 10.83800 33.53200
H  3.48900 11.59800 32.45300
Mg 23.55400 -4.87400 46.15600
C  25.35100 -2.22500 44.73500
C  20.84000 -3.82700 44.32900
C  22.03500 -7.74700 47.18400
C  26.42800 -5.84000 47.94800
N  23.20900 -3.29700 44.61800
C  24.08900 -2.32600 44.17200
C  23.50600 -1.40300 43.07100
C  21.97700 -1.74500 43.30500
C  21.99600 -3.04400 44.11400
C  21.19800 -0.63400 44.01800
C  24.16700 -1.72100 41.69900
C  24.82600 -0.59900 40.91000
H  24.77100 -0.69200 39.43500
N  21.77100 -5.72900 45.68800
C  20.78500 -5.13200 44.96500
C  19.63800 -6.02000 44.89500
C  19.89700 -7.14500 45.76100
C  21.33700 -6.91500 46.23800
C  18.36400 -5.55100 44.18600
C  18.85300 -8.11500 46.18200
O  17.73400 -7.92500 45.78000
C  19.13300 -9.41600 46.96900
N  24.22800 -6.50400 47.34400
C  23.35000 -7.52400 47.72000
C  24.01300 -8.68000 48.46200
C  25.43700 -8.21000 48.60800
C  25.36900 -6.75500 48.02400
C  23.28600 -8.90000 49.82600
C  26.51900 -9.08500 47.90200
C  27.70700 -9.31700 48.82200
N  25.48400 -4.07300 46.49300
C  26.53100 -4.57200 47.28200
C  27.61200 -3.69100 47.16500
C  27.17300 -2.76400 46.22000
C  25.88500 -3.02300 45.77500
C  28.99100 -3.72400 47.78900
C  27.64300 -1.62600 45.51600
O  28.74400 -1.08700 45.51500
C  26.50600 -1.24800 44.39800
C  26.25100 0.19300 44.58500
O  25.72800 0.65000 45.60700
O  26.60000 0.94700 43.42500
C  26.19600 2.35000 43.53100
H  20.00400 -3.38100 43.78600
H  21.63600 -8.67000 47.61000
H  27.31900 -5.98700 48.56100
H  23.75700 -0.37600 43.33500
H  21.54500 -1.89700 42.31600
H  21.86300 0.20000 44.24000
H  21.02900 -1.02400 45.02100
H  20.20800 -0.34400 43.66600
H  23.34600 -2.20600 41.17000
H  24.85000 -2.55700 41.84700
H  25.86200 -0.72900 41.22300
H  24.51700 0.38300 41.26800
H  18.56000 -4.98000 43.27800
H  17.82500 -4.94900 44.91800
H  17.71400 -6.35400 43.84100
H  18.23600 -10.02600 47.07400
H  19.19600 -9.17300 48.02900
H  19.99700 -9.98800 46.63100
H  23.83000 -9.53700 47.81500
H  25.68100 -8.28800 49.66700
H  23.82300 -8.73300 50.76000
H  22.92900 -9.92400 49.92500
H  22.43100 -8.23600 49.95400
H  26.84500 -8.56000 47.00400
H  26.24700 -10.09500 47.59500
H  28.56600 -9.43000 48.16100
H  27.68500 -10.26800 49.35500
H  28.01500 -8.61300 49.59500
H  29.69000 -4.22400 47.11900
H  28.91700 -4.28500 48.72100
H  29.48000 -2.76500 47.95900
H  26.90900 -1.39100 43.39600
H  26.66300 2.98200 42.77500
H  26.25900 2.83100 44.50700
H  25.14100 2.35100 43.25400

