158

Mg 47.76500 15.86700 27.97900
C  45.72000 15.35200 30.93400
C  49.96900 17.61500 29.96500
C  49.63400 16.39500 25.27600
C  45.28000 14.31900 26.12700
N  47.78100 16.45900 30.21100
C  46.91100 16.08000 31.23000
C  47.47600 16.62500 32.58400
C  48.57100 17.61400 32.09900
C  48.82100 17.21100 30.68200
C  48.25300 19.13100 32.34500
C  47.79100 15.48100 33.60400
C  47.30200 15.67200 35.04700
H  47.09500 17.05700 35.66600
N  49.52700 16.82200 27.67800
C  50.33200 17.31300 28.68300
C  51.56700 17.66000 27.98900
C  51.48200 17.40100 26.65000
C  50.20000 16.81300 26.46200
C  52.74600 18.26200 28.76000
C  52.53300 17.74100 25.52500
O  52.41400 17.32600 24.38500
C  53.78900 18.56300 25.97900
N  47.39700 15.52200 25.92400
C  48.41400 15.72000 25.04700
C  47.89000 15.32500 23.63900
C  46.52400 14.61600 23.91800
C  46.41100 14.72100 25.40700
C  47.80400 16.54500 22.73400
C  46.43900 13.16100 23.46100
C  46.95500 11.99400 24.25500
N  45.83700 15.10200 28.38000
C  44.92400 14.55800 27.46700
C  43.80800 14.00300 28.22700
C  44.04500 14.29600 29.58700
C  45.27200 14.95200 29.62400
C  42.69500 13.11000 27.78400
C  43.65300 14.11300 30.96600
O  42.69700 13.56000 31.40100
C  44.70300 14.85700 31.91000
C  43.95700 15.95000 32.60400
O  43.76900 17.04200 32.20100
O  43.54400 15.50700 33.88000
C  42.73200 16.46100 34.68700
H  50.68400 18.22900 30.51600
H  50.27400 16.54100 24.40300
H  44.62600 13.71100 25.49800
H  46.66500 17.22900 32.99000
H  49.47600 17.52200 32.70000
H  49.02200 19.69200 32.87600
H  47.39400 19.34100 32.98200
H  48.21800 19.71300 31.42500
H  48.86600 15.30700 33.55100
H  47.42100 14.54100 33.19400
H  48.09400 15.21500 35.64100
H  46.43300 15.02300 35.15600
H  53.69000 17.73100 28.63600
H  52.54900 18.05800 29.81300
H  52.88100 19.33300 28.60900
H  54.34900 18.84000 25.08600
H  54.48900 17.96900 26.56700
H  53.48500 19.46900 26.50400
H  48.62600 14.58000 23.33500
H  45.74300 15.24900 23.49700
H  48.66100 16.55700 22.06000
H  47.85300 17.48600 23.28300
H  46.96600 16.49500 22.03800
H  46.86500 13.06100 22.46300
H  45.37200 13.00500 23.29900
H  47.08800 11.15200 23.57600
H  46.17700 11.70300 24.96100
H  47.87100 12.26500 24.78000
H  41.94300 13.64800 27.20700
H  42.28300 12.61500 28.66300
H  43.10400 12.39100 27.07400
H  45.06300 14.11100 32.62000
H  41.69400 16.50000 34.35700
H  43.10200 17.48600 34.71600
H  42.79800 16.18200 35.73900
Mg 35.98200 48.16500 25.51900
C  36.40800 46.31000 28.61600
C  35.07300 50.86000 27.43300
C  35.19200 49.53700 22.66000
C  36.68000 45.08800 23.87500
N  35.72400 48.49300 27.77300
C  36.01500 47.66400 28.84000
C  35.86500 48.33000 30.18500
C  35.51800 49.87800 29.78800
C  35.41500 49.73800 28.25700
C  34.06300 50.27300 30.35000
C  37.18100 48.29400 31.01400
C  36.96300 47.67600 32.43700
H  35.64900 47.76600 33.29800
N  35.40800 50.05000 25.12400
C  35.04500 51.04400 26.02300
C  34.76000 52.24700 25.27100
C  34.79500 51.89500 23.88400
C  35.13600 50.37500 23.79400
C  34.39700 53.45400 25.99800
C  34.41400 52.73300 22.69100
O  34.52300 52.29000 21.58800
C  34.12500 54.25800 22.84700
N  35.98700 47.41700 23.63100
C  35.54400 48.20800 22.64800
C  35.50800 47.43300 21.32600
C  36.40500 46.20200 21.62100
C  36.36700 46.20000 23.11100
C  34.03500 46.96100 20.87000
C  37.88400 46.29800 21.08600
C  38.91300 47.11000 21.93100
N  36.41500 46.09100 26.04100
C  36.74800 45.04200 25.24500
C  37.02700 43.97800 26.06300
C  36.92300 44.39700 27.40400
C  36.46000 45.68600 27.33200
C  37.46000 42.61600 25.56900
C  37.11900 44.02700 28.81900
O  37.52500 42.98400 29.29600
C  36.62200 45.20900 29.64300
C  35.47100 44.86200 30.34200
O  34.36000 45.00400 29.91400
O  35.71800 44.23500 31.53800
C  34.49400 43.78900 32.23200
H  34.81000 51.71000 28.06600
H  34.91000 49.86900 21.65900
H  37.00200 44.19300 23.33800
H  34.98100 47.92000 30.67300
H  36.31500 50.55100 30.10400
H  34.11700 51.28600 30.74800
H  33.91600 49.67200 31.24700
H  33.19600 50.17500 29.69600
H  37.69800 49.25200 31.05900
H  37.85500 47.67700 30.41900
H  37.84900 47.97900 32.99400
H  37.12900 46.61300 32.26200
H  33.33000 53.62100 26.15200
H  34.75400 54.28600 25.39100
H  35.05800 53.67100 26.83700
H  33.65500 54.49400 21.89300
H  34.98600 54.91900 22.95500
H  33.36800 54.52100 23.58500
H  35.98100 48.08900 20.59600
H  36.04100 45.25300 21.22800
H  33.29000 47.45700 21.49200
H  33.87200 45.88400 20.81400
H  33.88500 47.34800 19.86200
H  37.78900 46.81900 20.13400
H  38.32200 45.34000 20.80700
H  39.15100 46.49700 22.80000
H  38.66000 48.13400 22.20700
H  39.76900 47.14100 21.25700
H  38.31200 42.19200 26.09900
H  37.72400 42.62800 24.51200
H  36.62000 41.94700 25.75500
H  37.42500 45.51800 30.31300
H  33.83600 43.21100 31.58400
H  33.95400 44.56900 32.76900
H  34.85600 43.15200 33.03900

