158

Mg 44.15900 4.74300 47.82900
C  41.81800 7.23900 47.46300
C  41.58000 2.46800 47.67700
C  46.44100 2.45700 48.38300
C  46.69500 7.19600 47.32200
N  41.93100 4.86500 47.52300
C  41.19300 6.00200 47.52100
C  39.64100 5.72400 47.57000
C  39.63500 4.16400 47.60000
C  41.18100 3.84300 47.66500
C  38.85400 3.53100 48.83000
C  38.62500 6.33600 46.53100
C  39.20000 6.77400 45.17300
H  38.62400 6.05500 43.97200
N  44.11600 2.68800 47.71600
C  42.92600 1.93100 47.72900
C  43.26600 0.55300 47.79100
C  44.64100 0.55100 47.98500
C  45.14200 1.92000 48.04300
C  42.26200 -0.57200 47.58000
C  45.41900 -0.74400 48.15000
O  44.84600 -1.85800 48.36200
C  46.91000 -0.71100 47.90400
N  46.25800 4.74000 47.53600
C  46.91500 3.74600 48.23400
C  48.38500 4.10600 48.44100
C  48.48400 5.54800 47.87400
C  47.08600 5.84900 47.51100
C  48.96800 4.01000 49.80400
C  49.50000 5.66300 46.71000
C  50.96200 5.88200 47.10100
N  44.27400 6.76700 47.46900
C  45.39300 7.61600 47.34200
C  44.97500 8.92900 47.23000
C  43.54200 8.86000 47.27800
C  43.16700 7.53500 47.38800
C  45.78200 10.19800 46.99600
C  42.28500 9.73700 47.24700
O  42.12200 10.93300 47.21600
C  41.12700 8.61500 47.35700
C  40.36400 8.85600 48.68000
O  40.48700 8.29900 49.74600
O  39.39300 9.77000 48.37900
C  38.41100 10.02800 49.44400
H  40.76400 1.74300 47.73200
H  47.20600 1.82000 48.83100
H  47.34100 8.07500 47.29000
H  39.37300 6.06300 48.57000
H  39.21400 3.71800 46.69900
H  38.31200 2.60700 48.63100
H  38.13000 4.25500 49.20500
H  39.60300 3.30800 49.59000
H  38.20800 7.21200 47.02800
H  37.81900 5.62600 46.34600
H  40.25400 6.50200 45.11800
H  39.12600 7.84600 44.98800
H  41.27700 -0.10800 47.61400
H  42.46600 -1.37700 48.28700
H  42.34600 -1.03900 46.59900
H  47.16200 0.23500 47.42400
H  47.25200 -1.58100 47.34400
H  47.41000 -0.73800 48.87200
H  48.87500 3.42400 47.74600
H  48.79400 6.32200 48.57600
H  48.27300 3.62700 50.55200
H  49.29400 4.97400 50.19300
H  49.81100 3.32200 49.87100
H  49.23000 6.49400 46.05900
H  49.50100 4.74100 46.12900
H  51.24600 6.93400 47.06400
H  51.57900 5.29300 46.42300
H  51.02900 5.43100 48.09100
H  46.42000 10.43000 47.84900
H  45.12400 11.05800 46.87000
H  46.41300 10.12800 46.11000
H  40.39900 8.52600 46.55100
H  37.69800 9.20900 49.53700
H  37.91100 10.99300 49.36100
H  38.93700 10.03800 50.39900
Mg -9.37000 39.98300 43.33900
C  -8.24000 36.91300 42.20000
C  -6.71600 41.52900 41.90800
C  -10.94900 42.90800 43.85400
C  -12.57600 38.32400 43.98900
N  -7.71300 39.27100 42.23200
C  -7.45900 37.97300 41.78600
C  -6.22600 37.95200 40.93200
C  -5.71100 39.45900 40.82700
C  -6.69400 40.14200 41.81700
C  -4.21600 39.73500 41.09600
C  -6.33300 37.29400 39.51700
C  -5.28300 36.12100 39.28200
H  -4.30700 36.40900 38.07900
N  -8.84700 41.97000 42.93000
C  -7.65500 42.38500 42.45600
C  -7.61300 43.89900 42.46700
C  -8.84800 44.32400 43.08800
C  -9.60600 43.04500 43.32200
C  -6.42500 44.73500 41.92700
C  -9.14200 45.69200 43.37000
O  -8.28200 46.53000 43.23100
C  -10.41300 46.11000 43.96700
N  -11.46900 40.52300 43.87400
C  -11.84300 41.81400 44.00500
C  -13.18200 41.97100 44.66600
C  -13.73300 40.52600 44.55400
C  -12.51700 39.73200 44.08200
C  -13.08800 42.39200 46.16100
C  -14.90000 40.30600 43.55100
C  -16.12000 39.71600 44.27400
N  -10.16900 38.02600 43.33100
C  -11.45800 37.52900 43.65800
C  -11.45800 36.06200 43.65000
C  -10.23100 35.75000 42.97500
C  -9.49900 36.99100 42.88800
C  -12.58600 35.16600 43.90100
C  -9.33600 34.73600 42.49600
O  -9.50200 33.52000 42.55800
C  -8.02100 35.38900 41.93000
C  -6.90300 34.88800 42.75300
O  -6.51200 35.23500 43.88300
O  -6.26200 33.98800 41.93300
C  -5.17900 33.13800 42.57400
H  -5.99100 42.03400 41.26600
H  -11.40300 43.88500 44.03700
H  -13.51600 37.88600 44.32900
H  -5.60200 37.42700 41.65600
H  -6.03800 39.80100 39.84500
H  -3.64700 38.83200 41.32100
H  -4.15500 40.29500 42.02900
H  -3.76800 40.19400 40.21400
H  -6.18400 37.99800 38.69900
H  -7.31400 36.85500 39.33200
H  -5.84100 35.22700 39.00400
H  -4.74100 35.88000 40.19700
H  -6.71300 45.28800 41.03400
H  -5.65000 44.02200 41.64500
H  -6.15500 45.39000 42.75600
H  -10.44600 47.19800 43.90900
H  -10.67400 45.76500 44.96700
H  -11.23500 45.77100 43.33700
H  -13.71300 42.74000 44.10500
H  -14.12500 40.19300 45.51500
H  -12.11100 42.82100 46.38600
H  -13.20200 41.56200 46.85800
H  -13.87900 43.08000 46.45600
H  -14.53800 39.66500 42.74700
H  -15.18500 41.19600 42.98900
H  -16.92300 40.22200 43.73700
H  -16.24400 39.94000 45.33400
H  -16.27400 38.65400 44.08500
H  -13.25300 34.91100 43.07700
H  -13.25100 35.61700 44.63700
H  -12.12500 34.26300 44.30000
H  -7.75100 35.17300 40.89700
H  -4.80000 32.25500 42.06000
H  -5.58800 32.78600 43.52100
H  -4.29500 33.72000 42.83700

