158

Mg 42.30400 40.81800 27.74600
C  41.14000 43.31500 29.98600
C  43.05600 38.80300 30.26300
C  43.90900 38.78400 25.50500
C  41.78600 43.25600 25.23500
N  42.18100 41.09600 29.85900
C  41.52900 42.13100 30.53800
C  41.46700 41.74200 32.04900
C  42.30100 40.39600 32.12400
C  42.49700 40.02200 30.69500
C  43.70100 40.49100 32.82700
C  40.02800 41.70000 32.64600
C  39.83100 42.50400 33.96300
H  39.33400 41.65900 35.11600
N  43.25600 39.05300 27.89300
C  43.37400 38.33300 28.99600
C  44.00600 37.09700 28.74400
C  44.28900 37.06900 27.35300
C  43.82000 38.31200 26.85300
C  43.96000 35.93500 29.73700
C  44.94500 35.91000 26.51200
O  45.16500 36.01400 25.31500
C  45.36500 34.63600 27.16100
N  42.86500 40.98900 25.68000
C  43.42900 39.95200 24.95900
C  43.22100 40.25100 23.48600
C  42.54700 41.72000 23.40700
C  42.39000 42.01600 24.90600
C  44.42500 39.98800 22.55400
C  41.23500 41.78400 22.56200
C  41.38000 42.63300 21.22900
N  41.69800 42.89600 27.59700
C  41.56700 43.75600 26.53100
C  41.00300 45.01000 26.87700
C  40.77300 44.85000 28.22300
C  41.24800 43.57000 28.60900
C  40.62700 46.16500 25.92200
C  40.23100 45.50000 29.33900
O  39.74000 46.63300 29.49600
C  40.42100 44.52600 30.54600
C  41.28100 45.28700 31.57800
O  42.51100 45.57600 31.45100
O  40.57100 45.44100 32.75200
C  41.36900 46.01800 33.87600
H  43.20700 38.17000 31.14000
H  44.18200 37.97000 24.83000
H  41.65400 43.85900 24.33500
H  42.01000 42.58800 32.47000
H  41.67000 39.64200 32.59400
H  44.01000 39.48800 33.12300
H  43.64000 41.03900 33.76800
H  44.45900 40.89000 32.15300
H  39.78400 40.68400 32.95800
H  39.31100 42.06000 31.90900
H  39.08400 43.28500 33.82000
H  40.78400 42.98100 34.19000
H  44.97800 35.57800 29.89300
H  43.33400 35.18700 29.25100
H  43.46500 36.14900 30.68500
H  46.06400 34.92400 27.94600
H  46.01500 34.25200 26.37500
H  44.51000 33.98700 27.35000
H  42.43900 39.51000 23.31700
H  43.20900 42.50000 23.03300
H  45.31500 40.11400 23.17100
H  44.54700 40.63700 21.68700
H  44.41600 39.00600 22.08000
H  40.46200 42.15300 23.23700
H  40.90900 40.78100 22.28900
H  40.99400 43.63400 21.41800
H  40.75900 42.11200 20.50100
H  42.41800 42.60900 20.89700
H  40.51000 47.09400 26.47900
H  39.73200 45.85600 25.38300
H  41.39000 46.21500 25.14500
H  39.43600 44.38600 30.99100
H  41.80100 45.13700 34.35100
H  40.66800 46.38200 34.62700
H  42.16600 46.70800 33.60000
Mg -12.38900 37.92400 41.27900
C  -10.54500 35.04000 40.27800
C  -9.81800 39.80000 39.91700
C  -14.32600 40.59300 41.47100
C  -14.87200 35.91900 42.26600
N  -10.35000 37.41300 40.32600
C  -9.84700 36.24100 39.97700
C  -8.41900 36.37000 39.45600
C  -8.18400 37.91900 39.44700
C  -9.55000 38.45000 39.89500
C  -7.01700 38.45500 40.33000
C  -8.30200 35.74500 38.07900
C  -6.99100 35.00900 37.80900
H  -6.11500 35.65700 36.78000
N  -12.14100 39.89500 40.75500
C  -11.01100 40.49800 40.28300
C  -11.24800 41.92400 40.13800
C  -12.57000 42.17600 40.53600
C  -13.11900 40.86600 40.88400
C  -10.17900 42.93100 39.63100
C  -13.19500 43.54200 40.45500
O  -12.61000 44.61500 40.36800
C  -14.73200 43.57900 40.36800
N  -14.36500 38.15300 41.56500
C  -14.92400 39.37800 41.76000
C  -16.37000 39.32700 42.16700
C  -16.59300 37.84500 42.37500
C  -15.19700 37.21300 42.02000
C  -16.72300 40.16100 43.39200
C  -17.64800 37.11800 41.54000
C  -18.56100 36.10000 42.28700
N  -12.71200 35.90700 41.25800
C  -13.67800 35.27000 41.94000
C  -13.37300 33.84100 41.97600
C  -12.20100 33.65700 41.20900
C  -11.78000 34.97700 40.86700
C  -14.15400 32.76000 42.73800
C  -11.26200 32.68100 40.70400
O  -11.28900 31.45100 40.68400
C  -10.11700 33.53900 40.01900
C  -8.81700 33.15600 40.65100
O  -8.07300 32.40600 40.08300
O  -8.61500 33.75800 41.88300
C  -7.42700 33.22800 42.64200
H  -9.01300 40.42100 39.52000
H  -14.91600 41.49300 41.65700
H  -15.59800 35.20200 42.65300
H  -7.70300 35.86900 40.10800
H  -7.93800 38.26200 38.44200
H  -6.17900 38.88800 39.78300
H  -6.54300 37.67600 40.92700
H  -7.41000 39.25800 40.95300
H  -8.53000 36.41800 37.25200
H  -9.09700 35.02700 37.88100
H  -7.20400 33.98800 37.49400
H  -6.33900 34.93500 38.68000
H  -10.13600 43.67500 40.42600
H  -10.75700 43.34900 38.80600
H  -9.24600 42.43000 39.37400
H  -15.27300 43.64800 41.31100
H  -15.03000 42.67200 39.84200
H  -14.92400 44.42000 39.70000
H  -17.01300 39.68500 41.36300
H  -16.74900 37.67000 43.44000
H  -17.32400 39.62500 44.12600
H  -17.36100 40.95800 43.01000
H  -15.83700 40.51000 43.92200
H  -17.24300 36.49000 40.74700
H  -18.24800 37.92700 41.12500
H  -19.54700 36.56500 42.28500
H  -18.28400 35.83200 43.30700
H  -18.60500 35.25300 41.60300
H  -14.03800 31.82400 42.19100
H  -15.21400 32.92800 42.92800
H  -13.64900 32.48700 43.66400
H  -9.92000 33.24800 38.98800
H  -7.18400 33.88500 43.47600
H  -6.54500 33.21400 42.00100
H  -7.72500 32.23900 42.99100

