158

Mg 40.28200 9.71300 29.44400
C  42.17600 10.48400 32.08900
C  37.90100 8.27000 31.67400
C  38.24500 8.62000 26.80300
C  42.78400 10.38900 27.19200
N  40.05800 9.40500 31.67500
C  40.91200 10.08800 32.50200
C  40.39600 9.86000 33.89500
C  39.03100 9.13100 33.81400
C  39.01700 8.79100 32.31000
C  38.79900 8.00500 34.83400
C  40.36700 11.19900 34.74100
C  41.36100 11.37000 35.86400
H  40.87600 11.87100 37.22400
N  38.31000 8.65400 29.24400
C  37.58000 8.15800 30.30000
C  36.33400 7.71500 29.75000
C  36.41100 7.74600 28.35300
C  37.73100 8.39000 28.04700
C  35.29700 7.18400 30.65100
C  35.43700 7.19200 27.36500
O  35.66900 7.16600 26.12700
C  34.06400 6.73000 27.83500
N  40.51000 9.53000 27.21900
C  39.50100 9.06600 26.41000
C  39.94100 9.14200 24.90100
C  41.40500 9.68900 25.00900
C  41.62000 9.85100 26.55400
C  39.75000 7.68300 24.29600
C  41.63100 11.08000 24.32400
C  41.23500 12.30200 25.20400
N  42.08400 10.40600 29.57000
C  43.04400 10.59900 28.58400
C  44.28900 11.07100 29.22400
C  43.94900 11.09300 30.58300
C  42.63100 10.59200 30.72500
C  45.57500 11.29400 28.53200
C  44.48300 11.41400 31.89200
O  45.56400 11.93300 32.13700
C  43.29600 11.05100 32.94000
C  43.94600 10.07200 33.90500
O  43.86200 8.87300 33.77200
O  44.55000 10.72000 34.96300
C  44.98100 9.78800 35.96100
H  37.02800 8.11300 32.31100
H  37.66600 8.24300 25.95700
H  43.72900 10.32100 26.64900
H  41.14200 9.16400 34.27900
H  38.25100 9.81200 34.15400
H  37.91200 8.34100 35.37100
H  39.64100 8.03900 35.52500
H  38.76400 7.00700 34.39600
H  39.40900 11.35700 35.23700
H  40.55600 12.03800 34.07100
H  42.07600 12.12800 35.54500
H  41.85500 10.42100 36.07600
H  35.18800 6.10200 30.58500
H  34.29900 7.60900 30.55000
H  35.57100 7.18800 31.70700
H  33.98900 5.69600 28.16900
H  33.32000 6.81000 27.04300
H  33.68800 7.45900 28.55300
H  39.29800 9.80300 24.31900
H  42.14700 9.00800 24.59500
H  39.57100 6.91900 25.05300
H  40.66600 7.27500 23.86800
H  39.04700 7.65700 23.46400
H  41.06100 11.19000 23.40100
H  42.69100 11.09000 24.07100
H  40.33300 12.11800 25.78800
H  40.98300 13.09400 24.49900
H  42.10500 12.57400 25.80300
H  45.78900 10.49700 27.81900
H  46.44400 11.53700 29.14300
H  45.43300 12.23200 27.99500
H  42.93900 11.92100 33.49100
H  45.67400 10.31200 36.62000
H  45.35400 8.79900 35.69700
H  44.09600 9.58600 36.56500
Mg 28.59400 56.68400 40.37800
C  26.76200 53.66000 39.82000
C  31.33400 55.03500 39.43100
C  30.10900 59.62400 40.29300
C  25.42500 58.21300 40.62300
N  28.91300 54.64400 39.44400
C  28.09400 53.53300 39.50100
C  28.88400 52.25600 39.16600
C  30.40100 52.78600 39.51400
C  30.23600 54.29500 39.36200
C  30.98000 52.29900 40.88900
C  28.58800 51.82300 37.66200
C  29.28600 52.51200 36.48700
H  28.28600 53.09500 35.44600
N  30.53300 57.30400 40.01200
C  31.54700 56.41400 39.63300
C  32.73600 57.17400 39.48100
C  32.46500 58.55600 39.84700
C  31.01600 58.54300 40.02400
C  34.12100 56.60600 39.05800
C  33.34900 59.75100 39.98500
O  34.56900 59.72600 39.76700
C  32.82800 61.16200 40.33100
N  27.83500 58.72700 40.36300
C  28.69100 59.77200 40.36700
C  27.85300 61.07700 40.57800
C  26.37400 60.57600 40.66200
C  26.55600 59.05900 40.51700
C  28.37800 62.04600 41.69100
C  25.38100 61.32300 39.71500
C  24.28300 62.21500 40.43900
N  26.45200 56.07500 40.26400
C  25.33600 56.81800 40.57200
C  24.18200 55.85000 40.66800
C  24.70700 54.62400 40.47700
C  26.05500 54.83200 40.12300
C  22.81700 56.24200 41.03300
C  24.41800 53.20000 40.46000
O  23.42200 52.60200 40.71900
C  25.81600 52.50700 39.98100
C  26.06500 51.54400 41.11300
O  26.93900 51.65400 41.96900
O  25.20000 50.51000 40.92800
C  25.37600 49.34600 41.79000
H  32.25000 54.45800 39.28600
H  30.59700 60.60000 40.26600
H  24.45900 58.70900 40.74200
H  28.70900 51.42800 39.85400
H  31.10700 52.47400 38.74400
H  31.51900 51.37100 40.69800
H  30.18000 51.99000 41.56200
H  31.53400 53.15500 41.27500
H  27.52800 52.04600 37.53900
H  28.82500 50.76700 37.53000
H  29.79200 51.76600 35.87400
H  30.14400 53.09900 36.81700
H  34.61700 57.33200 38.41300
H  33.94200 55.74800 38.41000
H  34.69500 56.36500 39.95300
H  32.32200 61.56400 39.45300
H  33.70800 61.76200 40.56700
H  32.20400 61.01000 41.21200
H  27.92300 61.64600 39.65000
H  26.05700 60.57700 41.70500
H  27.59700 62.40800 42.36000
H  28.91900 62.82300 41.15200
H  29.06300 61.58400 42.40200
H  24.92200 60.72700 38.92700
H  25.96100 62.03100 39.12300
H  23.27000 61.85000 40.26900
H  24.23100 63.18700 39.94800
H  24.40600 62.39500 41.50700
H  22.22400 55.38300 41.34800
H  22.27900 56.65100 40.17700
H  22.75400 56.93500 41.87300
H  25.68600 52.02100 39.01500
H  25.39200 49.77200 42.79300
H  26.28800 48.79300 41.56100
H  24.57100 48.61200 41.75700

