158

Mg 17.04900 52.06700 26.47700
C  19.08800 50.63100 28.89100
C  14.91300 53.06900 28.89400
C  15.09800 53.38000 24.09600
C  19.26700 50.84500 24.00500
N  17.06400 51.87900 28.67600
C  18.03300 51.32600 29.50700
C  17.61600 51.44200 31.00600
C  16.15200 51.96800 30.90100
C  16.03400 52.40300 29.41700
C  15.03300 51.01400 31.32800
C  18.70200 52.29700 31.76300
C  18.82500 52.10800 33.28100
H  17.69000 51.34000 33.96500
N  15.23000 53.12200 26.54700
C  14.49900 53.49900 27.65100
C  13.29800 54.17900 27.31900
C  13.37900 54.37600 25.87300
C  14.63200 53.61000 25.41400
C  12.26700 54.72900 28.17600
C  12.52700 55.22200 24.95200
O  12.76600 55.41700 23.75600
C  11.26500 55.93600 25.52300
N  17.27900 52.27600 24.32100
C  16.31600 52.84100 23.57200
C  16.49400 52.45700 22.12900
C  17.98200 51.82900 22.16400
C  18.19200 51.58700 23.60100
C  15.40400 51.50100 21.70300
C  19.09500 52.77300 21.74000
C  19.19000 54.18900 22.29000
N  18.85200 50.94700 26.34800
C  19.67300 50.54500 25.29200
C  20.72500 49.71900 25.85600
C  20.51600 49.65700 27.23800
C  19.40700 50.48500 27.51200
C  21.77100 49.17400 25.01000
C  20.97600 49.09800 28.48300
O  21.86300 48.31100 28.66400
C  20.07800 49.73700 29.64500
C  19.42400 48.58900 30.26900
O  18.57000 47.84100 29.76700
O  19.80200 48.51500 31.55400
C  19.04000 47.61200 32.39600
H  14.27800 53.37600 29.72800
H  14.39700 53.72400 23.33300
H  20.04800 50.58100 23.28900
H  17.64300 50.44700 31.45000
H  16.01700 52.87000 31.49700
H  14.08500 51.51800 31.51400
H  15.44300 50.47300 32.18100
H  14.85700 50.25900 30.56200
H  18.40200 53.32500 31.56200
H  19.63400 52.26600 31.19700
H  18.72900 53.11000 33.69900
H  19.79800 51.71400 33.57500
H  11.25900 54.51600 27.81800
H  12.40300 55.80900 28.22800
H  12.33400 54.30800 29.17900
H  11.45700 56.60300 26.36300
H  10.60800 55.14800 25.89000
H  10.74900 56.41300 24.69000
H  16.55200 53.34000 21.49200
H  18.03300 50.83600 21.71700
H  14.60000 51.50700 22.43900
H  15.89100 50.53500 21.56300
H  15.08200 51.73400 20.68800
H  19.09800 52.65300 20.65700
H  20.02200 52.27000 22.01600
H  20.07000 54.34700 22.91400
H  18.30000 54.57000 22.79000
H  19.27600 54.75900 21.36500
H  22.37300 48.49300 25.61000
H  22.35800 49.95200 24.52000
H  21.20000 48.72700 24.19600
H  20.68100 50.29300 30.36300
H  18.01900 47.53900 32.02100
H  18.95100 47.90200 33.44300
H  19.47800 46.62000 32.29300
Mg -1.37800 34.69900 27.24100
C  -3.10300 32.58500 29.54300
C  0.06100 36.25900 29.91600
C  -0.13400 36.77800 25.09700
C  -3.08700 33.00600 24.66600
N  -1.45100 34.42900 29.45100
C  -2.29600 33.54500 30.14100
C  -2.02600 33.73100 31.67600
C  -1.38400 35.12800 31.73600
C  -0.88700 35.29800 30.31200
C  -2.33300 36.23800 32.25700
C  -1.21900 32.58900 32.43700
C  -2.02400 31.74200 33.48200
H  -1.33100 31.61600 34.87400
N  -0.15800 36.26000 27.48300
C  0.40500 36.80500 28.63300
C  1.35000 37.77100 28.31300
C  1.30300 37.93000 26.88800
C  0.23600 36.99600 26.42100
C  2.12300 38.53500 29.39600
C  2.14900 38.88400 25.95000
O  2.07900 39.02300 24.72000
C  3.24800 39.65300 26.64500
N  -1.62200 34.93000 25.20500
C  -0.94600 35.89500 24.50700
C  -1.14300 35.80500 23.00000
C  -2.20400 34.60500 22.87600
C  -2.28300 34.10200 24.35600
C  -1.41700 37.14800 22.32400
C  -1.70800 33.41300 21.95000
C  -2.65600 33.13800 20.77200
N  -2.83400 33.18000 27.08800
C  -3.38400 32.55800 25.96200
C  -4.12500 31.35100 26.39100
C  -4.05200 31.33500 27.80700
C  -3.28700 32.52900 28.17000
C  -4.72900 30.36800 25.49200
C  -4.45600 30.64200 28.95400
O  -5.17000 29.66200 29.05300
C  -3.83700 31.44700 30.17100
C  -4.93900 31.87500 31.06300
O  -5.52800 32.97300 31.01500
O  -5.27500 30.96600 32.00800
C  -6.30000 31.31800 33.02200
H  0.60900 36.62500 30.78700
H  0.38800 37.37000 24.34200
H  -3.63400 32.46300 23.89300
H  -3.02300 33.67500 32.11400
H  -0.47000 35.28900 32.30800
H  -3.22100 36.24000 31.62400
H  -1.82200 37.20100 32.25000
H  -2.67000 36.00100 33.26600
H  -0.28800 32.92900 32.89100
H  -0.91800 31.81200 31.73400
H  -2.28700 30.72100 33.20300
H  -2.96900 32.23800 33.70600
H  1.62000 39.48700 29.56700
H  3.18700 38.69200 29.22200
H  1.97000 37.97600 30.31900
H  4.01700 39.19300 27.26600
H  2.76600 40.42200 27.24800
H  3.71500 40.30800 25.90900
H  -0.22400 35.42900 22.55000
H  -3.19200 34.93100 22.55100
H  -1.75000 37.82000 23.11500
H  -2.25500 37.12100 21.62800
H  -0.46000 37.49800 21.93800
H  -1.53100 32.46200 22.45100
H  -0.72100 33.72800 21.61100
H  -2.07900 33.51100 19.92500
H  -3.58300 33.70200 20.87000
H  -2.73000 32.07300 20.55600
H  -5.65200 30.69600 25.01400
H  -4.77600 29.34300 25.86100
H  -3.93100 30.30500 24.75200
H  -3.15900 30.79900 30.72600
H  -5.93300 32.11200 33.67100
H  -6.47800 30.46400 33.67600
H  -7.30600 31.58000 32.69500

