158

Mg -11.98500 38.37700 41.66300
C  -9.89800 35.69800 40.54700
C  -9.70300 40.52400 39.93200
C  -14.10800 41.01900 42.18800
C  -14.28600 36.12900 42.88700
N  -10.07700 38.07900 40.40800
C  -9.40800 36.89800 40.09800
C  -8.08300 37.10200 39.44900
C  -7.93600 38.65900 39.50500
C  -9.30900 39.12800 39.89100
C  -6.81600 39.21500 40.40600
C  -7.98400 36.55500 37.98300
C  -6.79700 35.56400 37.74800
H  -5.68100 36.02100 36.78100
N  -11.92200 40.48400 41.13700
C  -10.93200 41.14000 40.44500
C  -11.20600 42.57300 40.44300
C  -12.39800 42.77500 41.17700
C  -12.89800 41.40900 41.51700
C  -10.19800 43.60800 40.01200
C  -12.93900 44.17900 41.53000
O  -12.51600 45.23900 41.03100
C  -14.12100 44.31500 42.38600
N  -13.92700 38.49400 42.30300
C  -14.60500 39.74500 42.46700
C  -16.07300 39.44900 42.89200
C  -16.15600 37.88400 43.07400
C  -14.76800 37.44400 42.61300
C  -16.59100 40.23900 44.11900
C  -17.21400 37.15600 42.16200
C  -18.63300 37.05900 42.66600
N  -12.10600 36.29500 41.82900
C  -13.05900 35.49800 42.47000
C  -12.58800 34.13400 42.51900
C  -11.42200 34.18400 41.66600
C  -11.10900 35.46900 41.36400
C  -13.23600 32.92500 43.10700
C  -10.42200 33.29600 41.04600
O  -10.32000 32.08900 40.97100
C  -9.42100 34.23000 40.29500
C  -8.00100 34.00600 40.87800
O  -7.48200 34.55500 41.84500
O  -7.29600 32.99400 40.18500
C  -5.93000 32.64800 40.50000
H  -8.90000 41.18500 39.60100
H  -14.79800 41.85700 42.30100
H  -14.99100 35.44100 43.35900
H  -7.46400 36.52500 40.13700
H  -7.72900 39.06300 38.51400
H  -7.06500 39.18200 41.46700
H  -6.51200 40.21600 40.10000
H  -5.97700 38.51800 40.38600
H  -7.81300 37.39300 37.30800
H  -8.86700 35.93300 37.83300
H  -7.11800 34.64700 37.25300
H  -6.37700 35.32700 38.72600
H  -9.23900 43.26000 40.39600
H  -10.32700 44.61600 40.40700
H  -10.12100 43.73200 38.93200
H  -15.10600 44.37000 41.92100
H  -14.05900 45.31000 42.82600
H  -14.06200 43.50500 43.11400
H  -16.64000 39.80600 42.03200
H  -16.35300 37.53300 44.08700
H  -17.13500 41.14000 43.83600
H  -15.76500 40.36400 44.81900
H  -17.27600 39.48600 44.51000
H  -16.87400 36.12300 42.09700
H  -17.26500 37.57100 41.15600
H  -18.99100 37.99200 43.10100
H  -18.94100 36.17700 43.22800
H  -19.34100 36.89600 41.85300
H  -12.68900 32.45000 43.92200
H  -13.43600 32.23400 42.28800
H  -14.17000 33.27800 43.54400
H  -9.29600 33.91200 39.26000
H  -5.27200 33.50100 40.33200
H  -5.67400 31.73000 39.97000
H  -5.81200 32.27600 41.51800
Mg -11.62600 16.25400 42.39800
C  -8.61400 14.51900 41.76900
C  -10.28700 19.05600 41.15000
C  -14.73000 17.46900 42.26800
C  -13.01500 13.06500 43.01600
N  -9.77800 16.68600 41.34600
C  -8.67500 15.87100 41.32500
C  -7.47700 16.60100 40.68000
C  -7.95100 18.08600 40.64300
C  -9.40700 17.93800 41.01500
C  -7.03500 18.83600 41.69500
C  -7.11700 16.08700 39.26100
C  -5.57200 16.10700 38.90200
H  -4.95400 17.29800 38.20200
N  -12.42800 18.10800 41.78400
C  -11.65400 19.15700 41.31500
C  -12.52200 20.29000 41.17400
C  -13.85400 19.85100 41.51100
C  -13.73700 18.43300 41.93700
C  -11.97400 21.59300 40.85500
C  -15.19100 20.63900 41.30900
O  -15.14700 21.74600 40.76400
C  -16.45600 20.10500 41.71200
N  -13.61500 15.33400 42.31900
C  -14.65700 16.11000 42.40600
C  -15.95500 15.31400 42.71200
C  -15.43500 13.79800 42.69700
C  -13.90000 14.06000 42.68300
C  -16.75200 15.70300 44.04300
C  -15.97500 12.86500 41.48200
C  -16.51300 11.59000 42.06500
N  -10.94000 14.20400 42.59100
C  -11.61400 13.10300 42.88300
C  -10.61500 11.97300 42.95900
C  -9.41500 12.54100 42.57900
C  -9.69500 13.86300 42.28300
C  -10.92400 10.59500 43.50700
C  -8.07700 12.30700 42.31200
O  -7.41900 11.24500 42.43100
C  -7.45400 13.61700 41.81500
C  -6.39500 14.07500 42.76200
O  -6.35400 13.96700 43.98600
O  -5.28400 14.55700 42.12000
C  -4.20500 15.00100 43.06700
H  -9.79400 19.96100 40.78800
H  -15.72700 17.82500 42.53400
H  -13.48800 12.12400 43.30400
H  -6.53500 16.49400 41.21800
H  -7.84000 18.52600 39.65200
H  -7.67600 19.59700 42.14200
H  -6.16700 19.30600 41.23400
H  -6.70600 18.08400 42.41200
H  -7.59700 16.72000 38.51400
H  -7.36700 15.05000 39.04100
H  -5.42700 15.22300 38.28200
H  -4.97300 15.95800 39.80000
H  -12.69700 22.37400 41.08900
H  -11.75000 21.68700 39.79300
H  -11.09900 21.79200 41.47400
H  -17.23800 20.85600 41.59200
H  -16.35400 19.83000 42.76200
H  -16.63900 19.27300 41.03100
H  -16.64300 15.45500 41.87900
H  -15.67700 13.30900 43.64100
H  -17.78800 15.77200 43.71200
H  -16.51300 16.68200 44.45800
H  -16.64900 14.91700 44.79100
H  -15.07000 12.78800 40.87800
H  -16.71700 13.53700 41.05100
H  -15.78600 10.84100 41.75100
H  -17.53600 11.30500 41.82300
H  -16.36900 11.47000 43.13900
H  -11.83100 10.28300 42.99000
H  -11.20500 10.71000 44.55400
H  -10.23300 9.75300 43.46600
H  -7.08600 13.34900 40.82500
H  -4.56400 16.00500 43.29300
H  -3.34800 15.21400 42.42800
H  -3.97300 14.44200 43.97400

