158

Mg 17.01000 51.49800 26.56600
C  19.02500 50.33100 29.11500
C  14.66200 52.55000 28.90700
C  15.07400 52.78400 24.11300
C  19.42600 50.55400 24.23600
N  16.90400 51.54500 28.68400
C  17.88300 51.04600 29.54400
C  17.40900 51.32300 30.98400
C  15.85600 51.48700 30.91400
C  15.74300 51.80200 29.38800
C  14.98300 50.29200 31.29500
C  18.18600 52.45100 31.69200
C  18.14700 52.42400 33.18900
H  17.10800 51.65400 33.90300
N  15.03800 52.58500 26.56300
C  14.26900 52.88200 27.66300
C  13.11700 53.50400 27.10600
C  13.21400 53.71300 25.70900
C  14.48700 52.99300 25.38400
C  12.07300 54.02700 28.14000
C  12.29600 54.28400 24.71900
O  12.52300 54.34500 23.53600
C  11.11400 55.02400 25.20000
N  17.17400 51.56000 24.44600
C  16.22400 52.04900 23.73500
C  16.74700 52.22600 22.25700
C  18.12800 51.55100 22.30300
C  18.27700 51.20500 23.73000
C  15.85400 51.53000 21.12600
C  19.29500 52.44000 21.78600
C  20.16800 51.96000 20.52500
N  18.74800 50.49800 26.59500
C  19.57600 50.12400 25.57300
C  20.80700 49.49900 26.13500
C  20.58900 49.50900 27.60200
C  19.32600 50.14200 27.76000
C  22.02200 49.01200 25.32000
C  21.07200 49.17000 28.93000
O  22.04300 48.53900 29.30300
C  20.10700 49.69500 29.88700
C  19.61300 48.56500 30.62400
O  18.90400 47.66000 30.17400
O  19.89100 48.73700 31.96600
C  19.39500 47.85800 32.97600
H  14.05000 53.00700 29.68800
H  14.60600 53.33500 23.29500
H  20.23300 50.29900 23.54600
H  17.64700 50.44100 31.57900
H  15.63500 52.39700 31.47300
H  14.07700 50.64500 31.78800
H  15.64200 49.62300 31.84800
H  14.55700 49.88200 30.37900
H  17.84900 53.45800 31.44400
H  19.19300 52.45900 31.27600
H  18.10500 53.43700 33.59100
H  19.08500 51.93500 33.44900
H  12.24500 53.72800 29.17400
H  11.13000 53.57100 27.83800
H  12.10400 55.11700 28.13700
H  10.37000 55.27200 24.44300
H  11.30900 56.00200 25.64000
H  10.59400 54.33600 25.86600
H  16.66600 53.30600 22.13300
H  18.18100 50.60100 21.77200
H  15.50800 52.33200 20.47400
H  15.01700 51.01200 21.59300
H  16.35500 50.88600 20.40300
H  19.91500 52.60500 22.66700
H  18.97300 53.46700 21.61100
H  20.36000 52.73800 19.78600
H  19.58000 51.20200 20.00700
H  21.16500 51.61600 20.80000
H  22.25200 49.65900 24.47300
H  21.93300 47.95900 25.05300
H  22.91900 49.17800 25.91700
H  20.47900 50.49000 30.53400
H  18.60700 47.18700 32.63500
H  19.07200 48.39800 33.86700
H  20.20500 47.22500 33.34100
Mg -5.74600 25.47000 25.39600
C  -3.97100 26.78200 28.13500
C  -7.01400 23.12500 27.54700
C  -7.00200 23.94100 22.70200
C  -3.90300 27.71900 23.35200
N  -5.52600 25.02200 27.63400
C  -4.83800 25.79800 28.51400
C  -5.23900 25.35500 29.92600
C  -6.10600 24.05700 29.75000
C  -6.21600 24.01400 28.21100
C  -5.44900 22.72600 30.33400
C  -6.04300 26.42000 30.84800
C  -6.95300 25.92000 32.02300
H  -6.34600 24.86200 32.91200
N  -6.83200 23.72600 25.16300
C  -7.31300 22.94800 26.16700
C  -8.14800 21.92000 25.54100
C  -8.17900 22.13800 24.11400
C  -7.33800 23.32600 23.93200
C  -8.72700 20.71700 26.28500
C  -8.89400 21.36100 23.02100
O  -8.85400 21.69300 21.83400
C  -9.72000 20.06000 23.33500
N  -5.60900 25.95100 23.29200
C  -6.21200 25.12600 22.36900
C  -5.81400 25.62100 21.01600
C  -4.94900 26.90200 21.24400
C  -4.84000 26.89000 22.72800
C  -5.04300 24.56900 20.17200
C  -5.45900 28.21600 20.50900
C  -5.94800 29.40600 21.31900
N  -4.30800 27.04300 25.57600
C  -3.67000 27.87400 24.66400
C  -2.80600 28.75100 25.34500
C  -2.87300 28.31400 26.68800
C  -3.81600 27.27600 26.80100
C  -1.91300 29.71900 24.77400
C  -2.32800 28.61500 27.99900
O  -1.59000 29.50200 28.38000
C  -3.10900 27.66200 28.99500
C  -2.06300 26.92400 29.78100
O  -1.15600 26.20200 29.35700
O  -2.20200 27.35700 31.10600
C  -1.15300 26.85900 32.05300
H  -7.59400 22.45500 28.18500
H  -7.15900 23.37900 21.77900
H  -3.34200 28.37400 22.68200
H  -4.23300 25.16800 30.30200
H  -7.13200 24.03600 30.11900
H  -4.57600 22.89600 30.96400
H  -5.23500 22.04600 29.50900
H  -6.14500 22.16300 30.95600
H  -6.44400 27.16400 30.16000
H  -5.25900 26.90300 31.43200
H  -7.86200 25.49600 31.59700
H  -7.23500 26.80800 32.59000
H  -9.75800 20.70700 25.92900
H  -8.80700 20.88300 27.35900
H  -8.18600 19.84300 25.92100
H  -8.88600 19.59900 23.86400
H  -10.00300 19.47300 22.46100
H  -10.55500 20.33600 23.97800
H  -6.73600 25.94100 20.53100
H  -3.94700 26.73500 20.84700
H  -4.51100 23.90000 20.84800
H  -4.38200 25.01100 19.42600
H  -5.81000 24.01100 19.63600
H  -6.20300 27.87100 19.79000
H  -4.66700 28.60300 19.86900
H  -6.62700 29.89700 20.62200
H  -5.09400 30.04400 21.54800
H  -6.48400 29.07800 22.21000
H  -1.59600 29.52500 23.74900
H  -1.01100 29.76200 25.38500
H  -2.40900 30.68200 24.89800
H  -3.71200 28.19700 29.72800
H  -1.60400 26.79900 33.04300
H  -0.33200 27.56700 32.16300
H  -0.81500 25.85400 31.80000

