158

Mg 1.46600 7.99800 24.85300
C  2.10700 9.72300 28.00400
C  1.30500 5.10100 26.76600
C  1.35700 6.32000 21.97300
C  1.81900 10.99900 23.28200
N  2.01700 7.45700 27.13000
C  1.99000 8.29600 28.16000
C  1.84300 7.60000 29.52800
C  1.78100 6.14000 29.07200
C  1.67100 6.19100 27.53600
C  2.89400 5.21100 29.71100
C  0.57600 8.08800 30.42500
C  0.91900 8.43700 31.86200
H  1.97900 7.75300 32.64800
N  1.40700 5.93100 24.39500
C  1.24200 4.95200 25.31500
C  1.01100 3.69400 24.60100
C  0.99500 3.98400 23.22000
C  1.31200 5.44300 23.12700
C  0.69400 2.45900 25.39300
C  0.73200 3.02900 21.99500
O  0.47800 3.56700 20.89300
C  0.46300 1.55700 22.09400
N  1.73100 8.54000 22.94500
C  1.48300 7.65900 21.93100
C  1.38000 8.36600 20.56400
C  1.27400 9.87300 20.99800
C  1.64000 9.82500 22.44200
C  2.67200 8.12400 19.74100
C  -0.09200 10.54300 20.64000
C  -0.22100 11.06500 19.17400
N  1.89300 9.95800 25.45700
C  1.99600 11.06000 24.68800
C  2.11900 12.25200 25.50900
C  2.18300 11.77800 26.82600
C  2.07900 10.34600 26.71300
C  2.15900 13.71500 25.06400
C  2.26700 12.13100 28.18100
O  2.30400 13.25000 28.69900
C  2.09600 10.87700 28.96000
C  3.26500 10.72800 29.89300
O  4.15500 9.89400 29.79900
O  3.13100 11.50700 31.03900
C  4.13900 11.31600 32.04200
H  0.99000 4.25100 27.37500
H  1.43800 5.74500 21.04800
H  1.82000 11.97800 22.79800
H  2.70600 7.80600 30.16100
H  0.88000 5.66000 29.45500
H  2.46200 4.54000 30.45300
H  3.54100 5.94500 30.19200
H  3.53100 4.71300 28.98000
H  -0.15100 7.27600 30.44800
H  0.18600 8.99100 29.95700
H  -0.04800 8.28600 32.34200
H  1.08600 9.51400 31.83200
H  0.15200 1.67300 24.86800
H  0.02300 2.68100 26.22300
H  1.59000 1.89200 25.64600
H  0.52400 1.20300 21.06500
H  -0.53100 1.43900 22.52600
H  1.19300 1.00200 22.68300
H  0.53500 8.00100 19.98100
H  2.04000 10.40900 20.43800
H  2.66000 8.42700 18.69400
H  2.91700 7.06200 19.74500
H  3.53100 8.62400 20.19000
H  -0.33200 11.40500 21.26300
H  -0.82400 9.76700 20.85900
H  0.60600 10.73800 18.54400
H  -0.25000 12.15300 19.12900
H  -1.01400 10.50400 18.67700
H  2.66900 14.32600 25.80800
H  1.13400 13.98700 24.81100
H  2.67500 13.81600 24.11000
H  1.18800 10.91300 29.56200
H  5.15300 11.27100 31.64400
H  3.87800 10.39500 32.56300
H  4.24000 12.01900 32.87000
Mg 6.58800 54.32700 41.41200
C  6.23200 50.81700 41.14600
C  9.72100 53.84900 39.84400
C  6.66600 57.50100 40.89800
C  3.19200 54.51200 42.15800
N  7.72500 52.50000 40.39300
C  7.40200 51.19800 40.48200
C  8.62100 50.37100 40.01800
C  9.81300 51.38500 39.97300
C  9.04800 52.64600 40.07200
C  10.95900 51.13400 40.96300
C  8.34200 49.49300 38.74900
C  7.15700 49.85700 37.80000
H  6.40700 48.79600 37.05900
N  7.98700 55.51900 40.51200
C  9.15500 55.17300 39.99900
C  9.98800 56.37800 39.87900
C  9.15700 57.50000 40.12000
C  7.88400 56.86000 40.55500
C  11.44200 56.42800 39.49100
C  9.57700 58.95900 40.05500
O  10.71700 59.31800 39.77100
C  8.60100 60.11400 40.30900
N  5.09500 55.73000 41.27400
C  5.41800 56.97900 41.26000
C  4.28100 57.92600 41.63600
C  3.09200 56.97300 41.63800
C  3.84800 55.63100 41.72000
C  4.54700 58.66200 42.99900
C  2.37000 57.02800 40.24700
C  0.80200 57.15300 40.36700
N  5.08600 53.00900 41.89500
C  3.84000 53.24100 42.34400
C  3.29300 52.01200 42.82200
C  4.21200 51.01100 42.43100
C  5.30000 51.70100 41.80700
C  2.01500 51.79300 43.54500
C  4.53600 49.61700 42.45100
O  3.88900 48.70900 42.97700
C  5.72500 49.40500 41.58700
C  5.29200 48.50800 40.45500
O  4.50200 48.79500 39.54600
O  5.92000 47.27900 40.61200
C  5.44100 46.12800 39.84000
H  10.69400 53.74100 39.36000
H  6.58700 58.57400 41.08200
H  2.16200 54.58700 42.51200
H  8.81800 49.72500 40.87300
H  10.28300 51.42700 38.99000
H  10.67600 50.32100 41.63100
H  11.12600 52.01000 41.59000
H  11.90200 50.88200 40.47900
H  8.20600 48.44000 38.99500
H  9.23600 49.66200 38.14800
H  7.65800 50.52200 37.09700
H  6.52800 50.57200 38.33000
H  11.90100 57.21400 38.89300
H  11.72100 55.45300 39.09000
H  12.06000 56.36800 40.38700
H  8.44000 60.12300 41.38700
H  7.70900 60.00400 39.69200
H  9.11400 61.01000 39.95800
H  4.12400 58.75900 40.95000
H  2.42500 56.99800 42.49900
H  5.62200 58.76900 43.14400
H  3.92500 58.32300 43.82800
H  4.23100 59.67200 42.73900
H  2.41100 55.99800 39.89300
H  2.75500 57.75200 39.52800
H  0.57700 58.21900 40.34300
H  0.48700 56.75500 41.33100
H  0.33500 56.71300 39.48600
H  1.43000 51.02300 43.04100
H  1.37600 52.67400 43.48800
H  2.37400 51.42200 44.50500
H  6.48300 48.97000 42.23800
H  6.07200 45.26800 40.06400
H  5.39100 46.21800 38.75500
H  4.48900 45.85700 40.29500

