158

Mg 34.97800 49.37500 26.74500
C  35.42600 46.82800 29.13200
C  34.00000 51.49000 29.29100
C  34.38900 51.60000 24.50000
C  35.80000 46.96800 24.36000
N  34.78300 49.20600 28.96500
C  35.05600 48.08400 29.73400
C  35.01000 48.37700 31.20300
C  34.18400 49.71800 31.19600
C  34.30500 50.24300 29.71000
C  32.70100 49.50100 31.55700
C  36.47000 48.54600 31.85700
C  36.55400 47.94600 33.25300
H  36.33500 48.98900 34.39300
N  34.30100 51.36100 26.84900
C  34.06300 52.10800 28.03000
C  33.91300 53.50800 27.61100
C  34.00500 53.55300 26.18900
C  34.25900 52.14100 25.76800
C  33.71100 54.64800 28.58700
C  34.03400 54.75000 25.27500
O  34.43900 54.72400 24.08100
C  33.63100 56.12600 25.90900
N  34.68900 49.16900 24.69400
C  34.56200 50.30200 23.95700
C  34.75400 49.97800 22.45600
C  35.60500 48.71800 22.60000
C  35.42200 48.27100 23.98200
C  33.40200 49.75700 21.69100
C  37.12900 48.91400 22.39200
C  37.85200 47.95200 21.52800
N  35.58100 47.36100 26.72900
C  35.87100 46.54300 25.67500
C  36.24300 45.19000 26.12900
C  36.09400 45.30500 27.53800
C  35.66800 46.61100 27.77600
C  36.62200 44.03700 25.30900
C  36.20700 44.62800 28.83000
O  36.55100 43.49500 29.09800
C  35.79000 45.62000 29.89200
C  34.59300 45.10900 30.61800
O  33.48300 44.95200 30.18300
O  35.07400 44.63800 31.83000
C  34.16300 43.77100 32.54700
H  33.64200 52.19600 30.04300
H  34.49000 52.38700 23.75000
H  36.15600 46.28300 23.58700
H  34.53900 47.59000 31.79300
H  34.58700 50.40800 31.93700
H  32.05400 49.78600 30.72700
H  32.47400 50.15100 32.40100
H  32.54200 48.46100 31.84200
H  36.72400 49.60200 31.76400
H  37.09400 47.87900 31.26300
H  37.56400 47.54900 33.35100
H  35.85200 47.13800 33.46200
H  34.48600 55.41200 28.51600
H  33.73700 54.26300 29.60700
H  32.68400 54.99600 28.48100
H  32.58400 56.08000 26.20900
H  33.69100 56.82200 25.07200
H  34.33800 56.44800 26.67300
H  35.41600 50.73300 22.03400
H  35.32700 47.95100 21.87700
H  32.65500 49.70800 22.48400
H  33.45500 48.82600 21.12700
H  33.19700 50.54400 20.96500
H  37.68300 48.88800 23.33100
H  37.44100 49.86300 21.95600
H  38.17600 48.49000 20.63700
H  37.37100 46.99900 21.30700
H  38.70300 47.60800 22.11600
H  36.09200 44.07200 24.35700
H  36.44400 43.07400 25.78900
H  37.68700 44.03200 25.07700
H  36.60000 45.78000 30.60300
H  33.49400 44.35300 33.18100
H  34.78800 43.14100 33.18000
H  33.66600 43.15700 31.79500
Mg -2.59700 35.12500 27.02300
C  -4.44000 33.05800 29.24300
C  -1.62500 36.90400 29.75300
C  -0.75600 36.84000 24.92700
C  -3.97000 33.35400 24.26600
N  -3.13100 35.09800 29.23400
C  -3.71400 34.05000 29.90800
C  -3.61400 34.18000 31.43900
C  -3.08800 35.60500 31.50200
C  -2.51600 35.95500 30.13200
C  -3.99900 36.73300 32.00500
C  -2.72400 32.99700 32.06800
C  -3.25400 32.38400 33.40200
H  -3.95500 33.36500 34.34300
N  -1.35000 36.59700 27.32000
C  -0.92300 37.10100 28.55600
C  0.03700 38.08800 28.24500
C  0.30900 38.09300 26.87400
C  -0.65200 37.11300 26.26900
C  0.56900 39.01100 29.31400
C  1.39800 38.88900 26.06800
O  1.51000 38.74700 24.87300
C  2.37500 39.71100 26.76400
N  -2.48000 35.19100 24.81900
C  -1.57900 35.97000 24.21700
C  -1.56900 35.79000 22.68200
C  -2.54900 34.59600 22.49500
C  -3.09200 34.35400 23.94100
C  -1.83200 37.16400 21.98900
C  -2.00300 33.39500 21.69000
C  -1.28600 32.26000 22.46900
N  -3.92200 33.57800 26.74600
C  -4.31300 32.95400 25.59200
C  -5.21600 31.86600 25.93000
C  -5.33300 31.87900 27.33400
C  -4.55000 32.99100 27.78700
C  -5.86100 30.89900 24.94000
C  -5.81200 31.15300 28.52300
O  -6.53100 30.18600 28.55400
C  -5.28600 31.85000 29.76000
C  -6.41300 32.34300 30.64200
O  -7.27100 33.13800 30.33800
O  -6.41800 31.58200 31.82100
C  -7.46400 31.88000 32.82100
H  -1.34300 37.60000 30.54700
H  0.00500 37.24900 24.25900
H  -4.18100 32.61600 23.48900
H  -4.58100 34.32200 31.92200
H  -2.28100 35.67700 32.23100
H  -4.33200 36.32100 32.95700
H  -4.87100 36.93600 31.38200
H  -3.39200 37.60100 32.26400
H  -1.75600 33.43600 32.30800
H  -2.66300 32.15400 31.37900
H  -2.44800 32.07400 34.06700
H  -3.90700 31.54100 33.17800
H  0.14300 39.00400 30.31700
H  0.57700 40.02200 28.90700
H  1.60500 38.71300 29.48200
H  1.81600 40.46900 27.31300
H  2.99900 40.16500 25.99400
H  2.96600 39.06800 27.41700
H  -0.60500 35.42800 22.32500
H  -3.48700 34.92200 22.04600
H  -0.95600 37.80400 22.09700
H  -2.74800 37.72000 22.19000
H  -1.87700 36.96400 20.91800
H  -1.36500 33.80700 20.90800
H  -2.67700 32.85000 21.02900
H  -0.48300 31.81700 21.88100
H  -1.96600 31.43300 22.67200
H  -0.78700 32.81800 23.26100
H  -6.70900 30.43200 25.44200
H  -5.11100 30.17600 24.62100
H  -6.18700 31.47000 24.07000
H  -4.52500 31.18600 30.16900
H  -7.11200 32.77400 33.33600
H  -7.51000 31.10400 33.58500
H  -8.45900 31.97800 32.38700

