158

Mg 53.88000 24.18800 43.91400
C  51.37100 26.65100 43.16800
C  51.49300 21.89700 43.06900
C  56.27600 21.91500 43.95100
C  56.12800 26.68500 44.67700
N  51.71600 24.39800 43.06800
C  50.92500 25.42900 42.79300
C  49.50500 24.94100 42.49900
C  49.48800 23.51500 43.17600
C  51.00000 23.20900 43.12000
C  48.82100 23.29500 44.58100
C  49.10600 24.88800 41.02300
C  50.06300 24.32300 40.01400
H  50.48100 25.38200 38.96100
N  53.90200 22.20900 43.48800
C  52.80600 21.39600 43.13200
C  53.22500 20.05600 42.89000
C  54.61200 20.04200 43.17600
C  55.00900 21.42800 43.58100
C  52.20400 19.03800 42.32300
C  55.50700 18.84400 42.97800
O  54.95700 17.79600 42.56000
C  57.02600 18.76200 43.19100
N  56.05800 24.38400 43.91200
C  56.78800 23.25900 44.19000
C  58.23100 23.64600 44.59100
C  58.10900 25.17900 44.95700
C  56.70700 25.46300 44.43900
C  58.94900 22.77000 45.72100
C  59.11500 26.05200 44.21400
C  60.25300 26.75200 45.06300
N  53.81400 26.22200 43.94100
C  54.76000 27.04700 44.49900
C  54.10300 28.41900 44.74700
C  52.86300 28.24600 44.13200
C  52.66800 26.90800 43.66300
C  54.84000 29.63500 45.22100
C  51.63500 28.95300 43.80200
O  51.29300 30.09200 44.03300
C  50.64300 27.97000 43.10900
C  50.29000 28.38900 41.77800
O  51.13800 28.57000 40.92400
O  48.93200 28.45500 41.60800
C  48.49800 29.18000 40.32400
H  50.74400 21.10900 43.17100
H  57.06200 21.15900 44.02100
H  56.72500 27.42500 45.21600
H  48.85300 25.63200 43.03400
H  48.87800 22.83800 42.57900
H  49.60100 23.13700 45.32500
H  48.15500 22.44000 44.46900
H  48.18100 24.14900 44.80300
H  48.83700 25.91300 40.76600
H  48.15700 24.35200 40.98800
H  49.53500 23.61400 39.37700
H  50.90300 23.75600 40.41600
H  51.39400 19.57600 41.83100
H  51.67700 18.58700 43.16400
H  52.63600 18.29500 41.65300
H  57.24500 19.29400 44.11700
H  57.59900 19.10300 42.32900
H  57.30400 17.72100 43.35400
H  58.77300 23.33000 43.70000
H  58.05400 25.32600 46.03500
H  58.39000 21.84200 45.84500
H  58.89500 23.38500 46.62000
H  60.00900 22.56100 45.58400
H  58.65900 26.73700 43.50000
H  59.67500 25.37100 43.57400
H  60.59900 27.57300 44.43500
H  61.06500 26.06200 45.29200
H  59.75400 27.08600 45.97300
H  54.78200 29.64900 46.30900
H  54.25400 30.47200 44.84000
H  55.82700 29.71000 44.76500
H  49.79900 27.73700 43.75900
H  47.95300 30.11400 40.46600
H  47.93800 28.59000 39.59900
H  49.37900 29.43300 39.73400
Mg 48.51900 34.55300 26.49800
C  46.76300 33.13500 29.33700
C  48.71100 37.50600 28.08000
C  49.65900 35.72400 23.63900
C  47.69900 31.43700 24.72100
N  47.91300 35.22900 28.51200
C  47.31600 34.47600 29.47900
C  47.36700 35.28700 30.82900
C  47.44000 36.76300 30.38800
C  48.04300 36.52900 28.87700
C  46.07400 37.52200 30.41500
C  48.45800 34.80400 31.81200
C  48.06700 34.59800 33.29100
H  46.90800 35.45000 33.83700
N  49.22300 36.28500 25.95500
C  49.20800 37.38800 26.75200
C  50.02800 38.44000 26.06700
C  50.28500 38.01700 24.70900
C  49.70300 36.65800 24.68400
C  50.51600 39.75500 26.74800
C  50.93900 38.66900 23.54200
O  51.32400 38.15300 22.51400
C  51.10400 40.15100 23.59700
N  48.40500 33.79000 24.44500
C  49.15500 34.48100 23.56200
C  49.36400 33.68900 22.28200
C  48.84900 32.30100 22.65700
C  48.28100 32.46300 24.04700
C  48.70400 34.22800 20.96400
C  49.87900 31.17700 22.56900
C  50.99800 31.19600 23.58900
N  47.41200 32.66400 26.93200
C  47.16800 31.51800 26.04100
C  46.45400 30.54900 26.81700
C  46.14700 31.19600 28.09900
C  46.79700 32.43400 28.09500
C  46.10200 29.12600 26.39300
C  45.53600 31.01500 29.39400
O  45.06900 30.03900 29.98200
C  45.80400 32.37300 30.20100
C  46.35600 31.90400 31.54400
O  47.49500 31.54500 31.84600
O  45.30700 31.67200 32.42000
C  45.58500 31.01300 33.71600
H  48.91400 38.51300 28.45000
H  50.21000 35.93600 22.72000
H  47.62500 30.46900 24.22200
H  46.37400 35.07900 31.22700
H  48.16000 37.32600 30.98200
H  45.29000 36.87000 30.79800
H  45.91600 37.89800 29.40400
H  46.19600 38.31500 31.15300
H  49.33000 35.45800 31.83300
H  48.68600 33.78000 31.51500
H  48.96100 34.74600 33.89700
H  47.67000 33.58600 33.37100
H  49.84300 40.50400 26.33100
H  51.58200 39.90600 26.58200
H  50.29900 39.77500 27.81600
H  51.66400 40.34200 24.51300
H  50.20900 40.76300 23.70700
H  51.76700 40.55700 22.83300
H  50.42200 33.58400 22.04000
H  48.06000 32.07800 21.93800
H  48.04600 35.06400 21.20300
H  48.13300 33.54500 20.33500
H  49.52500 34.67300 20.40200
H  50.40300 31.06200 21.62000
H  49.31200 30.26400 22.75000
H  50.80000 30.34300 24.23800
H  50.99500 32.13300 24.14600
H  52.01700 31.06300 23.22600
H  46.12300 28.91100 25.32500
H  45.16500 28.69500 26.74900
H  46.90000 28.51400 26.81200
H  44.91100 32.98300 30.34000
H  46.65500 31.02400 33.92600
H  45.25800 29.97400 33.71700
H  45.10900 31.60000 34.50100

