158

Mg 0.56800 8.05000 27.07600
C  1.10200 10.26600 29.61300
C  0.90500 5.46100 29.35900
C  0.56300 5.79400 24.38300
C  0.74300 10.69100 24.87900
N  1.00700 7.89100 29.16700
C  1.03400 8.97200 30.06500
C  0.95800 8.52800 31.53100
C  1.26200 7.04700 31.35800
C  1.06500 6.74800 29.86600
C  2.56700 6.55700 32.00800
C  -0.46800 8.87600 32.04700
C  -0.71600 8.98700 33.57200
H  0.42500 8.62900 34.54800
N  0.54900 5.91800 26.93600
C  0.67000 5.04800 28.00500
C  0.45900 3.71800 27.55300
C  0.20200 3.76400 26.13200
C  0.50100 5.21600 25.72700
C  0.51200 2.52100 28.52200
C  -0.14800 2.63800 25.18300
O  -0.19400 2.82100 24.00100
C  -0.51200 1.24500 25.75200
N  0.60400 8.24300 24.98300
C  0.61700 7.17500 24.06900
C  0.68900 7.74100 22.65600
C  0.17300 9.15900 22.88000
C  0.57900 9.40500 24.33900
C  2.12100 7.55600 22.04600
C  -1.41300 9.41800 22.63900
C  -1.69400 10.35600 21.39000
N  0.83700 10.09600 27.14300
C  0.93800 11.03900 26.17200
C  1.12900 12.36000 26.70200
C  1.17400 12.15600 28.05100
C  1.01000 10.71100 28.32900
C  1.34300 13.64900 25.97700
C  1.42300 12.77600 29.32500
O  1.63500 13.92800 29.65600
C  1.23800 11.60200 30.36900
C  2.36600 11.69300 31.34200
O  3.47700 11.27000 31.12400
O  1.94300 12.12500 32.51800
C  2.85700 12.01400 33.61700
H  0.69400 4.63900 30.04700
H  0.38300 5.15700 23.51500
H  0.64300 11.49900 24.15100
H  1.69100 9.03100 32.16100
H  0.52200 6.44800 31.88800
H  3.16000 7.43300 32.27300
H  3.09900 6.04500 31.20500
H  2.47300 5.81400 32.79900
H  -1.08400 8.10700 31.58000
H  -0.87000 9.76200 31.55600
H  -1.58500 8.38900 33.84900
H  -0.96800 10.04000 33.70000
H  0.87500 2.78000 29.51700
H  1.21900 1.74100 28.24100
H  -0.46900 2.17700 28.85000
H  -1.30200 1.19100 26.50000
H  0.34800 0.81300 26.26500
H  -0.91900 0.69600 24.90200
H  0.02700 7.28200 21.92100
H  0.80400 9.76900 22.23400
H  2.49400 6.55900 22.28300
H  2.78300 8.34300 22.40500
H  2.08900 7.66300 20.96200
H  -1.93400 9.80300 23.51600
H  -1.84000 8.42800 22.48000
H  -2.38100 9.75400 20.79600
H  -0.84600 10.55700 20.73600
H  -2.12400 11.28000 21.77900
H  1.70900 13.50700 24.96000
H  2.01500 14.17300 26.65700
H  0.39000 14.17800 25.97400
H  0.34200 11.64400 30.98900
H  3.39300 12.95700 33.72700
H  3.59100 11.21600 33.50100
H  2.28000 11.89000 34.53300
Mg 9.28400 48.34700 26.11900
C  7.18200 48.82600 28.86500
C  11.99500 49.18600 28.26400
C  11.50000 48.11300 23.55800
C  6.57300 48.07400 24.02200
N  9.58100 48.90200 28.26400
C  8.55000 48.84500 29.16800
C  9.14100 48.88000 30.63800
C  10.58000 49.37500 30.37800
C  10.73900 49.19400 28.85100
C  10.86500 50.81700 30.85400
C  9.12600 47.50100 31.38200
C  9.70200 47.52200 32.79700
H  8.80500 46.98800 33.99100
N  11.45500 48.76600 25.86800
C  12.34200 48.99800 26.89900
C  13.71300 48.75000 26.33200
C  13.56500 48.42800 24.97700
C  12.12800 48.51700 24.69700
C  14.93500 48.82300 27.21200
C  14.61900 48.00000 24.01300
O  14.46600 47.90400 22.76600
C  16.04100 47.66600 24.49900
N  9.02200 48.18300 24.10400
C  10.09900 47.84000 23.28600
C  9.63000 47.44500 21.81300
C  8.05000 47.61300 21.94700
C  7.85600 47.88900 23.48100
C  10.31200 48.06700 20.56100
C  7.24400 46.39700 21.43700
C  5.91900 46.46800 20.65500
N  7.28100 48.49000 26.36300
C  6.30300 48.28600 25.38600
C  4.95000 48.48300 26.04400
C  5.29400 48.65500 27.36700
C  6.66700 48.67000 27.51900
C  3.55300 48.35900 25.43000
C  4.72600 48.80900 28.70200
O  3.51900 48.84900 28.98500
C  5.88900 49.04200 29.67800
C  5.77600 48.05300 30.79300
O  5.74200 46.89300 30.69500
O  5.59300 48.75600 31.97700
C  5.40900 48.04100 33.24200
H  12.79200 49.25100 29.00900
H  12.13000 47.61100 22.82100
H  5.81600 48.02800 23.23600
H  8.50400 49.55400 31.21000
H  11.37800 48.79500 30.84100
H  11.51000 50.79100 31.73200
H  9.94500 51.31600 31.16000
H  11.35200 51.40400 30.07500
H  9.56400 46.70000 30.78500
H  8.13500 47.04700 31.38500
H  10.10400 48.52500 32.94300
H  10.50600 46.78700 32.76600
H  15.58000 47.95500 27.07700
H  14.78900 48.98100 28.28100
H  15.59100 49.63900 26.90800
H  16.42000 48.59900 24.91600
H  16.66200 47.42200 23.63700
H  15.99600 46.79900 25.15700
H  9.81100 46.37100 21.77100
H  7.71500 48.40900 21.28200
H  9.66700 48.88400 20.23700
H  10.48100 47.34100 19.76600
H  11.31100 48.47600 20.70900
H  6.89500 45.77500 22.26100
H  7.90900 45.79600 20.81600
H  5.14300 45.96900 21.23500
H  6.10100 46.20200 19.61300
H  5.67100 47.52900 20.67700
H  3.30800 47.31300 25.24700
H  3.37300 48.97400 24.54800
H  2.72700 48.53600 26.11900
H  6.07000 50.06500 30.00800
H  4.34900 48.05200 33.49700
H  5.95900 48.49600 34.06600
H  5.66900 46.98500 33.17400

