158

Mg 17.78700 -1.88800 27.91000
C  16.65900 0.11400 30.59100
C  19.90400 -3.51600 29.88800
C  19.19800 -3.17000 25.07100
C  16.18500 0.60500 25.72600
N  18.20200 -1.67200 29.94000
C  17.65600 -0.87800 30.92300
C  18.20400 -1.23600 32.31800
C  19.39900 -2.15800 31.98600
C  19.12400 -2.53800 30.49900
C  20.85700 -1.62200 32.31400
C  17.11800 -2.03000 33.20100
C  17.24200 -1.71700 34.73300
H  18.46200 -0.94800 35.37800
N  19.18500 -3.32600 27.61600
C  19.93900 -3.94300 28.54200
C  20.74700 -4.99600 27.97700
C  20.45200 -4.95800 26.59600
C  19.57900 -3.80000 26.35600
C  21.49800 -5.98100 28.77800
C  21.01500 -5.91300 25.55300
O  20.64000 -5.95800 24.35900
C  22.07100 -6.93300 25.82700
N  17.75600 -1.34100 25.76900
C  18.42000 -2.03600 24.81600
C  18.25300 -1.42400 23.44000
C  17.17700 -0.40500 23.67100
C  16.97500 -0.35500 25.12900
C  19.57600 -0.95000 22.75100
C  15.80200 -0.59600 23.03300
C  15.82300 -0.38000 21.52500
N  16.53300 -0.09900 28.05900
C  15.93700 0.70600 27.11300
C  15.11000 1.73000 27.78700
C  15.35900 1.55400 29.12500
C  16.25300 0.43500 29.27800
C  14.18600 2.79100 27.09900
C  15.14900 2.06100 30.43500
O  14.48500 3.00700 30.79000
C  15.88600 1.11900 31.43100
C  16.84900 1.95100 32.23300
O  17.98700 2.34200 31.96700
O  16.13400 2.28100 33.38700
C  16.83800 3.15300 34.34600
H  20.70600 -3.95100 30.48800
H  19.68200 -3.62000 24.20100
H  15.63600 1.38800 25.19900
H  18.63000 -0.33500 32.75900
H  19.30100 -3.03900 32.62100
H  20.97400 -0.62900 32.74800
H  21.50400 -1.67400 31.43800
H  21.31700 -2.22700 33.09500
H  17.30500 -3.08300 32.99200
H  16.16000 -1.78900 32.74000
H  17.02000 -2.62100 35.30100
H  16.34200 -1.12900 34.91500
H  21.41700 -7.02800 28.48500
H  21.21800 -6.12300 29.82100
H  22.52900 -5.62800 28.79800
H  22.58000 -7.25600 24.91900
H  21.62400 -7.88600 26.11100
H  22.67300 -6.52000 26.63600
H  17.92800 -2.29600 22.87200
H  17.53000 0.55100 23.28500
H  19.63400 0.13700 22.81800
H  19.64500 -1.20500 21.69400
H  20.46700 -1.27700 23.28700
H  15.05700 0.13000 23.35800
H  15.42600 -1.58100 23.30700
H  16.81000 -0.01500 21.24100
H  15.06200 0.34200 21.23000
H  15.69800 -1.32700 20.99900
H  14.26500 2.88100 26.01500
H  14.56000 3.71900 27.52900
H  13.12900 2.78100 27.36700
H  15.16200 0.59900 32.05800
H  16.62000 3.02800 35.40700
H  16.55100 4.19100 34.18100
H  17.91200 3.17800 34.16300
Mg 34.74000 49.17400 26.31100
C  35.36600 46.92800 28.96500
C  33.57000 51.50000 28.62100
C  33.88500 51.30900 23.75100
C  35.78500 46.77300 24.09200
N  34.49900 49.18300 28.49700
C  34.92500 48.20600 29.39800
C  34.89500 48.70700 30.82200
C  33.91500 49.89300 30.72500
C  34.04300 50.27000 29.16300
C  32.39900 49.52900 31.04800
C  36.35100 48.95600 31.38000
C  36.60800 48.47500 32.84100
H  36.50200 49.44300 33.97800
N  33.97000 51.19900 26.19700
C  33.59100 51.94300 27.29000
C  33.10200 53.26900 26.85900
C  33.31600 53.33900 25.44200
C  33.70000 51.94400 25.03600
C  32.60600 54.40600 27.84400
C  33.09800 54.47300 24.40700
O  33.24400 54.27600 23.19900
C  32.72000 55.85000 24.86000
N  34.81300 49.04100 24.36200
C  34.42400 50.05800 23.42800
C  34.63600 49.64300 21.94400
C  35.50200 48.32500 22.10800
C  35.32400 48.02300 23.63000
C  33.26100 49.36600 21.21800
C  36.99400 48.44500 21.74500
C  37.51100 47.43800 20.71800
N  35.20100 47.11800 26.42000
C  35.74500 46.30200 25.45400
C  36.24700 45.10300 26.03000
C  36.12900 45.35000 27.42800
C  35.40700 46.51600 27.59800
C  36.99500 44.04100 25.27400
C  36.53200 44.76000 28.72300
O  37.14100 43.73900 28.89300
C  35.99100 45.78200 29.81600
C  35.06300 45.08600 30.74700
O  34.05300 44.49600 30.47400
O  35.61200 45.29300 32.00400
C  34.83400 44.69400 33.12400
H  33.16500 52.16400 29.38600
H  33.52300 51.83300 22.86400
H  36.25800 46.11800 23.35800
H  34.42600 47.94600 31.44500
H  34.31000 50.75200 31.26800
H  32.23500 48.49000 31.33400
H  31.86400 49.72100 30.11700
H  31.90200 50.20500 31.74300
H  36.56600 50.02400 31.34100
H  37.07900 48.50000 30.70900
H  37.58300 47.98800 32.85800
H  35.90500 47.65900 33.00400
H  33.36700 55.16400 27.66300
H  32.62600 54.02700 28.86600
H  31.62200 54.78600 27.57000
H  32.39600 56.33800 23.94100
H  33.56500 56.35300 25.33000
H  31.86400 55.73700 25.52500
H  35.16100 50.50000 21.52200
H  34.91200 47.55700 21.60900
H  33.05600 49.93400 20.31100
H  32.51200 49.55800 21.98600
H  33.25800 48.32900 20.88200
H  37.61600 48.31700 22.63000
H  37.22400 49.44400 21.37600
H  37.06200 47.45800 19.72500
H  37.22700 46.49100 21.17600
H  38.59900 47.50800 20.71400
H  37.75300 44.43900 24.59900
H  36.28700 43.32900 24.85000
H  37.49700 43.45800 26.04600
H  36.89300 46.02800 30.37700
H  33.94200 44.21000 32.72600
H  34.60900 45.50700 33.81400
H  35.46100 43.97000 33.64500

