158

Mg 53.79500 23.92400 44.55300
C  51.36900 26.30500 43.62500
C  51.68500 21.48900 43.46000
C  56.46500 21.85900 44.34100
C  55.88800 26.60400 45.28800
N  51.90900 23.89400 43.49200
C  51.02400 24.98700 43.31700
C  49.63100 24.55600 42.80100
C  49.64600 23.06900 43.21900
C  51.15500 22.76300 43.46800
C  48.85700 22.84400 44.52700
C  49.66900 24.72000 41.24500
C  48.25800 24.64900 40.59700
H  48.24700 23.65800 39.43100
N  53.99300 21.88500 44.13500
C  52.99500 21.06700 43.75900
C  53.50200 19.68700 43.69100
C  54.95200 19.78000 43.86100
C  55.23800 21.25800 44.09700
C  52.69700 18.49100 43.34100
C  55.92400 18.59900 43.75200
O  55.57700 17.48100 43.39800
C  57.33400 18.67900 44.06900
N  55.93400 24.19600 44.59800
C  56.75100 23.18600 44.59900
C  58.20200 23.65200 44.82000
C  58.01800 25.13100 45.19200
C  56.55000 25.33000 45.04200
C  59.11400 22.84800 45.82400
C  58.89700 26.16200 44.37300
C  59.34200 27.47400 44.96400
N  53.66900 26.03800 44.50400
C  54.50500 26.98800 45.06300
C  53.91800 28.28600 45.21300
C  52.65200 28.10500 44.58900
C  52.59500 26.72000 44.17900
C  54.49700 29.47300 45.88100
C  51.35500 28.68200 44.30500
O  50.99100 29.84000 44.35500
C  50.51100 27.51200 43.57800
C  50.19200 27.96300 42.14600
O  51.01200 28.14200 41.29600
O  48.81800 28.04300 41.88200
C  48.52500 28.41800 40.45200
H  50.96300 20.71100 43.20300
H  57.32100 21.19700 44.19700
H  56.60300 27.39400 45.52600
H  48.86400 25.05700 43.39300
H  49.23500 22.47300 42.40400
H  49.45700 22.38700 45.31400
H  48.11500 22.11700 44.19400
H  48.41800 23.72800 44.98900
H  50.12200 23.82200 40.82500
H  50.18300 25.62900 40.93300
H  48.00400 25.63000 40.19700
H  47.40800 24.26400 41.16100
H  52.95100 17.94100 42.43500
H  51.62200 18.66700 43.30300
H  52.76500 17.77700 44.16200
H  57.97300 19.22800 43.37600
H  57.66400 17.64100 44.06300
H  57.39300 19.12000 45.06400
H  58.68400 23.54000 43.84900
H  58.09900 25.16600 46.27800
H  59.76400 23.48900 46.42000
H  59.70600 22.17500 45.20400
H  58.43000 22.42300 46.55900
H  58.18800 26.50200 43.61800
H  59.73700 25.60000 43.96300
H  60.42800 27.56300 44.94400
H  58.98500 27.48800 45.99400
H  58.80800 28.24100 44.40400
H  54.32100 30.36500 45.28000
H  55.58200 29.47700 45.98300
H  54.05100 29.65500 46.85900
H  49.55000 27.27300 44.03200
H  47.47900 28.61400 40.21500
H  48.89400 27.62400 39.80400
H  48.96300 29.41400 40.38900
Mg 49.52300 35.26300 26.71900
C  47.36700 34.05600 29.13600
C  50.00600 38.03900 28.45900
C  51.42600 36.41200 24.10500
C  48.74400 32.41000 24.78500
N  48.67400 36.00000 28.56300
C  47.96700 35.26800 29.45600
C  48.06100 35.88400 30.79500
C  48.62200 37.28500 30.58300
C  49.11200 37.17600 29.10400
C  47.67100 38.53900 30.80500
C  49.19100 35.12100 31.64600
C  48.94400 34.67900 33.04900
H  47.85200 35.47000 33.80300
N  50.52400 37.07400 26.28200
C  50.64200 38.09300 27.20400
C  51.52000 39.11700 26.67900
C  51.95200 38.62400 25.40900
C  51.32500 37.33200 25.21700
C  51.77300 40.42900 27.39900
C  52.70500 39.35500 24.39200
O  52.77100 39.00300 23.22500
C  53.30900 40.68300 24.68900
N  49.97500 34.52100 24.77300
C  50.78500 35.16600 23.90200
C  51.16600 34.29900 22.70900
C  50.44500 32.97200 22.95300
C  49.63300 33.28800 24.20400
C  50.88700 35.05600 21.26000
C  51.45800 31.83900 23.03500
C  51.23400 30.77300 22.00600
N  48.30400 33.67400 26.85100
C  48.05600 32.63300 25.98100
C  47.11600 31.72200 26.54200
C  46.73300 32.25700 27.82600
C  47.52500 33.41900 27.89700
C  46.74700 30.33800 25.90700
C  45.92700 31.97000 28.95000
O  45.12400 31.10600 29.27000
C  46.43000 33.12800 29.95300
C  46.97700 32.45500 31.15300
O  48.09400 31.98100 31.24700
O  45.85400 32.34300 32.05100
C  46.10200 31.58000 33.26700
H  50.23200 38.84600 29.15900
H  52.10100 36.65800 23.28200
H  48.51100 31.44300 24.33400
H  47.14200 35.94900 31.37700
H  49.50900 37.47400 31.18800
H  47.56800 39.11800 29.88700
H  48.18800 39.11600 31.57200
H  46.66600 38.46100 31.22000
H  50.16400 35.60800 31.57600
H  49.26400 34.22700 31.02700
H  49.81300 35.04400 33.59700
H  48.88600 33.59800 33.17800
H  51.51600 40.29100 28.44900
H  51.20000 41.24200 26.95300
H  52.84200 40.63900 27.43400
H  52.52700 41.40100 24.94000
H  53.88200 41.13500 23.88000
H  54.01500 40.45100 25.48600
H  52.24700 34.17900 22.76900
H  49.70600 32.83600 22.16300
H  50.65000 36.10100 21.46100
H  50.31400 34.54000 20.48900
H  51.88000 35.11700 20.81600
H  51.33700 31.35900 24.00600
H  52.45900 32.22900 22.84700
H  51.87700 30.81500 21.12700
H  50.22700 30.64800 21.60800
H  51.42400 29.82700 22.51300
H  45.90100 29.90400 26.44100
H  47.52600 29.58200 25.81100
H  46.47700 30.40800 24.85300
H  45.54700 33.67000 30.29100
H  47.09100 31.12500 33.21500
H  45.46900 30.70400 33.40700
H  45.97000 32.29200 34.08100

