158

Mg 41.61300 7.80300 30.22000
C  43.31900 8.70100 33.08600
C  39.34600 6.16600 32.12000
C  40.11400 6.56800 27.32700
C  44.13800 8.96100 28.30400
N  41.57800 7.18700 32.37900
C  42.25900 7.88900 33.34800
C  41.59800 7.57100 34.68200
C  40.63600 6.36300 34.33700
C  40.45200 6.61300 32.88400
C  41.16100 4.94200 34.68200
C  41.04100 8.75900 35.45100
C  41.17300 8.71700 36.98800
H  41.56600 10.01500 37.79900
N  39.96500 6.65900 29.82300
C  39.05400 6.14700 30.77500
C  37.86600 5.60400 30.09300
C  38.10300 5.73500 28.65600
C  39.38400 6.35100 28.58300
C  36.69900 4.96500 30.87100
C  37.12100 5.49900 27.45400
O  37.30500 5.93500 26.32700
C  35.74200 4.89000 27.74500
N  42.10500 7.59200 28.08800
C  41.32700 7.16900 27.09200
C  41.91500 7.44400 25.64500
C  42.96400 8.46700 26.06400
C  43.12400 8.31000 27.58500
C  42.48900 6.09100 25.11600
C  42.61900 9.94400 25.71400
C  41.25600 10.49500 26.20600
N  43.40800 8.68000 30.62400
C  44.31900 9.08100 29.72100
C  45.39100 9.87500 30.48800
C  44.90600 9.82300 31.76100
C  43.79400 8.96500 31.82600
C  46.56600 10.51800 29.90400
C  45.25800 10.20900 33.08600
O  46.11600 10.87100 33.52800
C  44.18500 9.57200 34.05800
C  44.77900 8.72700 35.08500
O  45.18800 7.61400 34.95200
O  44.80300 9.42600 36.22200
C  45.46000 8.86300 37.41900
H  38.49900 5.67400 32.60400
H  39.56100 6.37200 26.40600
H  44.70500 9.54200 27.57400
H  42.32000 6.99400 35.26000
H  39.69300 6.48100 34.87000
H  40.43700 4.42900 35.31400
H  42.10600 4.90000 35.22500
H  41.23700 4.34800 33.77200
H  39.99400 8.97100 35.23300
H  41.58100 9.66300 35.17000
H  41.81900 7.88500 37.26900
H  40.27700 8.29800 37.44500
H  36.84300 4.97900 31.95100
H  36.63500 3.92700 30.54700
H  35.80500 5.55000 30.65300
H  35.32500 4.67800 26.76100
H  35.16300 5.70800 28.17200
H  35.78400 3.99400 28.36400
H  41.13800 7.85700 25.00100
H  43.96900 8.23000 25.71700
H  41.87100 5.68400 24.31500
H  42.58500 5.31900 25.87900
H  43.48600 6.27500 24.71600
H  42.55200 10.03000 24.62900
H  43.35800 10.68500 26.02000
H  40.52000 10.53100 25.40200
H  41.45800 11.37500 26.81600
H  40.83100 9.68500 26.79800
H  46.36800 11.52700 29.54300
H  46.90700 9.95200 29.03700
H  47.35900 10.54700 30.65100
H  43.60000 10.45500 34.31500
H  44.74800 8.22400 37.94200
H  45.80100 9.68700 38.04500
H  46.36500 8.34100 37.11100
Mg 47.79400 15.28000 29.13800
C  45.96800 15.06300 32.01500
C  49.81100 17.71500 30.80700
C  49.45600 15.95900 26.21400
C  45.32500 13.42100 27.41900
N  47.74200 16.39000 31.07200
C  47.08600 15.81000 32.22900
C  47.70700 16.36200 33.53800
C  48.48200 17.53100 33.04800
C  48.72400 17.17200 31.51700
C  47.78700 19.01400 33.19400
C  48.42100 15.31900 34.38200
C  48.17900 15.36100 35.89900
H  47.86600 16.58400 36.67400
N  49.44700 16.53800 28.61200
C  50.15500 17.40800 29.46200
C  51.25200 18.02200 28.69700
C  51.13000 17.59100 27.33000
C  49.98400 16.63000 27.32300
C  52.14000 19.01300 29.31000
C  51.97900 17.96100 26.10800
O  51.84500 17.48000 25.03100
C  53.02300 19.00800 26.29700
N  47.43100 14.76700 27.08200
C  48.30700 15.14300 26.09700
C  47.82000 14.57700 24.77700
C  46.57500 13.73200 25.16300
C  46.40500 13.92400 26.64400
C  47.48500 15.71300 23.76000
C  46.68400 12.19400 24.86600
C  46.16600 11.86800 23.41700
N  45.94900 14.46300 29.51100
C  45.07300 13.72800 28.75300
C  43.93100 13.29200 29.57000
C  44.25600 13.81000 30.83800
C  45.47800 14.45300 30.76700
C  42.78600 12.41600 29.24400
C  43.79800 13.80000 32.23500
O  42.79200 13.26900 32.75100
C  44.88300 14.55500 32.97500
C  44.31700 15.67000 33.80400
O  44.04700 16.77300 33.44700
O  44.22600 15.28300 35.11100
C  43.86700 16.33900 36.05700
H  50.51400 18.35500 31.34400
H  50.04800 16.13400 25.31300
H  44.63700 12.71900 26.94300
H  46.87300 16.70300 34.15100
H  49.42400 17.61400 33.59100
H  48.24300 19.35800 34.12200
H  46.71800 18.96100 33.40000
H  48.00800 19.73300 32.40600
H  49.48900 15.52400 34.29900
H  48.35300 14.32000 33.95200
H  49.05000 14.90300 36.36700
H  47.28700 14.73300 35.90100
H  53.19400 18.76500 29.18400
H  51.92600 19.17900 30.36500
H  51.91900 20.00400 28.91200
H  52.62200 19.93400 26.71000
H  53.36100 19.16400 25.27300
H  53.83900 18.66200 26.93200
H  48.52900 13.91900 24.27500
H  45.74900 14.25000 24.67600
H  47.55600 16.66500 24.28600
H  46.47600 15.59100 23.36600
H  48.13500 15.74400 22.88600
H  46.18500 11.71500 25.70900
H  47.74300 11.96100 24.97800
H  45.37400 11.12000 23.46800
H  46.95500 11.39600 22.83100
H  45.81600 12.77700 22.92800
H  41.87000 12.71600 29.75400
H  43.06500 11.38100 29.44000
H  42.57900 12.43900 28.17400
H  45.26700 13.82400 33.68600
H  42.78400 16.46000 36.04100
H  44.22000 17.35300 35.86800
H  44.12400 16.12500 37.09400

