158

Mg 26.31400 -0.01300 29.46700
C  27.86800 0.10200 32.53600
C  23.18800 0.21500 31.33300
C  24.42800 -0.29200 26.64600
C  29.15400 -0.91100 27.84200
N  25.53300 0.13600 31.68200
C  26.44800 0.29600 32.73900
C  25.74900 0.55500 34.12500
C  24.28400 0.50000 33.68500
C  24.32500 0.24600 32.17000
C  23.43100 -0.54900 34.37500
C  26.07800 1.85500 34.99800
C  26.61000 1.51500 36.39500
H  26.43100 2.45500 37.54000
N  24.12600 0.04900 29.03800
C  23.10200 0.11500 29.90700
C  21.85500 0.17700 29.18200
C  22.18900 0.00400 27.80900
C  23.64100 -0.00700 27.75100
C  20.53900 0.54900 29.84800
C  21.22000 -0.02100 26.63600
O  21.62000 -0.11600 25.47300
C  19.72700 0.15700 26.80000
N  26.66800 -0.70800 27.58300
C  25.76600 -0.65400 26.55700
C  26.42200 -0.91700 25.17800
C  27.96200 -1.07600 25.54400
C  27.90900 -0.93800 27.10200
C  25.78200 -2.07500 24.37000
C  28.82100 0.07700 24.92900
C  28.85000 1.46600 25.55000
N  28.13900 -0.45100 30.01700
C  29.25100 -0.73000 29.24400
C  30.39200 -0.76000 30.06800
C  29.98500 -0.39800 31.35300
C  28.51100 -0.27300 31.34100
C  31.85500 -1.00100 29.69200
C  30.36700 -0.08500 32.70500
O  31.48600 0.13600 33.21200
C  29.08100 0.17100 33.54000
C  29.00300 -0.87200 34.64900
O  28.64900 -2.01600 34.47600
O  29.45900 -0.31600 35.78500
C  29.26400 -1.19700 36.89400
H  22.28800 0.30800 31.94300
H  23.89400 -0.34900 25.69500
H  30.03400 -1.11400 27.22700
H  26.10200 -0.39100 34.53600
H  23.84100 1.49500 33.72200
H  22.59900 -0.00200 34.81800
H  23.97900 -1.04100 35.17800
H  23.14800 -1.38900 33.74100
H  25.26100 2.56800 35.11300
H  26.75600 2.51300 34.45400
H  27.68600 1.35900 36.31900
H  26.10300 0.59500 36.68700
H  20.08200 1.35800 29.27800
H  20.73500 0.96600 30.83600
H  19.88900 -0.31300 30.00300
H  19.23200 -0.00200 25.84200
H  19.54000 1.16500 27.17100
H  19.32300 -0.56200 27.51300
H  26.20900 -0.02100 24.59500
H  28.35000 -2.06400 25.29500
H  24.74700 -2.25500 24.66100
H  26.33300 -3.01500 24.40600
H  25.68700 -1.67400 23.36100
H  28.48300 0.25900 23.90800
H  29.82000 -0.35400 24.86400
H  28.34500 1.56600 26.51000
H  28.41100 2.16400 24.83700
H  29.86900 1.72500 25.83800
H  32.15600 -1.98700 30.04600
H  32.48200 -0.33000 30.27900
H  31.95800 -0.78000 28.63000
H  29.08500 1.16300 33.99100
H  29.77200 -2.12500 36.63300
H  28.19000 -1.28600 37.05800
H  29.69100 -0.66700 37.74600
Mg -11.29200 16.89100 41.62100
C  -8.23200 15.32900 40.71900
C  -10.22000 19.64000 39.92900
C  -14.44900 18.10600 41.67600
C  -12.50100 13.74100 42.61900
N  -9.51600 17.35500 40.21800
C  -8.38300 16.55000 40.10200
C  -7.26100 17.26600 39.36900
C  -7.79500 18.76300 39.28300
C  -9.24600 18.63200 39.81700
C  -6.86300 19.80400 39.92900
C  -7.00500 16.48100 38.00000
C  -5.51400 16.27600 37.67900
H  -4.86600 17.10700 36.39600
N  -12.28300 18.62900 40.95000
C  -11.61300 19.65600 40.28700
C  -12.54300 20.78200 40.03500
C  -13.74400 20.35300 40.60100
C  -13.54500 18.96000 41.03600
C  -12.18700 22.08300 39.29600
C  -15.02300 21.23500 40.82300
O  -15.20000 22.31600 40.32000
C  -16.10600 20.72600 41.76700
N  -13.32700 15.99200 41.96000
C  -14.36200 16.82200 42.17300
C  -15.54900 15.92500 42.58200
C  -14.92400 14.54400 43.11600
C  -13.49300 14.74100 42.49500
C  -16.61600 16.47100 43.58000
C  -15.67200 13.22400 42.81200
C  -16.18200 12.53800 44.02000
N  -10.55900 14.94900 41.78000
C  -11.12600 13.79400 42.24200
C  -10.06900 12.82200 42.38000
C  -8.94200 13.41300 41.81600
C  -9.24900 14.70000 41.45700
C  -10.32900 11.39500 43.00100
C  -7.59600 13.14500 41.46100
O  -7.05300 12.03400 41.46700
C  -7.05400 14.39800 40.69600
C  -5.98900 14.94700 41.48000
O  -5.99300 15.30300 42.63700
O  -4.92200 15.07400 40.59600
C  -3.73300 15.58000 41.29700
H  -9.86000 20.57400 39.49400
H  -15.49000 18.43100 41.62400
H  -12.89800 12.85300 43.11500
H  -6.35800 17.29100 39.97800
H  -7.96800 18.97300 38.22800
H  -6.22900 19.43600 40.73600
H  -7.55300 20.47300 40.44400
H  -6.29600 20.42100 39.23200
H  -7.45200 17.04000 37.17900
H  -7.48600 15.50300 37.97100
H  -5.34300 15.22300 37.45600
H  -4.99400 16.60900 38.57800
H  -12.56100 22.07800 38.27200
H  -11.10200 22.17800 39.26000
H  -12.54600 22.90800 39.91100
H  -16.60800 21.59200 42.19700
H  -15.64100 20.24800 42.63000
H  -16.76700 20.02900 41.25100
H  -16.02100 15.86400 41.60100
H  -14.69700 14.69000 44.17200
H  -16.29500 16.13400 44.56600
H  -17.57400 15.99700 43.36700
H  -16.62300 17.56100 43.56900
H  -15.02900 12.58600 42.20600
H  -16.62900 13.41900 42.32900
H  -17.24400 12.29500 44.00500
H  -16.06400 13.05100 44.97400
H  -15.73800 11.56400 44.22300
H  -11.03600 11.65100 43.79000
H  -9.36000 11.07700 43.38400
H  -10.83400 10.81900 42.22500
H  -6.62100 14.06100 39.75300
H  -2.87500 15.74000 40.64400
H  -3.36900 14.80000 41.96600
H  -3.81500 16.46200 41.93200

