158

Mg 47.43000 25.72700 28.79200
C  48.52300 27.97000 31.20800
C  46.96200 23.38100 31.30700
C  46.94700 23.38800 26.37800
C  48.75900 27.94500 26.34600
N  47.64800 25.71900 31.00700
C  47.92600 26.81500 31.80100
C  47.53000 26.53700 33.23000
C  47.10400 24.97700 33.23500
C  47.20500 24.67500 31.73900
C  47.96800 23.97000 34.13300
C  46.41100 27.59800 33.71400
C  45.64800 27.33700 35.01000
H  45.85400 28.08900 36.31700
N  46.85300 23.70900 28.86300
C  46.73800 22.89100 30.00800
C  46.44400 21.53300 29.59900
C  46.23900 21.54900 28.17300
C  46.73500 22.91800 27.73500
C  46.17500 20.46400 30.52700
C  45.85600 20.44100 27.25000
O  45.67600 20.61300 26.00800
C  45.44300 19.13800 27.73100
N  47.87400 25.67000 26.67700
C  47.41700 24.66300 25.90500
C  47.27700 25.08600 24.40700
C  47.71500 26.57700 24.44100
C  48.15800 26.75000 25.92800
C  48.23300 24.23400 23.51800
C  46.59900 27.58400 24.01000
C  47.02200 28.67500 23.05800
N  48.50100 27.55500 28.71100
C  48.90700 28.32200 27.63900
C  49.50700 29.55600 28.13900
C  49.35600 29.42800 29.55900
C  48.75900 28.20000 29.89500
C  50.20800 30.57500 27.37400
C  49.57300 30.14400 30.81200
O  50.06900 31.29400 30.98000
C  48.92500 29.30600 31.87800
C  49.69800 29.17600 33.19700
O  50.75100 28.51700 33.30800
O  49.20800 30.01200 34.22000
C  49.95200 29.90100 35.47400
H  46.56000 22.77300 32.12100
H  46.56200 22.74700 25.58300
H  49.02400 28.69100 25.59400
H  48.37400 26.66000 33.90800
H  46.05600 24.88300 33.52100
H  48.58300 23.34200 33.48800
H  47.36600 23.23100 34.66200
H  48.65300 24.55000 34.75100
H  45.70800 27.54800 32.88200
H  46.83000 28.60100 33.64500
H  46.12600 26.42900 35.37700
H  44.59700 27.11500 34.82400
H  46.23900 20.73200 31.58100
H  46.77200 19.59800 30.24100
H  45.14300 20.21800 30.27800
H  46.18700 18.74000 28.42200
H  45.48300 18.48300 26.86100
H  44.59700 19.19700 28.41500
H  46.31400 24.95700 23.91300
H  48.54300 26.69000 23.74100
H  48.44200 23.26800 23.97800
H  49.23600 24.59100 23.28500
H  47.64700 23.93000 22.65100
H  46.13900 28.01800 24.89800
H  45.76200 27.09700 23.51100
H  46.36600 29.45100 23.45400
H  46.78200 28.47100 22.01500
H  48.05800 28.98300 23.20400
H  50.48000 31.48500 27.90900
H  49.46900 30.94500 26.66400
H  51.11900 30.21800 26.89400
H  48.01000 29.77600 32.23900
H  49.98100 28.85600 35.78300
H  49.44800 30.36500 36.32300
H  50.97400 30.28000 35.47200
Mg -5.19800 25.14200 26.66300
C  -3.99300 26.43700 29.63100
C  -6.91400 22.77500 28.55300
C  -6.05800 23.72500 23.73300
C  -2.92000 27.25000 24.85700
N  -5.34000 24.65000 28.82900
C  -4.82800 25.35300 29.82500
C  -5.27100 24.84300 31.23300
C  -6.01300 23.46400 30.85000
C  -6.13700 23.64000 29.29900
C  -5.19800 22.18600 31.26500
C  -6.16500 26.02400 31.87400
C  -5.98500 26.19100 33.41500
H  -5.39400 24.98000 34.19500
N  -6.19200 23.51300 26.21600
C  -6.99900 22.74200 27.12900
C  -7.81500 21.80900 26.38600
C  -7.63100 22.13400 25.02300
C  -6.58400 23.17800 24.93500
C  -8.66300 20.75300 27.08200
C  -8.33500 21.44600 23.92400
O  -8.08200 21.77600 22.77200
C  -9.38900 20.33000 24.12800
N  -4.57400 25.45200 24.53900
C  -5.07000 24.71700 23.56900
C  -4.43000 25.07700 22.20600
C  -3.45900 26.21100 22.59400
C  -3.59900 26.32400 24.12300
C  -3.77900 23.89800 21.47600
C  -3.62500 27.51800 21.78200
C  -2.43000 28.00300 20.92400
N  -3.93100 26.63000 27.10000
C  -3.06000 27.40000 26.26200
C  -2.23600 28.22900 27.02900
C  -2.54700 28.02300 28.33500
C  -3.52400 26.91100 28.39800
C  -1.31600 29.26900 26.45600
C  -2.35100 28.41800 29.75300
O  -1.71300 29.36300 30.31900
C  -3.25800 27.33200 30.56400
C  -2.38800 26.50600 31.53300
O  -1.80700 25.47500 31.20600
O  -2.20600 27.03100 32.82200
C  -1.17400 26.27100 33.56300
H  -7.49900 22.05400 29.12800
H  -6.23900 23.20100 22.79100
H  -2.15500 27.77500 24.28000
H  -4.37300 24.63700 31.81500
H  -6.95500 23.48800 31.39900
H  -4.27500 22.53300 31.72900
H  -4.87900 21.60800 30.39700
H  -5.74800 21.56600 31.97400
H  -7.19700 25.73200 31.68100
H  -6.00300 26.95800 31.33700
H  -7.02400 26.33800 33.71200
H  -5.45700 27.12700 33.59800
H  -9.74000 20.86000 26.95500
H  -8.27400 20.56600 28.08300
H  -8.43500 19.83200 26.54600
H  -9.76500 19.99900 23.16000
H  -10.14700 20.75000 24.78800
H  -9.00400 19.44000 24.62600
H  -5.32500 25.30700 21.62800
H  -2.46100 25.79800 22.44400
H  -3.00500 24.24000 20.78900
H  -4.58300 23.39900 20.93600
H  -3.25700 23.23900 22.17000
H  -3.94700 28.35200 22.40500
H  -4.56800 27.40700 21.24700
H  -2.05900 28.91900 21.38500
H  -2.84100 28.12200 19.92100
H  -1.72100 27.17900 21.00600
H  -1.95500 30.11400 26.20200
H  -0.77100 28.94700 25.56900
H  -0.58100 29.54600 27.21200
H  -4.02000 27.89600 31.10200
H  -0.72100 26.96800 34.26800
H  -0.32700 26.02200 32.92400
H  -1.52900 25.37800 34.07800

