158

Mg -1.06400 17.73700 26.49500
C  -1.42600 15.70200 29.38100
C  -1.93700 20.49600 28.45100
C  -1.39800 19.55200 23.70700
C  -0.64400 14.84800 24.64100
N  -1.56200 18.02500 28.69400
C  -1.69100 17.06900 29.69700
C  -1.98800 17.67400 31.03900
C  -2.21000 19.24700 30.73700
C  -1.87900 19.30100 29.19100
C  -3.53600 19.83800 31.14600
C  -0.94300 17.37500 32.19600
C  -1.05700 18.23200 33.54600
H  -0.79600 17.44100 34.85400
N  -1.48500 19.75500 26.15200
C  -1.67100 20.78200 27.06900
C  -1.77000 22.08000 26.40700
C  -1.68400 21.81300 25.03500
C  -1.48000 20.34300 24.89300
C  -2.00700 23.37400 27.24100
C  -1.86200 22.81400 23.95900
O  -1.96900 22.49600 22.80900
C  -1.90100 24.25500 24.24500
N  -1.23600 17.21000 24.45400
C  -1.29000 18.18500 23.44500
C  -0.98400 17.56600 22.11300
C  -0.47400 16.07400 22.50200
C  -0.76100 16.02700 23.97700
C  -2.16300 17.55800 21.07600
C  0.96000 15.67400 22.13300
C  2.10100 16.57200 22.56100
N  -0.97500 15.72100 26.87300
C  -0.84500 14.66200 25.99400
C  -0.86600 13.40300 26.69900
C  -0.99400 13.79500 28.01800
C  -1.14900 15.17700 28.09800
C  -0.63600 11.92600 26.12500
C  -0.91600 13.27500 29.35600
O  -0.60100 12.14900 29.79800
C  -1.21300 14.51000 30.34700
C  -0.03200 14.40300 31.33300
O  1.14400 14.65100 31.08300
O  -0.49700 13.75500 32.44800
C  0.58800 13.50500 33.41400
H  -2.23600 21.36500 29.04100
H  -1.37700 20.11400 22.77100
H  -0.32800 13.95200 24.10100
H  -2.85300 17.15600 31.45600
H  -1.38900 19.71000 31.28500
H  -4.00700 20.65800 30.60400
H  -3.29500 20.28100 32.11200
H  -4.30700 19.06800 31.14400
H  0.03600 17.38800 31.71700
H  -1.25300 16.37600 32.50000
H  -2.01800 18.74300 33.59900
H  -0.19800 18.89100 33.41700
H  -1.26000 24.13000 27.00000
H  -1.94400 23.24800 28.32200
H  -3.01000 23.69900 26.96700
H  -2.85300 24.51400 24.70900
H  -1.87400 24.78700 23.29400
H  -0.95700 24.46000 24.75100
H  -0.15700 18.09900 21.64300
H  -1.11500 15.39300 21.94200
H  -2.97000 18.05600 21.61500
H  -2.42800 16.54300 20.78000
H  -1.90500 17.98100 20.10500
H  0.89100 15.54300 21.05300
H  1.10900 14.69600 22.59100
H  1.83500 17.32400 23.30400
H  2.49100 17.11900 21.70200
H  2.94600 16.07400 23.03500
H  0.21300 11.97400 25.44300
H  -1.53200 11.43000 25.75000
H  -0.33900 11.41900 27.04300
H  -2.17000 14.39600 30.85500
H  1.21400 12.65900 33.13000
H  0.12800 13.33600 34.38800
H  1.13100 14.42100 33.64400
Mg 34.02900 49.28800 24.89000
C  34.00500 47.48500 27.90600
C  32.51600 51.88000 26.51600
C  33.76200 50.78900 21.92400
C  35.29500 46.31700 23.34400
N  33.53600 49.68700 27.02400
C  33.65700 48.83000 28.04000
C  33.54600 49.57100 29.36600
C  32.92600 50.92300 28.88500
C  32.92200 50.85000 27.37800
C  31.55500 51.30100 29.54700
C  34.88900 49.64700 30.12800
C  34.84700 49.28800 31.62500
H  33.56600 49.30400 32.42100
N  33.27500 51.16500 24.32900
C  32.62300 52.11900 25.10400
C  32.02000 53.16200 24.29400
C  32.44400 52.90500 22.95800
C  33.20300 51.59300 23.01000
C  31.26900 54.30000 24.86900
C  32.19200 53.67200 21.68000
O  32.64100 53.20900 20.59400
C  31.37200 54.98000 21.61200
N  34.45600 48.64600 22.98000
C  34.36800 49.53700 21.92500
C  34.79800 48.88800 20.60700
C  35.52000 47.58500 21.16800
C  35.08000 47.47100 22.58300
C  33.64600 48.62100 19.64700
C  37.06300 47.77200 20.88600
C  37.67100 46.66400 20.00500
N  34.56400 47.25700 25.40200
C  34.96700 46.13800 24.69400
C  35.24800 45.02600 25.51700
C  34.87600 45.45500 26.76500
C  34.43600 46.87900 26.66500
C  35.78200 43.64000 25.17500
C  34.78900 45.10600 28.14200
O  35.03100 44.04100 28.67900
C  34.26400 46.39300 28.97500
C  33.00200 46.08700 29.74900
O  31.91100 46.43500 29.43900
O  33.31900 45.36700 30.90800
C  32.11800 45.11900 31.70200
H  32.13200 52.72000 27.09700
H  33.84000 51.35100 20.99100
H  35.81400 45.52600 22.79800
H  32.75400 49.11400 29.96000
H  33.63300 51.69700 29.18500
H  31.36400 50.78300 30.48700
H  30.78400 50.99600 28.84000
H  31.39800 52.35000 29.80000
H  35.40200 50.55400 29.80900
H  35.55900 48.91800 29.67200
H  35.49600 50.01000 32.12000
H  35.37100 48.33300 31.67200
H  31.34600 54.41800 25.95000
H  30.19700 54.19000 24.70000
H  31.49500 55.23000 24.34800
H  30.45600 54.96400 22.20100
H  31.15200 55.05000 20.54700
H  32.15400 55.64200 21.98400
H  35.48400 49.62100 20.18100
H  35.16800 46.67600 20.67800
H  33.77600 47.64800 19.17300
H  33.76300 49.37200 18.86600
H  32.69500 48.67100 20.17800
H  37.52800 47.83100 21.87000
H  37.28300 48.72900 20.41400
H  36.99200 46.23700 19.26700
H  37.97000 45.87700 20.69700
H  38.54200 47.18500 19.60700
H  36.19300 43.27800 26.11800
H  36.58300 43.72300 24.44000
H  35.03500 43.00600 24.69800
H  34.98200 46.69300 29.73800
H  31.51900 45.99400 31.95700
H  32.53400 44.85200 32.67400
H  31.51400 44.27900 31.36000

