158

Mg 40.95000 7.82700 29.50800
C  42.68500 9.28200 32.20100
C  38.72000 6.56600 31.70000
C  39.66700 6.20900 26.98000
C  43.62000 8.84200 27.49400
N  40.70900 7.99800 31.71100
C  41.54900 8.60900 32.59600
C  41.05000 8.49800 33.99800
C  39.99300 7.36300 33.87300
C  39.74300 7.36900 32.28600
C  40.35900 5.91800 34.33300
C  40.45700 9.84900 34.54100
C  40.00200 9.92700 36.03700
H  40.80000 10.50600 37.15500
N  39.45900 6.56100 29.38200
C  38.54600 6.26900 30.36500
C  37.38300 5.57800 29.90500
C  37.58200 5.49700 28.47800
C  39.00200 6.09600 28.21600
C  36.25900 4.91000 30.72800
C  36.58200 5.00400 27.35200
O  36.88300 4.93500 26.21800
C  35.21000 4.62000 27.77400
N  41.63900 7.34700 27.58500
C  40.76500 6.86500 26.68700
C  41.30900 6.92900 25.30900
C  42.39000 8.07100 25.45300
C  42.58700 8.07800 26.90700
C  41.86700 5.55300 24.79500
C  41.89700 9.39000 24.69200
C  40.83800 10.25500 25.37200
N  42.73100 8.89400 29.69700
C  43.77100 9.22200 28.79700
C  44.83000 9.99200 29.42600
C  44.39400 10.12600 30.77200
C  43.20700 9.38300 30.89200
C  46.10000 10.51900 28.80000
C  44.76800 10.62600 32.03100
O  45.85200 11.19100 32.36900
C  43.66400 10.20500 33.04200
C  44.38100 9.41000 34.07600
O  45.18600 8.53600 33.93600
O  44.01300 9.87200 35.31900
C  44.55600 9.11800 36.44600
H  37.96500 6.19800 32.39800
H  39.12600 5.76900 26.14000
H  44.42100 9.07600 26.79000
H  41.91600 8.15500 34.56500
H  39.01100 7.59400 34.28600
H  40.26500 5.28000 33.45400
H  39.69600 5.57300 35.12700
H  41.39700 5.92900 34.66500
H  39.50600 10.04100 34.04500
H  41.03500 10.76100 34.38800
H  39.69000 8.94400 36.38900
H  39.12800 10.56200 36.18700
H  35.34400 5.45500 30.49500
H  36.44300 4.84100 31.80000
H  36.10700 3.88600 30.38600
H  35.14000 3.57100 28.05900
H  34.64400 4.63500 26.84200
H  34.68500 5.33300 28.40900
H  40.50200 7.33200 24.69700
H  43.30400 7.88600 24.89000
H  42.95500 5.56900 24.73400
H  41.28000 5.40800 23.88800
H  41.52200 4.83500 25.54000
H  41.39900 9.02700 23.79300
H  42.74900 10.03300 24.47000
H  40.19900 9.70400 26.06200
H  40.12800 10.49700 24.58200
H  41.27600 11.14500 25.82500
H  46.83300 9.72200 28.92600
H  46.55900 11.24300 29.47400
H  45.87800 10.79400 27.76900
H  43.23700 11.08400 33.52600
H  43.99100 8.19600 36.31100
H  44.47100 9.60000 37.42000
H  45.63000 8.93000 36.42900
Mg -5.59600 25.29900 26.92800
C  -3.85200 27.10000 29.29600
C  -6.74500 23.21400 29.29800
C  -6.46700 23.06500 24.42700
C  -3.88200 27.03100 24.48300
N  -5.21900 25.06000 29.07400
C  -4.56000 25.98100 29.85600
C  -4.84100 25.73800 31.34600
C  -5.46400 24.29400 31.33000
C  -5.86200 24.18200 29.79500
C  -4.53500 23.19100 31.94400
C  -5.64600 26.83300 31.99400
C  -5.15700 27.24700 33.42800
H  -6.01100 26.84800 34.67900
N  -6.66000 23.45600 26.84000
C  -7.12800 22.78700 27.96600
C  -7.78000 21.61500 27.58200
C  -7.63400 21.52100 26.15300
C  -6.88700 22.72800 25.74700
C  -8.50500 20.69000 28.47800
C  -8.17800 20.40400 25.28500
O  -8.04900 20.38100 24.06800
C  -8.98900 19.22500 25.80900
N  -5.22000 25.04900 24.83900
C  -5.72500 24.08900 24.04000
C  -5.24900 24.25400 22.51800
C  -4.62100 25.60900 22.59100
C  -4.59000 25.95300 24.08200
C  -4.32800 23.12500 22.03900
C  -5.38200 26.78700 21.72500
C  -4.98400 26.94200 20.25000
N  -4.37100 26.96400 26.80600
C  -3.76100 27.58100 25.79000
C  -3.02300 28.77000 26.20500
C  -3.00400 28.61900 27.61800
C  -3.80500 27.45300 27.94800
C  -2.32800 29.75600 25.28500
C  -2.52000 29.19000 28.84100
O  -1.87500 30.20300 29.10100
C  -3.05500 28.21500 29.96500
C  -1.93100 27.82300 30.83000
O  -1.29600 26.77200 30.67500
O  -1.91200 28.61300 31.97300
C  -0.90300 28.12500 32.97000
H  -7.09300 22.52400 30.07000
H  -6.82600 22.35500 23.67800
H  -3.41500 27.62400 23.69400
H  -3.91900 25.62000 31.91400
H  -6.32000 24.33800 32.00400
H  -3.46800 23.40000 31.87500
H  -4.76200 22.31600 31.33400
H  -4.82200 22.95300 32.96800
H  -6.67500 26.53300 32.19000
H  -5.70500 27.66400 31.29200
H  -4.94500 28.31200 33.32800
H  -4.12400 26.93400 33.58700
H  -8.69200 21.25800 29.38900
H  -7.92900 19.80000 28.73200
H  -9.47500 20.53700 28.00500
H  -9.95600 19.58500 26.16100
H  -8.43700 18.55700 26.47000
H  -9.37200 18.61700 24.99000
H  -6.13600 24.40200 21.90300
H  -3.62600 25.58300 22.14700
H  -4.21700 22.39300 22.83900
H  -3.29900 23.40600 21.81300
H  -4.78900 22.70300 21.14600
H  -5.43800 27.80400 22.11300
H  -6.42900 26.49300 21.78800
H  -4.24800 27.73900 20.14000
H  -5.88800 27.07600 19.65500
H  -4.51700 26.04300 19.84800
H  -2.61000 29.67300 24.23500
H  -1.26200 29.90500 25.45700
H  -2.76200 30.71000 25.58400
H  -3.71200 28.65400 30.71600
H  -1.28000 27.21200 33.43100
H  -0.77800 28.90200 33.72300
H  0.06100 27.93300 32.49800

