158

Mg 26.50400 1.04600 29.70300
C  28.44600 0.84700 32.44800
C  23.73900 1.77000 31.79600
C  24.42800 0.93500 27.09600
C  29.06800 -0.02600 27.73300
N  26.18700 1.41800 31.89000
C  27.14200 1.24700 32.83600
C  26.62600 1.56700 34.25100
C  25.11200 1.64500 34.01500
C  24.95100 1.55600 32.46000
C  24.26800 0.61800 34.83300
C  27.30300 2.90800 34.73400
C  28.08800 2.98900 36.08800
H  27.44100 3.85300 37.12800
N  24.43600 1.33400 29.45300
C  23.54300 1.80400 30.40800
C  22.21700 1.88100 29.74500
C  22.41900 1.65700 28.38900
C  23.84400 1.28800 28.25900
C  20.96200 2.12600 30.50200
C  21.41200 1.75700 27.29100
O  21.63100 1.73600 26.06700
C  19.89700 1.89600 27.61600
N  26.69800 0.50600 27.70900
C  25.74000 0.56100 26.81200
C  26.18600 0.16700 25.38700
C  27.69300 0.02500 25.57200
C  27.82100 0.15700 27.10400
C  25.40100 -1.04900 24.85800
C  28.44200 1.07200 24.92400
C  28.71300 2.45700 25.63500
N  28.43100 0.68900 29.96600
C  29.43900 0.23500 29.06500
C  30.68900 0.06700 29.73700
C  30.35200 0.18300 31.14100
C  28.97800 0.63100 31.16800
C  32.00200 -0.36600 29.06800
C  30.79300 0.06300 32.50300
O  31.90800 -0.15200 32.87300
C  29.56700 0.51200 33.39400
C  29.33900 -0.56800 34.39600
O  28.56400 -1.46700 34.31000
O  30.19400 -0.39200 35.44900
C  30.03800 -1.19400 36.73400
H  22.97000 2.12000 32.48700
H  23.95600 1.00400 26.11400
H  29.95200 -0.29600 27.15200
H  26.91200 0.66200 34.78600
H  24.75200 2.62600 34.32400
H  23.49100 1.20300 35.32500
H  24.79900 0.01100 35.56700
H  23.70300 -0.00500 34.14000
H  26.61800 3.74900 34.62000
H  28.05100 3.21900 34.00400
H  29.09800 3.32200 35.85100
H  27.97600 1.97300 36.46800
H  20.40900 3.01200 30.19100
H  21.18300 2.19000 31.56700
H  20.42000 1.19800 30.32300
H  19.32200 1.81100 26.69400
H  19.85300 2.86900 28.10500
H  19.63700 1.23500 28.44300
H  25.85900 1.05900 24.85300
H  28.07600 -0.94300 25.24900
H  26.08600 -1.74900 24.38000
H  24.65400 -0.80200 24.10300
H  25.08400 -1.58300 25.75400
H  28.16000 1.21100 23.88000
H  29.46300 0.71900 24.77900
H  28.17700 2.61200 26.57100
H  28.43600 3.26000 24.95200
H  29.78200 2.57400 25.81400
H  32.04200 0.03400 28.05500
H  32.03500 -1.45500 29.02800
H  32.85000 0.05400 29.60900
H  29.84300 1.40200 33.95900
H  30.42600 -2.20500 36.61500
H  29.00400 -1.11200 37.06900
H  30.68400 -0.82800 37.53200
Mg -1.32800 34.91500 27.53900
C  -3.35500 33.18600 29.83600
C  -0.50300 37.13400 30.14600
C  0.31600 36.75400 25.21600
C  -2.67400 32.94000 24.95800
N  -1.83900 35.03700 29.77100
C  -2.58100 34.20000 30.43700
C  -2.47800 34.46500 31.91500
C  -1.95200 35.94200 31.90700
C  -1.23600 36.01900 30.60000
C  -3.02200 37.08200 32.04400
C  -1.64400 33.32400 32.60900
C  -2.47700 32.67500 33.70600
H  -1.82700 32.25100 35.02700
N  -0.34700 36.76500 27.64500
C  -0.11800 37.50800 28.78500
C  0.72000 38.63700 28.46100
C  1.05900 38.56100 27.04700
C  0.34800 37.31000 26.57000
C  1.12100 39.72900 29.41100
C  1.85100 39.42000 26.12200
O  2.12400 39.16800 24.91100
C  2.47600 40.56000 26.66700
N  -1.05300 34.74100 25.49200
C  -0.31000 35.60600 24.67000
C  -0.19800 35.18100 23.22800
C  -1.03000 33.82600 23.18900
C  -1.66700 33.84700 24.64900
C  -0.61100 36.23300 22.12000
C  -0.30200 32.50900 22.98700
C  -1.01400 31.35900 22.18800
N  -2.64800 33.34700 27.36400
C  -3.11900 32.69100 26.27200
C  -4.05100 31.59100 26.66000
C  -4.15800 31.77000 28.06100
C  -3.32100 32.84100 28.45000
C  -4.76100 30.55100 25.77300
C  -4.78200 31.25100 29.24700
O  -5.60400 30.30700 29.32500
C  -4.28300 32.12500 30.48200
C  -5.56900 32.74100 31.04400
O  -6.11800 33.77900 30.76000
O  -5.83700 32.03800 32.21800
C  -6.57400 32.59100 33.33200
H  -0.36300 37.87800 30.93400
H  0.83300 37.25200 24.39300
H  -3.07800 32.30400 24.16900
H  -3.53000 34.55400 32.18600
H  -1.15100 36.02700 32.64100
H  -3.91300 36.49300 32.26100
H  -3.00300 37.82300 31.24500
H  -2.74200 37.65400 32.92900
H  -0.78000 33.78600 33.08700
H  -1.27500 32.54700 31.94000
H  -2.67900 31.68500 33.29800
H  -3.42800 33.11300 34.00700
H  0.44300 39.81200 30.26000
H  1.24300 40.72200 28.97800
H  2.15400 39.48600 29.66000
H  3.22700 41.01300 26.02000
H  3.12900 40.18600 27.45600
H  1.71200 41.30400 26.89300
H  0.85700 34.99900 23.02300
H  -1.82300 33.91500 22.44600
H  -1.38400 35.85300 21.45100
H  0.26800 36.35600 21.48800
H  -1.05400 37.13700 22.53800
H  -0.06400 32.02400 23.93400
H  0.58800 32.63500 22.37000
H  -2.00500 31.72600 21.92000
H  -1.03100 30.40200 22.70900
H  -0.56200 31.23800 21.20300
H  -4.67000 29.71700 26.46900
H  -4.23600 30.40400 24.83000
H  -5.82700 30.75500 25.66400
H  -3.83400 31.39000 31.14900
H  -5.89600 32.81500 34.15500
H  -7.28700 31.88800 33.76200
H  -7.07800 33.50300 33.01200

