158

Mg 25.20400 0.94700 29.79900
C  27.15900 0.70400 32.63300
C  22.46200 1.09900 31.96000
C  23.19500 0.62300 27.15800
C  28.07000 0.35200 27.77100
N  24.89800 1.03600 31.99100
C  25.88100 1.03400 32.98900
C  25.33100 1.24100 34.38800
C  23.84400 1.29800 34.15000
C  23.70800 1.09200 32.58000
C  22.83400 0.37600 34.96900
C  26.06300 2.27800 35.26200
C  26.56100 1.73400 36.63200
H  26.52300 2.62200 37.92000
N  23.08900 0.77200 29.56700
C  22.17500 0.96800 30.59900
C  20.85000 0.96700 29.95500
C  21.02200 0.74100 28.54300
C  22.49900 0.65600 28.33700
C  19.58200 1.13700 30.77900
C  19.94000 0.56500 27.48900
O  20.18100 0.26200 26.31300
C  18.50400 0.95900 27.81000
N  25.71200 0.75400 27.68900
C  24.62600 0.65900 26.87800
C  25.13100 0.44500 25.41600
C  26.68700 0.27800 25.56700
C  26.87800 0.60300 27.05500
C  24.40700 -0.71700 24.68700
C  27.63900 1.29300 24.73000
C  28.21500 0.83600 23.40900
N  27.15500 0.52400 30.11900
C  28.21600 0.34800 29.21300
C  29.39800 0.09900 29.98800
C  29.02700 0.22500 31.32600
C  27.65400 0.50900 31.33900
C  30.76000 -0.22100 29.45400
C  29.57700 0.25600 32.58600
O  30.72700 0.01300 32.95000
C  28.30300 0.39400 33.56400
C  28.23600 -0.94300 34.31200
O  27.77900 -1.99100 33.83200
O  28.59800 -0.79600 35.61400
C  28.49000 -1.85600 36.59100
H  21.65200 1.22100 32.68200
H  22.50800 0.50200 26.31800
H  28.91100 0.02800 27.15500
H  25.33000 0.30300 34.94400
H  23.43500 2.26000 34.46000
H  22.10200 1.00500 35.47600
H  23.32700 -0.25500 35.70900
H  22.40900 -0.40100 34.33300
H  25.43000 3.14800 35.43400
H  26.97800 2.53300 34.72700
H  27.59800 1.50200 36.38800
H  26.02600 0.80100 36.81100
H  18.97700 0.24700 30.60500
H  19.04900 2.07400 30.62000
H  19.63100 1.10800 31.86700
H  18.00900 0.35800 28.57300
H  17.93600 0.84200 26.88800
H  18.56200 2.00900 28.09800
H  24.88000 1.37500 24.90500
H  26.98600 -0.75900 25.41600
H  23.68500 -1.13800 25.38700
H  25.09300 -1.54200 24.49300
H  23.85200 -0.36300 23.81800
H  28.48100 1.65600 25.31900
H  27.15100 2.26400 24.64100
H  27.79100 -0.11100 23.07600
H  29.25600 0.51300 23.40000
H  28.07200 1.55500 22.60300
H  31.13000 -0.90600 30.21700
H  31.43300 0.63600 29.42800
H  30.75400 -0.80000 28.53000
H  28.44900 1.16200 34.32300
H  28.66000 -2.81900 36.10800
H  27.44800 -1.86500 36.91200
H  29.18900 -1.74700 37.42000
Mg 43.18000 41.80000 27.05300
C  42.36400 44.11800 29.62700
C  44.24900 39.68000 29.41200
C  44.00200 39.78900 24.61800
C  42.40300 44.31600 24.70300
N  43.23300 41.92300 29.30800
C  42.81900 42.89000 30.12800
C  42.76700 42.40600 31.60300
C  43.71500 41.11100 31.51600
C  43.73200 40.88400 29.96600
C  45.15400 41.23000 32.11500
C  41.31700 42.03600 32.13100
C  40.81600 42.63500 33.41400
H  41.88300 42.85500 34.53100
N  44.08400 39.90800 27.06100
C  44.43200 39.21900 28.12500
C  44.80400 37.81300 27.74900
C  44.57400 37.80200 26.34400
C  44.26700 39.22000 25.95500
C  45.28000 36.70900 28.71700
C  44.68100 36.64200 25.35700
O  44.57600 36.76000 24.17100
C  44.93800 35.22800 25.90700
N  43.33200 42.13600 24.86200
C  43.60200 41.04700 24.15900
C  43.44600 41.38600 22.62900
C  42.70000 42.69600 22.72400
C  42.84800 43.09500 24.14200
C  44.82400 41.44900 21.95200
C  41.27400 42.53200 22.13300
C  40.32800 41.56500 22.84100
N  42.49000 43.81500 27.07200
C  42.23800 44.71000 26.06600
C  41.58300 45.89100 26.62100
C  41.70900 45.70100 27.99000
C  42.23000 44.47300 28.26600
C  40.99100 47.00800 25.79300
C  41.40500 46.31500 29.30200
O  40.93300 47.39500 29.63600
C  41.78200 45.22800 30.37400
C  42.68300 45.91800 31.32600
O  43.89800 46.03700 31.35200
O  41.86700 46.47500 32.25300
C  42.60900 47.16300 33.31200
H  44.44200 38.87300 30.12100
H  44.02900 39.04900 23.81500
H  42.06600 44.96400 23.89100
H  43.31100 43.11500 32.22800
H  43.22000 40.22800 31.92100
H  45.91600 41.03900 31.36000
H  45.23800 40.59300 32.99600
H  45.40600 42.24900 32.40600
H  41.19400 40.95800 32.23100
H  40.58400 42.39800 31.41100
H  39.98100 42.03800 33.78200
H  40.50500 43.64600 33.15000
H  46.23600 36.29400 28.39900
H  44.52400 35.93000 28.61500
H  45.42700 36.94600 29.77000
H  44.85300 34.41500 25.18500
H  44.12300 35.01600 26.60000
H  45.88600 34.99700 26.39200
H  42.95900 40.54800 22.13000
H  43.19600 43.51300 22.20100
H  45.54900 41.50900 22.76400
H  44.87600 42.23000 21.19400
H  44.93000 40.52100 21.38900
H  41.39300 42.10500 21.13700
H  40.87800 43.54800 22.11900
H  40.80400 40.68300 23.27000
H  39.46000 41.20800 22.28600
H  39.93800 42.19500 23.64000
H  40.33800 47.54600 26.47900
H  40.37400 46.51000 25.04600
H  41.77300 47.59300 25.30700
H  40.80400 44.92600 30.75000
H  43.41100 47.83500 33.00600
H  43.06700 46.40200 33.94400
H  42.02500 47.72400 34.04200

