158

Mg 9.04500 3.73400 28.24100
C  10.56100 2.03700 30.90200
C  7.45000 5.81600 30.31900
C  7.49500 5.32800 25.58100
C  10.09800 1.19700 26.02400
N  9.14200 3.92700 30.31200
C  9.80500 3.21700 31.23600
C  9.64800 3.87900 32.70200
C  8.51300 4.83800 32.47700
C  8.38700 4.95800 30.95600
C  7.08800 4.45100 33.11600
C  10.93300 4.48200 33.33900
C  11.52800 3.78300 34.59300
H  11.83400 4.65000 35.80100
N  7.72000 5.43200 28.01600
C  7.09200 6.07200 29.00000
C  6.27700 7.14500 28.47900
C  6.26300 7.06400 27.07800
C  7.25300 5.95500 26.79400
C  5.41100 8.03800 29.32200
C  5.62900 7.92400 26.03500
O  5.84400 7.81500 24.80400
C  4.66900 9.11600 26.41200
N  8.69200 3.26500 26.10100
C  8.10700 4.09800 25.24100
C  8.17000 3.57300 23.74900
C  9.23300 2.45500 23.93400
C  9.29100 2.28400 25.44900
C  6.76600 3.20900 23.13800
C  10.68200 2.78800 23.42800
C  11.42300 1.59400 22.79100
N  10.14400 2.00100 28.39000
C  10.47900 1.04800 27.40600
C  11.27100 0.04500 28.03800
C  11.31000 0.37100 29.41600
C  10.67200 1.56000 29.54700
C  11.90200 -1.10400 27.39100
C  11.84100 0.02200 30.71200
O  12.60700 -0.88900 30.98200
C  11.30100 1.07700 31.76200
C  10.51400 0.44700 32.86500
O  9.35100 0.06100 32.77200
O  11.42800 0.28300 33.81300
C  10.93600 -0.20300 35.11700
H  6.99400 6.52300 31.01400
H  7.14200 5.85000 24.68900
H  10.35700 0.44200 25.27900
H  9.23700 3.06200 33.29400
H  8.78200 5.80600 32.90000
H  7.13800 4.67000 34.18200
H  6.81300 3.40900 32.95000
H  6.26700 5.02900 32.69000
H  10.78700 5.54700 33.51900
H  11.70600 4.49600 32.57000
H  12.52700 3.43900 34.32500
H  10.86400 2.94600 34.80900
H  5.84600 9.02800 29.17800
H  5.59900 7.91600 30.38800
H  4.32200 8.01500 29.30300
H  4.34700 9.62000 25.50100
H  5.18700 9.86600 27.01000
H  3.73800 8.78400 26.87100
H  8.43400 4.46800 23.18500
H  8.80100 1.53200 23.54700
H  5.91500 3.64000 23.66400
H  6.56500 2.13800 23.15300
H  6.62900 3.77000 22.21300
H  11.30700 3.15100 24.24400
H  10.59700 3.60900 22.71700
H  10.95000 0.64900 23.05900
H  12.46700 1.60500 23.10600
H  11.40700 1.59500 21.70100
H  12.97300 -0.90400 27.38900
H  11.56700 -1.29100 26.37100
H  11.78500 -1.93900 28.08200
H  12.11200 1.59200 32.27800
H  10.53200 0.58900 35.74700
H  11.81000 -0.63100 35.61000
H  10.20700 -1.00900 35.03100
Mg -6.27700 25.88900 26.25000
C  -5.00200 27.36100 29.08700
C  -8.08900 23.61900 28.35800
C  -7.29700 23.97300 23.58200
C  -4.41100 27.88100 24.29900
N  -6.45100 25.47000 28.46000
C  -5.98700 26.32900 29.43100
C  -6.51300 26.01600 30.77900
C  -7.28600 24.63400 30.47700
C  -7.23700 24.55200 28.98000
C  -6.89800 23.39100 31.22200
C  -7.44600 27.22100 31.41500
C  -7.15000 27.48400 32.87200
H  -6.87200 26.36100 33.91400
N  -7.52800 24.08400 25.99600
C  -8.09800 23.33100 26.96500
C  -8.72600 22.18500 26.44500
C  -8.52800 22.22800 25.01000
C  -7.77500 23.43100 24.80500
C  -9.38100 21.15600 27.34500
C  -9.02200 21.35800 23.83400
O  -8.74100 21.41700 22.66000
C  -10.12700 20.39000 24.18800
N  -5.91300 25.92900 24.19800
C  -6.49200 25.08700 23.20400
C  -5.95700 25.46800 21.82000
C  -5.18900 26.82300 22.09300
C  -5.14600 26.88800 23.61900
C  -5.15200 24.30500 21.10100
C  -5.75600 28.12500 21.52100
C  -4.87000 28.71800 20.49300
N  -4.85500 27.24900 26.56100
C  -4.21000 28.05100 25.70500
C  -3.44500 29.07300 26.42700
C  -3.73300 28.77900 27.74500
C  -4.57300 27.68200 27.75800
C  -2.65800 30.19800 25.83800
C  -3.46800 29.26600 29.08200
O  -2.79200 30.22100 29.45100
C  -4.31200 28.38000 29.98600
C  -3.30900 27.77300 30.85500
O  -2.57400 26.85500 30.44900
O  -3.37700 28.37900 32.03700
C  -2.42200 27.83300 33.00400
H  -8.72900 23.01800 29.00700
H  -7.59600 23.43700 22.67800
H  -3.94800 28.72800 23.78800
H  -5.72600 25.70000 31.46400
H  -8.35500 24.75300 30.65200
H  -6.70200 23.72800 32.24000
H  -6.08200 22.77400 30.84500
H  -7.75600 22.72000 31.21300
H  -8.50000 26.95500 31.32700
H  -7.28200 28.09500 30.78500
H  -8.08000 27.86100 33.29700
H  -6.29600 28.14700 33.00600
H  -10.14400 20.60700 26.79200
H  -9.93500 21.59300 28.17600
H  -8.69000 20.37900 27.67100
H  -10.51300 19.85800 23.31900
H  -10.91000 20.85300 24.79000
H  -9.63400 19.69000 24.86200
H  -6.85400 25.74300 21.26600
H  -4.12700 26.79600 21.85100
H  -4.18000 24.73700 20.86500
H  -5.84200 23.93000 20.34600
H  -5.02700 23.44600 21.76000
H  -5.82400 28.84000 22.34100
H  -6.74500 27.81800 21.18100
H  -4.31100 27.99300 19.90200
H  -4.15900 29.36100 21.01100
H  -5.52800 29.30000 19.84700
H  -1.67100 29.94500 26.22400
H  -3.14600 31.16100 25.99100
H  -2.49700 30.13600 24.76200
H  -4.95000 28.91500 30.68900
H  -1.91800 28.68400 33.46200
H  -1.67100 27.15100 32.60500
H  -2.93300 27.21300 33.74100

