158

Mg 36.13300 1.90300 30.01400
C  33.77700 3.07900 32.32600
C  38.48200 1.68300 32.35700
C  38.28000 1.08700 27.55000
C  33.59300 2.42400 27.44200
N  36.07300 2.18200 32.19900
C  34.96200 2.65900 32.91900
C  35.30200 2.69400 34.37400
C  36.92300 2.56400 34.35400
C  37.20300 2.11700 32.90700
C  37.75800 3.82700 34.60400
C  34.62400 1.57400 35.20000
C  34.09200 1.82300 36.68100
H  34.61000 3.07600 37.33200
N  38.05500 1.29600 30.02300
C  38.93100 1.31000 31.12600
C  40.20400 0.84900 30.71200
C  40.12600 0.54500 29.30000
C  38.79200 1.04200 28.84900
C  41.28800 0.60200 31.77200
C  41.13800 -0.12300 28.45100
O  40.87000 -0.51400 27.28900
C  42.47500 -0.48200 28.97500
N  35.99300 1.64200 27.76600
C  37.01200 1.35400 26.99200
C  36.66200 1.47700 25.49600
C  35.16000 1.53000 25.51600
C  34.86500 1.95800 26.97800
C  37.23900 2.85900 25.00000
C  34.46700 0.11200 25.22400
C  33.59800 0.08900 24.00400
N  34.15000 2.43300 29.94600
C  33.24700 2.58800 28.83300
C  31.99200 3.05100 29.30000
C  32.15900 3.17200 30.67300
C  33.50100 2.87700 30.97100
C  30.81200 3.38100 28.48600
C  31.44200 3.63600 31.82900
O  30.32000 4.08200 32.05400
C  32.45000 3.58900 32.99900
C  32.45200 4.89600 33.62300
O  33.12900 5.85000 33.25900
O  31.70000 4.93200 34.77600
C  32.03300 6.07600 35.70200
H  39.23100 1.64900 33.15100
H  39.07500 0.83200 26.84700
H  32.81300 2.55300 26.68900
H  35.07400 3.66900 34.80500
H  37.34200 1.75100 34.94700
H  38.75400 3.60800 34.99000
H  37.32700 4.57200 35.27200
H  37.84200 4.32200 33.63700
H  35.32100 0.73600 35.17800
H  33.84900 1.17100 34.54700
H  34.25200 1.09600 37.47700
H  33.02300 1.91100 36.48600
H  40.95600 0.65500 32.80900
H  41.97800 1.43100 31.61800
H  41.83000 -0.32300 31.57400
H  42.76900 0.28600 29.69100
H  43.13200 -0.43300 28.10600
H  42.55000 -1.52500 29.28100
H  37.05000 0.62400 24.93800
H  34.75000 2.37500 24.96200
H  38.18100 2.66800 24.48600
H  37.34200 3.68800 25.70000
H  36.66400 3.33500 24.20600
H  33.74300 -0.08000 26.01500
H  35.19100 -0.70100 25.18200
H  32.68000 -0.49100 24.09900
H  34.03900 -0.36900 23.11900
H  33.32100 1.11800 23.77500
H  31.10400 4.26800 27.92300
H  30.01900 3.68900 29.16700
H  30.65600 2.45700 27.93000
H  31.96400 2.86200 33.64900
H  31.70800 7.02500 35.27400
H  33.07200 6.05500 36.03200
H  31.46400 5.87800 36.61100
Mg 16.77400 50.84800 27.17000
C  18.61600 49.66400 29.80400
C  14.32300 52.08400 29.31000
C  14.80700 51.78800 24.54000
C  18.90000 49.13900 24.91700
N  16.47200 50.75400 29.30700
C  17.40200 50.34100 30.18600
C  16.93600 50.74700 31.62100
C  15.43400 51.21100 31.48800
C  15.32600 51.26400 29.92700
C  14.42500 50.14200 32.02300
C  17.87000 51.81600 32.24100
C  17.96300 51.93500 33.78400
H  17.20200 50.96300 34.70300
N  14.93300 51.94000 26.96700
C  14.09500 52.39900 27.96200
C  13.02400 53.21000 27.37800
C  13.13100 53.11700 25.98800
C  14.28700 52.24800 25.75500
C  12.02300 53.91100 28.31400
C  12.35800 53.92500 24.96600
O  12.60900 53.84100 23.77400
C  11.17400 54.79000 25.34500
N  16.76600 50.48500 25.00500
C  15.86100 50.94800 24.15700
C  16.14800 50.58000 22.65800
C  17.58500 50.00800 22.76300
C  17.79400 49.84100 24.31600
C  15.04600 49.67600 21.93100
C  18.64100 50.92900 22.07500
C  19.79100 50.22500 21.32400
N  18.41500 49.59500 27.30100
C  19.25200 49.05100 26.30700
C  20.31600 48.42300 27.01100
C  20.10900 48.54300 28.36900
C  18.90700 49.36900 28.48600
C  21.36500 47.61900 26.32800
C  20.56900 48.30200 29.62200
O  21.62700 47.74000 29.91400
C  19.58800 48.96200 30.67500
C  18.93300 47.86200 31.43700
O  18.04000 47.16600 30.99600
O  19.51400 47.59800 32.61800
C  19.00700 46.38700 33.28500
H  13.53300 52.52700 29.92100
H  14.20300 52.19500 23.72600
H  19.52500 48.63000 24.18000
H  17.06800 49.88700 32.27800
H  15.24400 52.11100 32.07200
H  14.94300 49.23300 32.32800
H  13.70700 50.04700 31.20900
H  13.86600 50.44100 32.90900
H  17.55200 52.83200 32.00900
H  18.86500 51.83000 31.79700
H  17.75700 52.97300 34.04300
H  19.00300 51.70000 34.00700
H  11.73100 54.91900 28.01900
H  12.38200 54.12300 29.32100
H  11.10900 53.33300 28.45000
H  10.50200 54.04300 25.76700
H  10.81200 54.99900 24.33800
H  11.53000 55.65300 25.90800
H  16.11000 51.55300 22.16700
H  17.56900 49.09000 22.17500
H  14.40500 50.30900 21.31700
H  14.49500 49.11900 22.68900
H  15.46900 49.01500 21.17500
H  19.19800 51.59400 22.73500
H  18.10600 51.54800 21.35400
H  20.73900 50.50600 21.78300
H  19.97300 50.51100 20.28800
H  19.67300 49.14300 21.39200
H  21.12300 47.44800 25.27900
H  21.56900 46.67400 26.83100
H  22.25700 48.24100 26.40300
H  20.07200 49.68000 31.33700
H  17.98300 46.47300 33.64800
H  19.61700 46.16400 34.16100
H  19.22500 45.45800 32.75800

