158

Mg 0.93600 8.01500 24.91400
C  2.04300 9.93600 27.68800
C  0.69000 5.34700 26.92600
C  0.65200 6.24700 22.22300
C  1.35600 10.97800 22.92400
N  1.58700 7.68600 27.07100
C  1.81600 8.63300 27.99500
C  1.70400 8.05300 29.42000
C  1.61400 6.53500 29.12700
C  1.20100 6.50700 27.62300
C  2.96300 5.74600 29.28900
C  0.56900 8.65800 30.38200
C  1.05200 9.13500 31.71100
H  2.01300 8.28600 32.49100
N  0.57100 6.15900 24.54400
C  0.41700 5.16600 25.53100
C  0.20800 3.84200 24.81200
C  0.33300 4.08900 23.40800
C  0.45600 5.55900 23.36000
C  -0.00500 2.45300 25.53500
C  0.19800 3.13000 22.18900
O  0.27700 3.52700 21.04600
C  -0.08900 1.59600 22.46400
N  1.01600 8.56600 22.83400
C  0.91400 7.60000 21.89100
C  1.34800 8.23300 20.51900
C  1.19700 9.71900 20.70400
C  1.18300 9.79900 22.18900
C  2.76500 7.71200 20.22600
C  -0.13100 10.31700 20.13400
C  -1.52500 9.63900 20.38200
N  1.48700 10.08700 25.17500
C  1.59800 11.12000 24.27900
C  1.98300 12.33900 25.06300
C  2.03000 11.96600 26.40900
C  1.89300 10.53900 26.40100
C  2.13400 13.71200 24.46800
C  2.29900 12.43300 27.73000
O  2.50900 13.53400 28.17300
C  2.21000 11.12800 28.64300
C  3.31900 11.06300 29.54300
O  4.41900 10.48100 29.41200
O  3.08300 11.96300 30.57300
C  4.27100 12.07600 31.47800
H  0.54200 4.50200 27.60300
H  0.62100 5.82500 21.21600
H  1.52100 11.86700 22.31000
H  2.60500 8.32400 29.97000
H  0.74600 6.10000 29.62200
H  2.73000 4.86600 29.88900
H  3.68600 6.36700 29.81600
H  3.36500 5.43000 28.32700
H  -0.16300 7.86900 30.55500
H  0.17800 9.56000 29.91100
H  0.20300 9.39000 32.34500
H  1.49000 10.13200 31.66900
H  -0.82600 1.87000 25.11700
H  -0.18100 2.54500 26.60700
H  0.83800 1.80000 25.30800
H  0.78000 1.05700 22.84200
H  -0.42300 1.14700 21.52900
H  -0.93000 1.52600 23.15300
H  0.61300 8.01900 19.74300
H  2.05800 10.21500 20.25600
H  3.24100 7.06500 20.96200
H  3.44500 8.53000 19.99300
H  2.69500 7.21800 19.25700
H  0.11900 10.49900 19.08900
H  -0.29300 11.26700 20.64300
H  -1.41000 8.70600 20.93400
H  -1.91200 9.52700 19.37000
H  -2.24200 10.29600 20.87400
H  1.19000 14.01700 24.01600
H  2.91800 13.59100 23.72100
H  2.35700 14.36700 25.31000
H  1.32800 11.32600 29.25200
H  3.93000 12.75800 32.25700
H  5.13800 12.46900 30.94700
H  4.47800 11.12300 31.96700
Mg 9.30100 3.95900 27.17000
C  10.33700 2.36800 30.03100
C  7.19200 5.85100 29.00600
C  7.89600 4.91400 24.30000
C  10.46200 1.01700 25.31500
N  8.65300 3.99600 29.29100
C  9.43700 3.43900 30.24800
C  9.09200 4.00800 31.61100
C  7.84400 4.95100 31.35900
C  7.89400 5.03200 29.82400
C  6.45700 4.48500 31.93900
C  10.36200 4.51100 32.33000
C  10.06300 5.26000 33.60500
H  11.14600 5.29400 34.68200
N  7.79600 5.29500 26.71300
C  6.98600 5.98100 27.62500
C  6.20300 6.94800 26.84300
C  6.50600 6.76300 25.50400
C  7.46500 5.57900 25.43200
C  5.22200 7.95200 27.48900
C  6.00300 7.54900 24.25700
O  6.49200 7.37000 23.17300
C  4.88200 8.55900 24.49100
N  9.19600 2.97800 25.07500
C  8.56600 3.70500 24.11000
C  8.88400 3.13900 22.72900
C  9.62300 1.85700 23.01000
C  9.81900 1.89800 24.52800
C  7.76100 3.22500 21.64700
C  10.88200 1.46200 22.25200
C  10.99300 0.07800 21.47700
N  10.30900 2.20100 27.56600
C  10.72500 1.18200 26.69400
C  11.46900 0.17900 27.46300
C  11.42500 0.65100 28.76900
C  10.62500 1.84200 28.79800
C  12.20700 -1.03000 26.89400
C  11.87300 0.42100 30.09300
O  12.56700 -0.44400 30.60800
C  11.10700 1.46600 30.97500
C  10.14900 0.79400 31.88300
O  9.14600 0.15300 31.55200
O  10.70500 0.90600 33.21800
C  9.90500 0.41700 34.30600
H  6.54800 6.46900 29.63400
H  7.69400 5.34500 23.31700
H  10.85500 0.20000 24.70700
H  8.86500 3.15100 32.24500
H  8.10000 5.88500 31.85800
H  6.47500 3.46700 32.32800
H  5.74700 4.46000 31.11200
H  5.95300 5.08800 32.69400
H  11.09100 5.04800 31.72400
H  10.96600 3.64700 32.60600
H  9.23500 4.75900 34.10700
H  9.78300 6.26800 33.30100
H  4.23900 7.68300 27.10300
H  5.53600 8.93800 27.14600
H  5.30500 7.83000 28.56900
H  4.12300 8.16600 25.16800
H  4.34000 8.69900 23.55600
H  5.31200 9.47000 24.90800
H  9.65300 3.75000 22.25600
H  8.89900 1.04400 22.94200
H  6.88700 3.63100 22.15700
H  7.38400 2.29900 21.21400
H  8.06600 3.86900 20.82200
H  11.67700 1.47900 22.99700
H  11.24200 2.27000 21.61600
H  10.00000 -0.36500 21.41300
H  11.75900 -0.55200 21.93000
H  11.32500 0.19800 20.44600
H  13.29000 -0.97800 27.00200
H  12.02100 -1.13300 25.82500
H  11.84100 -1.90500 27.43300
H  11.81300 2.01000 31.60300
H  10.06700 1.04300 35.18400
H  10.41600 -0.45100 34.72300
H  8.84100 0.20900 34.19400

