158

Mg 35.69500 0.83100 30.16100
C  33.31800 1.99800 32.39400
C  38.00200 1.07800 32.54700
C  37.75800 -0.08200 27.88800
C  33.22600 1.35300 27.57800
N  35.71200 1.75800 32.25200
C  34.59500 1.83400 33.03700
C  34.97500 1.75800 34.54700
C  36.52700 1.87800 34.47100
C  36.76400 1.51500 33.01900
C  36.98500 3.33200 34.74600
C  34.50700 0.40200 35.17700
C  33.51300 0.57600 36.37400
H  33.99900 1.63300 37.42300
N  37.62500 0.42000 30.22300
C  38.41500 0.59200 31.30000
C  39.74600 0.11900 30.92500
C  39.68900 -0.24000 29.49800
C  38.28600 0.05200 29.14500
C  40.88100 -0.08900 31.86000
C  40.76400 -0.93300 28.54400
O  40.52600 -1.40900 27.42400
C  42.19000 -1.15700 29.04900
N  35.49300 0.57600 28.03900
C  36.51200 0.17100 27.35300
C  36.16300 0.00900 25.85900
C  34.63500 0.36000 25.82900
C  34.42600 0.77700 27.26200
C  37.07400 0.93500 24.94400
C  33.65900 -0.79500 25.36700
C  32.84300 -0.60400 24.07500
N  33.70400 1.62700 29.96000
C  32.87500 1.84300 28.84900
C  31.60000 2.38900 29.31300
C  31.68200 2.23000 30.73900
C  33.02100 1.94200 31.02800
C  30.42600 2.70800 28.48300
C  30.96400 2.30700 31.96100
O  29.77400 2.49200 32.04900
C  31.96100 2.19100 33.09700
C  32.02100 3.46600 33.81800
O  32.59500 4.49000 33.51100
O  31.33000 3.25800 34.97800
C  31.23000 4.40900 35.88600
H  38.82300 1.14600 33.26400
H  38.40800 -0.47100 27.10100
H  32.46000 1.30100 26.80200
H  34.61600 2.67200 35.02100
H  37.11200 1.11200 34.97900
H  36.74900 3.98400 33.90600
H  38.04800 3.29800 34.98500
H  36.56700 3.71200 35.67800
H  35.29900 -0.29100 35.46100
H  34.02500 -0.17900 34.39100
H  33.54400 -0.31800 36.99800
H  32.49000 0.70400 36.02000
H  41.72600 0.41300 31.38900
H  41.09000 -1.12300 32.13600
H  40.77900 0.46500 32.79300
H  42.74300 -1.71500 28.29300
H  42.15300 -1.86300 29.87900
H  42.51200 -0.17000 29.37900
H  36.17000 -1.06700 25.68900
H  34.29700 1.19300 25.21200
H  37.50400 1.65800 25.63800
H  36.39500 1.40500 24.23300
H  37.73500 0.35000 24.30500
H  32.98100 -1.07900 26.17200
H  34.16900 -1.75200 25.26200
H  33.31100 0.27300 23.62900
H  31.77500 -0.45300 24.23200
H  32.88300 -1.38300 23.31400
H  30.64200 2.58900 27.42100
H  30.14500 3.74600 28.65800
H  29.56100 2.12500 28.79700
H  31.70300 1.34600 33.73600
H  32.25400 4.46400 36.25700
H  30.54500 4.16300 36.69800
H  30.83900 5.33100 35.45500
Mg 47.51700 24.75700 29.10200
C  48.05100 27.20200 31.62500
C  46.56000 22.55200 31.52700
C  47.18100 22.32500 26.77200
C  48.92200 26.82700 26.78200
N  47.40000 24.90100 31.31600
C  47.59700 25.98000 32.10700
C  47.19500 25.71300 33.60700
C  46.83600 24.14500 33.52500
C  46.81600 23.84700 32.00900
C  47.83900 23.17800 34.34000
C  46.05800 26.65000 34.13200
C  46.28400 27.37800 35.47200
H  45.20700 27.24500 36.53800
N  46.81600 22.79300 29.10300
C  46.51100 22.08900 30.22400
C  46.20400 20.69200 29.88400
C  46.29400 20.64800 28.46400
C  46.79200 22.00400 28.06400
C  45.72300 19.51700 30.78300
C  46.00900 19.46500 27.52200
O  45.89500 19.55800 26.27800
C  45.76100 18.07900 28.03200
N  48.09100 24.57300 27.11300
C  47.82700 23.50800 26.32200
C  48.08800 23.76100 24.85800
C  48.32300 25.27600 24.87900
C  48.41200 25.61300 26.37300
C  49.31200 23.01000 24.30600
C  47.22200 26.05300 24.13000
C  45.80900 26.16500 24.75500
N  48.37000 26.67100 29.10500
C  48.93500 27.40200 28.10600
C  49.21100 28.76300 28.60200
C  48.88700 28.72200 29.92100
C  48.41600 27.41100 30.23200
C  49.84400 29.81500 27.77800
C  48.91800 29.45400 31.12700
O  49.29900 30.57300 31.29900
C  48.45300 28.47900 32.33800
C  49.62600 28.21900 33.24500
O  50.64400 27.71900 32.87700
O  49.30200 28.74700 34.42600
C  50.15400 28.20700 35.50400
H  46.33700 21.82500 32.31100
H  47.02800 21.61000 25.96100
H  49.38800 27.55500 26.11500
H  48.00800 25.91100 34.30400
H  45.81500 23.96700 33.86300
H  48.55000 22.64700 33.70700
H  47.38100 22.38200 34.92800
H  48.51100 23.77300 34.95900
H  45.19800 25.99400 34.26800
H  45.76600 27.38400 33.38200
H  46.46300 28.41600 35.18900
H  47.26000 27.14900 35.89900
H  46.40700 18.66900 30.80000
H  44.69300 19.27000 30.52300
H  45.83400 19.87300 31.80700
H  46.62200 17.86400 28.66500
H  45.82200 17.31800 27.25400
H  44.76000 18.04500 28.46400
H  47.20700 23.61100 24.23400
H  49.26400 25.51800 24.38300
H  50.18300 23.37100 24.85300
H  49.58700 23.14500 23.26000
H  49.08400 21.96100 24.49000
H  47.10700 25.66700 23.11700
H  47.69900 27.02900 24.03600
H  46.02400 27.06500 25.33200
H  45.54000 25.40100 25.48400
H  45.03400 26.35300 24.01200
H  49.49300 30.81300 28.04300
H  49.72300 29.63600 26.71000
H  50.90900 29.85200 28.00500
H  47.61900 28.95900 32.85000
H  51.10900 28.73300 35.48900
H  50.28500 27.13500 35.36100
H  49.61600 28.29900 36.44700

