158

Mg 35.29900 48.32400 25.82200
C  35.83400 46.45600 28.70600
C  34.06900 50.81000 27.76000
C  34.67800 49.99300 23.00800
C  36.25100 45.39800 23.90800
N  34.87400 48.50900 27.99200
C  35.38000 47.74800 29.01200
C  35.15400 48.38800 30.42000
C  34.29900 49.59000 30.05800
C  34.45300 49.65100 28.48400
C  32.85800 49.54100 30.62200
C  36.47800 48.63100 31.10200
C  36.41100 48.46700 32.69400
H  35.06200 48.59100 33.37000
N  34.62100 50.24500 25.44500
C  34.15100 51.13000 26.32400
C  33.94700 52.37000 25.68900
C  34.07300 52.13900 24.28200
C  34.38100 50.70800 24.19400
C  33.72100 53.62200 26.45000
C  33.90200 53.14900 23.09400
O  33.97000 52.82700 21.90400
C  33.59600 54.57000 23.40400
N  35.39200 47.75100 23.85700
C  35.16400 48.68300 22.82700
C  35.16000 48.01500 21.44600
C  35.99200 46.71900 21.77600
C  35.81300 46.57000 23.26500
C  33.75800 47.70700 20.84500
C  37.52000 46.89300 21.42700
C  38.08700 45.72400 20.62400
N  35.88200 46.33000 26.20900
C  36.30300 45.30400 25.33300
C  36.79200 44.23400 26.13800
C  36.62300 44.56300 27.47200
C  36.02300 45.87600 27.47200
C  37.40300 42.93800 25.69700
C  36.84100 44.14000 28.83500
O  37.20100 43.05800 29.28800
C  36.28500 45.30300 29.72200
C  35.26600 44.75700 30.60000
O  34.06800 44.75300 30.31100
O  35.72200 44.57100 31.84400
C  34.80200 44.42500 32.95500
H  33.67700 51.62200 28.37700
H  34.35100 50.49400 22.09400
H  36.80000 44.60600 23.39500
H  34.59800 47.67800 31.03100
H  34.67500 50.53100 30.46000
H  32.04800 49.45600 29.89800
H  32.57500 50.43500 31.17800
H  32.74800 48.73300 31.34600
H  36.89200 49.53500 30.65400
H  37.13200 47.84600 30.72400
H  36.96400 49.29000 33.14700
H  36.84600 47.51400 32.99200
H  34.48600 54.31400 26.09800
H  33.81300 53.42700 27.51800
H  32.76200 54.05600 26.17000
H  33.62900 55.21400 22.52600
H  34.32500 54.88200 24.15200
H  32.57900 54.45000 23.78000
H  35.64400 48.68000 20.73000
H  35.53700 45.81800 21.36500
H  33.72000 46.61900 20.80500
H  33.53400 48.15600 19.87700
H  32.93600 48.02000 21.48800
H  38.09100 46.85900 22.35500
H  37.64600 47.90100 21.03200
H  37.59100 45.71800 19.65300
H  37.81800 44.75800 21.05000
H  39.14400 45.97400 20.52800
H  36.71100 42.09600 25.69300
H  38.30500 42.67600 26.25000
H  37.73800 43.03800 24.66500
H  37.13300 45.55000 30.36100
H  35.24800 45.08000 33.70400
H  34.91700 43.39000 33.27500
H  33.73800 44.63200 32.83900
Mg -10.05900 39.81200 40.29800
C  -9.27800 36.55400 39.40500
C  -7.02100 40.95800 39.24600
C  -11.27600 43.03600 40.36900
C  -13.48100 38.75200 40.62000
N  -8.36500 38.88200 39.24100
C  -8.24800 37.50300 39.13000
C  -6.74000 37.12800 38.97200
C  -6.02300 38.49200 39.11200
C  -7.13300 39.53500 39.23100
C  -4.90500 38.58800 40.26700
C  -6.50500 36.33500 37.65400
C  -6.98200 37.05200 36.39900
H  -7.69900 36.25500 35.32400
N  -9.26900 41.81700 39.83300
C  -7.98600 41.98300 39.34500
C  -7.76200 43.43600 39.11000
C  -9.06200 44.07700 39.39900
C  -9.97600 42.97100 39.89700
C  -6.41800 44.04300 38.59400
C  -9.44700 45.50000 39.30300
O  -8.56600 46.34700 39.06400
C  -10.87600 46.05300 39.57900
N  -12.10400 40.72500 40.58500
C  -12.24300 42.04600 40.58500
C  -13.75600 42.41900 40.85100
C  -14.51900 41.05500 41.00000
C  -13.27500 40.13800 40.77800
C  -13.93100 43.46100 42.00100
C  -15.61700 40.78600 39.99400
C  -16.99400 40.68100 40.48700
N  -11.17200 38.00800 40.22800
C  -12.51000 37.77200 40.31400
C  -12.71600 36.41700 40.09100
C  -11.46300 35.87200 39.84600
C  -10.54400 36.91700 39.87100
C  -14.01700 35.72000 40.11500
C  -10.78400 34.65600 39.53100
O  -11.23300 33.47700 39.36400
C  -9.24600 35.00200 39.43700
C  -8.60000 34.38900 40.59700
O  -9.06800 34.23800 41.72600
O  -7.29700 34.07700 40.34800
C  -6.53200 33.56000 41.50000
H  -6.09700 41.49900 39.46200
H  -11.55600 44.07900 40.52800
H  -14.47100 38.30400 40.51000
H  -6.31600 36.56600 39.80400
H  -5.41800 38.75000 38.24300
H  -5.22600 39.32300 41.00600
H  -3.99900 38.92400 39.76400
H  -4.68100 37.61200 40.69700
H  -6.87800 35.31800 37.77400
H  -5.41500 36.29700 37.64000
H  -6.07900 37.45500 35.94000
H  -7.59600 37.91100 36.67000
H  -6.53200 44.99400 38.07300
H  -5.89000 43.39400 37.89500
H  -5.70800 44.17500 39.41000
H  -11.06600 46.15300 40.64800
H  -11.68300 45.53600 39.06000
H  -10.90400 47.04800 39.13600
H  -14.18900 42.88700 39.96700
H  -14.91500 41.00200 42.01500
H  -14.53700 43.12400 42.84300
H  -14.37700 44.32700 41.51300
H  -12.96400 43.76900 42.39700
H  -15.36900 39.90700 39.39900
H  -15.48700 41.57100 39.25000
H  -16.93800 40.90300 41.55200
H  -17.50800 39.75000 40.24600
H  -17.59500 41.50100 40.09300
H  -14.33300 35.81500 41.15400
H  -13.99800 34.70300 39.72300
H  -14.64600 36.38900 39.52700
H  -9.02700 34.59900 38.44800
H  -5.58500 33.12000 41.18800
H  -7.15400 32.75200 41.88500
H  -6.30200 34.32000 42.24800

