158

Mg 0.07600 8.17200 26.72700
C  0.79000 10.40500 29.33100
C  -0.41300 5.71100 29.03000
C  0.06700 5.91500 24.14600
C  0.79600 10.70000 24.43100
N  0.36800 7.99500 28.92700
C  0.56900 9.05100 29.76300
C  0.24800 8.69000 31.27300
C  0.09100 7.14700 31.10100
C  0.04500 6.90800 29.58400
C  1.25800 6.26200 31.73400
C  -1.05200 9.40600 31.76100
C  -1.23500 9.60200 33.27200
H  -0.03600 9.30700 34.11000
N  -0.11100 6.14300 26.57600
C  -0.48500 5.35700 27.68700
C  -0.73600 4.05800 27.17800
C  -0.67800 4.05200 25.73200
C  -0.19200 5.40500 25.38900
C  -1.04400 2.88300 28.16200
C  -0.98900 2.96400 24.70300
O  -0.89700 3.03000 23.49300
C  -1.49100 1.65500 25.18900
N  0.64500 8.27300 24.61200
C  0.41400 7.23300 23.72700
C  0.67500 7.57900 22.31500
C  0.50000 9.21600 22.31600
C  0.59700 9.44900 23.87000
C  1.90000 6.99300 21.65200
C  -0.81500 9.71800 21.74200
C  -0.69400 10.88900 20.73300
N  0.71400 10.10600 26.70300
C  0.85200 11.09700 25.76800
C  1.19300 12.33300 26.36300
C  1.10200 12.10600 27.71200
C  0.80200 10.77000 27.92500
C  1.38000 13.63900 25.64600
C  1.24700 12.76100 29.01500
O  1.55300 13.87200 29.28300
C  1.11000 11.67000 30.12700
C  2.34600 11.66300 30.90000
O  3.37400 11.09000 30.53300
O  2.14500 12.30800 32.10600
C  3.28600 12.34100 33.06800
H  -0.74600 5.02700 29.81400
H  -0.09200 5.29800 23.26000
H  0.66600 11.57000 23.78300
H  1.16500 8.94900 31.80200
H  -0.80000 6.74900 31.58800
H  0.90600 5.46600 32.39100
H  1.88100 6.94800 32.30800
H  1.91200 5.83100 30.97700
H  -1.84200 8.72100 31.45400
H  -1.26100 10.36700 31.29100
H  -2.04400 8.93800 33.57600
H  -1.56600 10.61900 33.48300
H  -0.82600 3.00700 29.22300
H  -0.63400 1.95700 27.75800
H  -2.12500 2.75900 28.21500
H  -1.85500 1.15000 24.29400
H  -2.35500 1.79900 25.83800
H  -0.68200 1.26200 25.80400
H  -0.11000 7.11300 21.72000
H  1.38200 9.65600 21.84900
H  2.61800 6.78600 22.44600
H  2.26200 7.59900 20.82200
H  1.67000 6.00500 21.25400
H  -1.48400 10.11800 22.50400
H  -1.20400 8.81200 21.27900
H  0.28900 10.99600 20.27300
H  -0.92200 11.83000 21.23300
H  -1.40200 10.74200 19.91700
H  0.86000 13.70800 24.69100
H  2.41600 13.95500 25.52900
H  1.09900 14.45700 26.31000
H  0.25200 11.91800 30.75100
H  4.12800 12.51200 32.39600
H  3.37900 11.32200 33.44200
H  3.09300 12.97300 33.93500
Mg 1.43800 43.05200 25.18100
C  2.91200 43.12800 28.40500
C  -1.47100 42.03000 26.55100
C  0.09100 42.70500 22.01000
C  4.52600 43.87700 23.83600
N  0.83500 42.69800 27.28000
C  1.53600 42.78900 28.44600
C  0.58600 42.40900 29.67400
C  -0.75100 41.87600 28.95000
C  -0.45400 42.17800 27.50900
C  -1.09700 40.36700 29.07500
C  0.44500 43.66500 30.57100
C  0.88500 43.54600 31.98100
H  0.29000 42.28600 32.71100
N  -0.38800 42.52000 24.42100
C  -1.46100 42.09100 25.17200
C  -2.55800 41.80700 24.30500
C  -2.12100 42.00900 22.98400
C  -0.78300 42.42600 23.10700
C  -3.95500 41.43100 24.79500
C  -2.84500 41.89300 21.60900
O  -2.34900 42.08900 20.50100
C  -4.36500 41.47300 21.57700
N  2.19200 43.49700 23.23900
C  1.45700 43.15500 22.10300
C  2.33800 43.18400 20.84200
C  3.56800 43.85100 21.45200
C  3.43600 43.83200 22.94800
C  2.76000 41.76000 20.35500
C  3.89400 45.22600 20.80700
C  2.72600 46.23800 20.81000
N  3.38300 43.46800 25.91300
C  4.56900 43.74500 25.21500
C  5.65100 43.70900 26.21500
C  5.04700 43.53400 27.46800
C  3.67200 43.42200 27.26000
C  7.03700 44.23700 26.05400
C  5.28200 43.46200 28.90700
O  6.30800 43.48600 29.51100
C  3.92000 43.25000 29.57600
C  4.12800 42.04100 30.35600
O  4.17900 40.92600 29.87500
O  4.01800 42.33000 31.68800
C  4.11100 41.06700 32.59400
H  -2.40500 41.72600 27.02700
H  -0.18400 42.49700 20.97300
H  5.42500 44.12200 23.26600
H  1.01100 41.62800 30.30400
H  -1.58900 42.51500 29.22800
H  -0.56700 39.79200 29.83400
H  -0.93300 39.97400 28.07200
H  -2.16700 40.24900 29.25100
H  -0.50200 44.19800 30.48300
H  1.15300 44.40400 30.19800
H  0.51800 44.38500 32.57300
H  1.96800 43.46600 32.06700
H  -4.60500 42.29300 24.94100
H  -3.87000 40.95400 25.77200
H  -4.38800 40.69800 24.11400
H  -4.39200 40.47500 22.01300
H  -4.74000 41.39400 20.55600
H  -4.87800 42.24000 22.15700
H  1.83100 43.79500 20.09500
H  4.48100 43.33200 21.16100
H  1.83500 41.24200 20.10300
H  3.21500 41.18900 21.16500
H  3.38200 42.00500 19.49400
H  4.16100 44.93300 19.79200
H  4.77300 45.63000 21.30900
H  2.34600 46.46600 19.81400
H  2.90200 47.16400 21.35600
H  1.86000 45.79300 21.29900
H  7.73100 43.44700 25.76900
H  7.32000 44.70900 26.99500
H  6.84500 45.03800 25.34000
H  3.67300 44.13800 30.15900
H  3.40700 40.32900 32.21000
H  3.98800 41.24200 33.66300
H  5.04500 40.52900 32.43300

