158

Mg 52.40000 24.55600 45.23100
C  49.71900 26.59200 44.25900
C  50.47100 21.75700 44.43700
C  55.24600 22.72400 45.19000
C  54.25600 27.43900 45.91200
N  50.42800 24.21900 44.14300
C  49.46900 25.22200 44.04200
C  48.08700 24.69000 43.70600
C  48.26000 23.16000 44.31700
C  49.83900 23.00900 44.26500
C  47.58700 22.86200 45.69300
C  47.74100 24.65600 42.19300
C  48.82600 24.17700 41.18300
H  48.94700 24.95600 39.87900
N  52.88400 22.47100 44.84500
C  51.83600 21.50800 44.63800
C  52.51000 20.22800 44.59300
C  53.93100 20.42500 44.76900
C  54.10800 21.91800 44.98200
C  51.70100 18.95400 44.14300
C  55.01900 19.33900 44.83800
O  54.75100 18.11900 44.76300
C  56.35000 19.68900 44.96000
N  54.48900 25.03900 45.48900
C  55.44800 24.06900 45.45300
C  56.79800 24.67400 45.53800
C  56.52300 26.18500 45.67300
C  54.95400 26.29800 45.65500
C  57.74200 24.04900 46.58400
C  57.40000 27.12100 44.74700
C  58.23000 28.23300 45.52900
N  52.06900 26.55100 45.30400
C  52.88600 27.59100 45.71000
C  52.11900 28.79500 45.76100
C  50.90100 28.47500 45.16000
C  50.88200 27.09800 44.87600
C  52.38400 30.11600 46.36700
C  49.66300 28.98500 44.70700
O  49.19600 30.16000 44.72600
C  48.80900 27.75000 44.22000
C  48.16800 28.14700 42.92100
O  48.80500 28.18000 41.84100
O  46.82000 28.14800 43.03600
C  45.97900 28.39800 41.91100
H  49.85600 20.85500 44.45400
H  56.18400 22.16700 45.15400
H  54.84200 28.35200 46.04200
H  47.32000 25.17100 44.31200
H  47.80700 22.48300 43.59300
H  46.99500 23.71300 46.03200
H  48.42000 22.55500 46.32500
H  46.87500 22.08000 45.42900
H  47.45600 25.66700 41.90300
H  46.83200 24.07500 42.03800
H  48.51800 23.15300 40.97000
H  49.82100 24.13600 41.62500
H  51.26600 18.48100 45.02400
H  52.37700 18.24600 43.66400
H  50.88600 19.11100 43.43800
H  56.97900 18.87200 44.60500
H  56.69400 19.87400 45.97800
H  56.64300 20.44800 44.23400
H  57.31300 24.47600 44.59800
H  56.75900 26.35300 46.72400
H  58.39400 24.81300 47.00800
H  58.43400 23.32300 46.15800
H  57.16900 23.64300 47.41800
H  56.81000 27.67500 44.01700
H  58.05000 26.37500 44.29000
H  59.26400 28.17200 45.18900
H  58.13600 28.22400 46.61500
H  57.89700 29.15900 45.06100
H  53.15200 29.91400 47.11300
H  51.50000 30.39200 46.94100
H  52.70300 30.72400 45.52000
H  47.91300 27.59200 44.82100
H  44.96500 27.99900 41.94700
H  46.40400 28.03700 40.97400
H  45.87000 29.48000 41.84100
Mg 46.85200 46.48000 43.91000
C  43.51900 46.40200 43.04500
C  47.19100 43.35200 42.30600
C  50.08700 46.64700 44.43200
C  46.49500 49.96900 44.39200
N  45.60700 45.23500 42.68600
C  44.21400 45.26900 42.64000
C  43.67700 44.25700 41.62800
C  44.79100 43.19200 41.68800
C  46.00500 43.98800 42.22200
C  44.33600 41.93500 42.56100
C  43.34000 44.91400 40.20300
C  42.05500 44.48900 39.56400
H  42.22900 43.42200 38.50500
N  48.40900 45.12800 43.48200
C  48.40900 43.90600 42.78200
C  49.74100 43.35500 42.75600
C  50.61500 44.31600 43.31200
C  49.70500 45.41100 43.80900
C  50.08200 41.97100 42.02000
C  52.11100 44.17100 43.50700
O  52.66300 43.19000 43.10900
C  52.95100 45.37400 43.95000
N  48.08600 48.09400 44.27100
C  49.43900 47.87300 44.60200
C  50.12700 49.24300 45.05200
C  48.95800 50.28100 44.80200
C  47.73800 49.41000 44.45900
C  50.60500 49.27200 46.50200
C  49.25400 51.29700 43.66600
C  49.02800 50.90600 42.18600
N  45.24900 48.00500 43.92600
C  45.26900 49.36600 44.06800
C  43.89700 49.81400 44.05800
C  43.15400 48.68800 43.66500
C  44.01400 47.61900 43.56200
C  43.48900 51.24100 44.23200
C  41.88700 48.16900 43.26900
O  40.89600 48.76700 43.06600
C  42.01400 46.68900 42.95000
C  41.05800 45.88500 43.74600
O  40.03200 45.49400 43.29500
O  41.46000 45.76400 45.06400
C  40.57100 44.99200 45.93900
H  47.25400 42.37500 41.82300
H  51.08800 46.71800 44.86200
H  46.46600 51.04100 44.59500
H  42.71400 43.86600 41.95700
H  45.09900 42.75300 40.74000
H  44.43200 41.01100 41.99100
H  43.29900 41.94700 42.89700
H  44.88700 41.97900 43.50100
H  44.06500 44.56300 39.46800
H  43.43700 45.99600 40.28800
H  41.58800 45.32900 39.04900
H  41.32100 44.07200 40.25400
H  49.18500 41.44700 41.69000
H  50.62300 41.27100 42.65800
H  50.70400 42.28000 41.18000
H  52.75000 46.27100 43.36400
H  54.00300 45.09100 43.96900
H  52.65500 45.55700 44.98300
H  51.00100 49.48900 44.44900
H  48.67100 50.87100 45.67300
H  51.67500 49.47900 46.49700
H  50.42400 48.33600 47.03100
H  50.14300 50.06200 47.09400
H  50.15500 51.91000 43.69300
H  48.52100 52.09400 43.78400
H  47.97800 50.74600 41.94300
H  49.58600 49.99200 41.98400
H  49.41700 51.69200 41.53800
H  44.29900 51.96900 44.20500
H  42.88600 51.29200 45.13800
H  42.97400 51.41600 43.28700
H  41.67800 46.55000 41.92300
H  40.86400 45.34300 46.92800
H  40.77200 43.93000 46.07500
H  39.52500 45.06600 45.64400

