158

Mg 16.76600 -0.79000 27.43300
C  15.79900 1.23600 30.13300
C  19.03600 -2.36500 29.55300
C  18.04000 -2.31300 24.74500
C  14.86700 1.38100 25.35300
N  17.31800 -0.57300 29.60900
C  16.69300 0.23500 30.48800
C  17.28400 0.01500 31.82300
C  18.43600 -1.00200 31.59400
C  18.30900 -1.29100 30.13000
C  19.90900 -0.66000 32.06600
C  16.20200 -0.51700 32.84500
C  16.29000 0.17600 34.26500
H  17.74500 0.48300 34.72000
N  18.22700 -2.27100 27.18800
C  18.95500 -2.88400 28.17700
C  19.80400 -3.82600 27.58500
C  19.56700 -3.89100 26.19900
C  18.55800 -2.84500 25.96700
C  20.82600 -4.67800 28.53000
C  20.17700 -4.72900 25.15900
O  19.85500 -4.59400 23.98700
C  21.14200 -5.88600 25.52700
N  16.58000 -0.44500 25.34300
C  17.17500 -1.18100 24.44900
C  16.80800 -0.77800 22.97200
C  15.79400 0.35900 23.23500
C  15.69200 0.43100 24.73500
C  18.09500 -0.33300 22.21600
C  14.45900 0.21300 22.46500
C  13.45500 -0.66400 23.21900
N  15.44400 0.86200 27.64100
C  14.72500 1.62900 26.71200
C  14.02700 2.63600 27.39100
C  14.35500 2.46400 28.73300
C  15.31900 1.46500 28.80500
C  13.14200 3.73400 26.79400
C  14.09200 2.99900 30.00700
O  13.30900 3.82900 30.48500
C  15.09500 2.22200 31.02300
C  16.03700 3.08300 31.82100
O  17.19400 3.30000 31.53700
O  15.42300 3.51700 32.95100
C  16.27000 4.29800 33.96100
H  19.63200 -2.94600 30.25900
H  18.38900 -2.89300 23.88800
H  14.22900 1.92800 24.65700
H  17.82500 0.89400 32.17300
H  18.23400 -1.93500 32.11900
H  20.14500 -1.49400 32.72500
H  19.82000 0.31900 32.53700
H  20.60600 -0.62300 31.22800
H  16.10100 -1.59100 33.00100
H  15.26900 -0.09900 32.46600
H  15.79900 -0.33000 35.09600
H  15.70500 1.09200 34.17400
H  20.91200 -4.34100 29.56300
H  21.80800 -4.69700 28.05900
H  20.31000 -5.63800 28.54700
H  22.03100 -5.41300 25.94400
H  21.38800 -6.55300 24.70200
H  20.56200 -6.45100 26.25700
H  16.32200 -1.63600 22.50800
H  16.28500 1.25300 22.85100
H  18.30600 -1.03400 21.40900
H  18.99400 -0.21800 22.82200
H  18.06400 0.58000 21.62200
H  14.81200 -0.25600 21.54700
H  14.01300 1.14900 22.13000
H  13.69300 -1.01600 24.22300
H  13.19300 -1.49900 22.57000
H  12.56300 -0.05100 23.34600
H  12.30600 3.17200 26.37800
H  13.72800 4.16600 25.98300
H  12.83100 4.43600 27.56800
H  14.49800 1.71600 31.78200
H  15.67500 5.17400 34.22000
H  17.20400 4.63500 33.51100
H  16.38400 3.76100 34.90300
Mg 54.83000 24.48500 44.71100
C  52.15700 26.62300 43.56300
C  52.94900 21.80400 43.82400
C  57.56700 22.56200 45.36400
C  56.64100 27.39000 45.37000
N  52.76300 24.24400 43.78900
C  51.85700 25.26400 43.51100
C  50.60000 24.63700 42.92800
C  50.73700 23.15600 43.42600
C  52.21600 23.00000 43.80800
C  49.86400 22.69800 44.62500
C  50.57700 24.79100 41.39800
C  49.13900 24.99000 40.75200
H  48.79300 24.48000 39.34700
N  55.23000 22.48200 44.54200
C  54.34200 21.52900 44.16100
C  54.96700 20.20600 44.20300
C  56.30100 20.48500 44.49900
C  56.41000 21.88300 44.87100
C  54.29600 18.96100 43.73700
C  57.39200 19.41600 44.37900
O  57.04500 18.26500 44.01900
C  58.94400 19.74300 44.56700
N  56.79900 24.94800 45.15900
C  57.72200 23.91700 45.53900
C  59.10800 24.55900 45.97000
C  58.86100 26.06200 45.64200
C  57.35700 26.15900 45.44400
C  59.65700 24.13300 47.46500
C  59.57800 26.65100 44.48800
C  60.97500 27.08200 44.60300
N  54.46900 26.59400 44.51700
C  55.31100 27.67100 44.84300
C  54.61200 28.97500 44.66700
C  53.33600 28.59900 44.18100
C  53.35000 27.18500 44.10100
C  55.13300 30.32300 45.09700
C  52.04100 29.02100 43.64100
O  51.58700 30.16000 43.54900
C  51.33900 27.78500 43.07800
C  51.33900 27.95100 41.63800
O  52.31700 27.78600 40.92400
O  50.11800 28.32700 41.12600
C  50.09500 28.43300 39.71200
H  52.38000 20.89600 43.61200
H  58.40600 21.98200 45.75500
H  57.21000 28.25700 45.71200
H  49.74000 25.09200 43.42000
H  50.56300 22.50100 42.57200
H  50.47300 22.52300 45.51200
H  49.32500 21.77700 44.40300
H  49.27100 23.56200 44.92500
H  50.88200 23.81100 41.03300
H  51.26900 25.55000 41.03300
H  49.07600 26.06800 40.60700
H  48.32600 24.86300 41.46600
H  54.61000 18.68200 42.73200
H  53.22100 19.09400 43.61600
H  54.40000 18.15700 44.46600
H  59.19200 20.76800 44.29200
H  59.44200 18.94800 44.01200
H  59.19700 19.62600 45.62100
H  59.80300 23.96500 45.37600
H  59.20100 26.62200 46.51300
H  60.00600 24.99300 48.03600
H  60.38600 23.32500 47.40400
H  58.88600 23.69700 48.10000
H  58.90300 27.38800 44.05300
H  59.57900 25.82200 43.78100
H  61.13100 28.07700 44.18600
H  61.59800 26.42800 43.99300
H  61.27900 27.24100 45.63800
H  56.18200 30.22400 45.37600
H  54.53400 30.73000 45.91100
H  55.11100 30.92500 44.18900
H  50.33300 27.72900 43.49400
H  49.03800 28.49700 39.45400
H  50.52900 27.59300 39.16900
H  50.46900 29.37600 39.31500

