158

Mg 40.14700 8.26900 29.97800
C  41.48200 9.45300 32.98500
C  37.61300 6.77200 31.69100
C  39.14800 6.93800 27.16100
C  43.09000 9.58200 28.35600
N  39.65300 8.09200 32.05900
C  40.23700 8.82600 33.09000
C  39.42300 8.64700 34.38500
C  38.14800 7.80700 34.00700
C  38.49500 7.50200 32.52300
C  37.89900 6.56600 34.83300
C  39.12100 10.03800 35.07700
C  38.96300 9.95000 36.57600
H  39.94700 10.76100 37.43900
N  38.49100 7.11100 29.47600
C  37.54900 6.62400 30.33300
C  36.67100 5.78400 29.58000
C  37.03300 5.89400 28.24200
C  38.32500 6.72000 28.23900
C  35.55800 4.88900 30.25600
C  36.36300 5.28700 27.02000
O  36.92000 5.19200 25.94900
C  34.94600 4.62500 27.12500
N  41.08200 8.10700 28.08400
C  40.37700 7.60900 27.09900
C  41.15500 7.70800 25.74800
C  42.21700 8.78200 26.07400
C  42.11400 8.81900 27.60500
C  41.77200 6.35200 25.33800
C  42.03300 10.15900 25.26000
C  40.68600 10.69500 24.81300
N  41.91000 9.27800 30.49400
C  42.98100 9.79000 29.73000
C  43.90300 10.53100 30.53600
C  43.38600 10.37700 31.80800
C  42.21700 9.60100 31.78600
C  45.13100 11.31700 30.14900
C  43.65900 10.64900 33.17800
O  44.65500 11.24100 33.68500
C  42.42800 10.11900 33.96400
C  42.86800 9.03600 34.91700
O  43.41700 7.92900 34.63300
O  42.54800 9.41500 36.26200
C  42.60500 8.25500 37.17100
H  36.73900 6.44900 32.26000
H  38.93500 6.32300 26.28400
H  43.89300 10.09900 27.82700
H  40.06600 8.00100 34.98300
H  37.27700 8.46000 34.05900
H  36.86800 6.50900 35.18100
H  38.48800 6.65600 35.74600
H  38.12800 5.57800 34.43500
H  38.13900 10.42800 34.80700
H  39.86400 10.81100 34.88100
H  38.98700 8.90900 36.89800
H  37.95200 10.24800 36.85400
H  35.76400 4.89600 31.32700
H  35.63600 3.85900 29.91000
H  34.56400 5.29900 30.07600
H  34.91700 3.83900 27.88100
H  34.77300 4.26000 26.11300
H  34.30100 5.46900 27.36900
H  40.49400 8.02500 24.94200
H  43.19200 8.36700 25.82200
H  42.72000 6.50300 24.82200
H  41.12500 5.87700 24.60100
H  41.90600 5.62400 26.13800
H  42.64700 10.14700 24.36000
H  42.50300 10.91100 25.89300
H  40.35100 10.14600 23.93300
H  40.75900 11.78100 24.75800
H  39.87100 10.40200 25.47400
H  44.81800 11.70900 29.18200
H  46.07300 10.77000 30.09800
H  45.19800 12.13700 30.86400
H  41.91000 11.00900 34.32200
H  43.63600 7.90500 37.12800
H  41.81900 7.57300 36.84800
H  42.38800 8.58200 38.18800
Mg 46.62400 15.89000 29.44300
C  44.50000 15.51400 32.10300
C  48.29300 18.30700 31.13500
C  48.50500 16.24700 26.73700
C  44.44500 13.91800 27.58200
N  46.39000 16.87300 31.38900
C  45.57400 16.36500 32.36400
C  45.89200 16.97900 33.74600
C  46.78700 18.31000 33.38600
C  47.18300 17.80200 31.91300
C  45.98400 19.59800 33.27400
C  46.62600 15.98400 34.68100
C  46.45400 16.16500 36.17800
H  47.72400 16.19100 37.11400
N  48.25700 17.07000 29.02200
C  48.79400 18.06500 29.84600
C  49.92500 18.61000 29.22500
C  49.93500 18.04400 27.94300
C  48.88600 17.04600 27.82100
C  50.72600 19.80400 29.74800
C  50.90600 18.38800 26.75300
O  50.73500 18.00600 25.61900
C  52.10000 19.24900 26.96900
N  46.42000 15.36000 27.34800
C  47.38400 15.50000 26.41900
C  47.30100 14.59200 25.14900
C  45.93600 13.94900 25.44400
C  45.58900 14.38300 26.87000
C  47.45300 15.35200 23.76400
C  45.67700 12.34900 25.19200
C  46.45700 11.34500 26.06000
N  44.80500 14.95400 29.72100
C  44.03300 14.22500 28.88600
C  42.84500 13.75400 29.57600
C  43.01700 14.22100 30.90400
C  44.20500 14.94900 30.88200
C  41.72700 12.99500 28.92800
C  42.42600 14.24100 32.18600
O  41.34300 13.79200 32.52000
C  43.45600 15.08900 33.11100
C  42.65400 16.12100 33.72100
O  42.43700 17.21300 33.16000
O  42.40800 15.75300 35.08900
C  41.80200 16.82000 35.86100
H  48.94600 18.85500 31.81800
H  49.04800 16.23800 25.78900
H  43.84800 13.19600 27.02100
H  44.96300 17.35500 34.17400
H  47.67000 18.48900 33.99900
H  46.52400 20.27000 32.60800
H  45.67100 20.08000 34.20100
H  45.08300 19.38000 32.70100
H  47.68700 16.04800 34.44300
H  46.26000 14.99200 34.41400
H  45.74500 15.37000 36.40900
H  46.00200 17.15500 36.24200
H  50.63600 20.03400 30.81000
H  50.44900 20.66800 29.14400
H  51.79700 19.69400 29.58000
H  52.79200 18.84500 27.70800
H  51.73900 20.16300 27.44100
H  52.71700 19.47500 26.09800
H  48.13900 13.90700 25.28100
H  45.23700 14.51500 24.82800
H  46.65100 14.98300 23.12500
H  48.35800 14.99100 23.27500
H  47.36600 16.43400 23.86200
H  45.92700 12.18200 24.14400
H  44.60700 12.18200 25.31100
H  45.70100 10.72300 26.53800
H  47.07600 11.83000 26.81400
H  46.97300 10.66800 25.37900
H  42.01900 12.55100 27.97600
H  40.94700 13.74400 28.78700
H  41.38500 12.20200 29.59300
H  43.88600 14.40700 33.84400
H  41.55000 17.70000 35.26800
H  42.44100 17.15300 36.67900
H  41.01300 16.32900 36.43100

