158

Mg 26.82200 50.22500 26.32000
C  24.92600 51.38600 28.91800
C  29.47000 49.76500 28.50200
C  28.80400 49.31800 23.71400
C  24.42600 51.37600 24.02200
N  27.17000 50.55400 28.48700
C  26.22500 50.99000 29.37800
C  26.78600 51.04800 30.81000
C  28.28700 50.50900 30.61900
C  28.33000 50.29700 29.14500
C  29.43300 51.38400 31.25900
C  25.89600 50.39700 31.84000
C  26.51400 49.84200 33.17200
H  26.11800 50.41300 34.51700
N  28.88700 49.67200 26.14200
C  29.77000 49.40400 27.13000
C  30.96800 48.80900 26.63700
C  30.81500 48.61500 25.28800
C  29.47400 49.19700 24.99800
C  32.18700 48.50300 27.52100
C  31.78400 48.01500 24.32700
O  31.50900 47.84200 23.17600
C  33.15200 47.43900 24.81900
N  26.68000 50.42300 24.25900
C  27.54300 49.83700 23.37700
C  26.97100 49.73400 21.92500
C  25.50300 50.23400 22.14200
C  25.57400 50.80900 23.54200
C  27.87300 50.62000 20.91700
C  24.33200 49.20400 21.92200
C  24.04900 47.99500 22.88200
N  24.98100 51.08900 26.41500
C  24.15500 51.56800 25.38200
C  23.01900 52.17800 26.03300
C  23.33600 52.11300 27.45900
C  24.48300 51.42600 27.59700
C  21.79200 52.59700 25.33700
C  22.80800 52.44100 28.81600
O  21.81800 53.03300 29.19900
C  23.85600 51.93500 29.80300
C  24.16100 53.17100 30.66300
O  25.03400 53.97200 30.37500
O  23.51500 53.11900 31.90000
C  24.00000 54.04400 32.91700
H  30.20100 49.43500 29.24300
H  29.31300 48.94500 22.82300
H  23.59800 51.67100 23.37400
H  26.75300 52.11400 31.03500
H  28.32100 49.52300 31.08200
H  30.25900 51.49400 30.55700
H  29.80300 50.92000 32.17300
H  29.14000 52.42100 31.42400
H  25.25800 49.63900 31.38500
H  25.21900 51.17400 32.19500
H  27.60400 49.85100 33.16800
H  26.35500 48.77900 33.35300
H  33.04200 49.06000 27.14000
H  32.34800 47.42500 27.53500
H  31.98900 48.77700 28.55800
H  33.83200 48.23000 25.13300
H  33.60600 46.92500 23.97200
H  33.12800 46.77100 25.68000
H  27.06800 48.65800 21.78300
H  25.29800 51.07000 21.47200
H  28.54100 49.84700 20.53800
H  28.47400 51.36000 21.44600
H  27.35000 51.13700 20.11300
H  24.48800 48.60900 21.02200
H  23.36500 49.65400 21.69600
H  24.81800 48.03900 23.65300
H  24.17600 47.07100 22.31600
H  23.09600 47.97400 23.40900
H  22.01100 53.43300 24.67400
H  21.14800 53.06000 26.08600
H  21.23400 51.82700 24.80400
H  23.43300 51.24700 30.53600
H  24.38400 54.97000 32.48900
H  24.71100 53.49100 33.53000
H  23.25900 54.31000 33.67000
Mg 9.60500 47.61800 26.45100
C  7.63500 47.81200 29.21900
C  12.26500 49.11000 27.95600
C  11.26000 47.51300 23.52300
C  6.69500 46.48800 24.57400
N  9.91900 48.40200 28.40600
C  9.00900 48.30500 29.37900
C  9.59200 48.81900 30.71600
C  10.87700 49.64400 30.14200
C  11.05700 49.09600 28.73400
C  10.91400 51.16900 30.31900
C  9.87400 47.72100 31.75000
C  9.35900 47.90600 33.20300
H  9.25200 46.68300 34.05800
N  11.55400 48.15400 25.90800
C  12.54700 48.63700 26.71500
C  13.79400 48.59700 26.07200
C  13.49400 48.18000 24.73600
C  12.06500 47.91000 24.65600
C  15.07600 48.86500 26.74800
C  14.48300 47.91900 23.62300
O  14.16600 47.54200 22.51900
C  15.93100 48.12000 23.81100
N  8.93000 47.07900 24.37900
C  9.88000 47.08600 23.37300
C  9.35800 46.43200 22.09100
C  7.94400 45.89400 22.49700
C  7.84500 46.54300 23.88000
C  9.49200 47.30500 20.81700
C  7.86400 44.33800 22.58500
C  8.85400 43.65400 23.50600
N  7.60000 47.30800 26.83600
C  6.50200 46.82600 25.96100
C  5.31300 46.85400 26.67300
C  5.65700 47.21200 27.99100
C  7.07500 47.39100 28.01900
C  3.93900 46.72000 26.15000
C  5.19600 47.43600 29.35600
O  4.08000 47.42700 29.73100
C  6.44700 47.80700 30.28600
C  6.52600 46.51000 31.17000
O  7.19800 45.54900 30.84700
O  5.68100 46.59600 32.19900
C  5.64100 45.32800 32.98400
H  13.16700 49.51300 28.42200
H  11.89600 47.34100 22.65200
H  5.76400 46.19000 24.08600
H  8.86600 49.50600 31.15200
H  11.61900 49.27400 30.85000
H  9.90500 51.58100 30.34300
H  11.52600 51.65300 29.55800
H  11.31800 51.35100 31.31500
H  10.94700 47.52800 31.73600
H  9.42200 46.77400 31.45700
H  8.38800 48.35800 33.00400
H  9.95400 48.63000 33.76000
H  15.64900 47.96700 26.98100
H  14.89700 49.45900 27.64400
H  15.71500 49.45600 26.09200
H  16.49900 47.47600 24.48200
H  16.19900 49.14600 24.06100
H  16.37900 47.94800 22.83200
H  10.02900 45.60300 21.86600
H  7.13500 46.28500 21.87900
H  9.54600 48.35700 21.09700
H  8.65900 47.34000 20.11500
H  10.34300 47.05500 20.18400
H  8.07700 43.94800 21.58900
H  6.83000 44.09300 22.82800
H  8.22300 43.14300 24.23300
H  9.56000 44.27500 24.05600
H  9.33600 42.84300 22.96000
H  3.95900 46.20100 25.19100
H  3.56700 47.73700 26.02100
H  3.29900 46.12400 26.80000
H  6.33200 48.74100 30.83700
H  5.71600 45.69500 34.00800
H  6.47100 44.63700 32.83500
H  4.69400 44.79000 32.94500

