158

Mg 8.84400 3.00600 27.86500
C  9.63500 1.28300 30.75000
C  7.50700 5.52500 29.67400
C  7.15000 4.17000 25.02500
C  9.75700 0.16300 25.89400
N  8.37100 3.23200 30.10800
C  8.99100 2.45900 31.08300
C  8.83100 3.17200 32.42200
C  8.15700 4.52100 32.02700
C  7.92600 4.41400 30.48100
C  6.90900 4.99700 32.80200
C  10.17100 3.39200 33.08000
C  10.41300 4.57800 34.04900
H  10.97400 4.33900 35.41900
N  7.73500 4.71500 27.37900
C  7.39200 5.70800 28.23200
C  6.72600 6.75800 27.53400
C  6.50000 6.35100 26.22400
C  7.18300 5.01000 26.13000
C  6.34600 8.10900 28.26500
C  5.67400 7.11600 25.14200
O  5.45800 6.63200 24.05300
C  5.23200 8.50200 25.46600
N  8.47000 2.29200 25.84700
C  7.71000 2.94300 24.88600
C  7.78300 2.12600 23.52100
C  8.83300 0.98900 23.75600
C  8.99300 1.12700 25.27800
C  6.38800 1.47400 23.10200
C  10.20700 1.40300 23.11700
C  10.64000 0.38100 22.02300
N  9.56600 1.11400 28.24800
C  9.99000 0.13100 27.34600
C  10.84500 -0.83100 28.14800
C  10.69600 -0.44100 29.43600
C  9.85400 0.72700 29.43900
C  11.58700 -1.99000 27.65000
C  11.11200 -0.70500 30.76700
O  11.85600 -1.59400 31.13700
C  10.45400 0.43000 31.73100
C  9.49000 -0.26100 32.68200
O  8.31100 -0.54600 32.45900
O  10.05400 -0.46600 33.87900
C  9.27200 -1.08900 34.95400
H  7.17800 6.38100 30.26700
H  6.78000 4.52500 24.06100
H  10.15800 -0.73500 25.42000
H  8.33800 2.61400 33.21800
H  8.87800 5.32700 32.16100
H  7.13800 6.00800 33.14000
H  6.82300 4.29200 33.62900
H  5.92500 5.01400 32.33300
H  10.92500 3.37700 32.29300
H  10.27900 2.51900 33.72400
H  9.45700 5.04900 34.28200
H  10.87100 5.40400 33.50400
H  7.17100 8.81800 28.19600
H  6.27700 7.90900 29.33400
H  5.46700 8.64500 27.90700
H  4.38900 8.37200 26.14400
H  4.85500 9.07200 24.61800
H  6.06300 9.13400 25.78200
H  8.05300 2.87000 22.77200
H  8.54100 -0.04300 23.55800
H  5.74700 1.77900 23.92900
H  6.49600 0.39000 23.12600
H  6.04100 1.71800 22.09800
H  10.95200 1.40300 23.91200
H  10.18300 2.45300 22.82600
H  9.94000 -0.42700 21.80900
H  11.42800 -0.14200 22.56500
H  11.13300 0.82500 21.15900
H  12.13600 -1.62900 26.78000
H  10.92400 -2.72900 27.20000
H  12.27700 -2.37700 28.40000
H  11.23200 0.96100 32.28000
H  9.93000 -1.68900 35.58100
H  8.54200 -1.72200 34.44800
H  8.71100 -0.38100 35.56400
Mg -10.38200 16.97100 42.41300
C  -6.95200 17.49700 42.78400
C  -10.74600 20.35000 41.62300
C  -13.54500 16.30600 41.73100
C  -9.59000 13.52400 42.36900
N  -8.92600 18.65300 42.00100
C  -7.56100 18.66200 42.34000
C  -7.01800 20.03100 41.99100
C  -8.25000 20.93900 41.94200
C  -9.40100 19.91800 41.75900
C  -8.40900 21.83800 43.26200
C  -6.04000 20.08600 40.76900
C  -4.68200 20.79500 41.01300
H  -4.13600 21.64500 39.86500
N  -11.88300 18.18500 41.82100
C  -11.94300 19.54600 41.63800
C  -13.31600 19.96300 41.34500
C  -14.16000 18.75400 41.31400
C  -13.18400 17.64400 41.62500
C  -13.69800 21.41600 41.09000
C  -15.63800 18.70300 41.08300
O  -16.23000 19.76000 40.92500
C  -16.34600 17.44400 40.71400
N  -11.38100 15.15800 41.97100
C  -12.72700 15.21200 41.90300
C  -13.35800 13.77400 41.97800
C  -12.04000 12.88600 41.85300
C  -10.89300 13.90900 42.04200
C  -14.09900 13.50800 43.32500
C  -11.89600 12.26200 40.45600
C  -12.48000 10.87800 40.25100
N  -8.70700 15.69800 42.73200
C  -8.49900 14.32300 42.75300
C  -7.05600 13.98600 43.02700
C  -6.50500 15.24600 43.19700
C  -7.50400 16.20700 42.85000
C  -6.39700 12.64500 43.15200
C  -5.24900 15.90000 43.42100
O  -4.14000 15.57300 43.82300
C  -5.51900 17.40300 43.25500
C  -5.21000 18.03000 44.53600
O  -5.92800 18.01900 45.54200
O  -4.04400 18.66900 44.51100
C  -3.47400 19.15200 45.77000
H  -10.85600 21.42800 41.48400
H  -14.60600 16.08700 41.59400
H  -9.48000 12.43900 42.42200
H  -6.32500 20.39500 42.75000
H  -8.08000 21.62200 41.11000
H  -8.44100 22.89400 42.99100
H  -7.54300 21.72400 43.91500
H  -9.32900 21.61200 43.80000
H  -6.63500 20.47200 39.94200
H  -5.72000 19.05100 40.65000
H  -3.89900 20.11600 41.35100
H  -4.74600 21.45600 41.87700
H  -14.34200 21.49200 40.21400
H  -12.90300 22.16000 41.14100
H  -14.27200 21.77400 41.94400
H  -17.33900 17.61800 40.30000
H  -16.43000 16.94800 41.68100
H  -15.78700 16.89500 39.95700
H  -14.13100 13.54200 41.24500
H  -11.93700 12.16100 42.66000
H  -15.02900 12.97900 43.11800
H  -14.42600 14.41800 43.82800
H  -13.43000 13.02300 44.03500
H  -10.86800 12.10800 40.13000
H  -12.34200 12.93900 39.72800
H  -11.82000 10.06600 39.94500
H  -13.31300 10.96400 39.55300
H  -13.02100 10.54400 41.13700
H  -6.66700 12.06900 44.03700
H  -5.33600 12.86700 43.04100
H  -6.78100 11.96800 42.38800
H  -4.88800 17.90000 42.51900
H  -2.85300 20.02800 45.58200
H  -2.80000 18.40600 46.19000
H  -4.21000 19.39900 46.53500

