158

Mg 9.19500 47.32300 28.04700
C  7.49000 46.93500 31.06700
C  12.03600 47.61800 29.80000
C  10.62800 48.43200 25.13900
C  6.06200 47.36100 26.40700
N  9.65700 47.41100 30.29300
C  8.85500 47.02000 31.24400
C  9.58800 46.98800 32.60700
C  11.04400 47.33800 32.14500
C  10.94600 47.47500 30.65800
C  11.69300 48.53600 32.84200
C  9.50900 45.66100 33.45500
C  9.31900 45.85300 34.96700
H  10.00900 44.94100 35.96500
N  11.12600 47.70600 27.45000
C  12.15000 47.77400 28.36400
C  13.40700 47.99700 27.55000
C  13.02300 48.17300 26.18200
C  11.58300 48.12100 26.20300
C  14.89600 47.86800 28.19600
C  13.85100 48.25500 24.91900
O  13.41300 48.15200 23.79100
C  15.32000 48.36800 25.17900
N  8.38200 47.93700 26.05800
C  9.22800 48.37800 25.04100
C  8.39800 48.88600 23.81800
C  7.05000 48.23900 24.09000
C  7.14500 47.70900 25.59700
C  8.41800 50.40100 23.64800
C  6.70800 47.11500 23.01500
C  6.56200 47.65000 21.57500
N  7.10400 47.18700 28.49700
C  5.97600 47.31700 27.77600
C  4.79200 47.20300 28.67200
C  5.30900 47.02900 29.97700
C  6.75400 47.07700 29.82000
C  3.34900 47.19300 28.27600
C  4.98100 46.86600 31.41000
O  3.90300 46.82300 31.94300
C  6.32400 46.60300 32.10900
C  6.25000 45.16200 32.55000
O  6.66700 44.22100 31.96900
O  5.63700 45.17200 33.75400
C  5.76200 43.81800 34.46100
H  12.94800 47.73800 30.38800
H  11.13500 48.73900 24.22200
H  5.18300 47.43100 25.76300
H  9.22900 47.81500 33.22000
H  11.74300 46.51400 32.29000
H  11.52500 49.43600 32.25000
H  12.72400 48.20100 32.73500
H  11.39800 48.58300 33.89100
H  10.41500 45.06300 33.36200
H  8.65400 45.08100 33.10700
H  8.26700 45.82800 35.25300
H  9.68800 46.85100 35.20200
H  14.90700 48.02300 29.27500
H  15.44800 48.74000 27.84500
H  15.26200 46.85900 28.00500
H  15.59900 49.30300 25.66500
H  15.74100 48.35000 24.17400
H  15.70700 47.50700 25.72400
H  8.82500 48.37700 22.95400
H  6.20600 48.91600 23.95800
H  8.81200 50.82200 24.57300
H  7.37000 50.65000 23.48300
H  8.96200 50.82100 22.80100
H  5.73500 46.67400 23.23300
H  7.43200 46.30200 23.05800
H  7.34500 47.23900 20.93800
H  6.69400 48.73100 21.62100
H  5.61300 47.32100 21.15400
H  3.26200 47.25100 27.19100
H  2.85600 47.98500 28.83900
H  2.82300 46.26900 28.51600
H  6.46800 47.18800 33.01700
H  6.63200 43.21200 34.20600
H  4.90500 43.21200 34.17000
H  5.71000 43.83900 35.54900
Mg -5.26400 25.57800 26.26800
C  -3.66200 26.75500 29.07200
C  -6.89700 23.28300 28.37100
C  -6.52500 23.99000 23.57200
C  -3.17500 27.43600 24.18400
N  -5.31500 25.10800 28.45100
C  -4.64300 25.77600 29.40300
C  -5.20400 25.58700 30.84400
C  -5.85900 24.23400 30.62100
C  -6.10400 24.25400 29.11700
C  -5.06700 22.95200 31.14200
C  -6.08000 26.71500 31.42500
C  -5.87600 27.12500 32.94200
H  -5.58500 26.01500 33.92400
N  -6.50900 23.88200 25.94900
C  -7.08000 23.08600 26.96200
C  -7.79700 21.96000 26.33400
C  -7.63100 22.07700 24.91800
C  -6.83200 23.35500 24.75400
C  -8.35300 20.84200 27.20100
C  -8.13000 21.20000 23.75700
O  -7.97000 21.51500 22.54100
C  -8.89700 19.93900 24.07300
N  -4.89200 25.66900 24.21200
C  -5.64900 25.01400 23.31900
C  -5.14000 25.28500 21.87300
C  -4.34500 26.64200 22.03900
C  -4.01200 26.55400 23.54100
C  -4.39800 24.10800 21.22900
C  -5.05300 28.01900 21.72000
C  -5.78000 28.27900 20.33300
N  -3.72300 26.90700 26.53000
C  -2.98500 27.62500 25.58900
C  -2.09100 28.48900 26.28600
C  -2.29200 28.16800 27.63500
C  -3.27900 27.18400 27.72600
C  -1.09200 29.50500 25.68300
C  -1.84100 28.51800 28.95200
O  -1.03700 29.42200 29.27100
C  -2.77200 27.62100 29.98800
C  -1.96900 26.66400 30.88900
O  -1.44400 25.62200 30.57100
O  -1.85500 27.25300 32.07000
C  -1.10300 26.60300 33.13600
H  -7.31700 22.50200 29.00800
H  -7.04200 23.62400 22.68200
H  -2.42100 28.00600 23.63600
H  -4.40800 25.45600 31.57700
H  -6.73200 24.25500 31.27500
H  -4.66400 23.06100 32.14900
H  -4.32700 22.75700 30.36500
H  -5.75200 22.11400 31.27200
H  -7.12200 26.40200 31.35000
H  -5.87900 27.58600 30.80200
H  -6.79100 27.47000 33.42400
H  -5.19200 27.97200 32.99300
H  -8.71400 21.14500 28.18300
H  -7.55600 20.10400 27.30100
H  -9.18100 20.42100 26.63000
H  -9.00100 19.42600 23.11700
H  -9.93900 20.10000 24.34800
H  -8.45400 19.33800 24.86700
H  -6.02800 25.50400 21.28000
H  -3.38100 26.61300 21.53100
H  -4.49600 23.26400 21.91100
H  -3.36700 24.37700 21.00100
H  -4.86500 23.79200 20.29600
H  -4.18800 28.64600 21.94100
H  -5.78700 28.11100 22.52100
H  -6.84200 28.03800 20.37900
H  -5.29500 27.72100 19.53300
H  -5.75400 29.35400 20.15100
H  -0.85600 29.18800 24.66700
H  -0.20400 29.43400 26.31000
H  -1.45700 30.52900 25.60100
H  -3.50400 28.21500 30.53600
H  -0.11300 27.04300 33.25500
H  -0.93700 25.53200 33.02000
H  -1.67300 26.87100 34.02600

