158

Mg 9.55100 4.07900 27.35900
C  10.36200 2.47000 30.31300
C  7.75500 6.32400 29.07300
C  8.23700 5.25500 24.39900
C  10.63700 1.22000 25.54500
N  8.95400 4.24900 29.50300
C  9.63700 3.59100 30.51000
C  9.40700 4.27900 31.82900
C  8.29900 5.35500 31.49200
C  8.35200 5.36700 29.88800
C  6.91200 5.18600 32.05500
C  10.79000 4.86500 32.58900
C  10.80200 4.59900 34.08800
H  12.15700 4.59700 34.83600
N  8.30300 5.65700 26.76600
C  7.69100 6.51500 27.64700
C  6.99900 7.61700 26.92900
C  7.18200 7.25200 25.51500
C  7.95000 5.97300 25.53100
C  6.20300 8.73500 27.63400
C  6.72900 8.02300 24.26700
O  6.98900 7.69200 23.07400
C  5.86800 9.15500 24.40400
N  9.62400 3.45200 25.17600
C  8.94500 4.08900 24.20800
C  9.04100 3.35300 22.83900
C  10.01300 2.16100 23.21900
C  10.03500 2.23900 24.74600
C  7.64800 2.86200 22.37100
C  11.40500 2.02500 22.46400
C  11.25000 1.10300 21.21800
N  10.54600 2.32200 27.75600
C  10.95300 1.24800 26.92500
C  11.56200 0.25600 27.71900
C  11.33000 0.65500 29.04400
C  10.69500 1.92000 29.00800
C  12.33300 -0.95400 27.33400
C  11.64100 0.27000 30.42000
O  12.20700 -0.68000 30.92600
C  11.02800 1.49800 31.32100
C  10.04700 0.85400 32.21900
O  9.00600 0.29200 31.91100
O  10.62100 0.74200 33.52200
C  9.83600 0.04700 34.56300
H  7.20800 7.04300 29.68700
H  7.79700 5.70300 23.50600
H  10.75000 0.19700 25.18100
H  8.91000 3.54400 32.46200
H  8.62200 6.29600 31.93600
H  6.17000 5.37500 31.27900
H  6.63400 6.01700 32.70300
H  6.86900 4.23900 32.59300
H  10.75700 5.95000 32.49200
H  11.70000 4.54400 32.08200
H  10.19900 3.74800 34.40300
H  10.34800 5.46700 34.56600
H  6.81200 9.59900 27.90100
H  5.66300 8.22800 28.43400
H  5.37700 9.18100 27.08100
H  6.34700 10.05000 24.80300
H  4.99700 8.93000 25.02000
H  5.42000 9.48200 23.46600
H  9.36000 4.06500 22.07800
H  9.42900 1.25400 23.06300
H  7.21800 3.40100 21.52700
H  6.95000 2.98500 23.19900
H  7.75200 1.84100 22.00300
H  12.22200 1.74200 23.12800
H  11.73400 2.96700 22.02400
H  12.22200 0.66500 20.98700
H  10.84300 1.67500 20.38500
H  10.52200 0.31400 21.40500
H  13.01700 -0.71900 26.51800
H  11.72800 -1.82300 27.07400
H  13.05500 -1.32800 28.06000
H  11.71100 1.98900 32.01400
H  9.37000 -0.85500 34.16700
H  8.90300 0.54800 34.82300
H  10.51100 -0.03900 35.41400
Mg 54.67400 22.91600 45.10100
C  52.40500 25.15000 43.73700
C  52.50300 20.31600 44.04900
C  57.10800 20.69200 45.57800
C  56.78800 25.62100 45.83100
N  52.74700 22.85800 44.06700
C  51.98700 23.83600 43.59100
C  50.65000 23.36000 43.00100
C  50.52000 21.87100 43.57500
C  52.04200 21.66900 43.95900
C  49.53700 21.67200 44.78300
C  50.47000 23.47200 41.47800
C  49.08700 23.88400 40.96600
H  48.59000 23.21100 39.66600
N  54.82200 20.75200 44.84200
C  53.84800 19.92000 44.34600
C  54.34600 18.55900 44.41600
C  55.73300 18.63100 44.91800
C  55.97000 20.08700 45.13900
C  53.59500 17.40400 43.82100
C  56.59800 17.45200 45.08900
O  56.23200 16.32300 44.76400
C  58.05900 17.61900 45.42700
N  56.79200 23.15000 45.36800
C  57.51600 22.05300 45.74100
C  58.80400 22.50700 46.46900
C  58.60500 24.08800 46.70100
C  57.36600 24.34200 45.77700
C  59.25400 21.76000 47.78800
C  59.83900 24.99600 46.30300
C  60.48200 25.80800 47.45700
N  54.59800 25.05500 45.01400
C  55.51400 26.05700 45.29300
C  54.85300 27.25200 45.23200
C  53.64500 26.94100 44.60400
C  53.59400 25.59800 44.41500
C  55.25600 28.62800 45.62500
C  52.44000 27.54900 44.10100
O  52.03100 28.72000 43.97500
C  51.63100 26.41800 43.50300
C  51.56400 26.73600 42.08100
O  52.50600 26.68400 41.33900
O  50.34700 27.22100 41.75500
C  50.24500 27.53300 40.29800
H  51.78400 19.49500 44.06700
H  57.97100 20.05900 45.79400
H  57.32900 26.52200 46.12800
H  49.82900 23.92600 43.44100
H  50.22200 21.11000 42.85300
H  49.94800 21.04000 45.57100
H  48.60500 21.17000 44.52200
H  49.35700 22.65100 45.22700
H  50.66800 22.52700 40.97200
H  51.19200 24.21200 41.13500
H  48.90800 24.92300 40.68700
H  48.38300 23.68000 41.77200
H  52.78500 17.70900 43.15800
H  53.26500 16.67600 44.56300
H  54.32400 16.95400 43.14700
H  58.60700 18.19900 44.68400
H  58.52900 16.64100 45.32800
H  58.25100 17.90900 46.46000
H  59.67500 22.38800 45.82500
H  58.33000 24.31500 47.73100
H  59.40700 22.45000 48.61800
H  60.23000 21.29700 47.64900
H  58.54300 20.97100 48.03300
H  59.66100 25.69900 45.48900
H  60.63300 24.35400 45.92200
H  60.37900 26.86500 47.21300
H  61.52600 25.62100 47.71100
H  59.89900 25.65800 48.36500
H  55.36200 28.72000 46.70600
H  54.51100 29.32800 45.24600
H  56.22900 28.87600 45.20200
H  50.63200 26.43500 43.93700
H  51.02600 28.15600 39.86300
H  49.30300 27.89700 39.88700
H  50.33800 26.58400 39.76900

