158

Mg 7.61200 1.72900 28.60800
C  9.25600 0.28100 31.27200
C  6.09300 4.01200 30.70100
C  6.03700 3.10900 25.97800
C  9.35400 -0.51600 26.35200
N  7.62200 1.98700 30.68400
C  8.42200 1.33300 31.65200
C  8.31200 1.99900 32.99900
C  7.13600 3.06400 32.78200
C  6.93000 3.03900 31.27400
C  5.75200 2.68500 33.48700
C  9.62300 2.66400 33.47600
C  9.47500 3.44900 34.77700
H  10.49400 3.01600 35.80700
N  6.17100 3.27500 28.36300
C  5.66300 4.07700 29.31100
C  4.72700 5.03100 28.73600
C  4.59100 4.67300 27.36400
C  5.61500 3.65300 27.17800
C  4.04400 6.18800 29.51100
C  3.69800 5.17100 26.29000
O  3.88800 4.78000 25.16900
C  2.73200 6.34200 26.58600
N  7.79200 1.34200 26.52100
C  6.90700 2.06900 25.67600
C  7.06000 1.48500 24.21400
C  8.19600 0.37900 24.29600
C  8.48300 0.45300 25.78700
C  5.78100 0.96600 23.53400
C  9.50900 0.53000 23.41300
C  10.01300 -0.78700 22.72400
N  8.99900 0.12700 28.70600
C  9.59600 -0.71500 27.76100
C  10.45300 -1.64200 28.44700
C  10.37700 -1.27700 29.83300
C  9.55000 -0.18000 29.93100
C  11.30000 -2.74000 27.87200
C  10.80200 -1.59100 31.19700
O  11.67000 -2.36000 31.66600
C  10.19900 -0.57300 32.12000
C  9.55600 -1.23600 33.25500
O  8.59700 -1.97700 33.19200
O  10.13000 -0.96900 34.44200
C  9.50400 -1.55700 35.67700
H  5.76600 4.83900 31.33500
H  5.65900 3.44700 25.01100
H  10.09600 -0.97200 25.69500
H  8.02700 1.31000 33.79400
H  7.34700 4.05700 33.17900
H  5.97000 2.50200 34.53900
H  5.40000 1.75700 33.03600
H  4.98000 3.43600 33.31600
H  9.97700 3.42600 32.78100
H  10.33600 1.84100 33.52700
H  8.44300 3.30700 35.09600
H  9.77000 4.48400 34.60000
H  4.46900 7.17400 29.32000
H  4.19600 5.96300 30.56700
H  2.98300 6.30900 29.29400
H  2.13600 6.43600 25.67800
H  3.24200 7.22900 26.96100
H  2.13400 5.94800 27.40700
H  7.53800 2.26500 23.62200
H  7.66700 -0.53300 24.01800
H  5.01300 0.85900 24.30000
H  5.92900 0.11700 22.86700
H  5.27200 1.81000 23.06900
H  10.38600 0.82800 23.98900
H  9.31500 1.34200 22.71300
H  9.31300 -1.60400 22.90000
H  11.04500 -0.96200 23.02900
H  10.12100 -0.73600 21.64000
H  11.34500 -2.57800 26.79500
H  10.87100 -3.69700 28.16900
H  12.30700 -2.60600 28.26900
H  11.05300 -0.01200 32.49900
H  8.55800 -2.09500 35.60700
H  9.31200 -0.70600 36.33100
H  10.31100 -2.21200 36.00200
Mg 29.55400 58.81700 39.58100
C  27.06900 56.36300 38.48500
C  31.89300 56.70700 38.14300
C  31.71700 61.27900 39.79700
C  26.84700 61.01000 39.96300
N  29.48000 56.75500 38.37600
C  28.42700 55.91300 38.15600
C  28.85100 54.60200 37.47800
C  30.42500 54.65500 37.52800
C  30.66100 56.11200 38.07300
C  31.09900 53.48200 38.28000
C  28.22000 54.32800 36.04300
C  27.87000 55.62100 35.26000
H  27.90200 55.43400 33.77400
N  31.54400 58.88300 39.25900
C  32.34800 57.99300 38.53400
C  33.69900 58.44400 38.63200
C  33.68400 59.79100 39.29200
C  32.27200 60.04900 39.41600
C  34.84500 57.54600 38.08800
C  34.84600 60.58800 39.69600
O  36.00100 60.15000 39.49100
C  34.65100 61.84700 40.43000
N  29.30900 60.90500 39.66500
C  30.38000 61.62600 40.01900
C  30.00100 63.03900 40.54900
C  28.43300 62.99800 40.37600
C  28.16500 61.57900 39.92400
C  30.33000 63.23200 42.03400
C  27.80200 64.11700 39.58000
C  26.75900 64.92200 40.28500
N  27.37100 58.73300 39.50100
C  26.47100 59.70600 39.67600
C  25.12500 59.16400 39.58000
C  25.30000 57.83400 39.17200
C  26.68600 57.65500 39.02700
C  23.82900 59.89200 39.78100
C  24.58100 56.67300 38.77800
O  23.37600 56.49600 38.81200
C  25.70900 55.63600 38.24500
C  25.69500 54.39800 39.13600
O  26.57400 54.04900 39.89800
O  24.54100 53.72300 38.83500
C  24.57200 52.33100 39.23400
H  32.71500 56.12400 37.72200
H  32.25900 62.20900 39.98100
H  26.05400 61.74100 40.13400
H  28.55900 53.90900 38.26700
H  30.82900 54.51100 36.52600
H  32.13600 53.38900 37.95700
H  30.57100 52.56400 38.02300
H  31.14700 53.60900 39.36100
H  27.24400 53.90200 36.27300
H  28.62600 53.51500 35.44100
H  28.47800 56.50400 35.45600
H  26.81900 55.80700 35.48000
H  34.82400 57.49800 36.99900
H  34.59900 56.51300 38.33400
H  35.87000 57.76000 38.39200
H  35.55200 62.03000 41.01400
H  33.85000 61.78300 41.16700
H  34.54300 62.73200 39.80300
H  30.51500 63.84800 40.02900
H  27.99300 63.06500 41.37100
H  29.67700 64.02800 42.39100
H  31.38900 63.46100 42.15100
H  30.19500 62.40800 42.73500
H  27.38800 63.66800 38.67800
H  28.58600 64.80200 39.25700
H  26.05600 65.27500 39.53100
H  27.28100 65.74000 40.78300
H  26.31200 64.37400 41.11400
H  23.03500 59.29400 39.33300
H  23.76300 60.90200 39.37500
H  23.68700 59.97800 40.85800
H  25.49700 55.29200 37.23300
H  24.93600 51.77000 38.37300
H  23.55600 52.02300 39.48100
H  25.28200 52.00700 39.99500

