158

Mg 36.29300 0.47700 30.03500
C  33.82900 1.71300 32.28800
C  38.45600 0.43100 32.57900
C  38.53400 -0.20500 27.69500
C  33.74900 0.64500 27.39600
N  36.20900 1.16900 32.18000
C  35.09100 1.57400 32.90200
C  35.36600 1.71700 34.37300
C  36.90500 1.62800 34.32000
C  37.25900 1.04700 32.95700
C  37.57600 2.94100 34.76200
C  34.74600 0.73100 35.38900
C  34.23400 1.24700 36.68900
H  34.83000 2.44700 37.26400
N  38.21400 0.11300 30.09100
C  38.95300 0.08400 31.29700
C  40.29900 -0.31400 30.96400
C  40.34200 -0.56900 29.54900
C  39.00500 -0.24400 29.05600
C  41.34700 -0.39600 31.99400
C  41.47700 -1.16700 28.75000
O  41.45000 -1.35000 27.52400
C  42.78800 -1.54000 29.37800
N  36.12900 0.32000 27.89700
C  37.24800 0.04600 27.10200
C  36.90000 -0.32500 25.64900
C  35.37300 0.07000 25.59600
C  35.07700 0.38700 27.03200
C  37.73500 0.39400 24.55400
C  34.34800 -0.90800 24.87700
C  33.44700 -1.95200 25.58600
N  34.27900 1.20500 29.75800
C  33.35200 1.12200 28.69200
C  32.10200 1.50900 29.12400
C  32.22900 1.83000 30.45400
C  33.58100 1.58400 30.83900
C  30.87100 1.62400 28.28800
C  31.47100 2.11800 31.70200
O  30.27600 2.35300 31.95100
C  32.52000 2.09900 32.85100
C  32.57900 3.41200 33.45700
O  33.09200 4.40500 32.91500
O  31.99900 3.34400 34.72700
C  31.91300 4.64100 35.36100
H  39.13100 0.39200 33.43600
H  39.32100 -0.49400 26.99400
H  33.04600 0.72700 26.56400
H  34.98400 2.71500 34.58600
H  37.17000 0.89700 35.08300
H  38.34200 3.18600 34.02600
H  38.16900 2.84500 35.67200
H  36.94600 3.83100 34.75500
H  35.34100 -0.14700 35.64200
H  33.83900 0.38400 34.89400
H  34.15200 0.41400 37.38800
H  33.21200 1.51600 36.42200
H  41.81800 -1.37700 31.92100
H  40.95800 -0.32700 33.01000
H  41.97400 0.44400 31.69600
H  43.52500 -1.86500 28.64300
H  42.63400 -2.33500 30.10700
H  43.25600 -0.73400 29.94200
H  36.80400 -1.41000 25.62300
H  35.22200 0.99000 25.03100
H  38.47100 -0.28300 24.12000
H  38.20500 1.28800 24.96400
H  37.08900 0.76000 23.75500
H  34.94700 -1.53300 24.21600
H  33.62900 -0.27900 24.35100
H  32.46000 -1.99700 25.12700
H  33.46300 -1.89600 26.67400
H  33.97000 -2.87300 25.32700
H  30.01800 1.39600 28.92700
H  30.90600 0.98300 27.40700
H  30.87100 2.61500 27.83500
H  32.31300 1.30500 33.56800
H  31.06900 5.28200 35.10800
H  32.86000 5.15600 35.19600
H  32.02900 4.52900 36.43900
Mg 9.34200 48.79800 25.98900
C  7.27100 49.16300 28.85900
C  11.99000 49.85100 27.79800
C  11.06100 48.68100 23.11800
C  6.37000 48.32700 24.12100
N  9.54500 49.33900 28.11000
C  8.58600 49.33400 29.14700
C  9.31200 49.63700 30.42200
C  10.67000 50.31400 29.94000
C  10.78200 49.81600 28.48200
C  10.61300 51.84600 30.12700
C  9.60300 48.37600 31.28000
C  9.87400 48.55400 32.71800
H  9.94400 47.33600 33.61400
N  11.26500 49.14600 25.55700
C  12.26800 49.48200 26.50400
C  13.47800 49.38100 25.78400
C  13.25700 49.15900 24.40200
C  11.81100 48.96000 24.28400
C  14.83400 49.61500 26.50200
C  14.23700 49.11900 23.28100
O  13.92600 48.90900 22.09700
C  15.67200 49.44700 23.58800
N  8.80300 48.61000 23.95200
C  9.69900 48.54200 22.95900
C  9.02700 48.30000 21.53200
C  7.55500 48.44200 21.83900
C  7.57100 48.47500 23.42600
C  9.55100 49.20900 20.38800
C  6.64500 47.35400 21.27600
C  5.66700 47.77500 20.16300
N  7.28000 48.56700 26.34700
C  6.20100 48.35800 25.49000
C  4.97400 48.31500 26.20900
C  5.37500 48.66600 27.56600
C  6.77600 48.86500 27.56800
C  3.65800 48.16700 25.56600
C  4.85300 48.93500 28.87400
O  3.71800 49.09500 29.36100
C  6.11300 49.13600 29.79300
C  6.18000 47.94800 30.74800
O  6.08700 46.76400 30.41600
O  6.46000 48.46300 31.98500
C  6.53600 47.43500 33.02500
H  12.84700 50.27600 28.32500
H  11.68800 48.60300 22.22800
H  5.43600 48.24000 23.56200
H  8.60600 50.24700 30.98700
H  11.49100 49.92800 30.54500
H  9.57700 52.18100 30.08000
H  11.04500 52.34200 29.25700
H  11.06500 52.03500 31.10100
H  10.59700 48.06500 30.95700
H  8.96000 47.53300 31.02600
H  9.04900 49.10600 33.16800
H  10.76400 49.17900 32.80000
H  14.55500 49.82500 27.53500
H  15.38600 50.49500 26.17200
H  15.43800 48.70800 26.50700
H  16.11000 48.85700 24.39200
H  15.66700 50.47800 23.94300
H  16.28100 49.52800 22.68800
H  9.12300 47.26300 21.20900
H  7.07200 49.39100 21.60500
H  8.69300 49.71900 19.95200
H  10.08200 48.55200 19.69900
H  10.30100 49.89200 20.78800
H  5.97000 46.92100 22.01400
H  7.21300 46.52400 20.85400
H  4.67900 47.65200 20.60800
H  5.73000 47.02100 19.37900
H  5.78400 48.78900 19.78000
H  3.57600 47.24600 24.98900
H  3.47500 49.01600 24.90800
H  2.89000 48.22000 26.33700
H  5.92600 50.02200 30.40000
H  5.72400 46.71800 32.90300
H  6.46900 47.85000 34.03100
H  7.47900 46.89200 32.97200

