158

Mg -2.31500 17.48900 26.70100
C  -2.58600 15.46600 29.48000
C  -2.84400 20.17500 28.71100
C  -2.34300 19.52100 23.90800
C  -2.71900 14.78300 24.63900
N  -2.69200 17.72000 28.91500
C  -2.71500 16.78400 29.88900
C  -3.17200 17.30900 31.25300
C  -3.52100 18.83700 30.87500
C  -3.01400 18.98900 29.45600
C  -5.07400 19.13500 31.18200
C  -2.10300 17.29500 32.38900
C  -2.58100 16.47000 33.62400
H  -1.46300 16.31100 34.68600
N  -2.29400 19.56500 26.34500
C  -2.52800 20.49800 27.32600
C  -2.35900 21.81800 26.77100
C  -2.08200 21.64300 25.34600
C  -2.18200 20.22700 25.15000
C  -2.43000 23.12600 27.57200
C  -1.69700 22.60100 24.24600
O  -1.33200 22.29400 23.12400
C  -1.74800 24.10700 24.54400
N  -2.73600 17.24400 24.43300
C  -2.56300 18.16100 23.53800
C  -2.56200 17.54200 22.09300
C  -2.66000 16.01200 22.39700
C  -2.62600 15.97500 23.94600
C  -3.60400 18.15500 21.10300
C  -1.58700 15.19500 21.54600
C  -0.32700 14.82200 22.32600
N  -2.55600 15.62100 26.90800
C  -2.71500 14.57500 26.01400
C  -2.77000 13.29600 26.68900
C  -2.69300 13.55700 28.01000
C  -2.57000 14.97100 28.15900
C  -2.83700 11.91500 26.11200
C  -2.62300 12.98600 29.31500
O  -2.54100 11.80300 29.70200
C  -2.58400 14.22200 30.34600
C  -1.41100 13.99000 31.12000
O  -0.30200 14.51700 31.03200
O  -1.76000 13.20900 32.15000
C  -0.67300 12.80600 33.05800
H  -3.26700 21.08800 29.13400
H  -2.29800 20.19200 23.04800
H  -2.64900 13.99600 23.88500
H  -4.08700 16.79300 31.54500
H  -2.84200 19.48600 31.42700
H  -5.25200 20.04200 31.76100
H  -5.58600 18.35100 31.73900
H  -5.58300 19.31500 30.23500
H  -1.94700 18.28200 32.82400
H  -1.07900 17.04400 32.11500
H  -2.86200 15.47300 33.28300
H  -3.45000 16.94600 34.07800
H  -3.20800 23.77100 27.16300
H  -1.47100 23.64300 27.55100
H  -2.69300 22.93400 28.61300
H  -2.82300 24.28900 24.56300
H  -1.08400 24.58200 23.82200
H  -1.19800 24.26500 25.47200
H  -1.56200 17.75900 21.71600
H  -3.68500 15.80900 22.08800
H  -4.04200 19.03900 21.56600
H  -4.33600 17.36800 20.92400
H  -3.06100 18.33600 20.17500
H  -1.28800 15.78600 20.68100
H  -2.12500 14.31100 21.20400
H  -0.39500 15.30800 23.29900
H  0.53000 15.10000 21.71200
H  -0.38200 13.74600 22.49000
H  -1.97400 11.30100 26.37100
H  -3.04300 12.01200 25.04600
H  -3.59400 11.35600 26.66100
H  -3.33800 14.20500 31.13200
H  0.29500 12.89800 32.56500
H  -0.71300 11.77700 33.41500
H  -0.84100 13.47100 33.90500
Mg 9.26000 47.85800 26.44700
C  7.37200 47.52100 29.45100
C  11.97200 48.70500 28.29100
C  10.91500 47.88300 23.61000
C  6.18000 47.21300 24.65900
N  9.56700 48.16800 28.58300
C  8.67900 48.01700 29.66200
C  9.34900 48.40000 30.99600
C  10.77700 48.83500 30.57800
C  10.80700 48.58900 29.04700
C  11.14900 50.30900 30.94800
C  9.36300 47.25300 32.10900
C  10.40200 47.14000 33.18200
H  9.93500 47.11400 34.58600
N  11.10800 48.31000 25.99300
C  12.10300 48.62100 26.86800
C  13.34800 48.71200 26.15900
C  13.12900 48.23800 24.81300
C  11.67800 48.13200 24.68200
C  14.68800 48.91500 26.87500
C  14.16300 48.00000 23.74500
O  13.92500 47.57200 22.65200
C  15.64100 48.30900 23.95000
N  8.57400 47.74700 24.33800
C  9.51500 47.69000 23.38400
C  8.95800 47.53800 21.91400
C  7.51900 46.92500 22.30900
C  7.41100 47.28700 23.84700
C  8.61700 48.92000 21.25000
C  7.39900 45.37400 22.02700
C  7.97400 44.34800 23.01900
N  7.22800 47.42900 26.92200
C  6.10800 47.26600 26.04900
C  4.92800 46.94900 26.83600
C  5.41600 47.03300 28.14700
C  6.77800 47.34600 28.19800
C  3.56000 46.61300 26.36200
C  5.12500 46.89100 29.59400
O  4.07300 46.42200 30.09200
C  6.34400 47.19500 30.46300
C  6.64600 45.89500 31.19800
O  7.16800 44.95700 30.63500
O  6.13900 46.00900 32.45600
C  6.77000 45.14100 33.48900
H  12.71900 49.07700 28.99500
H  11.37000 47.85600 22.61800
H  5.32900 46.79000 24.12200
H  8.87800 49.26700 31.46000
H  11.55500 48.19100 30.98900
H  11.92500 50.16000 31.69900
H  10.32500 50.91300 31.32900
H  11.51100 50.80200 30.04600
H  9.54000 46.30800 31.59500
H  8.35700 47.31500 32.52500
H  11.21600 47.86300 33.15800
H  10.93600 46.23900 32.88000
H  15.30800 49.45000 26.15500
H  15.16500 47.97900 27.16600
H  14.53700 49.51700 27.77200
H  16.31100 48.15600 23.10400
H  16.08800 47.73400 24.76100
H  15.78000 49.37100 24.15400
H  9.46200 46.85200 21.23300
H  6.70000 47.30500 21.69900
H  7.79100 48.74300 20.56200
H  9.44900 49.29800 20.65700
H  8.30000 49.64900 21.99500
H  7.77500 45.17300 21.02300
H  6.31800 45.24500 21.97800
H  8.27800 44.75500 23.98400
H  8.85200 43.92500 22.53100
H  7.10200 43.69800 23.09900
H  3.33100 45.54900 26.41800
H  3.31400 46.93000 25.34900
H  2.98200 47.23300 27.04800
H  6.08200 47.99300 31.15800
H  7.58900 45.73600 33.89400
H  7.20000 44.24700 33.03800
H  6.11900 44.83300 34.30700

