158

Mg 48.31000 15.80600 28.75600
C  46.42900 15.14000 31.67300
C  50.37700 17.65400 30.59400
C  50.08000 16.37700 25.91200
C  45.94000 14.10200 26.90900
N  48.34800 16.39300 30.85600
C  47.56200 15.87000 31.94400
C  48.14800 16.28800 33.26700
C  49.25400 17.32600 32.97800
C  49.36500 17.18300 31.40000
C  49.03800 18.77100 33.43000
C  48.42000 15.08200 34.25100
C  48.21000 15.40900 35.72000
H  47.89000 16.76100 36.31000
N  50.01700 16.83100 28.31200
C  50.74000 17.54400 29.18300
C  51.91900 18.16000 28.52200
C  51.96700 17.65000 27.19200
C  50.68100 16.84000 27.08200
C  52.94000 18.98900 29.21800
C  52.85500 17.92600 26.04000
O  52.58700 17.47400 24.89900
C  53.93600 18.96900 26.14600
N  47.95500 15.39000 26.71600
C  48.85300 15.70900 25.79300
C  48.41000 15.20100 24.42400
C  47.40100 14.07400 24.83600
C  46.99500 14.57200 26.21800
C  47.80100 16.21900 23.47200
C  48.05600 12.58500 25.04700
C  47.82000 11.58700 23.86400
N  46.55500 14.91400 29.11400
C  45.69700 14.17800 28.29800
C  44.56700 13.68300 29.09300
C  44.80800 14.08100 30.40500
C  46.06500 14.73400 30.40500
C  43.34500 13.04500 28.62800
C  44.34200 13.96500 31.76700
O  43.35600 13.41700 32.28000
C  45.34100 14.63600 32.65000
C  44.64600 15.85600 33.13300
O  44.31600 16.84200 32.50900
O  44.61600 15.74000 34.55700
C  43.94500 16.83900 35.23700
H  51.07100 18.26700 31.17300
H  50.57300 16.58100 24.95900
H  45.18000 13.60100 26.30600
H  47.26500 16.82600 33.61100
H  50.19100 17.05200 33.46300
H  48.03700 19.08800 33.72300
H  49.19400 19.41900 32.56700
H  49.78200 19.10100 34.15500
H  49.46700 14.85400 34.05000
H  47.91500 14.18000 33.90400
H  49.14400 15.05100 36.15100
H  47.38800 14.71900 35.91100
H  53.87000 18.44800 29.39300
H  52.51900 19.43100 30.12100
H  53.19400 19.87100 28.63100
H  53.55100 19.98700 26.09700
H  54.61800 18.79800 25.31300
H  54.62700 18.76700 26.96500
H  49.19300 14.63000 23.92500
H  46.50300 14.00600 24.22200
H  47.65300 15.76100 22.49400
H  48.44200 17.10000 23.42500
H  46.84700 16.56700 23.86800
H  47.71000 12.07800 25.94900
H  49.14500 12.61700 25.07800
H  48.00100 12.02000 22.88000
H  46.84400 11.11400 23.97500
H  48.50300 10.73900 23.90800
H  43.10600 13.51200 27.67200
H  42.54400 13.24300 29.34000
H  43.42000 11.97000 28.46600
H  45.64200 13.98500 33.47000
H  42.86100 16.81500 35.11800
H  44.19700 17.87700 35.02200
H  44.08300 16.67400 36.30600
Mg 5.81200 53.86000 38.80700
C  5.05600 50.42900 39.02200
C  9.07100 53.10000 38.00100
C  6.28300 57.12200 38.18200
C  2.38400 54.57500 39.59900
N  6.87200 52.01100 38.28900
C  6.34600 50.73600 38.53500
C  7.44800 49.67300 38.32500
C  8.72700 50.49600 38.35800
C  8.22100 51.96000 38.20000
C  9.54800 50.19900 39.71100
C  7.39700 48.93000 36.94800
C  7.00400 49.75700 35.73500
H  5.74100 49.50100 34.94900
N  7.44300 54.97900 38.16600
C  8.72400 54.45300 38.05300
C  9.60300 55.56100 37.84200
C  8.88100 56.80000 37.90500
C  7.47900 56.32300 38.10900
C  11.13100 55.43500 37.60600
C  9.40400 58.23500 37.61200
O  10.61300 58.46300 37.43100
C  8.49300 59.36800 37.47200
N  4.47300 55.56200 38.71000
C  4.90700 56.80800 38.41100
C  3.80500 57.86800 38.68500
C  2.57700 56.97300 39.00600
C  3.18200 55.61500 39.16400
C  4.04100 58.87300 39.73400
C  1.45000 56.98200 37.82000
C  -0.02000 57.01500 38.30400
N  4.06900 52.77900 39.35100
C  2.76700 53.23900 39.65100
C  2.03200 52.09500 40.07500
C  2.80500 50.92700 39.91300
C  4.06900 51.42800 39.37200
C  0.59800 52.12900 40.55500
C  2.97400 49.46100 39.98300
O  2.12100 48.63600 40.35700
C  4.38100 49.14500 39.32300
C  4.06200 48.23600 38.18000
O  3.80100 48.62900 37.02500
O  4.13300 46.93600 38.58000
C  4.24400 45.91400 37.52400
H  10.13200 52.85700 38.09100
H  6.48400 58.19000 38.07600
H  1.33400 54.79500 39.80200
H  7.46500 48.95600 39.14500
H  9.41300 50.25800 37.54500
H  10.46800 49.67500 39.45200
H  9.05900 49.51800 40.40800
H  9.70200 51.07700 40.33800
H  6.81500 48.01000 36.99700
H  8.39100 48.49900 36.82600
H  7.75100 49.61400 34.95400
H  7.01100 50.81200 36.00700
H  11.34300 55.45200 36.53700
H  11.46200 54.47900 38.01200
H  11.64500 56.18700 38.20500
H  7.70200 59.07600 36.78200
H  8.96500 60.28500 37.11900
H  8.03800 59.56900 38.44100
H  3.75900 58.33000 37.69900
H  2.00900 57.18700 39.91100
H  4.95700 58.58400 40.25000
H  3.22900 59.09700 40.42600
H  4.32400 59.75700 39.16300
H  1.71300 56.08400 37.26000
H  1.53300 57.84700 37.16300
H  -0.73800 56.32700 37.85900
H  -0.42400 57.94600 37.90500
H  -0.12600 57.00100 39.38800
H  0.51100 51.60100 41.50400
H  0.00000 51.68700 39.75800
H  0.23200 53.14900 40.66800
H  4.92100 48.50200 40.01900
H  3.26100 45.78500 37.07300
H  4.63700 45.06300 38.08000
H  4.99000 46.30400 36.83000

