158

Mg 50.15300 44.53300 41.72600
C  46.82700 45.14300 40.46300
C  49.91600 41.46700 40.48200
C  53.46500 44.29500 42.23000
C  50.34000 47.98500 42.38500
N  48.50800 43.49100 40.76700
C  47.31400 43.83900 40.27000
C  46.57600 42.84600 39.42800
C  47.44500 41.60100 39.72700
C  48.70300 42.22100 40.35200
C  46.94800 40.43200 40.50700
C  46.40500 43.41400 37.92700
C  45.01100 43.19700 37.28000
H  44.67000 44.05300 36.06600
N  51.52300 43.08300 41.35200
C  51.22400 41.83100 40.91200
C  52.35600 40.97200 40.96200
C  53.39000 41.71900 41.56800
C  52.91600 43.09200 41.77900
C  52.22800 39.55900 40.62900
C  54.75500 41.23200 41.96100
O  55.13200 40.06700 41.74200
C  55.73200 42.10400 42.82000
N  51.61800 45.95800 42.17200
C  52.92500 45.59800 42.45700
C  53.79300 46.80000 42.99900
C  52.80000 48.00800 42.89500
C  51.50000 47.29700 42.43000
C  54.40500 46.48700 44.38600
C  53.24900 49.11600 41.86400
C  52.97200 50.53000 42.21600
N  48.79700 46.20500 41.66800
C  49.04100 47.53000 41.96200
C  47.87500 48.32700 41.80100
C  46.91100 47.42400 41.16400
C  47.54000 46.13500 41.13800
C  47.71500 49.75000 41.94300
C  45.59300 47.30100 40.62700
O  44.67500 48.13300 40.51500
C  45.50600 45.80200 40.17000
C  44.22200 45.22300 40.82000
O  43.30900 44.69900 40.16300
O  44.17900 45.56000 42.11000
C  42.87500 45.35100 42.69000
H  49.86200 40.47300 40.03200
H  54.53200 44.34100 42.45900
H  50.42600 49.05800 42.56400
H  45.60700 42.75000 39.91700
H  47.78500 41.21900 38.76500
H  47.15800 39.44600 40.09500
H  45.86000 40.43600 40.56000
H  47.39500 40.50700 41.49900
H  47.09600 42.76700 37.38700
H  46.81800 44.41200 37.77800
H  44.28300 43.43700 38.05600
H  44.92600 42.17600 36.90800
H  51.69200 39.33700 39.70600
H  51.60800 39.04300 41.36300
H  53.18200 39.04700 40.50400
H  55.28200 42.83600 43.49100
H  56.34000 42.80700 42.25000
H  56.46400 41.44900 43.29200
H  54.62200 46.79300 42.29200
H  52.81700 48.49300 43.87100
H  55.49500 46.45800 44.37700
H  54.16600 45.50200 44.78600
H  53.94400 47.13700 45.13000
H  52.85000 48.78300 40.90600
H  54.33700 49.14300 41.91000
H  52.37300 50.54300 43.12700
H  52.44700 51.07300 41.43000
H  53.86200 51.07800 42.52400
H  48.27900 50.32100 41.20600
H  48.02400 50.08000 42.93500
H  46.68100 50.06900 41.81200
H  45.27500 45.69000 39.11000
H  42.50400 44.33000 42.59200
H  42.11800 46.00100 42.25100
H  42.92000 45.76300 43.69800
Mg 47.21100 32.96000 25.52400
C  45.69800 31.98700 28.69100
C  47.73400 35.97600 27.02400
C  48.81300 33.74500 22.86300
C  46.46800 29.77700 24.33900
N  46.83400 33.81100 27.72500
C  46.35000 33.21300 28.85700
C  46.50600 34.09800 30.13700
C  46.95400 35.45800 29.42200
C  47.24300 35.10900 27.99400
C  46.01900 36.67700 29.61200
C  47.53100 33.50100 31.12500
C  47.12300 33.33000 32.56600
H  46.41600 34.38900 33.41600
N  48.04100 34.69800 24.99500
C  48.19900 35.85900 25.73500
C  48.94500 36.83100 24.96100
C  49.22100 36.25900 23.68300
C  48.71900 34.82500 23.78800
C  49.40800 38.21400 25.45100
C  49.90700 36.72700 22.48000
O  50.22400 36.06200 21.51200
C  50.44300 38.18700 22.43700
N  47.55300 31.89600 23.83100
C  48.32600 32.41600 22.86500
C  48.62300 31.39400 21.76400
C  47.88300 30.12400 22.20600
C  47.26300 30.58400 23.52900
C  48.06200 31.90300 20.35400
C  48.68500 28.82900 22.26700
C  49.65700 28.76500 21.04100
N  46.19900 31.26500 26.20700
C  45.87600 30.12100 25.57000
C  45.03000 29.23900 26.37000
C  44.96200 30.04000 27.53700
C  45.67500 31.20600 27.46200
C  44.40400 27.88300 25.95600
C  44.35300 29.98200 28.80600
O  43.61700 29.13200 29.23900
C  44.69900 31.31600 29.58300
C  45.07900 30.85300 30.97900
O  46.10300 30.37800 31.36600
O  43.97400 31.01400 31.81600
C  44.25400 30.86700 33.26400
H  47.95400 36.99500 27.34600
H  49.30300 33.92200 21.90300
H  46.37000 28.75300 23.97300
H  45.55600 34.07100 30.67000
H  47.83300 35.90800 29.88300
H  45.49400 36.97100 28.70400
H  46.63100 37.56800 29.74600
H  45.26200 36.61400 30.39400
H  48.41800 34.13400 31.14800
H  47.70700 32.50600 30.71600
H  48.02100 33.01000 33.09500
H  46.49700 32.43900 32.57800
H  50.49000 38.08700 25.46200
H  49.11300 38.38900 26.48600
H  49.13500 39.17300 25.01000
H  50.65300 38.48300 21.40900
H  51.32500 38.33100 23.06100
H  49.69000 38.84200 22.87500
H  49.70400 31.42200 21.62800
H  47.05300 29.88000 21.54300
H  47.92800 32.98500 20.38200
H  47.11700 31.48400 20.00900
H  48.83600 31.94100 19.58700
H  48.09400 27.91800 22.17400
H  49.24400 28.93600 23.19600
H  50.62900 29.11500 21.39000
H  49.36600 29.32500 20.15300
H  49.71700 27.70500 20.79100
H  44.26400 27.83000 24.87600
H  43.47500 27.64200 26.47300
H  45.13900 27.11700 26.20400
H  43.81900 31.93900 29.74100
H  43.52500 30.21100 33.74100
H  44.26000 31.87100 33.68600
H  45.20300 30.38300 33.49600

