158

Mg 34.91000 2.12300 29.34200
C  32.48600 3.38900 31.70700
C  37.25300 2.20200 31.61500
C  37.01600 1.56800 26.77400
C  32.37800 2.68400 26.89500
N  34.82400 2.69200 31.39200
C  33.82600 3.11500 32.20300
C  34.26900 3.18000 33.70100
C  35.85900 2.95600 33.63700
C  35.99500 2.53000 32.14700
C  36.75000 4.10200 33.98700
C  33.45500 2.24300 34.66400
C  32.79800 2.71400 35.95900
H  33.45300 3.95400 36.65800
N  36.78800 1.75000 29.24900
C  37.63500 1.85100 30.32400
C  38.95200 1.45600 29.83000
C  38.85800 1.26500 28.48100
C  37.49600 1.53400 28.05200
C  40.21300 1.34700 30.72900
C  39.96800 0.86200 27.48700
O  39.72600 0.41500 26.39800
C  41.34300 0.61100 28.01900
N  34.74100 2.27300 27.11600
C  35.73000 1.81200 26.30300
C  35.25000 1.82600 24.84800
C  33.69600 1.87300 24.98100
C  33.56500 2.25800 26.41400
C  35.87600 3.04800 23.99700
C  33.09800 0.44400 24.78700
C  31.80300 0.36200 23.91500
N  32.81600 2.83200 29.27500
C  31.94900 3.04100 28.18100
C  30.65200 3.60500 28.68200
C  30.87500 3.75400 30.04800
C  32.15100 3.27100 30.35900
C  29.45100 4.07900 27.85800
C  30.35000 4.25400 31.33200
O  29.25600 4.79200 31.50400
C  31.29700 4.04200 32.45800
C  31.58800 5.38300 33.03100
O  32.29400 6.21800 32.47800
O  30.82900 5.46500 34.13200
C  31.03900 6.68800 34.87000
H  38.12400 2.26500 32.27100
H  37.73500 1.38700 25.97200
H  31.52800 2.69600 26.21000
H  33.95100 4.19300 33.94800
H  36.16800 2.03800 34.13600
H  36.10600 4.83700 34.47200
H  37.18400 4.61700 33.13000
H  37.54200 3.92500 34.71400
H  34.15600 1.43500 34.87100
H  32.57700 1.86200 34.14200
H  32.70900 1.88300 36.65900
H  31.76800 3.03400 35.79900
H  40.47700 0.29200 30.79400
H  39.96200 1.83600 31.67100
H  40.99800 1.96500 30.29200
H  41.82400 1.52700 28.36300
H  41.86900 0.17000 27.17200
H  41.40400 -0.05200 28.88300
H  35.42300 0.84900 24.39600
H  33.22700 2.61800 24.33800
H  36.34400 2.78800 23.04800
H  36.58300 3.62800 24.58900
H  35.09200 3.77800 23.79700
H  32.90500 0.14000 25.81600
H  33.87300 -0.19100 24.35700
H  31.52800 1.33600 23.51100
H  30.98100 0.03700 24.55300
H  31.95900 -0.24700 23.02400
H  28.62900 3.38300 28.02600
H  29.71800 4.12400 26.80200
H  29.17700 5.10800 28.09200
H  30.84000 3.36600 33.18000
H  30.50700 7.43000 34.27500
H  32.10300 6.86700 35.02600
H  30.47000 6.66800 35.79900
Mg 46.63100 16.41700 28.73300
C  44.99500 16.51100 31.91000
C  49.16500 18.36000 30.17800
C  47.77700 17.18500 25.66900
C  43.71200 15.07000 27.37700
N  47.01100 17.33000 30.78500
C  46.23600 17.21000 31.92700
C  46.91100 17.79800 33.23400
C  48.19400 18.53300 32.61400
C  48.15500 18.06300 31.11100
C  48.11500 20.13800 32.68400
C  47.28200 16.65500 34.26000
C  46.65900 16.95600 35.67500
H  46.67500 18.35000 36.33800
N  48.35800 17.41800 28.05500
C  49.27300 18.12400 28.78400
C  50.33400 18.64400 27.96100
C  49.84300 18.37800 26.61200
C  48.61500 17.60800 26.69700
C  51.67500 19.25000 28.52100
C  50.45900 18.68200 25.29200
O  50.03200 18.31400 24.22100
C  51.77300 19.34600 25.28600
N  45.92100 16.11600 26.71400
C  46.56500 16.54900 25.65800
C  45.81300 16.20900 24.36300
C  44.54100 15.43700 24.94700
C  44.68800 15.53400 26.46400
C  45.55600 17.38600 23.39900
C  44.36200 13.94000 24.44500
C  45.33300 12.90700 25.07400
N  44.72000 15.82500 29.43600
C  43.68700 15.21400 28.79100
C  42.71700 14.83000 29.85500
C  43.24000 15.31100 31.04700
C  44.39200 15.89700 30.72700
C  41.45700 14.05900 29.70300
C  42.91500 15.50300 32.51300
O  41.91300 15.14900 33.11400
C  44.12100 16.21200 33.11200
C  43.55700 17.38900 33.70100
O  43.47100 18.51500 33.17400
O  43.20400 17.10500 35.00000
C  42.49700 18.14800 35.78700
H  49.87600 19.15000 30.42700
H  47.96600 17.56000 24.66100
H  42.76600 14.61600 27.07500
H  46.10800 18.39200 33.67100
H  49.13100 18.22000 33.07400
H  47.64400 20.48700 33.60300
H  47.64300 20.48500 31.76500
H  49.10000 20.60300 32.72900
H  48.33800 16.53900 34.50400
H  46.90300 15.70800 33.87600
H  47.19400 16.23700 36.29600
H  45.62800 16.61100 35.59800
H  52.52200 18.66300 28.16700
H  51.84400 19.31900 29.59500
H  51.82400 20.23600 28.07900
H  51.58500 20.27300 25.82700
H  52.06500 19.69000 24.29400
H  52.53700 18.82000 25.85800
H  46.38600 15.37900 23.94900
H  43.64400 15.98500 24.66000
H  45.83500 18.38400 23.73500
H  44.53100 17.43600 23.03200
H  46.05100 17.06400 22.48300
H  44.57100 13.97700 23.37600
H  43.32500 13.67000 24.64500
H  46.31000 13.31300 25.33700
H  45.45200 12.02100 24.45100
H  44.93600 12.51800 26.01100
H  41.61500 12.99900 29.90100
H  41.04700 14.20500 28.70300
H  40.70600 14.49700 30.36100
H  44.64600 15.56400 33.81500
H  42.64200 17.85400 36.82700
H  41.44500 18.37600 35.62000
H  42.90500 19.14900 35.64200

