158

Mg 8.51600 3.76900 27.97000
C  9.53900 2.10100 30.87400
C  6.58100 5.83000 29.88000
C  7.04500 4.84200 25.19200
C  9.87100 1.04100 26.13500
N  8.03800 3.87700 30.11700
C  8.66600 3.12600 31.17200
C  8.32800 3.64500 32.56500
C  7.20500 4.67600 32.15400
C  7.18000 4.78500 30.62900
C  5.85000 4.26100 32.79200
C  9.56700 4.29300 33.38700
C  9.81500 3.61000 34.72700
H  9.94600 4.55800 35.92100
N  7.17700 5.28000 27.62000
C  6.53500 6.06900 28.52100
C  5.70700 7.03300 27.82100
C  5.87500 6.75800 26.42000
C  6.76300 5.56600 26.35300
C  4.95400 8.14200 28.54700
C  5.15200 7.44800 25.33100
O  5.29900 7.13500 24.15100
C  4.30900 8.57400 25.56800
N  8.40200 3.00000 26.01900
C  7.77200 3.71300 25.01900
C  8.06100 3.12100 23.65200
C  8.95400 1.91300 23.99400
C  9.05200 1.95300 25.50100
C  6.71000 2.90800 22.82200
C  10.36700 2.11900 23.27700
C  10.84900 0.80300 22.68100
N  9.64400 2.04900 28.31400
C  10.22500 1.06500 27.45800
C  11.13400 0.23500 28.20900
C  10.86700 0.60300 29.53600
C  9.94500 1.65200 29.58200
C  11.89400 -0.90500 27.69100
C  11.18600 0.27900 30.91500
O  11.96100 -0.54800 31.36400
C  10.32700 1.22700 31.79500
C  9.56300 0.35600 32.66900
O  8.54100 -0.22600 32.42700
O  10.11300 0.39500 33.99100
C  9.41300 -0.19300 35.15900
H  5.98400 6.45500 30.54800
H  6.70400 5.35700 24.29200
H  10.25300 0.27700 25.45400
H  7.86100 2.80700 33.08200
H  7.43900 5.67500 32.52300
H  6.15400 3.99000 33.80300
H  5.39000 3.38800 32.32900
H  5.12100 5.07100 32.79600
H  9.53300 5.38100 33.44900
H  10.38500 4.13200 32.68500
H  10.76700 3.07800 34.73300
H  9.00500 2.93200 34.99300
H  5.26800 8.19400 29.59000
H  3.88700 7.92900 28.48500
H  5.02100 9.11300 28.05600
H  3.98700 8.91100 24.58300
H  4.81400 9.40800 26.05600
H  3.44000 8.29300 26.16300
H  8.56200 3.89500 23.07000
H  8.53600 0.92700 23.79100
H  6.68400 3.65800 22.03100
H  5.85600 2.96600 23.49700
H  6.66900 1.88800 22.43900
H  11.12100 2.28200 24.04700
H  10.30600 2.84100 22.46200
H  11.92700 0.83500 22.52400
H  10.48000 0.72100 21.65800
H  10.50400 -0.07300 23.23000
H  11.89600 -1.10500 26.61900
H  11.50300 -1.85100 28.06600
H  12.93000 -0.79100 28.01000
H  11.14700 1.59000 32.41400
H  8.71700 -1.00600 34.95000
H  8.90300 0.68400 35.55800
H  10.06700 -0.47000 35.98500
Mg 24.36200 -4.67100 46.25400
C  26.41800 -2.23100 44.98500
C  21.81000 -3.66300 44.16600
C  22.70300 -7.63900 46.85600
C  26.97300 -5.73200 48.47100
N  24.22200 -3.24200 44.54700
C  25.18500 -2.27800 44.25000
C  24.66600 -1.29600 43.16800
C  23.07700 -1.53600 43.36200
C  23.03300 -2.90900 44.08500
C  22.37100 -0.37400 44.14000
C  25.34900 -1.73100 41.80700
C  25.53100 -0.59600 40.79100
H  25.76100 -0.92300 39.32400
N  22.54900 -5.44800 45.65000
C  21.59900 -4.88400 44.84200
C  20.43300 -5.68900 44.67500
C  20.67000 -6.82900 45.54600
C  22.03300 -6.65600 46.11000
C  19.25700 -5.31200 43.80400
C  19.61700 -7.88700 45.82300
O  18.55600 -7.83400 45.24100
C  19.84300 -8.97300 46.84400
N  24.69100 -6.42900 47.48300
C  23.88800 -7.52500 47.62600
C  24.55300 -8.62700 48.44300
C  25.78700 -7.86600 49.10500
C  25.87400 -6.57600 48.27900
C  23.67400 -9.37200 49.48000
C  27.08600 -8.62400 49.33500
C  27.57900 -8.79500 50.77000
N  26.24700 -4.05600 46.73100
C  27.16800 -4.47600 47.70600
C  28.33400 -3.59800 47.68900
C  28.09600 -2.74700 46.57800
C  26.80400 -3.05500 46.07100
C  29.56600 -3.54700 48.71400
C  28.70600 -1.62900 45.82000
O  29.77200 -1.01400 45.83000
C  27.58700 -1.28400 44.76300
C  27.23000 0.16500 45.05900
O  26.23000 0.53600 45.69300
O  28.13800 1.07000 44.35000
C  27.68800 2.47300 44.20100
H  20.88400 -3.20600 43.81200
H  22.34000 -8.66700 46.78900
H  27.79600 -5.98500 49.14200
H  24.87900 -0.25000 43.38700
H  22.70900 -1.48400 42.33800
H  22.07500 -0.62100 45.16000
H  21.50300 -0.06900 43.55500
H  23.01700 0.48200 44.33300
H  24.82100 -2.55300 41.32300
H  26.30100 -2.14000 42.14500
H  26.32300 0.05300 41.16500
H  24.64900 0.04500 40.79300
H  19.19100 -6.03000 42.98700
H  19.23100 -4.29100 43.42200
H  18.35600 -5.32100 44.41700
H  18.86700 -9.41900 47.03700
H  20.20100 -8.53100 47.77400
H  20.60400 -9.54300 46.31000
H  24.91000 -9.36300 47.72400
H  25.40600 -7.58400 50.08600
H  23.46800 -10.41100 49.22600
H  22.72500 -8.83800 49.52500
H  24.05600 -9.28800 50.49800
H  27.83700 -8.13500 48.71500
H  27.06900 -9.62100 48.89400
H  28.43500 -8.15200 50.97900
H  27.77100 -9.84400 50.99300
H  26.84100 -8.38200 51.45800
H  30.44500 -3.85900 48.15000
H  29.36900 -4.38300 49.38500
H  29.83700 -2.60500 49.18900
H  27.96600 -1.27300 43.74100
H  27.22000 2.83700 45.11600
H  27.11100 2.79100 43.33200
H  28.70700 2.84200 44.08900

