158

Mg 26.36400 49.89600 27.11600
C  24.29500 51.18200 29.62700
C  28.59800 49.29700 29.66800
C  28.55100 48.82200 24.84700
C  24.30200 51.08300 24.62500
N  26.37800 50.09600 29.38600
C  25.43500 50.63400 30.17000
C  25.68500 50.36000 31.65300
C  27.21100 50.12600 31.56800
C  27.41300 49.68700 30.09400
C  28.06900 51.34400 32.02300
C  24.99100 49.25100 32.41000
C  24.42100 49.41200 33.82600
H  25.45000 49.89300 34.91600
N  28.32300 49.25600 27.19900
C  29.02100 48.94000 28.35000
C  30.35900 48.55000 27.99000
C  30.38700 48.36300 26.58300
C  29.06600 48.79400 26.11700
C  31.45900 48.38600 28.97500
C  31.52100 47.82200 25.69400
O  31.44100 47.76000 24.45900
C  32.85300 47.39600 26.28900
N  26.45200 50.06600 25.01700
C  27.35500 49.31700 24.32200
C  27.02200 49.20400 22.82300
C  25.52300 49.70900 22.81100
C  25.34200 50.25000 24.28700
C  27.88800 50.15700 22.00800
C  24.38200 48.57800 22.56000
C  23.20400 48.97500 21.68000
N  24.57500 50.98100 27.04700
C  23.81000 51.44100 25.94800
C  22.62500 52.16700 26.49000
C  22.84600 52.12000 27.90200
C  23.99100 51.37500 28.23100
C  21.54800 52.90400 25.65200
C  22.24600 52.46300 29.20600
O  21.21700 53.09000 29.42900
C  23.15300 51.86100 30.40700
C  23.68400 53.02000 31.20200
O  24.70900 53.65400 30.90100
O  22.97100 53.18000 32.33300
C  23.51700 54.13900 33.33000
H  29.41100 49.19600 30.38900
H  29.17300 48.58400 23.98200
H  23.57600 51.46500 23.90400
H  25.50800 51.24700 32.26100
H  27.53100 49.24400 32.12300
H  27.40100 52.07900 32.47300
H  28.48600 51.82100 31.13600
H  28.84600 51.09800 32.74700
H  25.68100 48.40800 32.42900
H  24.10800 48.96700 31.83900
H  23.99500 48.47800 34.19100
H  23.84900 50.33500 33.91700
H  31.78900 47.35700 29.11800
H  31.27500 48.73900 29.99000
H  32.29800 48.95300 28.57300
H  33.39300 48.21000 26.77200
H  33.53400 47.09500 25.49200
H  32.67600 46.47500 26.84400
H  27.03800 48.20400 22.39000
H  25.38700 50.44900 22.02300
H  28.78300 50.47200 22.54600
H  27.44200 51.10900 21.72200
H  28.17100 49.69500 21.06300
H  24.04400 48.26000 23.54700
H  24.82600 47.71400 22.06600
H  23.37500 49.91800 21.16100
H  22.33700 49.05000 22.33700
H  23.13700 48.10000 21.03400
H  21.79100 53.08300 24.60400
H  21.64900 53.89500 26.09500
H  20.64100 52.30500 25.57900
H  22.68100 51.08200 31.00600
H  24.39900 53.62100 33.70800
H  22.66700 54.35300 33.97700
H  23.90400 55.02300 32.82200
Mg -11.44600 39.79300 39.32400
C  -10.38400 36.56800 38.15300
C  -8.44400 41.02700 38.29800
C  -12.74300 42.84300 39.54300
C  -14.62800 38.46000 39.61400
N  -9.65500 38.89600 38.26800
C  -9.40400 37.57300 38.02400
C  -7.99500 37.40500 37.43600
C  -7.36900 38.81400 37.80000
C  -8.56800 39.65200 38.11800
C  -6.26900 38.74500 38.93400
C  -8.03300 37.10600 35.92000
C  -7.17400 35.93100 35.40100
H  -7.97600 35.09000 34.33300
N  -10.69300 41.72300 39.01900
C  -9.45900 42.02700 38.61200
C  -9.26600 43.47800 38.51800
C  -10.55100 44.04000 38.85800
C  -11.39000 42.88900 39.23100
C  -8.02400 44.24700 38.24200
C  -11.00100 45.51300 38.69300
O  -10.16500 46.34500 38.44300
C  -12.42700 46.02400 38.91600
N  -13.43400 40.50600 39.73500
C  -13.69300 41.85400 39.72000
C  -15.18300 42.13700 39.89600
C  -15.79600 40.68600 39.91500
C  -14.57000 39.84500 39.76000
C  -15.47200 43.07200 41.02300
C  -16.88200 40.39200 38.75600
C  -18.24600 39.98100 39.30600
N  -12.33000 37.85200 39.12400
C  -13.61600 37.52400 39.32300
C  -13.75600 36.11900 39.04500
C  -12.50100 35.65200 38.63800
C  -11.65800 36.80300 38.71900
C  -14.94600 35.24200 39.04200
C  -11.74400 34.47600 38.17900
O  -12.07900 33.31300 38.09400
C  -10.28000 35.00600 37.91900
C  -9.34500 34.49900 38.87500
O  -9.56100 34.51200 40.06700
O  -8.21500 34.06800 38.20700
C  -7.13400 33.56900 38.94300
H  -7.45200 41.42600 38.07200
H  -13.12600 43.85300 39.70300
H  -15.60600 37.97400 39.61200
H  -7.45000 36.67400 38.03300
H  -6.81600 39.17900 36.93400
H  -5.36800 39.17600 38.49700
H  -6.09300 37.70000 39.19200
H  -6.59700 39.26200 39.83500
H  -7.56600 37.86900 35.29700
H  -9.05800 37.07400 35.55200
H  -6.92400 35.27000 36.23100
H  -6.28600 36.34800 34.92500
H  -7.90600 44.99900 39.02200
H  -8.18400 44.76000 37.29300
H  -7.03200 43.81200 38.11600
H  -12.99700 45.66800 38.05800
H  -12.39100 47.10500 38.77800
H  -12.82500 45.88100 39.92000
H  -15.52000 42.68000 39.01300
H  -16.06400 40.63700 40.97000
H  -15.66900 44.06100 40.60700
H  -14.67500 43.23000 41.74900
H  -16.37800 42.81000 41.56900
H  -16.42300 39.56600 38.21200
H  -17.06900 41.24200 38.10000
H  -18.22800 38.91200 39.52000
H  -19.02800 40.25800 38.59800
H  -18.31000 40.39500 40.31200
H  -15.68900 35.07800 39.82200
H  -14.57200 34.24800 38.79800
H  -15.54100 35.46500 38.15700
H  -10.01900 34.75200 36.89100
H  -6.48000 33.22900 38.14000
H  -7.42000 32.81500 39.67600
H  -6.62200 34.36300 39.48600

