158

Mg 41.79000 8.26500 29.48300
C  43.54900 9.29200 32.21800
C  39.59100 6.56000 31.65400
C  39.85000 7.23900 26.88500
C  44.03500 9.52800 27.38400
N  41.73700 7.82800 31.67400
C  42.48300 8.49400 32.59400
C  41.91300 8.28200 34.03600
C  40.76300 7.17900 33.76900
C  40.68800 7.18500 32.25200
C  40.90700 5.78400 34.40700
C  41.47500 9.62500 34.72800
C  40.70000 9.67400 36.10300
H  41.27500 10.47900 37.27200
N  39.83700 7.11400 29.27200
C  39.09600 6.50000 30.28700
C  37.83200 6.11300 29.77100
C  37.90300 6.30800 28.32900
C  39.24600 6.86100 28.13800
C  36.76100 5.56500 30.74400
C  36.80200 6.12800 27.24300
O  36.92600 6.34000 26.08300
C  35.34500 5.71200 27.71600
N  42.09900 8.10300 27.51000
C  41.14800 7.67100 26.57000
C  41.60100 7.72300 25.17500
C  42.68800 8.78400 25.25300
C  42.99700 8.80600 26.80800
C  42.22400 6.35600 24.88200
C  42.18000 10.14700 24.70900
C  43.14300 10.87200 23.75500
N  43.59500 9.10000 29.69800
C  44.42000 9.63400 28.76600
C  45.57600 10.22500 29.37200
C  45.23500 10.15700 30.76900
C  44.03100 9.45400 30.87400
C  46.85900 10.85100 28.74300
C  45.62200 10.58300 32.13100
O  46.56600 11.24300 32.49600
C  44.47300 10.06400 33.13100
C  45.07200 9.29900 34.24500
O  45.70200 8.28200 34.14700
O  44.75600 9.80600 35.44000
C  45.19000 9.11600 36.60700
H  38.90700 6.18000 32.41600
H  39.25100 6.97900 26.01000
H  44.67000 10.00000 26.63100
H  42.80600 7.86600 34.50300
H  39.80200 7.58900 34.07900
H  41.73400 5.76200 35.11800
H  41.13200 5.01300 33.67100
H  39.98400 5.56800 34.94400
H  41.01700 10.28600 33.99300
H  42.41900 10.14500 34.89300
H  40.42800 8.68600 36.47300
H  39.76900 10.15600 35.80500
H  37.00800 5.50700 31.80400
H  36.36600 4.57600 30.51100
H  35.91500 6.22500 30.55200
H  34.91800 6.65000 28.07100
H  35.44800 4.93900 28.47800
H  34.80500 5.35400 26.83900
H  40.82800 7.82400 24.41200
H  43.58000 8.64200 24.64300
H  43.29500 6.46300 24.71200
H  41.96600 6.03600 23.87300
H  41.98200 5.56600 25.59300
H  41.98000 10.82700 25.53700
H  41.25500 10.09200 24.13500
H  44.05000 10.28700 23.59800
H  43.42900 11.83600 24.17500
H  42.70300 11.08000 22.78000
H  47.14200 11.75900 29.27500
H  46.77900 10.99300 27.66500
H  47.63500 10.13800 29.02000
H  43.95200 10.95000 33.49400
H  46.21800 9.46800 36.68400
H  45.11500 8.02800 36.57900
H  44.58700 9.47000 37.44300
Mg 26.74900 50.43900 26.73000
C  25.07500 51.73700 29.51700
C  29.37800 49.69800 28.97000
C  28.42100 49.26100 24.16200
C  24.25000 51.60000 24.64200
N  27.17000 50.82500 28.94600
C  26.29900 51.26900 29.83700
C  26.79600 50.88500 31.21500
C  28.33300 50.63900 31.04400
C  28.30300 50.42600 29.53100
C  29.10000 51.81600 31.63100
C  25.95900 49.70800 31.81200
C  25.09300 50.03100 33.04200
H  25.88400 50.04700 34.34400
N  28.57500 49.55200 26.54800
C  29.42300 49.23400 27.60900
C  30.54700 48.57300 27.07400
C  30.43900 48.54400 25.64100
C  29.13800 49.12500 25.36500
C  31.69300 48.00400 27.92100
C  31.36900 47.89000 24.59500
O  31.10300 47.85100 23.41100
C  32.62600 47.21800 24.97700
N  26.44900 50.58600 24.60000
C  27.20800 49.77200 23.81200
C  26.60600 49.57700 22.43200
C  25.19300 50.28700 22.62000
C  25.24900 50.79200 24.07100
C  27.48700 50.19200 21.23600
C  23.98900 49.37200 22.40100
C  22.95600 49.78200 21.34300
N  25.14500 51.61600 26.93100
C  24.15600 51.87300 26.04200
C  22.96100 52.51700 26.69000
C  23.30400 52.44800 28.03400
C  24.67100 51.87500 28.15100
C  21.68200 52.97600 26.01000
C  22.76200 52.68600 29.34000
O  21.67000 53.11700 29.71500
C  23.96300 52.23700 30.37400
C  24.45000 53.32800 31.26300
O  25.22800 54.20500 30.92900
O  23.86400 53.24500 32.45500
C  23.94300 54.36100 33.36800
H  30.11300 49.31800 29.68300
H  28.93000 48.75300 23.34000
H  23.35900 51.87400 24.07200
H  26.70100 51.73600 31.88800
H  28.57700 49.74500 31.61700
H  28.63900 51.96800 32.60700
H  28.82800 52.69600 31.04900
H  30.18800 51.76300 31.60200
H  26.56500 48.84900 32.10100
H  25.35000 49.27200 31.01900
H  24.43000 49.20900 33.31000
H  24.41100 50.87800 32.96800
H  32.59900 48.57800 27.72600
H  31.91000 46.95000 27.75100
H  31.47300 47.95700 28.98700
H  33.28800 47.82000 25.59900
H  33.16000 47.01300 24.04900
H  32.35400 46.28000 25.46200
H  26.54000 48.50600 22.24000
H  25.14000 51.17500 21.99000
H  27.18500 51.19000 20.91700
H  27.42700 49.51300 20.38600
H  28.50200 50.38400 21.58500
H  23.42700 49.37600 23.33500
H  24.28000 48.33200 22.25900
H  23.38200 50.61200 20.77800
H  21.94900 50.04800 21.66400
H  22.96100 48.89800 20.70500
H  21.86300 53.92400 25.50300
H  20.82100 53.05600 26.67300
H  21.36400 52.27400 25.23900
H  23.70000 51.36300 30.97000
H  23.98400 53.99200 34.39300
H  23.07300 55.00300 33.22400
H  24.76800 54.99900 33.05100

