158

Mg 47.52100 24.72500 29.29600
C  48.15100 27.24700 31.77700
C  46.86000 22.46900 31.74000
C  47.13600 22.34300 26.92900
C  49.27600 26.68500 27.03900
N  47.54000 24.86000 31.49000
C  47.54400 25.99900 32.28000
C  47.04100 25.69000 33.68100
C  47.00500 24.09300 33.74700
C  47.24100 23.77400 32.25200
C  48.04300 23.38100 34.68200
C  45.73600 26.46000 34.09400
C  45.56800 27.11900 35.44600
H  46.18700 26.63400 36.75700
N  46.84600 22.86100 29.31600
C  46.64600 22.07700 30.44500
C  46.10600 20.70800 30.04800
C  46.12300 20.72100 28.61100
C  46.65100 22.04200 28.22800
C  45.63400 19.69000 31.12600
C  45.61700 19.71700 27.61200
O  45.48400 19.94100 26.40100
C  45.05700 18.42900 28.12700
N  48.16300 24.54400 27.21500
C  47.85300 23.44000 26.44500
C  48.47100 23.55300 25.11300
C  49.03700 24.96500 25.09800
C  48.87300 25.46800 26.54900
C  49.47400 22.40100 24.82000
C  48.34400 25.98300 24.09100
C  46.89900 26.23900 24.10200
N  48.50300 26.53600 29.32900
C  49.11800 27.21500 28.28500
C  49.57200 28.54300 28.77700
C  49.22000 28.57900 30.10100
C  48.61100 27.34200 30.39000
C  50.28800 29.54600 27.96000
C  49.10900 29.41200 31.33700
O  49.32900 30.60000 31.48600
C  48.47600 28.55200 32.41700
C  49.54100 28.37500 33.48900
O  50.67200 27.96600 33.47700
O  48.94000 28.75100 34.68300
C  49.91200 28.71200 35.84300
H  46.46800 21.79900 32.50800
H  47.22300 21.47700 26.27000
H  49.76400 27.29800 26.27900
H  47.81900 26.04400 34.35700
H  46.00800 23.87500 34.13000
H  47.59900 22.98600 35.59500
H  48.81800 24.06100 35.03500
H  48.51100 22.53700 34.17500
H  44.95400 25.70100 34.06700
H  45.62000 27.13900 33.24900
H  44.48700 26.97600 35.45900
H  45.80600 28.18300 35.45600
H  44.86500 20.14400 31.75100
H  46.49500 19.54300 31.77800
H  45.33100 18.75700 30.65100
H  45.84300 18.01200 28.75700
H  44.78900 17.71300 27.35000
H  44.20200 18.62400 28.77400
H  47.74900 23.41300 24.30800
H  50.09700 24.99700 24.84700
H  50.12500 22.33600 25.69200
H  50.06200 22.60100 23.92400
H  49.02900 21.42100 24.64700
H  48.47000 25.45700 23.14500
H  48.90600 26.91600 24.04600
H  46.48100 25.76100 24.98700
H  46.37600 25.83200 23.23700
H  46.69100 27.30500 24.01100
H  50.77300 30.22600 28.66100
H  49.56700 30.04800 27.31500
H  50.92500 28.92000 27.33500
H  47.51800 28.94000 32.76100
H  49.27000 28.66900 36.72300
H  50.44700 29.65900 35.91400
H  50.61000 27.88400 35.97000
Mg 30.61000 58.60300 39.62800
C  28.30700 56.07300 38.73900
C  33.13900 56.35600 38.72400
C  32.84900 61.06800 39.86000
C  27.97300 60.77400 39.58000
N  30.72800 56.44500 38.79400
C  29.62900 55.60800 38.69800
C  30.03800 54.30700 38.11800
C  31.54200 54.25900 38.52600
C  31.85800 55.81100 38.54700
C  31.78900 53.61800 39.93100
C  29.85900 54.09500 36.58300
C  28.80400 53.12000 36.09000
H  27.80100 53.62400 35.09000
N  32.71500 58.69100 39.36500
C  33.58300 57.65900 39.03400
C  34.96500 58.12000 38.98600
C  34.88500 59.54600 39.34300
C  33.45100 59.82700 39.58900
C  36.21800 57.31300 38.74200
C  36.07300 60.51000 39.46200
O  37.20800 60.18100 39.10000
C  35.83200 61.97700 39.79500
N  30.48800 60.69800 39.33400
C  31.47000 61.43300 39.86500
C  30.89800 62.79000 40.37000
C  29.40000 62.80000 39.90200
C  29.27400 61.33700 39.58900
C  31.15200 63.18300 41.90600
C  29.05600 63.78000 38.79400
C  27.86700 64.76800 39.16300
N  28.47600 58.47100 39.45400
C  27.53300 59.41300 39.49500
C  26.21300 58.86700 39.28600
C  26.48100 57.51000 39.00300
C  27.86800 57.32900 39.05500
C  24.89500 59.62500 39.26000
C  25.87100 56.22200 38.60500
O  24.71200 55.89200 38.46800
C  27.03100 55.32600 38.38000
C  26.77100 54.06400 39.22300
O  27.08200 53.98900 40.38200
O  25.99300 53.18300 38.54800
C  25.44200 52.00400 39.33000
H  33.99200 55.68500 38.60600
H  33.53700 61.80200 40.28400
H  27.15900 61.48700 39.72900
H  29.52400 53.56300 38.72600
H  32.15500 53.75500 37.77900
H  32.15200 54.32300 40.67800
H  32.48200 52.77700 39.90600
H  30.95700 53.08700 40.39300
H  30.80200 53.86800 36.08500
H  29.76900 55.13900 36.28300
H  28.23700 52.56300 36.83600
H  29.42400 52.39200 35.56600
H  36.13000 56.30600 39.15000
H  37.02500 57.78400 39.30300
H  36.40800 57.33200 37.66800
H  35.18800 62.38300 39.01500
H  36.76700 62.51600 39.64300
H  35.44700 61.97500 40.81500
H  31.45800 63.47900 39.73700
H  28.79600 62.99600 40.78700
H  32.01400 63.85000 41.92000
H  31.44500 62.34100 42.53100
H  30.24300 63.65300 42.28200
H  28.73300 63.17600 37.94600
H  29.98400 64.25900 38.48200
H  27.04000 64.64800 38.46300
H  28.23400 65.78900 39.05900
H  27.52700 64.72500 40.19700
H  24.92400 60.70100 39.43400
H  24.22200 59.13800 39.96600
H  24.51400 59.49800 38.24700
H  27.06200 54.97100 37.35000
H  26.15600 51.18300 39.28500
H  24.52100 51.66000 38.85900
H  25.24000 52.23500 40.37600

