158

Mg 40.65700 9.03600 29.49700
C  42.14500 10.55100 32.20300
C  38.30500 7.64000 31.71600
C  39.03300 7.70200 26.93500
C  43.07000 10.35800 27.43300
N  40.32300 9.05200 31.73200
C  41.05400 9.77700 32.60500
C  40.50100 9.56700 34.00500
C  39.33900 8.51300 33.83800
C  39.34600 8.25300 32.35500
C  39.43200 7.26900 34.69100
C  40.11000 10.98300 34.65500
C  39.38600 10.90900 35.99900
H  39.78600 11.78500 37.21000
N  38.93000 7.82700 29.36800
C  38.15200 7.38600 30.33700
C  37.01700 6.71300 29.78600
C  37.20400 6.63700 28.37800
C  38.43200 7.39500 28.16100
C  35.89100 6.04800 30.62200
C  36.44800 5.87900 27.27800
O  36.80200 5.87800 26.14900
C  35.15100 5.18700 27.62200
N  41.04300 8.92400 27.38700
C  40.22800 8.33200 26.56700
C  40.75600 8.55700 25.08200
C  41.93100 9.54500 25.21600
C  42.01200 9.66800 26.75700
C  41.01700 7.21900 24.38600
C  41.60800 10.90000 24.43700
C  40.50600 11.82700 24.97200
N  42.29600 10.07200 29.71800
C  43.20600 10.49900 28.82100
C  44.21800 11.39500 29.43800
C  43.83100 11.46200 30.80200
C  42.68900 10.64600 30.92500
C  45.34900 12.12500 28.72300
C  44.17200 11.98000 32.04200
O  45.13900 12.59800 32.34100
C  43.08200 11.39400 33.05900
C  43.72200 10.47200 34.06600
O  44.26200 9.38200 33.81600
O  43.64400 11.05100 35.31400
C  44.20500 10.34300 36.42600
H  37.61500 7.19000 32.43200
H  38.39900 7.62300 26.04900
H  43.79700 10.68800 26.68800
H  41.32700 9.07800 34.52100
H  38.40100 8.99000 34.12200
H  40.27000 7.27400 35.38900
H  39.57100 6.46900 33.96500
H  38.51300 7.08200 35.24500
H  39.54900 11.48000 33.86400
H  40.90800 11.69600 34.86600
H  39.50100 9.86700 36.29800
H  38.30800 10.96200 35.84800
H  36.27200 5.76500 31.60300
H  35.55800 5.07700 30.25300
H  35.03500 6.70500 30.76900
H  34.45800 5.90900 28.05300
H  35.37500 4.37300 28.31100
H  34.71200 4.78300 26.71000
H  39.88100 8.89900 24.52900
H  42.87600 9.07700 24.93900
H  42.06700 7.15000 24.10000
H  40.41600 7.06400 23.49000
H  40.82800 6.39600 25.07600
H  41.45600 10.67600 23.38100
H  42.52900 11.45700 24.26600
H  40.88100 12.79000 25.32000
H  40.02900 11.39700 25.85300
H  39.69700 11.79000 24.24200
H  45.88600 12.74000 29.44600
H  44.92700 12.88500 28.06600
H  45.96100 11.41000 28.17400
H  42.43500 12.16400 33.47900
H  43.79900 9.33200 36.46100
H  44.05200 10.76600 37.41900
H  45.28000 10.18700 36.33500
Mg 9.63900 48.83100 26.47200
C  7.98900 48.73400 29.52700
C  12.49900 49.62500 28.01800
C  11.13700 48.42400 23.43800
C  6.44600 48.54400 24.85900
N  10.07300 49.16100 28.56300
C  9.34300 49.07700 29.69000
C  10.19100 49.34200 30.90100
C  11.43200 50.00300 30.30400
C  11.37200 49.56400 28.86800
C  11.50300 51.58300 30.53100
C  10.46100 48.19900 31.84100
C  9.95300 48.44000 33.30900
H  9.85700 47.24700 34.25400
N  11.55900 49.02800 25.80000
C  12.62900 49.31500 26.62100
C  13.84800 49.20800 25.83900
C  13.52100 48.87100 24.53300
C  12.00300 48.75700 24.51700
C  15.12100 49.51300 26.34600
C  14.38000 48.70700 23.30100
O  13.96900 48.39600 22.19200
C  15.95200 48.85200 23.48600
N  8.80800 48.62200 24.40500
C  9.69300 48.33900 23.30200
C  8.79700 47.85000 22.14900
C  7.29500 48.20800 22.53700
C  7.47900 48.45500 24.03100
C  9.20500 48.57700 20.80400
C  6.24900 47.10800 22.11700
C  5.72500 47.12100 20.66200
N  7.67800 48.72600 26.98700
C  6.48300 48.63900 26.24100
C  5.37900 48.50200 27.15300
C  5.93000 48.51900 28.43800
C  7.32200 48.62900 28.29700
C  4.04100 48.15000 26.74000
C  5.59300 48.35400 29.91900
O  4.57400 48.11800 30.57900
C  6.92700 48.55900 30.60100
C  7.06200 47.30200 31.40500
O  7.61200 46.26800 31.06300
O  6.34500 47.51700 32.58400
C  6.13400 46.35800 33.44700
H  13.47900 49.79100 28.47100
H  11.64400 48.21800 22.49300
H  5.43300 48.43800 24.46500
H  9.62400 50.11600 31.41900
H  12.32300 49.55500 30.74400
H  10.56700 52.04800 30.84100
H  11.78400 52.02800 29.57600
H  12.20200 52.01200 31.24800
H  11.54100 48.08300 31.93900
H  10.05100 47.27800 31.42600
H  9.04000 49.01900 33.45200
H  10.69900 49.04300 33.82600
H  15.16100 49.37300 27.42600
H  15.53700 50.50300 26.16300
H  15.84000 48.74900 26.05000
H  16.24100 49.80900 23.91900
H  16.49700 48.71100 22.55200
H  16.22100 48.04300 24.16500
H  8.87700 46.77400 21.99500
H  6.94400 49.13900 22.09100
H  8.65700 49.49900 20.61200
H  9.07000 47.91500 19.94800
H  10.18800 49.04900 20.82000
H  5.46100 47.10400 22.87000
H  6.74100 46.15500 22.31200
H  6.06700 48.07600 20.26400
H  4.63500 47.10400 20.67600
H  6.06700 46.23400 20.12900
H  3.97200 47.40200 25.95100
H  3.58600 49.04100 26.30600
H  3.47200 47.82300 27.61100
H  6.98400 49.44200 31.23800
H  5.26700 45.78100 33.12400
H  5.95300 46.79700 34.42800
H  7.06400 45.79000 33.48400

