158

Mg 46.46000 24.20800 28.50400
C  46.89900 26.47500 31.03600
C  45.16400 21.94800 30.79400
C  46.61900 21.69700 26.11600
C  48.02400 26.37500 26.28900
N  46.06600 24.26800 30.64200
C  46.27300 25.33300 31.43200
C  45.71900 25.08600 32.80900
C  45.40400 23.53100 32.80200
C  45.54700 23.24800 31.31900
C  46.30700 22.63800 33.73200
C  44.49300 25.99000 33.29100
C  44.71500 26.76100 34.66600
H  43.88600 26.39600 35.91600
N  45.84400 22.20100 28.41600
C  45.36100 21.46100 29.50600
C  44.96800 20.10600 29.06100
C  45.45000 20.04800 27.73300
C  46.02100 21.39600 27.32600
C  44.21400 19.14100 29.88600
C  45.27400 18.83800 26.73700
O  45.55100 18.96700 25.53500
C  44.71500 17.47300 27.20800
N  47.24200 23.97200 26.50700
C  47.15000 22.87600 25.70300
C  47.90100 23.04000 24.35700
C  48.13400 24.63200 24.37000
C  47.69500 25.07600 25.77000
C  49.26700 22.11900 24.30700
C  47.48100 25.39500 23.28500
C  45.94100 25.63900 23.33400
N  47.30000 26.09900 28.56200
C  47.77800 26.91900 27.56500
C  48.15400 28.25300 28.12900
C  47.84800 28.07000 29.51100
C  47.33800 26.77200 29.70700
C  48.67000 29.44900 27.43000
C  47.84300 28.67600 30.75400
O  48.27000 29.79900 31.05300
C  47.20300 27.67200 31.79800
C  48.37600 27.45400 32.76700
O  49.54000 27.19300 32.40600
O  47.95600 27.38300 34.01700
C  48.99000 27.12900 35.05600
H  44.75500 21.23600 31.51300
H  46.89500 20.90800 25.41300
H  48.57300 27.04900 25.62800
H  46.48300 25.31300 33.55400
H  44.40000 23.28200 33.14600
H  46.88700 23.30200 34.37200
H  46.88600 21.92800 33.14100
H  45.68700 21.98900 34.35000
H  43.63900 25.33400 33.45600
H  44.30300 26.77600 32.56000
H  44.62500 27.84300 34.57600
H  45.76800 26.66400 34.93000
H  44.84200 18.25400 29.97400
H  43.28900 18.88900 29.36700
H  43.85600 19.52000 30.84300
H  44.95300 16.77800 26.40200
H  43.63400 17.57200 27.10700
H  44.87500 17.12200 28.22700
H  47.28600 22.68100 23.53200
H  49.20500 24.76000 24.20900
H  49.21600 21.36100 25.08800
H  50.14200 22.75100 24.46300
H  49.21400 21.61000 23.34500
H  47.68500 24.81900 22.38200
H  48.03400 26.33200 23.22000
H  45.82300 26.69900 23.56100
H  45.39500 25.18800 24.16300
H  45.38600 25.37700 22.43400
H  47.90900 30.22000 27.31000
H  49.20400 29.20700 26.51100
H  49.29500 29.94800 28.17100
H  46.34400 28.14800 32.27100
H  49.47600 26.17700 34.84000
H  48.36300 27.12100 35.94700
H  49.73900 27.91800 35.13000
Mg -8.46100 40.86600 42.81200
C  -7.58900 37.59100 42.04200
C  -5.78400 41.94500 40.79200
C  -9.69500 43.86900 43.04600
C  -11.67500 39.59000 43.98700
N  -6.90700 39.88400 41.55700
C  -6.75500 38.53700 41.48500
C  -5.60400 38.23500 40.57200
C  -4.91900 39.59200 40.25000
C  -5.92500 40.54000 40.88900
C  -3.46200 39.76000 40.82700
C  -6.02700 37.48700 39.27500
C  -5.15000 36.31200 38.92000
H  -4.29200 36.63700 37.72700
N  -7.65100 42.66200 42.18800
C  -6.69900 42.92300 41.29500
C  -6.63400 44.37900 41.07700
C  -7.68800 44.99600 41.78000
C  -8.43100 43.82200 42.37800
C  -5.42100 44.96900 40.36900
C  -7.95300 46.52300 41.72900
O  -7.29700 47.30400 41.06400
C  -9.09700 47.10600 42.45600
N  -10.38300 41.60300 43.49400
C  -10.55600 42.94800 43.53800
C  -11.91400 43.36500 44.09600
C  -12.53800 42.00100 44.51500
C  -11.47000 40.97500 43.94000
C  -11.89300 44.37500 45.23000
C  -14.00300 41.78500 44.04500
C  -15.10100 41.30900 45.02600
N  -9.44200 38.99900 43.03400
C  -10.68000 38.63100 43.56900
C  -10.78200 37.18000 43.61000
C  -9.55500 36.77500 43.06300
C  -8.77600 37.90300 42.71700
C  -11.96800 36.38700 44.02700
C  -8.91900 35.57600 42.64200
O  -9.25800 34.39400 42.67400
C  -7.60100 36.09700 41.91600
C  -6.47200 35.46600 42.74400
O  -6.43800 35.53100 43.94900
O  -5.61400 34.74700 41.89400
C  -4.40700 34.11800 42.49300
H  -4.89600 42.25800 40.24000
H  -10.12500 44.87100 43.10900
H  -12.63400 39.21700 44.35000
H  -4.87200 37.62200 41.09800
H  -4.88700 39.69800 39.16500
H  -2.73300 39.51700 40.05300
H  -3.23300 38.92100 41.48300
H  -3.29300 40.67400 41.39600
H  -6.07100 38.19000 38.44300
H  -7.08700 37.24600 39.35000
H  -5.70700 35.38800 38.76800
H  -4.46000 36.04800 39.72100
H  -4.53200 44.52400 40.81500
H  -5.25100 46.03500 40.52400
H  -5.40000 44.74900 39.30200
H  -9.05700 48.19300 42.38700
H  -8.89100 46.83800 43.49200
H  -10.01900 46.75800 41.99000
H  -12.47900 43.88600 43.32400
H  -12.51900 41.84100 45.59300
H  -12.16100 43.96300 46.20300
H  -12.56400 45.22200 45.08900
H  -10.90500 44.83300 45.25600
H  -14.09100 41.24600 43.10200
H  -14.43800 42.73700 43.74100
H  -14.80900 41.22400 46.07300
H  -15.50700 40.38800 44.60800
H  -16.04000 41.86100 44.97700
H  -11.61500 35.49900 44.55100
H  -12.38100 36.11900 43.05400
H  -12.65800 36.91700 44.68400
H  -7.47400 35.74000 40.89400
H  -4.70700 33.50100 43.34100
H  -3.83900 34.91700 42.97100
H  -3.92300 33.50400 41.73400

