158

Mg 0.08600 7.35800 27.54100
C  1.15400 9.76900 29.93800
C  0.12500 5.06200 30.05100
C  -0.92000 5.18300 25.31200
C  0.43900 9.74200 25.10300
N  0.86000 7.42200 29.67900
C  1.04600 8.50500 30.47300
C  0.78700 8.04100 32.03800
C  0.98900 6.53000 31.96300
C  0.62100 6.31500 30.45800
C  2.27400 5.88600 32.58200
C  -0.65800 8.45500 32.62000
C  -0.79200 8.84800 34.12100
H  0.35300 8.32500 35.01000
N  -0.31200 5.38200 27.63000
C  -0.23600 4.58200 28.78100
C  -0.61900 3.27900 28.36100
C  -0.98500 3.29700 27.02600
C  -0.85600 4.67700 26.60400
C  -0.48700 2.11600 29.28700
C  -1.53900 2.10500 26.09800
O  -1.81100 2.15900 24.89700
C  -1.76100 0.79100 26.79600
N  -0.05200 7.42600 25.40100
C  -0.49800 6.39100 24.74300
C  -0.66000 6.63400 23.25800
C  -0.11300 8.05000 23.11100
C  0.13800 8.47600 24.63200
C  0.10100 5.53800 22.38300
C  -0.79400 9.17600 22.20900
C  -2.04800 9.70200 22.82900
N  0.80300 9.33100 27.43700
C  0.80400 10.16300 26.37900
C  1.36200 11.42600 26.79700
C  1.37000 11.36500 28.23600
C  1.08000 10.05400 28.59100
C  1.55700 12.61300 25.88900
C  1.66500 12.04800 29.50400
O  1.98600 13.24000 29.73600
C  1.33500 11.05300 30.65400
C  2.50400 10.98800 31.57700
O  3.68800 10.72500 31.24500
O  2.08000 11.42700 32.81000
C  3.05500 11.54000 33.89200
H  0.00400 4.44600 30.94500
H  -1.19400 4.40800 24.59300
H  0.40400 10.54100 24.35900
H  1.61700 8.45100 32.61300
H  0.13200 6.19200 32.54600
H  2.52200 6.62900 33.34000
H  3.12200 5.82900 31.90000
H  2.13200 5.00700 33.21200
H  -1.39700 7.72700 32.28400
H  -0.95500 9.31400 32.01900
H  -1.66200 8.31400 34.50200
H  -0.79000 9.93300 34.22900
H  -0.16600 1.16500 28.86300
H  -1.50200 1.86000 29.59200
H  -0.00000 2.24600 30.25400
H  -0.88500 0.27500 27.19000
H  -2.12700 0.04900 26.08700
H  -2.42300 0.86800 27.65800
H  -1.68800 6.60300 22.89800
H  0.88500 7.89400 22.70200
H  0.51800 6.00200 21.49000
H  -0.59500 4.79500 21.99300
H  0.89700 5.04300 22.93900
H  -0.94300 8.83500 21.18500
H  -0.17500 10.06600 22.09400
H  -1.92500 10.74700 23.11300
H  -2.39300 9.11700 23.68100
H  -2.86100 9.69400 22.10300
H  2.59000 12.96100 25.86600
H  0.91000 13.42000 26.23400
H  1.26000 12.37000 24.86900
H  0.46400 11.43500 31.18700
H  2.86100 10.91100 34.76100
H  3.06300 12.56900 34.25100
H  4.03700 11.27500 33.50100
Mg -11.03900 16.81600 40.93700
C  -7.44400 16.81200 40.93900
C  -10.74900 20.26300 40.35100
C  -14.37900 16.99600 40.69800
C  -11.12800 13.44500 41.15500
N  -9.23000 18.38200 40.45100
C  -7.89100 18.09600 40.58500
C  -7.01400 19.39000 40.30200
C  -8.12000 20.49200 40.61700
C  -9.43800 19.70300 40.46000
C  -8.04200 21.19000 41.99600
C  -6.39300 19.41500 38.84900
C  -4.82200 19.03500 38.77200
H  -4.38800 17.98100 37.66200
N  -12.36800 18.38200 40.53700
C  -12.06300 19.66300 40.29500
C  -13.30000 20.39400 40.07300
C  -14.37900 19.48700 40.09600
C  -13.73700 18.21800 40.47200
C  -13.28400 21.83300 39.52900
C  -15.84600 19.73900 39.64800
O  -16.12200 20.78400 39.20800
C  -16.91000 18.73700 39.90000
N  -12.48700 15.43400 40.82300
C  -13.80500 15.72100 40.90400
C  -14.63300 14.45200 40.92200
C  -13.62100 13.36600 41.19800
C  -12.31800 14.11600 41.09100
C  -15.90000 14.36300 41.94700
C  -13.73500 12.18500 40.19200
C  -13.48700 10.79000 40.77200
N  -9.63400 15.37500 40.97100
C  -9.80700 14.02500 41.10200
C  -8.53800 13.39100 41.25100
C  -7.58300 14.49000 41.12900
C  -8.31000 15.65000 41.01900
C  -8.26900 11.88300 41.45500
C  -6.14600 14.69000 41.21200
O  -5.17900 13.91600 41.33300
C  -5.96900 16.24900 41.10200
C  -5.26700 16.75000 42.29300
O  -4.03600 16.99000 42.26700
O  -6.13300 16.88300 43.38900
C  -5.41400 17.32600 44.62100
H  -10.62300 21.34800 40.34300
H  -15.45500 16.97000 40.88600
H  -11.09200 12.37700 41.38200
H  -6.23100 19.54700 41.04400
H  -8.05300 21.24100 39.82900
H  -8.84300 20.87600 42.66500
H  -8.13200 22.26600 41.85100
H  -7.04200 21.14300 42.42800
H  -6.60700 20.42800 38.51100
H  -6.85300 18.66100 38.20900
H  -4.60100 18.63700 39.76300
H  -4.37600 20.02300 38.66200
H  -13.13500 21.71300 38.45600
H  -12.47700 22.43000 39.95400
H  -14.22400 22.32800 39.77000
H  -17.91800 19.11200 39.72400
H  -16.72200 18.57600 40.96100
H  -16.63800 17.83600 39.35000
H  -14.91200 14.37200 39.87200
H  -13.57500 13.07300 42.24600
H  -16.78200 14.23500 41.31900
H  -15.97800 15.33700 42.43100
H  -15.84700 13.58000 42.70300
H  -13.02000 12.44100 39.41100
H  -14.73900 12.14300 39.77000
H  -14.44100 10.38600 41.10800
H  -12.75200 10.73800 41.57600
H  -13.11300 10.16200 39.96300
H  -7.38900 11.77400 42.09100
H  -8.24200 11.43200 40.46300
H  -9.09400 11.51400 42.06500
H  -5.27200 16.52500 40.31100
H  -4.57100 16.64700 44.74900
H  -5.98000 17.27200 45.55100
H  -5.08200 18.35800 44.50300

