158

Mg 0.41500 7.57400 25.75100
C  1.23000 9.72600 28.51200
C  0.92200 4.88800 27.71800
C  -0.28100 5.78100 23.03000
C  0.74100 10.56500 23.65300
N  1.06800 7.35000 27.91100
C  1.18200 8.39200 28.83300
C  1.25000 7.74300 30.24600
C  1.38300 6.17500 29.95300
C  1.02000 6.11900 28.47500
C  2.72400 5.52200 30.34900
C  -0.08500 8.15400 31.08600
C  0.06700 8.16800 32.56000
H  1.33000 7.54400 33.20000
N  0.29800 5.69600 25.40600
C  0.61800 4.71800 26.35700
C  0.34700 3.42400 25.83200
C  -0.05400 3.56400 24.47300
C  -0.09100 5.04500 24.20200
C  0.62100 2.13700 26.61800
C  -0.39900 2.53800 23.38500
O  -0.67900 2.86600 22.25800
C  -0.29900 1.09500 23.69000
N  0.22400 8.18500 23.67700
C  -0.12800 7.16500 22.78900
C  -0.07600 7.75500 21.32300
C  0.22700 9.28000 21.56600
C  0.38000 9.39200 23.04500
C  1.02100 7.10300 20.41200
C  -0.80100 10.17300 20.88200
C  -2.17900 10.13000 21.50800
N  0.85100 9.68400 25.99200
C  0.94200 10.78600 25.06000
C  1.24600 12.05300 25.76600
C  1.26800 11.63500 27.12100
C  1.10400 10.23100 27.20400
C  1.28900 13.49200 25.23100
C  1.50900 12.17000 28.44300
O  1.76700 13.28300 28.83100
C  1.37100 10.94000 29.42900
C  2.57500 10.97000 30.25000
O  3.69800 10.79500 29.80200
O  2.15100 11.18000 31.61100
C  3.13900 11.11100 32.62100
H  1.00400 4.06900 28.43600
H  -0.52000 5.17400 22.15400
H  0.65300 11.44200 23.00900
H  2.04200 8.10000 30.90500
H  0.62200 5.67400 30.55100
H  3.42300 6.23800 30.78000
H  3.15500 4.95500 29.52400
H  2.55400 4.87500 31.21000
H  -0.80900 7.37100 30.86100
H  -0.49300 9.08800 30.70200
H  -0.81700 7.63900 32.91900
H  0.01900 9.13900 33.05200
H  0.69600 1.14500 26.17400
H  0.03800 2.09700 27.53800
H  1.59100 2.19500 27.11100
H  -0.85600 0.77400 22.80900
H  -0.91800 0.73500 24.51200
H  0.74600 0.78800 23.72300
H  -1.01700 7.54600 20.81500
H  1.24700 9.54300 21.28800
H  0.87900 7.46700 19.39500
H  1.03600 6.01600 20.33700
H  2.02200 7.35200 20.76500
H  -0.94900 9.89000 19.84000
H  -0.48000 11.21300 20.93800
H  -2.87200 10.62000 20.82500
H  -2.15800 10.74800 22.40600
H  -2.45800 9.09700 21.71700
H  1.08400 13.43500 24.16200
H  2.20600 13.94700 25.60700
H  0.40400 13.88900 25.72800
H  0.51000 11.16700 30.05900
H  3.44300 12.15400 32.71000
H  3.94700 10.44300 32.32000
H  2.75300 10.78500 33.58700
Mg 40.50500 9.68300 29.26200
C  42.45300 11.14800 31.90800
C  38.46200 8.41500 31.56000
C  38.96100 8.34900 26.77200
C  43.17800 10.68100 27.07200
N  40.53400 9.71400 31.49200
C  41.26900 10.56900 32.36600
C  40.87700 10.35700 33.88300
C  39.64800 9.31400 33.69500
C  39.55100 9.03100 32.16200
C  39.67900 8.08800 34.65800
C  40.55000 11.64700 34.68100
C  41.12700 11.69600 36.08800
H  40.41200 12.48300 37.20000
N  38.90100 8.54100 29.16200
C  38.04000 8.19300 30.22300
C  36.97100 7.42700 29.74600
C  37.14600 7.37300 28.34400
C  38.36600 8.06900 28.01600
C  35.96400 6.79800 30.68300
C  36.26200 6.62400 27.36000
O  36.68300 6.30100 26.28300
C  34.78600 6.32900 27.75300
N  41.12800 9.28100 27.21800
C  40.17200 8.86600 26.38600
C  40.55800 9.04600 24.88700
C  41.90900 9.83400 25.02800
C  42.08600 9.94600 26.53500
C  40.60200 7.65100 24.16100
C  41.79800 11.23300 24.25800
C  41.42900 12.57000 24.98800
N  42.37900 10.71500 29.34800
C  43.37400 10.96300 28.42200
C  44.54500 11.62400 29.06400
C  44.13700 11.76200 30.39300
C  42.82400 11.17400 30.53300
C  45.84300 12.00900 28.45800
C  44.58000 12.21400 31.68100
O  45.63100 12.79800 32.06500
C  43.51000 11.85500 32.73700
C  44.12300 10.89200 33.68900
O  44.55100 9.78500 33.44300
O  44.31800 11.51300 34.88700
C  44.33100 10.57500 36.01000
H  37.78900 8.03600 32.33100
H  38.42900 7.93100 25.91500
H  43.87100 11.16500 26.38000
H  41.64900 9.90200 34.50300
H  38.67100 9.76900 33.86000
H  39.90100 7.28200 33.95900
H  38.75500 7.75900 35.13300
H  40.52400 8.16900 35.34200
H  39.50900 11.96700 34.67600
H  40.95200 12.49300 34.12300
H  42.07600 12.23300 36.09800
H  41.36500 10.69600 36.45100
H  34.96000 7.16300 30.46600
H  36.07700 6.94600 31.75700
H  35.92400 5.72500 30.49600
H  34.19700 6.06500 26.87400
H  34.32400 7.22200 28.17400
H  34.70400 5.53800 28.49800
H  39.76700 9.61700 24.40200
H  42.82400 9.36200 24.67200
H  41.58600 7.51400 23.71200
H  39.83500 7.77100 23.39600
H  40.32900 6.92900 24.93000
H  41.14900 11.13900 23.38800
H  42.74200 11.45800 23.76200
H  42.34000 13.14300 25.16500
H  40.92500 12.48000 25.95000
H  40.75800 13.19000 24.39400
H  45.84100 11.89500 27.37500
H  46.64400 11.36300 28.81800
H  45.93800 13.07000 28.69300
H  43.22300 12.75300 33.28300
H  43.45900 9.92200 36.06200
H  44.15900 11.17600 36.90300
H  45.23000 9.95900 36.02500

