158

Mg 24.73300 -5.98000 46.15500
C  26.88800 -3.56300 44.45500
C  22.29400 -5.17800 43.87300
C  23.39300 -8.89900 46.82200
C  27.76800 -6.84100 47.92100
N  24.73200 -4.66100 44.24300
C  25.61200 -3.68100 43.89900
C  24.99700 -2.73800 42.91900
C  23.48800 -3.12100 42.97600
C  23.47600 -4.41800 43.71600
C  22.66700 -2.03000 43.64600
C  25.62400 -2.88700 41.50400
C  25.52200 -1.60300 40.60800
H  24.81300 -1.74900 39.26300
N  22.90900 -6.82800 45.65600
C  22.05200 -6.38800 44.68300
C  20.95800 -7.23500 44.62100
C  21.19400 -8.27400 45.54600
C  22.52500 -8.03600 46.06800
C  19.75000 -6.98600 43.71200
C  20.17900 -9.30600 45.96300
O  19.14900 -9.42800 45.37600
C  20.49300 -10.28600 47.12800
N  25.60300 -7.75400 46.99400
C  24.76200 -8.78500 47.25100
C  25.40300 -9.81900 48.29600
C  26.72300 -9.03500 48.75600
C  26.72400 -7.82800 47.78100
C  24.34500 -10.02200 49.49400
C  27.97000 -9.88100 48.78900
C  28.77100 -9.83600 50.05300
N  26.87200 -5.20300 46.36700
C  27.90800 -5.68000 47.18400
C  29.00500 -4.70700 47.06900
C  28.69200 -3.91500 45.99800
C  27.37100 -4.26000 45.53400
C  30.23200 -4.64300 47.93300
C  29.11600 -2.80500 45.22100
O  30.15500 -2.17400 45.34400
C  28.03400 -2.56600 44.11700
C  27.70300 -1.14500 44.03200
O  26.82000 -0.49900 44.66600
O  28.36000 -0.63400 42.96400
C  28.00800 0.79700 42.79400
H  21.45000 -4.81000 43.28500
H  22.94000 -9.86900 47.03800
H  28.55700 -7.06000 48.64400
H  25.18300 -1.69100 43.16000
H  23.20100 -3.40900 41.96500
H  23.24500 -1.15400 43.93700
H  22.32600 -2.32100 44.63900
H  21.83400 -1.73100 43.00900
H  25.03500 -3.68100 41.04600
H  26.68600 -3.13400 41.49300
H  26.46000 -1.22700 40.20000
H  25.08600 -0.71400 41.06300
H  19.66400 -5.91400 43.53600
H  18.87300 -7.42900 44.18300
H  19.95600 -7.33600 42.70100
H  20.99900 -9.79100 47.95800
H  21.11100 -11.10400 46.75800
H  19.59400 -10.76100 47.52000
H  25.67300 -10.76000 47.81700
H  26.61200 -8.58300 49.74200
H  23.52000 -9.32300 49.35600
H  24.79200 -9.90800 50.48200
H  23.89200 -11.01400 49.48800
H  28.65700 -9.60900 47.98700
H  27.78200 -10.94100 48.61600
H  28.87000 -10.83300 50.48400
H  28.43500 -9.14400 50.82500
H  29.80600 -9.51300 49.94300
H  30.65300 -5.61300 48.19900
H  30.05500 -4.06900 48.84300
H  31.11800 -4.09400 47.61200
H  28.44100 -2.79900 43.13400
H  28.61800 1.49600 43.36700
H  26.94900 1.01900 42.92200
H  28.29000 1.00800 41.76200
Mg 47.57300 24.34600 28.26300
C  48.48600 26.56900 30.84900
C  46.76200 21.97300 30.66100
C  46.71300 22.18600 25.80900
C  48.44900 26.78900 26.00400
N  47.56800 24.25300 30.48900
C  47.95800 25.29600 31.34900
C  47.63000 24.90300 32.81500
C  47.25300 23.37100 32.65700
C  47.18800 23.17700 31.18100
C  48.28800 22.41400 33.32600
C  46.56700 25.74100 33.52100
C  46.16500 25.42200 34.91900
H  46.47100 26.46000 36.03200
N  46.84500 22.36900 28.22500
C  46.49900 21.55800 29.33600
C  45.93600 20.33300 28.91800
C  45.92200 20.33600 27.48700
C  46.53900 21.62100 27.08400
C  45.41100 19.26600 29.79400
C  45.52700 19.23900 26.53200
O  45.52000 19.41100 25.29900
C  45.12700 17.86100 27.08700
N  47.78100 24.38000 26.16600
C  47.32200 23.41800 25.38000
C  47.38500 23.79200 23.80500
C  47.71000 25.28900 23.98800
C  48.02700 25.55700 25.47700
C  48.39300 23.00100 23.03100
C  46.56200 26.28400 23.50800
C  47.08100 27.59900 22.71100
N  48.26900 26.26600 28.27900
C  48.61200 27.16500 27.30400
C  48.98600 28.46000 27.78400
C  48.81400 28.24000 29.13300
C  48.48100 26.87200 29.42000
C  49.33000 29.69600 27.06400
C  48.97800 29.00200 30.42900
O  49.34400 30.15000 30.65800
C  48.77000 27.89000 31.57400
C  49.90400 27.80400 32.50300
O  51.00000 27.25800 32.32700
O  49.55100 28.43700 33.62900
C  50.37400 28.33400 34.87900
H  46.48800 21.22000 31.40300
H  46.36900 21.63300 24.93200
H  48.63900 27.55700 25.25100
H  48.59100 25.06300 33.30400
H  46.24200 23.23200 33.04000
H  48.68900 21.73300 32.57500
H  47.78500 21.72700 34.00600
H  49.14300 22.81200 33.87300
H  45.63400 25.60100 32.97500
H  46.75700 26.80300 33.37100
H  46.63700 24.49800 35.25200
H  45.11200 25.14900 34.84900
H  45.50200 19.42500 30.86800
H  46.03200 18.38000 29.65800
H  44.39500 19.09700 29.43900
H  44.26700 17.92400 27.75500
H  45.92600 17.46900 27.71600
H  44.84000 17.26200 26.22300
H  46.38200 23.60000 23.42300
H  48.58500 25.46600 23.36300
H  49.36600 23.49200 23.06600
H  48.19600 22.84500 21.97000
H  48.54600 22.02800 23.49900
H  45.96900 26.63400 24.35300
H  45.92500 25.67900 22.86300
H  48.16700 27.55200 22.63400
H  46.72000 28.47200 23.25500
H  46.52100 27.68100 21.77900
H  49.07200 30.51700 27.73300
H  48.71000 29.79500 26.17300
H  50.37500 29.75500 26.76100
H  47.82200 28.15000 32.04600
H  51.10900 29.13800 34.83200
H  50.97500 27.42500 34.85700
H  49.79000 28.41900 35.79500

