158

Mg 24.73300 -5.98000 46.15500
C  26.88800 -3.56300 44.45500
C  22.29400 -5.17800 43.87300
C  23.39300 -8.89900 46.82200
C  27.76800 -6.84100 47.92100
N  24.73200 -4.66100 44.24300
C  25.61200 -3.68100 43.89900
C  24.99700 -2.73800 42.91900
C  23.48800 -3.12100 42.97600
C  23.47600 -4.41800 43.71600
C  22.66700 -2.03000 43.64600
C  25.62400 -2.88700 41.50400
C  25.52200 -1.60300 40.60800
H  24.81300 -1.74900 39.26300
N  22.90900 -6.82800 45.65600
C  22.05200 -6.38800 44.68300
C  20.95800 -7.23500 44.62100
C  21.19400 -8.27400 45.54600
C  22.52500 -8.03600 46.06800
C  19.75000 -6.98600 43.71200
C  20.17900 -9.30600 45.96300
O  19.14900 -9.42800 45.37600
C  20.49300 -10.28600 47.12800
N  25.60300 -7.75400 46.99400
C  24.76200 -8.78500 47.25100
C  25.40300 -9.81900 48.29600
C  26.72300 -9.03500 48.75600
C  26.72400 -7.82800 47.78100
C  24.34500 -10.02200 49.49400
C  27.97000 -9.88100 48.78900
C  28.77100 -9.83600 50.05300
N  26.87200 -5.20300 46.36700
C  27.90800 -5.68000 47.18400
C  29.00500 -4.70700 47.06900
C  28.69200 -3.91500 45.99800
C  27.37100 -4.26000 45.53400
C  30.23200 -4.64300 47.93300
C  29.11600 -2.80500 45.22100
O  30.15500 -2.17400 45.34400
C  28.03400 -2.56600 44.11700
C  27.70300 -1.14500 44.03200
O  26.82000 -0.49900 44.66600
O  28.36000 -0.63400 42.96400
C  28.00800 0.79700 42.79400
H  21.45000 -4.81000 43.28500
H  22.94000 -9.86900 47.03800
H  28.55700 -7.06000 48.64400
H  25.18300 -1.69100 43.16000
H  23.20100 -3.40900 41.96500
H  23.24500 -1.15400 43.93700
H  22.32600 -2.32100 44.63900
H  21.83400 -1.73100 43.00900
H  25.03500 -3.68100 41.04600
H  26.68600 -3.13400 41.49300
H  26.46000 -1.22700 40.20000
H  25.08600 -0.71400 41.06300
H  19.66400 -5.91400 43.53600
H  18.87300 -7.42900 44.18300
H  19.95600 -7.33600 42.70100
H  20.99900 -9.79100 47.95800
H  21.11100 -11.10400 46.75800
H  19.59400 -10.76100 47.52000
H  25.67300 -10.76000 47.81700
H  26.61200 -8.58300 49.74200
H  23.52000 -9.32300 49.35600
H  24.79200 -9.90800 50.48200
H  23.89200 -11.01400 49.48800
H  28.65700 -9.60900 47.98700
H  27.78200 -10.94100 48.61600
H  28.87000 -10.83300 50.48400
H  28.43500 -9.14400 50.82500
H  29.80600 -9.51300 49.94300
H  30.65300 -5.61300 48.19900
H  30.05500 -4.06900 48.84300
H  31.11800 -4.09400 47.61200
H  28.44100 -2.79900 43.13400
H  28.61800 1.49600 43.36700
H  26.94900 1.01900 42.92200
H  28.29000 1.00800 41.76200
Mg 5.32000 55.12700 41.36600
C  4.77200 51.57900 40.79600
C  8.40800 54.85500 40.00300
C  5.48000 58.40900 41.54100
C  1.82200 55.13500 42.54900
N  6.40200 53.36000 40.44600
C  5.95500 52.10100 40.25400
C  7.11800 51.21200 39.64800
C  8.38100 52.17900 39.78000
C  7.71700 53.56200 40.07000
C  9.42500 51.83900 40.88300
C  6.84800 50.77100 38.18400
C  6.13900 51.77900 37.26500
H  6.88500 52.09700 35.92200
N  6.68400 56.42100 40.69800
C  7.93300 56.12400 40.29800
C  8.66500 57.37200 40.10200
C  7.88700 58.49700 40.56800
C  6.59100 57.81100 40.99700
C  10.13900 57.35700 39.60200
C  8.32700 59.88600 40.55200
O  9.44700 60.16500 40.16100
C  7.46900 61.01200 41.10700
N  3.71900 56.55400 41.80200
C  4.16200 57.86400 41.88100
C  3.05300 58.74700 42.20300
C  1.95400 57.72700 42.77300
C  2.44800 56.42300 42.25700
C  3.38800 59.79500 43.27200
C  0.63100 58.12900 42.09700
C  -0.53200 58.01600 42.98000
N  3.65900 53.65800 41.78500
C  2.35900 53.84700 42.29500
C  1.71500 52.58300 42.34100
C  2.62700 51.64900 41.87400
C  3.75000 52.37900 41.46400
C  0.35300 52.30200 42.86500
C  2.88500 50.25700 41.70800
O  2.22000 49.25100 41.92700
C  4.29100 50.13900 40.99500
C  4.13800 49.25200 39.77800
O  3.83500 49.60900 38.65100
O  4.46100 47.96600 40.09300
C  4.49300 47.00400 38.97300
H  9.49600 54.83500 39.91500
H  5.71100 59.45300 41.76000
H  0.77300 55.13800 42.85100
H  7.29600 50.29300 40.20700
H  8.91800 52.25800 38.83500
H  9.28700 50.80400 41.19800
H  9.35700 52.46300 41.77400
H  10.41500 51.95800 40.44200
H  6.53600 49.74000 38.35100
H  7.84300 50.65700 37.75200
H  6.00000 52.68500 37.85500
H  5.12100 51.40200 37.16600
H  10.35500 58.05800 38.79500
H  10.37200 56.48500 38.99000
H  10.84800 57.52100 40.41300
H  6.55700 61.17800 40.53400
H  7.88500 61.98300 40.83600
H  7.36300 60.94200 42.19000
H  2.77200 59.28100 41.29500
H  2.02700 57.69200 43.86000
H  4.24600 59.57600 43.90800
H  2.56500 59.93000 43.97500
H  3.47100 60.76000 42.77400
H  0.57100 57.64100 41.12400
H  0.68400 59.15500 41.73400
H  -0.36500 57.41200 43.87100
H  -1.32900 57.61200 42.35500
H  -0.73700 58.99800 43.40600
H  0.18300 53.04200 43.64600
H  0.23800 51.28100 43.22900
H  -0.25800 52.54800 41.99700
H  4.85300 49.59700 41.75500
H  5.33500 46.31400 39.01600
H  4.76000 47.35900 37.97800
H  3.66800 46.29300 38.99900

