158

Mg 36.01900 1.70200 29.52100
C  34.23400 2.86500 32.39700
C  38.87000 1.88600 31.40600
C  37.59800 1.31100 26.61000
C  32.87300 1.84300 27.76000
N  36.47000 2.22100 31.77900
C  35.60100 2.68800 32.71500
C  36.46000 2.99100 33.99100
C  37.97400 2.76600 33.62800
C  37.81200 2.15700 32.17400
C  38.55400 4.16000 33.51300
C  36.04700 2.03500 35.21000
C  36.74800 2.35100 36.57500
H  35.84300 2.48700 37.82800
N  37.92000 1.44800 29.09900
C  39.00700 1.48500 30.00900
C  40.22200 1.16500 29.29200
C  39.86600 1.14800 27.87800
C  38.33300 1.21200 27.81800
C  41.59300 1.18000 29.91400
C  40.78600 1.00800 26.69800
O  40.29800 1.05100 25.52600
C  42.31200 0.75200 26.96400
N  35.30300 1.44900 27.52100
C  36.20300 1.45200 26.48700
C  35.56500 1.48000 25.05600
C  34.03400 1.46500 25.59000
C  34.05100 1.60900 27.09500
C  35.88100 2.72700 24.19200
C  33.30500 0.11500 25.21500
C  32.86400 0.05000 23.67900
N  34.03100 2.16200 29.94600
C  32.88900 2.09400 29.15700
C  31.77700 2.59500 29.96700
C  32.23200 2.82800 31.28800
C  33.60900 2.60500 31.19400
C  30.40100 2.81500 29.46200
C  31.88600 3.37100 32.55600
O  30.89100 3.82600 32.98700
C  33.25200 3.41800 33.33400
C  33.47800 4.76400 33.77100
O  34.25700 5.58300 33.32700
O  32.57600 5.06000 34.75800
C  32.65000 6.40900 35.34600
H  39.82400 2.05300 31.91000
H  38.09900 1.33600 25.64000
H  32.00300 1.75700 27.10500
H  36.12400 3.96200 34.35600
H  38.55500 2.12400 34.29000
H  37.86700 4.98900 33.68100
H  38.90700 4.21400 32.48300
H  39.39300 4.23500 34.20500
H  36.26000 0.99400 34.96500
H  34.98000 2.14600 35.39900
H  37.35000 3.25800 36.63200
H  37.35600 1.44900 36.62800
H  42.28100 0.39700 29.59400
H  41.39200 0.99700 30.96900
H  42.01800 2.17400 29.77700
H  42.79600 0.62200 25.99600
H  42.30400 -0.21600 27.46500
H  42.72100 1.59400 27.52100
H  35.73400 0.55000 24.51200
H  33.48900 2.35200 25.26700
H  36.68000 3.32100 24.63600
H  34.94400 3.24300 23.98100
H  36.36100 2.41200 23.26600
H  32.37800 -0.02300 25.77200
H  34.07500 -0.61000 25.48000
H  33.51900 -0.67400 23.19400
H  33.00500 1.01000 23.18200
H  31.80500 -0.19900 23.62100
H  30.34200 2.38600 28.46100
H  30.33200 3.88700 29.27500
H  29.75200 2.34700 30.20200
H  33.03800 2.78600 34.19600
H  31.65400 6.79700 35.56000
H  33.04400 7.21300 34.72500
H  33.27200 6.35700 36.23900
Mg 42.48700 41.25500 26.64200
C  41.92000 43.49900 29.30400
C  43.22300 38.76300 29.12900
C  43.60000 39.24400 24.21400
C  42.42700 43.92100 24.46900
N  42.60100 41.13600 28.96100
C  42.20300 42.17600 29.77700
C  42.26500 41.74000 31.29800
C  42.57400 40.21500 31.21200
C  42.95600 39.99800 29.72000
C  43.66900 39.81100 32.22100
C  41.06400 42.19700 32.08100
C  40.74000 41.27600 33.32300
H  40.31200 42.04300 34.59900
N  43.20700 39.23400 26.65400
C  43.30900 38.34200 27.67300
C  43.83200 37.09000 27.17600
C  44.14200 37.29500 25.78800
C  43.66200 38.63600 25.47800
C  44.20600 35.92900 27.99300
C  44.93100 36.35500 24.89400
O  45.22700 36.69300 23.77900
C  45.23500 34.86900 25.34900
N  42.99500 41.57200 24.61500
C  43.39500 40.59400 23.80600
C  43.47400 41.11400 22.27100
C  42.80300 42.50600 22.33800
C  42.81000 42.69100 23.91200
C  44.95400 41.10700 21.87500
C  41.38600 42.57300 21.70400
C  40.15700 41.69200 22.24300
N  42.11800 43.31500 26.81600
C  42.09900 44.21100 25.77400
C  41.78400 45.51300 26.31400
C  41.67200 45.28200 27.72800
C  41.90800 43.92000 27.95600
C  41.71700 46.79100 25.64800
C  41.48400 45.98000 28.98600
O  41.33900 47.18500 29.23000
C  41.60400 44.77300 30.06900
C  42.60700 45.30900 31.04500
O  43.84900 45.39700 30.90900
O  41.94400 45.58100 32.22800
C  42.68100 45.97000 33.40000
H  43.44400 37.96200 29.83800
H  43.78100 38.53600 23.40200
H  42.29100 44.70400 23.71900
H  43.14100 42.21400 31.74100
H  41.62200 39.70600 31.36300
H  44.53000 39.62100 31.58000
H  43.34600 38.91800 32.75500
H  43.97800 40.57700 32.93300
H  40.32700 42.43200 31.31300
H  41.35700 43.12500 32.57100
H  41.51100 40.53500 33.53200
H  39.82300 40.78400 32.99800
H  43.81900 34.97800 27.62900
H  43.91600 36.08700 29.03200
H  45.27500 35.88700 28.20400
H  45.52000 34.32200 24.45100
H  44.39500 34.31200 25.76400
H  45.99600 34.91900 26.12800
H  43.04800 40.41200 21.55300
H  43.39900 43.25400 21.81400
H  45.56100 41.03700 22.77800
H  45.23500 42.02500 21.35900
H  45.04700 40.27900 21.17300
H  41.57900 42.28100 20.67200
H  41.09300 43.60200 21.91600
H  39.43700 42.44800 22.55700
H  40.55800 41.01700 22.99800
H  39.82200 41.03600 21.44000
H  41.55700 46.75100 24.57000
H  42.67400 47.30800 25.71400
H  40.91800 47.40200 26.06900
H  40.61600 44.69500 30.52300
H  43.67700 45.52800 33.44400
H  42.07000 45.87600 34.29800
H  42.90400 47.03100 33.28500

