158

Mg 0.33200 7.59500 25.59000
C  0.88600 9.43800 28.52300
C  0.18700 4.72100 27.47600
C  0.35200 5.91600 22.69100
C  0.68300 10.58000 23.73500
N  0.49300 7.18100 27.79000
C  0.50500 8.11700 28.78500
C  0.46000 7.42100 30.16600
C  0.45100 5.87300 29.80300
C  0.35600 5.92000 28.23800
C  1.59000 5.02800 30.42700
C  -0.67800 7.84900 31.06300
C  -0.45700 7.92300 32.58600
H  0.71700 7.19400 33.28700
N  0.20300 5.59800 25.21700
C  0.08600 4.51900 26.08800
C  0.13300 3.25600 25.29100
C  0.20500 3.67100 23.90900
C  0.23800 5.10600 23.86000
C  0.27600 1.92300 25.79900
C  0.18700 2.84200 22.60900
O  -0.04000 3.25600 21.49000
C  0.29300 1.32500 22.73600
N  0.31600 8.17400 23.44200
C  0.43500 7.29300 22.46700
C  0.34700 8.03300 21.09900
C  0.43200 9.54900 21.40800
C  0.44800 9.45300 22.94000
C  1.36100 7.47400 20.07200
C  -0.66700 10.46600 20.82400
C  -1.90000 10.83900 21.63000
N  0.76600 9.51500 25.96800
C  0.92400 10.62400 25.08500
C  1.21700 11.80300 25.80800
C  1.32100 11.40700 27.19600
C  0.95000 9.98300 27.22900
C  1.47200 13.18500 25.29300
C  1.64500 11.85800 28.52000
O  1.97000 12.99300 28.91000
C  1.27400 10.58100 29.45700
C  2.42900 10.39600 30.36200
O  3.32400 9.58100 30.21300
O  2.31500 11.25600 31.45900
C  3.18300 10.93300 32.54400
H  0.09200 3.74700 27.96000
H  0.28900 5.45800 21.70200
H  0.61900 11.55000 23.23800
H  1.38900 7.48400 30.73200
H  -0.47100 5.42400 30.17300
H  1.13200 4.53700 31.28600
H  2.47500 5.54900 30.79200
H  1.93000 4.24000 29.75500
H  -1.51700 7.16500 30.94100
H  -1.00900 8.77200 30.58600
H  -1.32400 7.59800 33.15900
H  -0.34600 8.93600 32.97400
H  1.24000 1.50400 25.50800
H  -0.52400 1.25400 25.48300
H  0.18200 1.90900 26.88400
H  1.23200 1.06100 23.22300
H  0.43000 0.85700 21.76200
H  -0.57600 0.87600 23.21700
H  -0.63400 7.83300 20.66900
H  1.38400 9.89700 21.00600
H  2.06900 6.81700 20.57900
H  1.79600 8.36200 19.61200
H  0.90800 6.82900 19.32000
H  -0.87300 10.05200 19.83800
H  -0.18600 11.43600 20.69500
H  -2.69900 10.54900 20.94700
H  -2.06700 11.87700 21.91600
H  -2.04100 10.24200 22.53100
H  2.26200 13.08900 24.54800
H  1.92400 13.67100 26.15800
H  0.60700 13.76000 24.96500
H  0.45100 10.89200 30.09900
H  2.98200 11.44000 33.48700
H  4.17200 11.36100 32.37500
H  3.21900 9.87900 32.82000
Mg 43.18000 41.80000 27.05300
C  42.36400 44.11800 29.62700
C  44.24900 39.68000 29.41200
C  44.00200 39.78900 24.61800
C  42.40300 44.31600 24.70300
N  43.23300 41.92300 29.30800
C  42.81900 42.89000 30.12800
C  42.76700 42.40600 31.60300
C  43.71500 41.11100 31.51600
C  43.73200 40.88400 29.96600
C  45.15400 41.23000 32.11500
C  41.31700 42.03600 32.13100
C  40.81600 42.63500 33.41400
H  41.88300 42.85500 34.53100
N  44.08400 39.90800 27.06100
C  44.43200 39.21900 28.12500
C  44.80400 37.81300 27.74900
C  44.57400 37.80200 26.34400
C  44.26700 39.22000 25.95500
C  45.28000 36.70900 28.71700
C  44.68100 36.64200 25.35700
O  44.57600 36.76000 24.17100
C  44.93800 35.22800 25.90700
N  43.33200 42.13600 24.86200
C  43.60200 41.04700 24.15900
C  43.44600 41.38600 22.62900
C  42.70000 42.69600 22.72400
C  42.84800 43.09500 24.14200
C  44.82400 41.44900 21.95200
C  41.27400 42.53200 22.13300
C  40.32800 41.56500 22.84100
N  42.49000 43.81500 27.07200
C  42.23800 44.71000 26.06600
C  41.58300 45.89100 26.62100
C  41.70900 45.70100 27.99000
C  42.23000 44.47300 28.26600
C  40.99100 47.00800 25.79300
C  41.40500 46.31500 29.30200
O  40.93300 47.39500 29.63600
C  41.78200 45.22800 30.37400
C  42.68300 45.91800 31.32600
O  43.89800 46.03700 31.35200
O  41.86700 46.47500 32.25300
C  42.60900 47.16300 33.31200
H  44.44200 38.87300 30.12100
H  44.02900 39.04900 23.81500
H  42.06600 44.96400 23.89100
H  43.31100 43.11500 32.22800
H  43.22000 40.22800 31.92100
H  45.91600 41.03900 31.36000
H  45.23800 40.59300 32.99600
H  45.40600 42.24900 32.40600
H  41.19400 40.95800 32.23100
H  40.58400 42.39800 31.41100
H  39.98100 42.03800 33.78200
H  40.50500 43.64600 33.15000
H  46.23600 36.29400 28.39900
H  44.52400 35.93000 28.61500
H  45.42700 36.94600 29.77000
H  44.85300 34.41500 25.18500
H  44.12300 35.01600 26.60000
H  45.88600 34.99700 26.39200
H  42.95900 40.54800 22.13000
H  43.19600 43.51300 22.20100
H  45.54900 41.50900 22.76400
H  44.87600 42.23000 21.19400
H  44.93000 40.52100 21.38900
H  41.39300 42.10500 21.13700
H  40.87800 43.54800 22.11900
H  40.80400 40.68300 23.27000
H  39.46000 41.20800 22.28600
H  39.93800 42.19500 23.64000
H  40.33800 47.54600 26.47900
H  40.37400 46.51000 25.04600
H  41.77300 47.59300 25.30700
H  40.80400 44.92600 30.75000
H  43.41100 47.83500 33.00600
H  43.06700 46.40200 33.94400
H  42.02500 47.72400 34.04200

