158

Mg -2.15800 17.10500 26.37300
C  -2.70900 14.67900 29.00700
C  -2.61200 19.69100 28.61500
C  -2.13600 19.22500 23.90900
C  -1.87800 14.44900 24.25100
N  -2.77600 17.14600 28.49900
C  -2.77000 16.04700 29.37000
C  -2.76500 16.54000 30.82500
C  -2.92400 18.16200 30.71200
C  -2.72400 18.38000 29.16400
C  -4.17900 18.75800 31.25900
C  -1.53500 16.04300 31.65400
C  -0.87900 16.96300 32.77400
H  -0.64500 16.32500 34.17100
N  -2.28600 19.11700 26.29400
C  -2.45700 20.04700 27.31800
C  -2.47000 21.38800 26.78600
C  -2.39900 21.25800 25.38100
C  -2.31900 19.86200 25.10800
C  -2.61500 22.54200 27.80500
C  -2.33400 22.36000 24.34500
O  -2.49800 22.20600 23.18100
C  -2.22900 23.84000 24.89400
N  -2.01900 16.95200 24.40900
C  -1.94000 17.92200 23.53800
C  -1.81100 17.46500 22.06100
C  -1.74500 15.95800 22.19200
C  -1.85500 15.73600 23.71600
C  -2.97500 17.97700 21.17600
C  -0.47200 15.41900 21.56000
C  0.85000 15.54800 22.32500
N  -2.23000 14.99400 26.52900
C  -2.10100 14.05800 25.54500
C  -2.15200 12.75300 26.06900
C  -2.45600 12.93400 27.48200
C  -2.52500 14.33900 27.68100
C  -2.00600 11.41800 25.26200
C  -2.67100 12.28400 28.78300
O  -2.68900 11.05400 29.05500
C  -2.77800 13.41300 29.81700
C  -1.69900 13.02300 30.73700
O  -0.50900 13.30900 30.63200
O  -2.30500 12.31800 31.75000
C  -1.34500 12.09500 32.83800
H  -2.63300 20.43400 29.41500
H  -2.02800 19.96600 23.11500
H  -1.60200 13.57800 23.65300
H  -3.65100 16.07500 31.25500
H  -2.15600 18.71600 31.25100
H  -4.83400 18.89400 30.39800
H  -3.92800 19.68600 31.77100
H  -4.70800 18.05600 31.90400
H  -0.73500 15.77800 30.96300
H  -1.88100 15.19500 32.24600
H  -1.56800 17.79500 32.91800
H  0.01200 17.41000 32.33500
H  -1.80900 23.26000 27.65200
H  -2.85500 22.27500 28.83400
H  -3.47500 23.01500 27.33100
H  -3.07500 23.98300 25.56700
H  -2.28400 24.48300 24.01600
H  -1.24800 23.98500 25.34700
H  -0.81000 17.75200 21.73800
H  -2.59300 15.48700 21.69500
H  -3.47200 17.20000 20.59500
H  -2.70500 18.77000 20.47900
H  -3.72500 18.29500 21.89900
H  -0.26100 15.84500 20.58000
H  -0.61700 14.34300 21.46900
H  0.74600 16.08400 23.26900
H  1.59900 15.89300 21.61300
H  1.25900 14.58400 22.62700
H  -1.43100 11.64500 24.36400
H  -3.01200 11.01700 25.14300
H  -1.36100 10.78800 25.87400
H  -3.77800 13.30700 30.23700
H  -0.48600 11.48000 32.57000
H  -1.93400 11.73000 33.68000
H  -1.03000 13.00600 33.34700
Mg 46.88400 24.94300 28.68700
C  47.79500 27.15400 31.12900
C  45.71400 22.70400 31.02200
C  46.23000 22.66600 26.09400
C  48.31200 27.06900 26.22600
N  46.81500 24.93400 30.83800
C  47.07800 26.02800 31.63400
C  46.74900 25.79100 33.15100
C  46.34300 24.25400 33.07200
C  46.32200 23.85900 31.57300
C  47.20800 23.28800 33.92400
C  45.61100 26.72600 33.59600
C  45.78500 27.43300 34.86000
H  46.13600 26.67600 36.13300
N  46.12300 22.98600 28.54500
C  45.63800 22.28600 29.69900
C  45.03200 21.07800 29.18400
C  45.14700 21.04200 27.75200
C  45.87000 22.28600 27.37700
C  44.36600 20.00900 30.07600
C  44.70800 20.09600 26.74500
O  44.84600 20.21700 25.52800
C  43.98400 18.93900 27.26500
N  47.29200 24.76700 26.55700
C  46.92100 23.77900 25.72900
C  47.29700 24.05300 24.20100
C  47.53800 25.67200 24.33100
C  47.69300 25.86300 25.81400
C  48.61700 23.33800 23.64400
C  46.41300 26.62700 23.75500
C  46.95400 27.79100 22.85100
N  47.89700 26.78400 28.65700
C  48.40500 27.49900 27.57800
C  49.01000 28.77800 28.09600
C  48.80900 28.60400 29.46600
C  48.07900 27.41900 29.76000
C  49.65500 29.84400 27.29100
C  49.05200 29.22300 30.73600
O  49.63100 30.25500 31.06000
C  48.32500 28.37500 31.88700
C  49.41100 27.96200 32.87500
O  50.04500 26.90000 32.92800
O  49.56500 28.95300 33.79100
C  50.68000 28.72500 34.72600
H  45.22900 22.07200 31.76900
H  46.05800 22.05100 25.20800
H  48.67100 27.75900 25.46000
H  47.62700 25.88300 33.79100
H  45.32300 24.03400 33.38800
H  47.72400 22.57500 33.28100
H  46.49900 22.68600 34.49200
H  47.93700 23.82000 34.53600
H  44.70300 26.15100 33.78100
H  45.43300 27.37400 32.73800
H  44.81300 27.90500 35.00100
H  46.30300 28.38700 34.76500
H  43.29400 19.92800 29.89200
H  44.55900 20.15600 31.13900
H  44.84500 19.03000 30.04800
H  43.11500 19.19300 27.87300
H  44.73300 18.29000 27.71800
H  43.56900 18.41500 26.40400
H  46.42200 23.91400 23.56700
H  48.50000 25.92300 23.88600
H  48.35100 22.67900 22.81800
H  48.92400 22.58500 24.37000
H  49.45900 23.96500 23.35100
H  45.87500 27.02700 24.61400
H  45.74800 26.00100 23.16100
H  46.43400 27.75000 21.89400
H  48.03900 27.72400 22.78000
H  46.71100 28.71200 23.38100
H  50.10400 29.50200 26.35900
H  50.44400 30.27200 27.90900
H  48.97300 30.64200 26.99400
H  47.60500 29.11600 32.23300
H  50.31000 28.00100 35.45200
H  50.95000 29.65600 35.22500
H  51.60600 28.33100 34.30500

