158

Mg 17.08800 -1.49300 28.95700
C  15.78500 0.73900 31.46600
C  19.32200 -2.68400 31.33900
C  18.47200 -3.19100 26.58200
C  15.07700 0.34200 26.55400
N  17.55300 -1.02400 31.11100
C  16.81900 -0.22900 31.89800
C  17.22300 -0.40000 33.39300
C  18.66100 -1.06500 33.22300
C  18.55500 -1.66100 31.80200
C  19.85400 -0.17400 33.42100
C  16.24100 -1.38800 34.13000
C  16.23600 -1.26900 35.76100
H  17.54100 -0.79200 36.41300
N  18.61500 -2.86900 28.98000
C  19.39500 -3.23700 30.03400
C  20.32400 -4.26700 29.57600
C  20.06300 -4.43800 28.14500
C  18.98000 -3.51900 27.84600
C  21.30900 -4.96100 30.53200
C  20.61900 -5.41400 27.15300
O  20.29600 -5.45100 25.99300
C  21.59300 -6.54400 27.63100
N  16.90400 -1.43000 26.93100
C  17.58600 -2.23500 26.12700
C  17.16500 -2.22800 24.66200
C  16.09000 -1.11800 24.68700
C  16.00100 -0.67500 26.15900
C  18.34900 -2.01400 23.66100
C  14.65300 -1.48100 24.11900
C  13.93100 -0.40100 23.23500
N  15.74000 0.27600 28.96300
C  15.06900 0.84100 27.92000
C  14.33900 2.02300 28.43700
C  14.42500 1.90000 29.86200
C  15.38100 0.86200 30.07200
C  13.51700 3.00700 27.58800
C  14.08500 2.44100 31.08500
O  13.16400 3.18400 31.36900
C  14.91900 1.76800 32.26300
C  15.65100 2.86800 32.99100
O  16.26600 3.77700 32.49700
O  15.32800 2.65800 34.30700
C  16.10800 3.51000 35.18800
H  19.94700 -3.13600 32.11200
H  18.78100 -3.76700 25.70700
H  14.54000 0.87100 25.76300
H  17.22300 0.58000 33.86900
H  18.84300 -1.93900 33.84800
H  20.60700 -0.18200 32.63200
H  20.28300 -0.58200 34.33700
H  19.48900 0.84800 33.52100
H  16.66100 -2.35500 33.85100
H  15.26900 -1.21000 33.67100
H  16.02600 -2.28800 36.08600
H  15.42700 -0.56400 35.94900
H  22.28000 -4.46600 30.51300
H  21.52900 -5.95100 30.13500
H  20.91900 -5.16500 31.52900
H  22.41500 -6.01600 28.11500
H  21.94200 -7.12000 26.77500
H  21.04200 -7.26700 28.23300
H  16.80600 -3.23800 24.46100
H  16.48800 -0.33200 24.04500
H  18.41800 -2.74400 22.85400
H  19.35600 -2.04900 24.07700
H  18.26700 -1.11500 23.05100
H  14.07200 -1.74500 25.00200
H  14.79600 -2.38100 23.52200
H  13.00900 -0.21800 23.78700
H  13.77000 -0.61800 22.17900
H  14.48800 0.53100 23.14500
H  12.54100 2.54800 27.42400
H  13.94700 3.12600 26.59300
H  13.34900 3.89200 28.20100
H  14.15900 1.31800 32.90200
H  15.55200 4.40800 35.45700
H  17.06500 3.78000 34.74100
H  16.27600 2.96900 36.11900
Mg 47.99600 24.94400 27.50700
C  48.90900 26.95800 30.22800
C  47.06200 22.49400 29.76700
C  47.26700 22.93600 24.88800
C  49.09300 27.35200 25.37500
N  48.18600 24.75100 29.81100
C  48.37000 25.72600 30.66700
C  48.05500 25.23900 32.12000
C  47.59400 23.81900 31.88900
C  47.54700 23.70300 30.36400
C  48.43700 22.65300 32.62100
C  47.15800 26.32400 32.80500
C  47.52000 26.65800 34.26400
H  46.59000 27.42500 35.19900
N  47.31500 22.96900 27.35900
C  46.98700 22.11500 28.38400
C  46.55400 20.81300 27.94500
C  46.51700 20.95400 26.47600
C  47.03500 22.31400 26.15500
C  46.02500 19.70400 28.90000
C  46.08000 19.88800 25.48500
O  46.25300 19.97800 24.27300
C  45.41500 18.64800 26.01800
N  48.44100 24.98400 25.45000
C  47.94400 24.09300 24.60200
C  48.10000 24.58400 23.13400
C  48.62000 26.02900 23.27600
C  48.76000 26.14800 24.80600
C  48.90900 23.70900 22.20400
C  47.66900 27.10400 22.64000
C  48.31800 27.74800 21.38700
N  48.89900 26.75500 27.70700
C  49.23400 27.65100 26.74700
C  49.74800 28.84800 27.29900
C  49.71500 28.57300 28.70200
C  49.19200 27.32300 28.90800
C  50.22100 29.97800 26.57800
C  50.02100 29.21000 29.99400
O  50.64300 30.26300 30.23600
C  49.38500 28.22100 31.02800
C  50.51000 27.86400 31.95100
O  51.41100 27.05000 31.72100
O  50.39800 28.54800 33.14500
C  51.33000 28.04900 34.15200
H  46.71600 21.80000 30.53600
H  47.08600 22.34700 23.98700
H  49.40000 28.18800 24.74300
H  48.99300 25.26100 32.67500
H  46.55000 23.78400 32.20200
H  48.84100 22.06600 31.79700
H  47.76200 21.98500 33.15600
H  49.31800 22.93200 33.19800
H  46.09500 26.08600 32.81700
H  47.20200 27.31500 32.35400
H  48.36600 27.34400 34.20600
H  47.78800 25.76300 34.82500
H  46.20600 18.70800 28.49500
H  44.94800 19.75000 29.05800
H  46.58900 19.78200 29.82900
H  44.53800 18.89600 26.61500
H  46.11400 18.01300 26.56200
H  45.08000 17.99200 25.21500
H  47.12500 24.60400 22.64700
H  49.64800 26.03000 22.91500
H  49.44800 22.95000 22.77000
H  49.72900 24.21300 21.69200
H  48.30300 23.26300 21.41600
H  47.34100 27.79800 23.41400
H  46.69300 26.67100 22.42400
H  49.13600 27.14900 20.98900
H  48.78700 28.70200 21.62600
H  47.46700 27.86000 20.71500
H  51.27200 29.86500 26.31100
H  50.12100 30.79800 27.28800
H  49.65600 30.24800 25.68600
H  48.62000 28.78900 31.55900
H  50.57600 27.71600 34.86600
H  52.00400 28.77900 34.60000
H  51.90200 27.17100 33.85600

