158

Mg 9.34800 47.80600 26.46400
C  7.29500 48.16900 29.12500
C  11.99900 49.02100 28.32400
C  11.42300 47.34700 23.74400
C  6.68700 47.47800 24.29800
N  9.60400 48.49900 28.53900
C  8.60000 48.47800 29.49600
C  9.17800 48.91600 30.85000
C  10.56300 49.53000 30.43700
C  10.80600 48.96800 29.01100
C  10.65500 51.08500 30.41400
C  9.38100 47.79300 31.93900
C  8.62500 48.02000 33.29400
H  8.58800 46.84900 34.26000
N  11.43400 48.08400 26.12100
C  12.37600 48.61900 27.03100
C  13.70200 48.60700 26.46300
C  13.47100 48.07700 25.10100
C  12.04500 47.83200 24.93200
C  14.99600 48.94100 27.33500
C  14.60800 47.88800 24.10200
O  14.41100 47.29000 22.99100
C  15.98500 48.14900 24.54900
N  9.10200 47.56400 24.29500
C  10.11200 47.18100 23.44700
C  9.56300 47.07200 22.02400
C  8.00200 47.12900 22.19200
C  7.92300 47.39900 23.72000
C  10.07500 48.22000 21.13900
C  7.33200 45.79400 21.73400
C  6.48900 45.88100 20.45900
N  7.36900 47.75200 26.63500
C  6.40900 47.59900 25.72400
C  5.14900 47.51800 26.38000
C  5.43400 47.84400 27.73800
C  6.81100 47.98700 27.84100
C  3.87200 47.38200 25.76400
C  4.82200 48.11100 28.99200
O  3.65700 48.16500 29.21400
C  6.02400 48.21600 30.02900
C  5.94200 47.01700 30.94700
O  6.20900 45.85700 30.63900
O  5.40600 47.43800 32.13100
C  5.10900 46.39500 33.14900
H  12.80500 49.51100 28.87400
H  12.04700 47.12400 22.87600
H  5.78000 47.19600 23.75800
H  8.45500 49.66700 31.16900
H  11.40700 49.06400 30.94500
H  11.05700 51.50900 29.49500
H  11.35200 51.49500 31.14600
H  9.73400 51.65200 30.54900
H  10.43500 47.58300 32.11500
H  9.10600 46.84600 31.47400
H  7.62100 48.32800 33.00400
H  9.07600 48.86500 33.81400
H  14.74300 48.93100 28.39500
H  15.37300 49.90200 26.98600
H  15.80900 48.23700 27.15600
H  16.65500 47.85900 23.73900
H  16.08700 47.28000 25.20000
H  16.28700 49.08300 25.02200
H  9.88800 46.18900 21.47300
H  7.47500 47.94600 21.69900
H  10.71000 48.89900 21.70800
H  9.26700 48.82900 20.73400
H  10.65300 47.83700 20.29700
H  6.67100 45.51100 22.55300
H  8.10600 45.02700 21.69400
H  5.61600 45.24800 20.61900
H  7.17200 45.54300 19.67900
H  6.15200 46.87900 20.17900
H  3.12300 47.83000 26.41700
H  3.58100 46.33600 25.66700
H  3.82900 47.83300 24.77200
H  6.04500 49.13700 30.61200
H  5.03700 45.39300 32.72700
H  4.22000 46.73400 33.68100
H  5.83200 46.35400 33.96400
Mg -2.18700 35.14500 26.19600
C  -3.62700 33.41900 28.90400
C  -1.03600 37.58300 28.53900
C  -1.30100 37.24000 23.77300
C  -4.25600 33.39800 23.96500
N  -2.22600 35.45100 28.45100
C  -2.85300 34.56900 29.34000
C  -2.67100 35.05700 30.74900
C  -1.91100 36.43400 30.59100
C  -1.72700 36.56900 29.13700
C  -2.62500 37.64000 31.28700
C  -1.95800 33.91800 31.67100
C  -2.70700 33.43900 32.95400
H  -1.97200 33.39500 34.31500
N  -1.14500 36.96100 26.18000
C  -0.68100 37.73900 27.17400
C  0.27600 38.76000 26.69900
C  0.24500 38.68200 25.27300
C  -0.77600 37.62700 25.02200
C  0.94700 39.78900 27.65900
C  1.11100 39.37600 24.33600
O  0.93600 39.35000 23.13600
C  2.36600 40.15900 24.77100
N  -2.95900 35.37000 24.26300
C  -2.14100 36.16300 23.43300
C  -2.48900 35.92200 21.92300
C  -3.26600 34.56200 21.96300
C  -3.54800 34.41600 23.45900
C  -3.20800 37.16000 21.24900
C  -2.64000 33.36200 21.23400
C  -1.51000 32.56500 21.99800
N  -3.61600 33.61600 26.35400
C  -4.36700 32.95600 25.34500
C  -5.12200 31.89400 25.96500
C  -4.90000 32.03400 27.36000
C  -3.94900 33.09500 27.53500
C  -6.04300 30.91400 25.25300
C  -5.26600 31.59200 28.62500
O  -6.00400 30.69200 28.96200
C  -4.49900 32.45500 29.62400
C  -5.55400 33.21700 30.34300
O  -6.09100 34.28900 30.04200
O  -5.88800 32.52800 31.50800
C  -7.09700 32.95700 32.20100
H  -0.76700 38.31800 29.30000
H  -1.07700 37.69200 22.80400
H  -4.61300 32.68100 23.22400
H  -3.64100 35.23100 31.21400
H  -0.94400 36.47600 31.09200
H  -3.16100 38.16600 30.49700
H  -2.02600 38.41300 31.76800
H  -3.33600 37.26000 32.02100
H  -1.01100 34.40000 31.91500
H  -1.69200 33.04600 31.07300
H  -3.04600 32.41200 32.81800
H  -3.66100 33.96000 33.04500
H  0.28200 39.83100 28.52200
H  0.92500 40.74800 27.14200
H  1.93500 39.39800 27.90300
H  2.81100 39.43300 25.45200
H  2.08100 41.01100 25.38900
H  3.05000 40.47900 23.98600
H  -1.47900 35.79000 21.53600
H  -4.24500 34.75500 21.52500
H  -2.47800 37.95300 21.08600
H  -3.93300 37.60000 21.93300
H  -3.57400 37.00600 20.23300
H  -2.06400 33.73500 20.38700
H  -3.41600 32.72300 20.81500
H  -1.58300 32.72100 23.07400
H  -0.53200 32.86400 21.61900
H  -1.67200 31.51600 21.75000
H  -6.15100 31.25000 24.22100
H  -7.05100 30.88800 25.66400
H  -5.72100 29.90200 25.49800
H  -3.86100 31.85600 30.27500
H  -7.92000 33.00100 31.48800
H  -6.99300 33.86300 32.79900
H  -7.39800 32.12600 32.83900

