158

Mg 26.44100 49.11600 26.91300
C  24.35600 50.27900 29.48500
C  28.81400 48.38800 29.27900
C  28.50100 48.23700 24.42200
C  24.06600 50.43900 24.58400
N  26.56200 49.28400 29.15300
C  25.55100 49.65300 29.96700
C  25.91700 49.40900 31.44500
C  27.44900 49.01000 31.40000
C  27.64800 48.85700 29.83800
C  28.39600 50.04300 32.07400
C  25.07600 48.26000 32.12600
C  24.72800 48.18200 33.64800
H  25.55200 49.02100 34.58400
N  28.38400 48.36600 26.83000
C  29.18600 48.12500 27.91300
C  30.46100 47.60900 27.46700
C  30.42700 47.66500 26.02800
C  29.02600 48.10500 25.68100
C  31.47700 46.98000 28.43900
C  31.46500 47.26800 25.00500
O  31.28800 47.48400 23.81100
C  32.68500 46.73200 25.57100
N  26.26800 49.36200 24.82000
C  27.21100 48.76200 24.04600
C  26.66000 48.77500 22.62700
C  25.22900 49.40800 22.67100
C  25.14600 49.73800 24.11300
C  27.58600 49.47300 21.59000
C  23.99900 48.44200 22.28900
C  22.92000 49.19000 21.42600
N  24.63700 50.20900 26.95000
C  23.79300 50.65200 25.95800
C  22.75900 51.42900 26.52300
C  22.95400 51.33300 27.92700
C  24.11100 50.59200 28.13100
C  21.68900 52.29900 25.76000
C  22.39700 51.71100 29.18100
O  21.48900 52.49100 29.45400
C  23.24700 50.92200 30.32600
C  23.77400 51.89900 31.35900
O  24.72500 52.62100 31.24300
O  23.08700 51.62300 32.53300
C  23.17400 52.73600 33.39300
H  29.55500 48.22300 30.06300
H  28.98200 47.65800 23.63000
H  23.38500 50.85400 23.83800
H  25.78600 50.34500 31.98700
H  27.62400 48.01500 31.80700
H  29.07300 50.44200 31.31800
H  29.04500 49.51400 32.77200
H  27.94100 50.76800 32.74900
H  25.65400 47.35200 31.95500
H  24.14700 48.32700 31.56000
H  24.83100 47.15500 33.99800
H  23.69200 48.47400 33.82000
H  31.37100 47.20200 29.50100
H  32.48100 47.34700 28.22800
H  31.59200 45.89700 28.38800
H  33.20000 46.51400 24.63500
H  32.56300 45.74100 26.00800
H  33.09100 47.44200 26.29100
H  26.57300 47.72700 22.33900
H  25.35800 50.36700 22.17000
H  28.44700 49.92100 22.08600
H  27.19300 50.26200 20.94900
H  27.83400 48.79600 20.77300
H  23.51700 48.08300 23.19800
H  24.24900 47.61000 21.63100
H  23.30600 50.18300 21.19800
H  21.97400 49.24500 21.96600
H  22.72800 48.57500 20.54600
H  22.15300 52.46400 24.78800
H  21.66300 53.24900 26.29300
H  20.79600 51.68000 25.67100
H  22.71700 50.09000 30.79100
H  23.42500 53.72000 32.99600
H  23.77400 52.46600 34.26200
H  22.17000 52.95700 33.75400
Mg -2.04100 34.13600 26.83200
C  -3.81300 32.37500 29.46700
C  -0.52200 36.06200 29.39700
C  -1.27500 36.43400 24.53500
C  -3.85700 32.28800 24.61100
N  -2.29400 34.29900 29.18900
C  -2.97500 33.42400 30.04200
C  -2.71900 33.75100 31.46300
C  -1.78500 35.01300 31.38100
C  -1.48600 35.12800 29.93600
C  -2.49900 36.36500 31.85800
C  -2.08700 32.44400 32.11200
C  -2.79200 31.80200 33.24100
H  -2.01900 31.72700 34.58400
N  -0.85700 35.86800 26.90700
C  -0.26100 36.41800 28.01800
C  0.57600 37.54600 27.53600
C  0.35200 37.61900 26.17200
C  -0.62000 36.64200 25.81200
C  1.50500 38.37100 28.46400
C  1.04800 38.50700 25.21100
O  0.99800 38.39900 23.96800
C  1.95500 39.60100 25.75400
N  -2.39900 34.31600 24.86600
C  -2.07900 35.43300 24.06300
C  -2.66500 35.22200 22.64000
C  -2.97600 33.68700 22.66200
C  -3.06900 33.36700 24.14000
C  -3.79100 36.17600 22.11600
C  -1.98700 32.74000 21.93300
C  -2.48500 32.08300 20.60500
N  -3.40500 32.51100 26.96700
C  -4.09600 31.87700 25.93600
C  -4.86200 30.74600 26.44800
C  -4.79000 30.93000 27.83700
C  -3.91400 32.01000 28.14700
C  -5.67100 29.73300 25.66100
C  -5.31700 30.41600 29.03300
O  -6.07900 29.46900 29.23600
C  -4.65900 31.29000 30.15800
C  -5.80500 31.89000 30.95100
O  -6.39600 32.95800 30.74300
O  -6.15600 31.07600 31.97000
C  -7.22400 31.41800 32.95800
H  0.03000 36.58600 30.18000
H  -1.16500 37.31200 23.89600
H  -4.37400 31.71000 23.84200
H  -3.64800 33.94100 32.00000
H  -0.89800 34.78300 31.97200
H  -3.51200 36.05700 32.11600
H  -2.48300 37.01300 30.98200
H  -2.07600 36.86800 32.72700
H  -1.13400 32.69900 32.57500
H  -1.81900 31.85400 31.23500
H  -3.01700 30.76900 32.97800
H  -3.76800 32.27400 33.35600
H  2.52600 38.28700 28.09100
H  1.36000 37.94400 29.45600
H  1.26600 39.43100 28.54200
H  1.39400 40.15800 26.50400
H  2.31800 40.18500 24.90800
H  2.86900 39.22300 26.21200
H  -1.81000 35.36600 21.98000
H  -4.01300 33.55900 22.35200
H  -4.28900 36.47200 23.03900
H  -4.49100 35.69100 21.43600
H  -3.31000 37.00700 21.60100
H  -1.75900 31.98100 22.68100
H  -1.04100 33.22000 21.68400
H  -1.66300 32.20300 19.90000
H  -3.45700 32.50200 20.34200
H  -2.66000 31.00800 20.63500
H  -5.77700 28.80000 26.21500
H  -5.33700 29.57200 24.63600
H  -6.67700 30.15400 25.64800
H  -4.09500 30.63100 30.81700
H  -6.78500 31.64000 33.93100
H  -7.77300 30.48400 33.08100
H  -7.83700 32.19300 32.49800

