158

Mg 42.93900 41.62900 26.10400
C  42.37000 44.25600 28.27300
C  43.82000 39.58600 28.62600
C  43.60300 39.18600 23.73800
C  42.41600 43.88900 23.45600
N  43.23100 41.97200 28.19400
C  42.80500 43.06400 28.84700
C  43.04300 42.72700 30.37200
C  43.88400 41.41400 30.33000
C  43.57400 40.92100 28.96000
C  45.35900 41.48100 30.78800
C  41.78900 42.77300 31.27600
C  41.74400 42.25900 32.66300
H  42.00500 43.16500 33.86800
N  43.55000 39.67600 26.18500
C  43.86700 38.98600 27.33300
C  44.11500 37.65400 27.00600
C  43.89700 37.49300 25.68900
C  43.66200 38.79200 25.10300
C  44.65200 36.69200 28.01700
C  43.87600 36.24200 24.83300
O  43.74700 36.26100 23.61600
C  44.08000 34.89000 25.38000
N  43.09900 41.59300 23.89200
C  43.42500 40.45400 23.20500
C  43.57500 40.76500 21.72300
C  42.95300 42.19800 21.62200
C  42.80400 42.63500 23.06300
C  45.04000 40.66200 21.13700
C  41.59200 42.26800 20.72100
C  40.30800 41.81100 21.44000
N  42.45500 43.66000 25.86500
C  42.20300 44.38500 24.77000
C  41.78200 45.73400 25.10100
C  41.82000 45.77000 26.54000
C  42.28200 44.48900 26.89700
C  41.58400 46.87600 24.18000
C  41.57100 46.52500 27.74300
O  41.24200 47.71200 27.85900
C  41.91200 45.55500 28.96900
C  43.04200 46.07300 29.65800
O  44.09600 46.36500 29.08800
O  42.96500 46.06600 31.04500
C  44.26500 46.41600 31.78500
H  44.10900 38.96300 29.47500
H  43.61000 38.37700 23.00400
H  42.12000 44.44500 22.56300
H  43.60700 43.54900 30.81200
H  43.38300 40.67500 30.95500
H  46.02800 41.24700 29.96000
H  45.59500 40.74900 31.56000
H  45.49800 42.48900 31.17700
H  40.99200 42.40000 30.63200
H  41.53800 43.82800 31.38600
H  42.56000 41.55500 32.82700
H  40.81300 41.69800 32.74200
H  45.50100 36.21400 27.52800
H  44.02400 35.84400 28.28900
H  45.03800 37.13000 28.93700
H  43.85800 34.25800 24.52100
H  43.28900 34.71800 26.11000
H  45.11800 34.72100 25.66700
H  42.90600 40.11700 21.15800
H  43.70300 42.80600 21.11700
H  45.67100 40.53300 22.01600
H  45.29600 41.51700 20.51200
H  45.07700 39.81100 20.45700
H  41.68300 41.89000 19.70200
H  41.43400 43.32700 20.51900
H  40.44200 41.01200 22.16800
H  39.48800 41.59400 20.75500
H  39.94800 42.67300 22.00100
H  40.84700 47.61600 24.49200
H  41.33600 46.53800 23.17400
H  42.57300 47.33400 24.19800
H  41.08600 45.44800 29.67100
H  43.91100 46.71300 32.77200
H  44.88000 47.16200 31.28200
H  44.85600 45.50400 31.87700
Mg -12.00300 16.24500 41.33700
C  -9.07000 14.50700 40.59100
C  -10.64100 18.98900 39.84100
C  -15.12300 17.50300 41.07900
C  -13.46100 13.15200 42.38800
N  -10.07100 16.57000 40.16100
C  -8.95800 15.81500 40.16300
C  -7.79400 16.62100 39.63600
C  -8.33400 18.06200 39.46100
C  -9.77800 17.88600 39.82100
C  -7.61300 19.21000 40.23700
C  -7.31900 16.02200 38.26000
C  -5.75700 15.94200 38.16500
H  -5.16400 16.78900 36.99500
N  -12.76300 18.00200 40.59700
C  -12.03100 19.00500 40.00400
C  -12.91200 20.09700 39.66000
C  -14.22400 19.70300 40.05700
C  -14.10100 18.36600 40.58500
C  -12.41900 21.36500 38.88800
C  -15.42700 20.55700 39.93300
O  -15.28700 21.59200 39.36300
C  -16.77800 20.27300 40.49200
N  -14.08900 15.31200 41.53000
C  -15.17900 16.15000 41.45100
C  -16.43800 15.42900 41.92900
C  -15.90700 14.07300 42.62300
C  -14.41000 14.16100 42.16500
C  -17.52000 16.15700 42.77900
C  -16.61400 12.77800 42.25500
C  -16.63100 11.66600 43.33800
N  -11.42000 14.31500 41.60400
C  -12.09600 13.17500 42.04200
C  -11.20300 12.02600 42.10500
C  -10.04200 12.56200 41.58800
C  -10.20400 13.92000 41.23700
C  -11.47000 10.63700 42.53900
C  -8.73300 12.13200 41.17600
O  -8.14900 11.02600 41.22700
C  -8.05100 13.44400 40.52400
C  -6.88200 13.71400 41.35700
O  -6.89400 14.27500 42.46700
O  -5.70100 13.42300 40.68000
C  -4.57900 14.05500 41.28600
H  -10.13700 19.92500 39.58900
H  -16.11800 17.94400 40.99400
H  -13.90700 12.24100 42.79300
H  -6.96900 16.49100 40.33600
H  -8.32600 18.50300 38.46500
H  -8.02500 20.17500 39.94200
H  -6.53100 19.14600 40.11900
H  -7.82500 19.07100 41.29600
H  -7.67200 16.54700 37.37200
H  -7.73500 15.02500 38.11400
H  -5.50200 14.89900 37.97500
H  -5.26800 16.21400 39.10100
H  -13.06300 22.20900 39.13700
H  -12.34700 21.20200 37.81300
H  -11.38300 21.53300 39.18300
H  -17.48400 20.99100 40.07500
H  -16.72200 20.10100 41.56700
H  -17.06600 19.39000 39.92100
H  -16.78500 15.18900 40.92300
H  -16.01000 14.15300 43.70500
H  -17.32800 17.22700 42.86300
H  -17.60800 15.76200 43.79100
H  -18.47300 16.02200 42.26800
H  -16.26600 12.21600 41.38800
H  -17.63900 13.02900 41.98500
H  -16.45300 12.13800 44.30400
H  -15.94100 10.85900 43.09200
H  -17.62500 11.22200 43.27200
H  -11.73200 9.95500 41.73000
H  -12.26400 10.51800 43.27800
H  -10.53200 10.36700 43.02400
H  -7.71500 13.26400 39.50300
H  -4.69500 15.13800 41.30900
H  -3.75100 13.88900 40.59700
H  -4.28300 13.74100 42.28700

