158

Mg 48.72600 44.99500 42.27400
C  45.67400 45.46400 40.82000
C  48.55100 41.68000 41.35700
C  52.02300 44.75000 42.98400
C  48.99700 48.60500 42.53500
N  47.24600 43.72300 41.31900
C  46.05000 44.12000 40.82200
C  45.34600 42.99400 40.11000
C  46.21700 41.73200 40.42100
C  47.37800 42.42100 41.14500
C  45.52300 40.81300 41.45100
C  45.04100 43.09600 38.56700
C  43.70000 42.48900 37.99300
H  43.54900 41.96300 36.56900
N  50.11300 43.42700 42.22600
C  49.81100 42.14400 41.86500
C  51.06400 41.40300 41.94900
C  52.09100 42.22700 42.49200
C  51.46800 43.51600 42.63600
C  51.14000 39.99500 41.47900
C  53.51800 41.82300 42.76200
O  53.90600 40.66700 42.54800
C  54.48300 42.78900 43.32100
N  50.29500 46.52400 42.72000
C  51.55700 46.09500 42.94000
C  52.48300 47.32200 43.28900
C  51.40200 48.45300 43.30900
C  50.16700 47.83500 42.80700
C  53.30900 47.23500 44.61000
C  51.89000 49.75500 42.71100
C  51.62600 50.99100 43.54400
N  47.58100 46.73000 41.82900
C  47.74800 48.08200 42.11400
C  46.46400 48.72800 41.95000
C  45.69200 47.73800 41.31800
C  46.34900 46.53600 41.36300
C  46.09100 50.10200 42.12700
C  44.42800 47.47800 40.60400
O  43.50500 48.25100 40.46700
C  44.41500 45.97300 40.20900
C  43.17200 45.46300 40.77400
O  42.18600 45.09900 40.17000
O  43.17400 45.55500 42.14500
C  41.92300 45.79600 42.87100
H  48.45200 40.62500 41.09400
H  53.09100 44.78600 43.21100
H  49.01000 49.68400 42.70600
H  44.45100 42.87600 40.72100
H  46.46800 41.17500 39.51900
H  46.02500 39.87100 41.67300
H  44.61400 40.46700 40.95900
H  45.24800 41.29900 42.38700
H  45.78300 42.55900 37.97700
H  45.06400 44.09100 38.12300
H  42.91400 43.22400 38.17200
H  43.45500 41.65300 38.64800
H  52.07800 39.65500 41.04000
H  50.37400 39.63800 40.79200
H  50.90200 39.45000 42.39300
H  54.74600 43.67200 42.73900
H  55.45900 42.30900 43.39800
H  54.19100 43.04300 44.34000
H  53.13800 47.48400 42.43200
H  51.03800 48.67800 44.31100
H  54.19700 47.84900 44.45800
H  53.65500 46.25300 44.93300
H  52.84900 47.79000 45.42700
H  51.56400 49.97300 41.69400
H  52.97500 49.70300 42.61500
H  52.02300 50.94100 44.55800
H  50.59700 51.34100 43.62000
H  52.16200 51.80300 43.05400
H  45.58800 50.23900 43.08400
H  45.45700 50.33100 41.27000
H  46.99400 50.71100 42.09100
H  44.29800 45.94500 39.12600
H  42.13500 45.85000 43.93900
H  41.08200 45.11900 42.72300
H  41.68800 46.84800 42.70800
Mg 30.36700 58.56800 40.24900
C  27.44900 56.67100 39.34100
C  32.18500 55.80700 39.30500
C  33.03800 60.57300 39.90100
C  28.23300 61.36600 40.32600
N  29.84000 56.56200 39.23500
C  28.63900 55.93500 39.07200
C  28.67600 54.44700 38.74900
C  30.22500 54.24200 38.86200
C  30.83000 55.64800 39.10300
C  30.54900 53.23800 40.03300
C  28.10400 54.13100 37.31500
C  28.03400 55.25600 36.24000
H  28.69600 55.03200 34.86300
N  32.38800 58.18000 39.84600
C  32.94300 56.98500 39.48600
C  34.37900 57.12100 39.51100
C  34.67600 58.50700 39.62600
C  33.31900 59.20600 39.72800
C  35.22800 55.89100 39.43900
C  36.10900 58.99700 39.86000
O  37.02600 58.27300 40.10400
C  36.38100 60.47800 40.07100
N  30.54600 60.67400 40.20700
C  31.79400 61.25700 40.14100
C  31.66600 62.75800 40.52000
C  30.18700 62.94100 40.91800
C  29.57100 61.67300 40.42400
C  32.70500 63.37800 41.50800
C  29.51300 64.17700 40.25200
C  28.81200 65.19200 41.15200
N  28.27600 58.90500 40.20600
C  27.57800 60.11700 40.23200
C  26.12200 59.80100 40.09100
C  26.03800 58.50800 39.75800
C  27.40200 57.97800 39.76600
C  25.02900 60.89900 40.16700
C  25.12200 57.42500 39.37000
O  23.89900 57.42400 39.13500
C  25.95500 56.19100 39.19400
C  25.57300 55.23200 40.16500
O  25.96000 55.14300 41.32300
O  24.68500 54.33600 39.65000
C  24.33200 53.21600 40.44600
H  32.83800 54.94200 39.17300
H  33.93900 61.18600 39.82500
H  27.56000 62.21100 40.49300
H  28.05700 54.01600 39.53500
H  30.70700 53.94200 37.93100
H  29.82100 53.00100 40.80800
H  31.31800 53.59400 40.72000
H  30.84800 52.33900 39.49500
H  27.12600 53.65200 37.35300
H  28.74200 53.33200 36.93700
H  28.63700 56.08900 36.60000
H  26.98900 55.54200 36.12200
H  36.30700 56.04600 39.46600
H  35.00400 55.32900 38.53200
H  34.96700 55.19300 40.23500
H  35.87900 60.77200 40.99300
H  35.95800 61.02400 39.22700
H  37.46100 60.60700 40.13800
H  31.92400 63.35700 39.64700
H  30.07400 62.91800 42.00200
H  32.21600 63.63100 42.44800
H  33.09600 64.32400 41.13400
H  33.59000 62.75300 41.62900
H  28.80700 63.86100 39.48400
H  30.27700 64.68300 39.66300
H  29.05500 64.97700 42.19200
H  27.75600 65.02200 40.94400
H  28.91600 66.25400 40.93000
H  24.32400 60.70600 39.35900
H  25.38900 61.92800 40.14000
H  24.42900 60.74400 41.06400
H  25.76700 55.79300 38.19800
H  24.96100 53.05700 41.32200
H  24.38100 52.32900 39.81500
H  23.27900 53.38600 40.67200

