158

Mg -1.76700 18.17000 27.13700
C  -2.13400 16.12200 30.01100
C  -2.56700 20.81100 28.99000
C  -1.26700 20.01400 24.52300
C  -1.64800 15.24500 25.22400
N  -2.09700 18.38100 29.24200
C  -2.17600 17.49300 30.28100
C  -2.31000 18.15000 31.58700
C  -2.90100 19.51900 31.20000
C  -2.48400 19.59500 29.71700
C  -4.47300 19.58100 31.41000
C  -0.99800 18.16900 32.42000
C  -1.00600 17.58700 33.78800
H  0.28700 17.35600 34.65600
N  -1.69600 20.18900 26.85500
C  -2.11100 21.19300 27.72200
C  -1.85600 22.47100 27.14700
C  -1.36100 22.23000 25.84700
C  -1.37200 20.79200 25.64700
C  -2.15100 23.76000 27.96400
C  -1.08500 23.26000 24.77200
O  -0.77500 23.02700 23.61100
C  -1.12900 24.73100 25.20700
N  -1.51700 17.72200 25.15400
C  -1.40700 18.65900 24.25400
C  -1.34700 18.03000 22.86700
C  -1.33100 16.55500 23.08200
C  -1.60800 16.45200 24.54500
C  -2.43500 18.68300 21.92600
C  -0.16700 15.70400 22.52800
C  -0.47300 14.82600 21.30700
N  -1.87200 16.09100 27.49800
C  -1.68800 15.03100 26.57900
C  -1.69900 13.80900 27.26300
C  -1.88100 14.15900 28.65700
C  -1.98300 15.58200 28.71200
C  -1.66700 12.39100 26.70500
C  -2.18800 13.67700 29.96700
O  -2.31600 12.50600 30.38100
C  -2.11600 14.88700 30.86800
C  -0.92200 14.76300 31.72900
O  0.21300 14.98400 31.47400
O  -1.25900 14.22200 32.92100
C  -0.30500 13.61500 33.82600
H  -3.02800 21.65600 29.50500
H  -1.04000 20.59300 23.62500
H  -1.65300 14.34200 24.61000
H  -3.03900 17.53400 32.11500
H  -2.47500 20.39700 31.68600
H  -4.82800 19.40800 30.39500
H  -4.73800 20.52500 31.88700
H  -5.02100 18.81200 31.95400
H  -0.54300 19.15500 32.51100
H  -0.22500 17.69000 31.81800
H  -1.53200 16.63600 33.70000
H  -1.63100 18.28200 34.34900
H  -2.62100 23.55500 28.92700
H  -2.95400 24.15600 27.34300
H  -1.37000 24.50100 27.79600
H  -2.15100 25.01000 25.46400
H  -0.99800 25.47900 24.42600
H  -0.42400 24.98100 26.00000
H  -0.35900 18.23800 22.45600
H  -2.21300 16.08600 22.64500
H  -3.00200 19.44700 22.45600
H  -3.18800 17.96100 21.60800
H  -2.03900 19.13600 21.01700
H  0.16900 15.03000 23.31500
H  0.72300 16.29600 22.31200
H  -0.44200 13.77000 21.57700
H  0.26900 15.13500 20.57000
H  -1.42400 15.01000 20.80800
H  -1.05200 12.28300 25.81100
H  -2.71700 12.10000 26.71800
H  -1.13900 11.80800 27.46000
H  -3.00700 14.94300 31.49400
H  -0.36200 12.52800 33.77800
H  -0.44100 13.89700 34.87000
H  0.69100 13.96000 33.54900
Mg 48.25900 34.16800 26.13900
C  46.75800 32.94500 29.02900
C  48.90300 37.18400 27.89900
C  49.89100 35.31800 23.43400
C  47.37100 31.25500 24.43600
N  47.93500 34.90400 28.27900
C  47.34600 34.20700 29.27400
C  47.57200 34.97500 30.63300
C  47.98700 36.43800 30.12700
C  48.28400 36.17500 28.70900
C  46.86200 37.48800 30.30300
C  48.70600 34.48300 31.56000
C  48.68200 34.78200 33.03800
H  47.37200 35.32800 33.62000
N  49.13800 36.03900 25.69500
C  49.32100 37.14200 26.51200
C  49.98800 38.25500 25.84500
C  50.23700 37.75100 24.53700
C  49.74700 36.29200 24.45100
C  50.32400 39.53800 26.52000
C  50.76500 38.51200 23.36900
O  50.78500 38.06600 22.25700
C  51.31100 39.87200 23.51700
N  48.39200 33.43700 24.06100
C  49.33400 34.02600 23.22000
C  49.48900 33.21100 21.98700
C  48.59400 31.89800 22.26600
C  48.03200 32.22700 23.66700
C  49.20100 33.94100 20.63100
C  49.23100 30.49800 22.04100
C  48.91100 29.72000 20.75100
N  47.25000 32.44300 26.61700
C  46.95200 31.39300 25.81000
C  46.11900 30.42300 26.55200
C  46.00400 31.00700 27.79300
C  46.68900 32.22800 27.82900
C  45.62400 29.11400 26.00500
C  45.44000 30.83300 29.02900
O  44.67700 29.97300 29.49000
C  45.98800 31.97900 29.98000
C  46.83500 31.33700 30.99000
O  47.93800 30.91700 30.70400
O  46.23000 31.35200 32.25100
C  47.00200 30.63500 33.24100
H  49.09900 38.09800 28.46300
H  50.54700 35.60200 22.60800
H  46.96800 30.35200 23.97400
H  46.61300 34.97500 31.15100
H  48.87400 36.78700 30.65500
H  46.57500 37.99400 29.38100
H  47.19000 38.32400 30.92100
H  45.95100 37.06400 30.72600
H  49.65500 34.88800 31.21000
H  48.92100 33.42800 31.39500
H  49.51600 35.45700 33.23100
H  48.88300 33.78900 33.43900
H  50.46800 39.53800 27.60000
H  49.71100 40.37300 26.18000
H  51.33900 39.86300 26.28900
H  50.56700 40.60200 23.83600
H  51.91200 40.12500 22.64300
H  52.09900 39.86900 24.27100
H  50.55300 32.99900 21.88400
H  47.72400 31.95100 21.61100
H  48.61400 33.22400 20.05500
H  50.11500 34.11500 20.06200
H  48.70600 34.89100 20.83200
H  49.03100 29.77100 22.82800
H  50.32100 30.50900 22.04900
H  48.38300 30.49900 20.20200
H  48.30900 28.85400 21.02700
H  49.86100 29.44100 20.29300
H  46.35900 28.33600 26.21000
H  45.39900 29.10600 24.93800
H  44.64500 28.96600 26.45900
H  45.18200 32.48100 30.51500
H  46.68000 30.91700 34.24400
H  48.02800 30.95700 33.06700
H  46.83200 29.57900 33.03000

