158

Mg 41.11500 7.50200 29.43500
C  42.63500 9.05500 32.09400
C  38.92500 5.99300 31.57900
C  39.75700 6.06800 26.78400
C  43.72600 8.84300 27.29000
N  41.01200 7.37200 31.59300
C  41.61000 8.20000 32.51000
C  40.94900 7.99800 33.88000
C  39.99200 6.77200 33.67200
C  39.94300 6.61400 32.14800
C  40.57100 5.44500 34.28900
C  40.19900 9.28200 34.20300
C  40.19600 9.68400 35.70700
H  40.85600 11.05400 36.02000
N  39.60000 6.26500 29.21200
C  38.70000 5.87600 30.22400
C  37.53900 5.18400 29.60600
C  37.81900 5.21700 28.18600
C  39.08000 5.85300 28.00600
C  36.39300 4.42700 30.38400
C  36.88500 4.77100 27.00800
O  37.22500 4.83200 25.81500
C  35.51600 4.46200 27.42200
N  41.76100 7.45000 27.32700
C  40.93000 6.82100 26.49700
C  41.43300 6.92900 25.00500
C  42.60500 7.91000 25.15300
C  42.71000 8.11600 26.64300
C  41.77900 5.57300 24.32500
C  42.49500 9.17300 24.35800
C  41.32900 10.14300 24.55000
N  42.83000 8.72000 29.66200
C  43.78600 9.17100 28.74500
C  44.72200 10.01900 29.41500
C  44.32700 10.01600 30.71800
C  43.14800 9.19400 30.81400
C  45.91400 10.71100 28.72800
C  44.61000 10.50600 32.05900
O  45.47500 11.27600 32.45400
C  43.47600 9.85700 32.98900
C  44.04100 8.87900 33.98700
O  44.90500 8.01500 33.72600
O  43.72300 9.20200 35.28500
C  44.18400 8.44600 36.53800
H  38.16300 5.69300 32.30200
H  39.45900 5.55100 25.87000
H  44.40300 9.40700 26.64500
H  41.68100 7.76400 34.65200
H  39.05200 6.91800 34.20400
H  40.59800 4.63800 33.55600
H  39.86300 5.17100 35.07000
H  41.51300 5.44700 34.83700
H  39.14800 9.24200 33.91600
H  40.63300 10.06700 33.58300
H  40.78600 8.94900 36.25300
H  39.17100 9.61500 36.07300
H  36.43800 4.45900 31.47200
H  36.28700 3.43200 29.95100
H  35.45600 4.93800 30.16100
H  34.97300 4.21600 26.51000
H  35.03900 5.32000 27.89600
H  35.61600 3.52200 27.96600
H  40.57200 7.36400 24.49900
H  43.54800 7.51500 24.77300
H  41.31500 4.76300 24.88700
H  42.86300 5.48500 24.25200
H  41.27700 5.50500 23.36000
H  42.40100 8.80000 23.33800
H  43.43500 9.72300 24.33300
H  40.66500 10.10900 23.68700
H  41.63000 11.17800 24.71300
H  40.65700 9.96500 25.38900
H  46.44400 11.47200 29.29900
H  45.56700 11.23700 27.83800
H  46.69100 9.98700 28.48100
H  43.12700 10.71900 33.55800
H  44.79900 9.04800 37.20700
H  44.74400 7.57200 36.20300
H  43.41200 8.01900 37.17800
Mg 8.33400 48.28400 25.22600
C  6.37500 48.40200 28.17200
C  11.01000 49.10100 27.08900
C  10.10500 48.38700 22.47100
C  5.37700 47.90800 23.41100
N  8.57500 48.78400 27.34500
C  7.75500 48.56100 28.39300
C  8.44400 48.87400 29.71700
C  9.74800 49.43100 29.20600
C  9.83200 49.10900 27.77600
C  9.94500 50.99500 29.50700
C  8.63000 47.70500 30.76700
C  7.85600 47.75000 32.12600
H  7.59400 46.38100 32.92400
N  10.38300 48.62200 24.82600
C  11.31300 48.87900 25.74700
C  12.58200 49.02300 25.07100
C  12.38600 48.82700 23.70900
C  10.90800 48.64400 23.60200
C  13.88100 49.19300 25.79700
C  13.36400 48.68400 22.54800
O  12.96000 48.65600 21.36700
C  14.85800 48.80700 22.78100
N  7.78800 48.42800 23.22000
C  8.74300 48.32300 22.28100
C  8.12800 47.98600 20.91400
C  6.70900 47.72800 21.19100
C  6.58200 47.91400 22.70600
C  8.33700 49.05200 19.86800
C  6.25700 46.27200 20.72200
C  4.76600 46.08800 20.35200
N  6.26100 48.20300 25.64500
C  5.18600 48.14700 24.79200
C  3.93100 48.15800 25.52500
C  4.36400 48.19700 26.86200
C  5.72900 48.35100 26.87100
C  2.55100 47.79400 25.00100
C  3.94400 48.13900 28.24200
O  2.80100 47.98800 28.73900
C  5.24100 48.33600 29.17800
C  5.21100 47.20200 30.11400
O  5.78300 46.10700 29.87900
O  4.31700 47.46600 31.15800
C  4.01000 46.31100 32.08000
H  11.85400 49.39500 27.71700
H  10.68100 48.33100 21.54500
H  4.50800 47.85300 22.75200
H  7.76400 49.58100 30.19200
H  10.58900 48.94500 29.70100
H  10.95700 51.35300 29.31900
H  9.73500 51.21700 30.55300
H  9.32500 51.58000 28.82700
H  9.67800 47.49600 30.98300
H  8.25500 46.83200 30.23400
H  6.96800 48.38300 32.11400
H  8.58400 48.34500 32.67800
H  13.69600 49.50700 26.82400
H  14.47100 50.00700 25.37400
H  14.49400 48.29300 25.84300
H  15.10000 48.18400 23.64100
H  15.01800 49.87700 22.91700
H  15.53100 48.57500 21.95600
H  8.62000 47.07000 20.58600
H  6.00900 48.49200 20.85400
H  7.47500 49.67400 19.62600
H  8.61900 48.60800 18.91400
H  9.17300 49.61800 20.28000
H  6.32100 45.69900 21.64700
H  6.92600 45.73200 20.05200
H  4.68500 46.93300 19.66800
H  4.05900 46.12200 21.18100
H  4.70100 45.18000 19.75300
H  2.52800 47.77400 23.91200
H  1.81700 48.55700 25.26200
H  2.34600 46.82600 25.45900
H  4.96900 49.30800 29.58900
H  3.96600 45.36800 31.53500
H  2.98900 46.47000 32.42700
H  4.71500 46.19700 32.90300

