158

Mg 48.61500 44.95300 43.00900
C  45.18200 44.80100 42.47100
C  48.64300 41.65000 42.34200
C  51.93900 45.14500 43.20800
C  48.38500 48.39500 43.19900
N  47.10700 43.43700 42.32400
C  45.81700 43.54800 42.23600
C  45.00700 42.28100 41.97300
C  46.15500 41.24400 42.16300
C  47.39800 42.17300 42.16300
C  46.09200 40.48100 43.49700
C  44.29400 42.14700 40.52300
C  44.83700 42.99400 39.31800
H  44.77500 42.31000 37.91300
N  50.08000 43.63000 42.75100
C  49.89000 42.25100 42.59900
C  51.18900 41.51700 42.64500
C  52.14600 42.54300 42.92700
C  51.41700 43.90000 42.97600
C  51.30300 40.02400 42.53000
C  53.62800 42.25400 43.06000
O  54.05500 41.17100 42.76200
C  54.58000 43.36300 43.37800
N  49.98900 46.57900 42.98200
C  51.31900 46.39600 43.21900
C  52.10200 47.74200 43.44000
C  50.95600 48.82200 43.50200
C  49.67200 47.88900 43.14000
C  53.00300 47.77800 44.71800
C  51.16200 50.06400 42.56900
C  50.94400 51.45800 43.27500
N  47.10500 46.36200 42.97500
C  47.15100 47.68000 43.00200
C  45.80700 48.25100 42.82100
C  45.01300 47.15300 42.73900
C  45.83000 46.02300 42.68700
C  45.44700 49.71600 42.69900
C  43.67800 46.70300 42.60200
O  42.64000 47.38200 42.46400
C  43.74600 45.16100 42.45500
C  43.06000 44.48300 43.51100
O  42.12100 43.75800 43.30500
O  43.76100 44.68000 44.71300
C  43.42600 43.63200 45.70300
H  48.53600 40.57200 42.21000
H  53.02700 45.24200 43.20000
H  48.24000 49.47300 43.29900
H  44.26300 42.25300 42.76800
H  46.13800 40.51200 41.35600
H  45.17200 40.42500 44.07900
H  46.84300 40.82600 44.20700
H  46.30600 39.44000 43.25400
H  43.22300 42.34100 40.58800
H  44.35900 41.11000 40.19400
H  45.90900 43.09100 39.49600
H  44.32700 43.95700 39.27300
H  51.52000 39.78700 41.48900
H  50.49800 39.33900 42.79900
H  52.16100 39.68500 43.11100
H  54.23500 44.04100 44.15900
H  54.77100 43.89700 42.44700
H  55.55800 42.97500 43.66300
H  52.74000 47.97400 42.58700
H  50.76400 49.14400 44.52600
H  54.02100 48.16600 44.68900
H  53.14100 46.78800 45.15300
H  52.50600 48.25800 45.56100
H  50.53400 50.03800 41.67900
H  52.21100 49.98700 42.28500
H  50.61400 51.38600 44.31100
H  50.17100 51.97600 42.70800
H  51.88000 52.01700 43.28800
H  45.66800 50.09700 41.70200
H  46.07400 50.23100 43.42700
H  44.37600 49.77500 42.89300
H  43.26700 44.88300 41.51600
H  42.42600 43.79800 46.10500
H  44.20500 43.74400 46.45700
H  43.53200 42.67100 45.20100
Mg 42.77100 42.24900 26.09400
C  41.60400 44.28400 28.63400
C  44.24000 40.14200 28.33700
C  43.84000 40.26500 23.58700
C  41.83400 44.67600 23.72200
N  43.01100 42.31300 28.32700
C  42.26700 43.12700 29.12900
C  42.44700 42.62000 30.52200
C  43.53600 41.47600 30.51500
C  43.59400 41.22500 28.98300
C  44.90000 41.89800 31.17400
C  41.03000 42.30100 31.17000
C  40.70900 43.15000 32.48400
H  41.57000 42.82900 33.65300
N  43.90600 40.55500 25.95800
C  44.35800 39.82800 26.99200
C  44.95500 38.58600 26.58400
C  44.69000 38.49100 25.24000
C  44.11500 39.84500 24.86200
C  45.79400 37.67200 27.44500
C  44.90500 37.29500 24.32100
O  44.56800 37.32500 23.15400
C  45.31200 35.91700 24.91700
N  42.89200 42.52300 24.02000
C  43.35100 41.55400 23.19400
C  43.33000 41.95600 21.71400
C  42.37300 43.27300 21.78700
C  42.44400 43.55700 23.23900
C  44.77200 42.21700 21.15900
C  40.87100 43.10700 21.22500
C  40.01200 42.04400 21.86400
N  41.99700 44.12000 26.07400
C  41.62000 45.07200 25.08300
C  40.98800 46.25900 25.66700
C  41.00300 45.92400 27.06800
C  41.58700 44.62800 27.25600
C  40.58900 47.52500 25.08000
C  40.61600 46.39000 28.37100
O  40.07200 47.44200 28.64500
C  40.91800 45.35400 29.41700
C  41.84800 46.04000 30.41500
O  43.02100 46.32600 30.19200
O  41.20400 46.42000 31.53900
C  42.12500 46.71900 32.65900
H  44.72900 39.41000 28.98300
H  44.22800 39.61100 22.80400
H  41.41900 45.41200 23.03000
H  42.75700 43.48700 31.10500
H  43.32000 40.55900 31.06400
H  45.54500 42.36800 30.43300
H  45.43300 41.00500 31.50300
H  44.65500 42.45300 32.07900
H  40.92600 41.26800 31.50000
H  40.23400 42.54600 30.46600
H  39.71400 42.90100 32.85200
H  40.70200 44.22400 32.29600
H  46.45500 38.10500 28.19600
H  46.52300 37.08500 26.88700
H  45.15600 36.95600 27.96400
H  44.64000 35.82100 25.76900
H  46.35400 35.88900 25.23600
H  45.10100 35.15500 24.16700
H  42.75700 41.24800 21.11500
H  42.73200 44.17300 21.28700
H  45.09200 41.52500 20.38100
H  45.44300 41.97000 21.98200
H  44.94500 43.26300 20.90700
H  41.07200 42.97000 20.16200
H  40.29700 44.03200 21.27200
H  40.33700 41.47000 22.73200
H  39.82700 41.22000 21.17500
H  39.06200 42.50400 22.13400
H  39.52900 47.48100 25.33100
H  40.79300 47.53700 24.00900
H  40.96900 48.43700 25.54000
H  40.02000 44.96700 29.89900
H  42.41700 47.75800 32.50900
H  43.00300 46.07500 32.66200
H  41.52100 46.69400 33.56600

