158

Mg 40.39600 9.24500 29.76400
C  41.96700 10.85400 32.21000
C  38.17700 7.89900 31.93500
C  38.78200 7.99600 27.10800
C  42.94000 10.22400 27.49100
N  40.22700 9.29900 31.90400
C  40.87700 10.15700 32.70800
C  40.39700 9.98600 34.13300
C  39.26700 8.91600 34.05400
C  39.19000 8.65300 32.54300
C  39.43400 7.58200 34.74600
C  40.04200 11.39500 34.71200
C  39.23200 11.50800 35.96400
H  39.67800 12.41900 37.06100
N  38.66500 8.15300 29.51800
C  37.86700 7.66300 30.61100
C  36.72000 6.96700 30.02000
C  36.84900 7.06200 28.58900
C  38.14400 7.71400 28.38300
C  35.50200 6.46500 30.88300
C  35.82600 6.71600 27.46900
O  36.07700 6.63000 26.27800
C  34.41100 6.41700 27.91600
N  40.91200 9.00500 27.66200
C  40.00700 8.47900 26.78900
C  40.49100 8.52100 25.29000
C  41.97200 9.12300 25.42500
C  41.90800 9.49800 26.92800
C  40.37900 7.27300 24.41100
C  42.28200 10.29000 24.40600
C  41.85200 11.74900 24.62800
N  42.13000 10.25900 29.74000
C  43.05800 10.67300 28.81200
C  44.07500 11.44000 29.42200
C  43.74500 11.50200 30.74400
C  42.51800 10.85200 30.86000
C  45.39200 11.92700 28.73800
C  44.12500 12.05900 32.02800
O  45.10700 12.68300 32.39000
C  42.92600 11.69400 33.09600
C  43.58400 10.95300 34.19300
O  43.99000 9.82100 34.17200
O  43.65500 11.79800 35.24900
C  44.03400 11.14500 36.54400
H  37.58800 7.49800 32.76200
H  38.21200 7.70300 26.22400
H  43.65200 10.64900 26.78100
H  41.24400 9.61100 34.70700
H  38.31600 9.40700 34.26100
H  38.45700 7.39700 35.19100
H  40.24600 7.63300 35.47100
H  39.76800 6.74800 34.12800
H  39.50100 11.90900 33.91700
H  40.95200 11.99300 34.75700
H  39.16000 10.55300 36.48500
H  38.25000 11.89100 35.68800
H  35.69600 6.51100 31.95500
H  35.31000 5.47600 30.46800
H  34.67500 7.13400 30.64700
H  33.96600 7.15900 28.58000
H  34.24300 5.47400 28.43700
H  33.82500 6.44300 26.99700
H  39.84100 9.22500 24.77000
H  42.67000 8.28900 25.49000
H  41.34500 6.77400 24.48600
H  40.18100 7.58500 23.38500
H  39.55600 6.60400 24.66000
H  41.72800 10.08000 23.49100
H  43.35300 10.40000 24.23300
H  41.24700 12.07700 23.78300
H  42.73200 12.39100 24.65200
H  41.22600 11.76900 25.52100
H  46.24000 11.92300 29.42300
H  45.37800 12.94900 28.35900
H  45.64300 11.31700 27.87000
H  42.59200 12.70400 33.33300
H  43.24000 11.34900 37.26300
H  44.98600 11.54100 36.89700
H  44.16400 10.06400 36.58400
Mg 9.51900 48.54000 25.26400
C  7.58100 48.93500 28.07200
C  12.11600 49.95100 27.04700
C  11.46300 48.25800 22.58200
C  6.73700 47.99900 23.34500
N  9.74500 49.30600 27.26800
C  8.89700 49.26400 28.27800
C  9.43600 49.88100 29.61900
C  10.64000 50.63800 29.00400
C  10.84100 49.94000 27.68400
C  10.49200 52.18100 28.92100
C  9.79600 48.82900 30.69700
C  9.25500 49.14600 32.19400
H  9.97900 50.09500 33.12900
N  11.55700 48.89700 24.93700
C  12.43100 49.48200 25.81200
C  13.72300 49.43000 25.21400
C  13.62000 48.95400 23.94900
C  12.18800 48.65700 23.74500
C  15.00400 49.74600 25.96600
C  14.67100 48.81000 22.85000
O  14.38600 48.44600 21.70200
C  16.20200 49.17500 23.04300
N  9.11300 48.40200 23.22200
C  10.11300 48.07900 22.35600
C  9.54500 47.78700 20.92000
C  8.00600 47.62800 21.16800
C  7.91000 48.09400 22.67200
C  10.13800 48.76200 19.83300
C  7.40000 46.20900 20.93000
C  6.78300 46.12300 19.48400
N  7.48800 48.46900 25.59800
C  6.46100 48.21800 24.74300
C  5.19200 48.15600 25.50600
C  5.62200 48.36800 26.80600
C  6.99100 48.63000 26.78400
C  3.83400 47.92400 24.94100
C  5.16900 48.58000 28.18000
O  4.02900 48.54400 28.70200
C  6.42700 48.94000 28.99700
C  6.54300 47.89300 30.00900
O  7.01800 46.78300 29.74300
O  6.16500 48.22000 31.29300
C  6.18000 47.10400 32.21800
H  12.86700 50.37200 27.71900
H  11.98200 48.04100 21.64600
H  5.92400 47.64800 22.70600
H  8.67000 50.56200 29.99000
H  11.55000 50.42200 29.56400
H  9.77800 52.54000 29.66300
H  9.87300 52.40300 28.05200
H  11.45900 52.68100 28.97400
H  10.85800 48.58200 30.68900
H  9.36700 47.92400 30.26700
H  9.06700 48.22500 32.74600
H  8.27700 49.59800 32.02400
H  15.00300 50.15700 26.97600
H  15.41900 50.57000 25.38500
H  15.67900 48.89000 25.96600
H  16.81500 48.64600 23.77300
H  16.05500 50.23400 23.25200
H  16.71700 49.01700 22.09500
H  9.89300 46.76300 20.78600
H  7.49300 48.30900 20.49000
H  9.37500 49.54000 19.82400
H  10.20400 48.32000 18.83800
H  11.13700 49.16600 19.99300
H  6.58300 46.08200 21.64000
H  8.15100 45.43100 21.07400
H  7.52100 45.72600 18.78700
H  6.22200 46.95400 19.05600
H  6.13300 45.24900 19.46400
H  3.75800 46.91200 24.54400
H  3.70800 48.60900 24.10200
H  3.03300 47.92300 25.68000
H  6.26700 49.91000 29.46800
H  7.18200 46.67800 32.26400
H  5.39500 46.43000 31.87600
H  5.83700 47.49600 33.17600

