158

Mg 47.96600 34.70600 26.95500
C  46.51800 33.34500 29.70200
C  48.01500 37.82300 28.60800
C  49.09300 36.05100 24.19800
C  47.33000 31.61900 25.21500
N  47.37800 35.43200 28.97300
C  46.84900 34.67400 29.94700
C  46.76500 35.40600 31.29700
C  46.98300 36.83800 30.81900
C  47.46400 36.72800 29.34500
C  45.87800 37.76000 31.02200
C  47.81400 34.88700 32.35900
C  47.41000 34.84200 33.83300
H  46.33200 35.89000 34.35900
N  48.66600 36.61800 26.48600
C  48.63100 37.74500 27.31600
C  49.35700 38.80600 26.59800
C  49.64000 38.31900 25.25000
C  49.11400 36.94700 25.24900
C  49.63400 40.09700 27.38900
C  50.32500 38.89700 24.06600
O  50.64100 38.27000 23.06000
C  50.71300 40.28800 24.13400
N  47.95700 34.02100 24.95300
C  48.61100 34.80300 24.02900
C  48.80200 34.05700 22.72000
C  48.30400 32.62700 23.05600
C  47.79300 32.74900 24.47400
C  48.13400 34.74900 21.42100
C  49.40300 31.56100 22.99200
C  50.64000 31.72200 24.01500
N  47.13300 32.86100 27.37200
C  46.90600 31.67500 26.53400
C  46.29600 30.67800 27.40400
C  46.00500 31.33400 28.61700
C  46.58900 32.60300 28.53900
C  45.94700 29.20700 27.11400
C  45.29600 31.19800 29.83700
O  44.62200 30.27500 30.28400
C  45.49700 32.52100 30.58300
C  45.65700 32.26700 32.01100
O  46.51200 31.48300 32.47300
O  44.57100 32.74700 32.70700
C  44.21000 32.35900 34.16000
H  48.20500 38.77000 29.11800
H  49.45800 36.36900 23.21900
H  47.30800 30.71200 24.60700
H  45.76300 35.32400 31.71700
H  47.85500 37.28300 31.29900
H  46.20600 38.72900 31.39600
H  45.07400 37.40400 31.66600
H  45.30900 37.94200 30.11000
H  48.78600 35.32700 32.13800
H  47.99900 33.85700 32.05500
H  48.34800 34.85600 34.38700
H  47.04000 33.87800 34.18300
H  50.24000 39.69100 28.19900
H  48.69400 40.53800 27.72000
H  50.21700 40.82600 26.82500
H  51.55400 40.30100 24.82800
H  49.86500 40.85600 24.51800
H  50.98000 40.68500 23.15500
H  49.87700 33.93700 22.59100
H  47.46900 32.38700 22.39800
H  48.86000 35.22600 20.76200
H  47.46200 35.57000 21.66900
H  47.54900 33.98400 20.91100
H  49.73200 31.52900 21.95300
H  48.92800 30.58900 23.11800
H  51.54900 31.67600 23.41600
H  50.96900 30.83100 24.55000
H  50.66700 32.58700 24.67800
H  46.19900 28.55300 27.94900
H  46.52400 28.92400 26.23300
H  44.94400 29.12100 26.69600
H  44.58300 33.11000 30.51400
H  43.17100 32.03200 34.10400
H  44.29700 33.27000 34.75200
H  44.92700 31.71700 34.67200
Mg 41.87900 41.16100 26.63000
C  41.17400 43.58700 29.06300
C  42.77500 39.03700 29.07300
C  42.93100 39.07800 24.21600
C  41.10000 43.61200 24.33600
N  42.05800 41.32400 28.84400
C  41.51800 42.26100 29.56200
C  41.40500 41.90800 31.06300
C  41.93700 40.39300 31.05600
C  42.30900 40.24500 29.54600
C  42.95000 39.89000 32.07500
C  39.86800 41.94600 31.57800
C  39.55600 41.43700 33.03400
H  38.70700 42.35800 33.92900
N  42.83100 39.29700 26.62800
C  43.13600 38.51200 27.73900
C  43.72200 37.27400 27.38500
C  43.72600 37.25900 25.95600
C  43.21600 38.59800 25.51700
C  43.94700 36.11000 28.38900
C  44.30000 36.19900 24.96500
O  44.33700 36.40500 23.71600
C  44.59700 34.85000 25.47200
N  41.88800 41.29900 24.63100
C  42.46100 40.29200 23.82200
C  42.41100 40.65800 22.31300
C  41.47300 41.98700 22.41300
C  41.54300 42.34800 23.87000
C  43.71500 40.92500 21.47300
C  39.92900 41.88100 22.03400
C  39.11200 40.69000 22.57900
N  41.24700 43.20800 26.60400
C  41.12100 44.08800 25.63100
C  40.88900 45.40200 26.08800
C  40.83900 45.24900 27.49600
C  41.06100 43.90200 27.71200
C  40.81300 46.65700 25.26000
C  40.71200 45.93800 28.70600
O  40.54700 47.12700 28.94600
C  40.85800 44.86900 29.79900
C  41.75100 45.29300 30.89100
O  42.90500 45.06800 31.05400
O  41.06800 46.14500 31.72500
C  41.79900 46.81100 32.79100
H  43.09000 38.34400 29.85700
H  43.19400 38.42300 23.38300
H  40.76000 44.25100 23.51800
H  41.95300 42.48100 31.80900
H  41.04600 39.77600 31.17400
H  43.12900 40.63500 32.85000
H  43.95000 39.88600 31.64000
H  42.64100 38.92100 32.46800
H  39.18200 41.36400 30.96300
H  39.36900 42.91500 31.53400
H  40.47200 41.20100 33.57500
H  38.99800 40.51800 32.85100
H  43.86100 36.35600 29.44800
H  44.92100 35.67700 28.16400
H  43.20800 35.34900 28.13800
H  43.69700 34.41100 25.90400
H  45.40300 34.87500 26.20500
H  44.92700 34.24600 24.62700
H  42.11800 39.81400 21.69000
H  41.96300 42.84200 21.94700
H  43.85200 40.07000 20.81100
H  44.59800 41.00000 22.10800
H  43.61600 41.87600 20.95000
H  40.01300 41.71100 20.96000
H  39.51800 42.85400 22.30400
H  38.32100 41.09900 23.20700
H  39.80200 40.18200 23.25300
H  38.71800 40.26900 21.65400
H  40.13400 46.49000 24.42400
H  41.79000 46.98800 24.90900
H  40.35200 47.48200 25.80300
H  39.86800 44.74700 30.24000
H  41.45700 47.84500 32.84200
H  42.87500 46.87400 32.62500
H  41.53600 46.42800 33.77700

