158

Mg 25.39400 -7.26800 47.94600
C  27.54200 -4.95300 46.51300
C  23.10700 -6.67600 45.47700
C  23.60800 -10.09300 48.83700
C  28.11000 -8.40700 49.88000
N  25.52900 -6.05100 46.10800
C  26.36800 -5.02800 45.83700
C  25.85300 -4.09000 44.77100
C  24.34100 -4.64100 44.57100
C  24.33700 -5.96700 45.35700
C  23.25400 -3.72500 45.19600
C  26.70600 -4.13700 43.49400
C  26.80900 -2.75200 42.79500
H  26.41600 -2.72700 41.31300
N  23.51800 -8.14700 47.41100
C  22.68900 -7.62700 46.42800
C  21.46100 -8.30300 46.40700
C  21.54200 -9.40000 47.28400
C  22.96300 -9.26500 47.92700
C  20.34800 -7.93000 45.44700
C  20.57700 -10.42900 47.49900
O  19.53900 -10.38700 46.89600
C  20.61600 -11.55300 48.49300
N  25.82800 -8.99400 49.20600
C  24.87200 -9.94200 49.46700
C  25.34200 -10.93100 50.50700
C  26.76700 -10.39600 50.91000
C  26.97000 -9.22000 49.91300
C  24.28300 -11.12600 51.67800
C  27.85300 -11.53300 50.72500
C  28.34500 -11.82200 49.30000
N  27.37000 -6.71100 48.33800
C  28.33300 -7.20900 49.16000
C  29.47300 -6.32700 49.16900
C  29.12000 -5.38300 48.19100
C  27.89700 -5.72000 47.65200
C  30.71000 -6.47500 50.04400
C  29.60200 -4.16400 47.48000
O  30.63300 -3.51800 47.70600
C  28.64600 -3.90700 46.32800
C  28.17800 -2.48700 46.49700
O  28.65500 -1.52800 45.86600
O  27.14100 -2.31600 47.38100
C  26.57900 -0.94700 47.52000
H  22.32400 -6.31800 44.80500
H  22.93700 -10.86800 49.21400
H  28.94900 -8.78500 50.46700
H  25.83300 -3.09200 45.20900
H  24.15900 -4.78300 43.50600
H  23.56700 -2.68100 45.17500
H  22.90800 -3.92400 46.21000
H  22.34900 -3.95500 44.63500
H  26.32900 -4.84900 42.76000
H  27.73300 -4.31600 43.81400
H  27.85000 -2.44100 42.88200
H  26.22600 -2.04800 43.38900
H  19.40400 -8.41600 45.69300
H  20.62800 -8.13800 44.41400
H  20.12000 -6.86600 45.50200
H  21.44900 -12.25000 48.40100
H  19.73000 -12.11400 48.19500
H  20.58700 -11.16400 49.51100
H  25.46300 -11.96400 50.18200
H  26.71500 -10.06500 51.94700
H  24.64700 -11.08000 52.70500
H  23.69800 -12.01300 51.43700
H  23.56800 -10.30400 51.63200
H  27.36700 -12.46200 51.02300
H  28.64800 -11.15700 51.37000
H  29.43300 -11.79700 49.23900
H  27.92400 -11.11300 48.58700
H  28.06200 -12.85800 49.11700
H  30.60600 -5.79300 50.88800
H  31.36100 -6.15700 49.23000
H  30.99400 -7.51500 50.20400
H  29.15900 -4.00000 45.37100
H  25.63100 -0.94700 46.98100
H  27.28500 -0.17200 47.22200
H  26.28700 -0.76600 48.55400
Mg -10.92100 16.37300 41.90400
C  -7.56700 15.66900 41.72400
C  -10.32000 19.47400 40.64200
C  -14.21800 16.70000 41.70800
C  -11.43600 12.93300 42.80000
N  -9.13100 17.38200 41.14200
C  -7.86500 16.97400 41.21600
C  -6.95400 18.13100 40.73800
C  -7.84200 19.37200 40.61200
C  -9.19900 18.71600 40.86800
C  -7.58400 20.61600 41.56600
C  -6.17500 17.80000 39.36100
C  -4.76900 18.23200 39.21200
H  -4.17600 18.59700 37.86900
N  -12.14500 17.94400 41.20600
C  -11.71700 19.18000 40.71100
C  -12.86200 20.02300 40.44200
C  -14.03700 19.28200 40.85000
C  -13.51500 17.88900 41.23900
C  -12.74400 21.46000 39.91300
C  -15.49300 19.80400 40.83200
O  -15.69400 20.93700 40.38000
C  -16.68100 19.07800 41.20200
N  -12.58400 14.95100 42.04700
C  -13.86500 15.40100 42.04100
C  -14.81800 14.27000 42.43700
C  -13.99600 13.02700 42.34700
C  -12.56600 13.66100 42.51800
C  -15.35100 14.48400 43.87800
C  -14.15900 12.28500 41.01200
C  -15.58200 11.64700 40.68300
N  -9.78300 14.62300 42.24000
C  -10.10900 13.29600 42.54200
C  -8.96000 12.50800 42.71900
C  -7.93100 13.45200 42.43900
C  -8.44500 14.76700 42.27000
C  -8.92900 11.07700 43.20400
C  -6.47500 13.50000 42.37200
O  -5.61500 12.63300 42.52700
C  -6.17700 14.97700 41.91700
C  -5.17500 15.67300 42.87100
O  -5.29700 15.95500 44.06400
O  -4.15300 16.08100 42.06000
C  -2.90300 16.79000 42.58600
H  -9.99100 20.44100 40.25700
H  -15.29300 16.89400 41.70600
H  -11.63300 11.88800 43.04800
H  -6.24300 18.26400 41.55400
H  -7.87200 19.81300 39.61500
H  -7.87400 21.51400 41.02000
H  -6.51800 20.74200 41.75100
H  -8.20800 20.54500 42.45700
H  -6.80800 18.28500 38.61700
H  -6.33800 16.74000 39.16600
H  -4.16200 17.36500 39.47400
H  -4.51100 19.03800 39.89800
H  -13.31000 21.59200 38.99100
H  -11.70100 21.77100 39.95700
H  -13.24500 22.06000 40.67300
H  -17.60600 19.65500 41.23800
H  -16.55000 18.85300 42.26100
H  -16.86900 18.17100 40.62700
H  -15.66700 14.17500 41.76100
H  -14.15300 12.26400 43.10800
H  -16.44000 14.53000 43.84800
H  -14.91100 15.38200 44.31200
H  -15.07700 13.74400 44.63000
H  -13.26500 11.69200 40.81700
H  -13.99100 13.03600 40.24000
H  -15.56800 10.56700 40.83000
H  -15.83900 11.80600 39.63600
H  -16.32900 12.03200 41.37800
H  -7.99000 10.58900 42.94400
H  -9.73300 10.42900 42.85400
H  -8.98500 10.90700 44.27900
H  -5.63700 14.86900 40.97600
H  -3.07100 17.15900 43.59700
H  -2.66800 17.58100 41.87300
H  -2.10800 16.04900 42.50300

