158

Mg 29.43600 58.03400 41.09400
C  26.51300 56.50200 39.71400
C  31.29100 55.36800 39.84600
C  32.18100 59.90900 41.46100
C  27.37000 60.79400 41.88600
N  28.97300 56.27100 39.95500
C  27.74100 55.91000 39.42200
C  27.98600 54.67400 38.61800
C  29.19400 54.03900 39.19300
C  29.87500 55.25800 39.72800
C  28.85100 53.05700 40.38600
C  28.00700 55.03600 37.09400
C  27.03000 54.34200 36.12600
H  26.40300 55.17600 35.06600
N  31.50100 57.70200 40.79100
C  32.04400 56.54500 40.24400
C  33.45900 56.64900 40.22200
C  33.81500 57.94800 40.70400
C  32.50900 58.58800 41.02600
C  34.33700 55.54500 39.62400
C  35.10000 58.51600 40.75600
O  35.99800 57.89800 40.27400
C  35.39700 59.89200 41.17400
N  29.66900 60.12400 41.37600
C  30.95100 60.59900 41.61200
C  30.94700 62.04400 42.14900
C  29.43300 62.34700 42.24100
C  28.74100 61.02800 41.85400
C  31.75800 62.18000 43.46800
C  28.92600 63.45800 41.33100
C  28.00100 64.50500 41.96300
N  27.37200 58.52700 41.02900
C  26.68000 59.64000 41.48600
C  25.24700 59.47100 41.24600
C  25.19900 58.22100 40.55300
C  26.43400 57.66600 40.48200
C  24.27600 60.55900 41.53500
C  24.27500 57.24800 39.91600
O  23.09000 57.28400 39.97200
C  25.14600 56.06300 39.29900
C  24.69600 54.74200 39.73700
O  24.70600 54.29500 40.86900
O  24.32800 53.99000 38.56800
C  23.87200 52.59800 38.83300
H  31.72800 54.48600 39.37400
H  33.07300 60.48100 41.72600
H  26.82400 61.66500 42.25300
H  27.09800 54.05700 38.75300
H  29.85700 53.63800 38.42700
H  29.55500 53.25600 41.19400
H  28.83300 52.02700 40.03000
H  27.94900 53.24400 40.96900
H  28.97900 54.67500 36.75700
H  28.06600 56.11100 36.92700
H  26.23100 53.92300 36.73700
H  27.56500 53.52300 35.64600
H  33.76800 54.61900 39.53600
H  35.12700 55.41600 40.36400
H  34.74100 55.96800 38.70400
H  34.90800 60.67000 40.58800
H  36.47600 60.03000 41.23700
H  35.02600 60.06800 42.18400
H  31.42700 62.72500 41.44600
H  29.18800 62.56700 43.28000
H  32.44900 63.01800 43.38200
H  32.43900 61.34300 43.62900
H  31.08200 62.30400 44.31400
H  28.36800 63.06300 40.48200
H  29.73700 64.05600 40.91600
H  28.50200 65.43200 41.68500
H  27.86800 64.42500 43.04100
H  27.03900 64.54400 41.45100
H  23.99200 61.03100 40.59500
H  24.63700 61.36700 42.17300
H  23.38600 60.20300 42.05400
H  25.13900 56.15300 38.21300
H  24.63700 52.02500 39.35600
H  23.47100 52.08300 37.96000
H  23.03900 52.68000 39.53100
Mg 36.37800 49.46000 26.20100
C  36.63600 47.47900 29.07800
C  34.75100 51.80300 28.19300
C  35.86700 51.32000 23.39600
C  37.60600 46.77500 24.32500
N  35.57400 49.52700 28.42500
C  35.96000 48.65900 29.40100
C  35.47300 49.26100 30.75200
C  34.74900 50.56600 30.44300
C  34.99900 50.66700 28.93000
C  33.17000 50.49900 30.80200
C  36.66500 49.49100 31.69400
C  36.38300 49.33400 33.28200
H  34.88800 49.53700 33.71900
N  35.48300 51.25900 25.82800
C  35.00600 52.14800 26.85400
C  34.71500 53.41900 26.18700
C  35.20500 53.40500 24.82500
C  35.50900 51.97300 24.61100
C  34.02000 54.59200 27.02000
C  35.44700 54.51500 23.84000
O  35.97600 54.24300 22.75600
C  35.28200 55.97400 24.20300
N  36.58300 49.11400 24.16800
C  36.39200 50.01400 23.20100
C  36.77600 49.43800 21.84400
C  37.44700 48.05400 22.26100
C  37.25800 48.01800 23.71000
C  35.66500 49.31100 20.77900
C  38.96900 47.89800 21.79100
C  39.99300 48.66900 22.69600
N  37.06500 47.49700 26.58500
C  37.48700 46.49400 25.71200
C  37.89100 45.32400 26.50500
C  37.55200 45.70600 27.82400
C  37.01100 47.00400 27.80800
C  38.50800 44.04400 25.95100
C  37.44600 45.17900 29.14400
O  37.73000 44.05600 29.60700
C  37.00400 46.36200 30.00600
C  35.92100 45.68000 30.82900
O  34.85600 45.32600 30.36700
O  36.25100 45.48800 32.13000
C  35.28900 44.91600 33.05000
H  34.32300 52.61000 28.79100
H  35.66100 51.83500 22.45600
H  38.01600 46.01600 23.65400
H  34.73300 48.47700 30.91400
H  35.10200 51.47700 30.92600
H  32.67000 50.26300 29.86300
H  32.85000 51.47700 31.15900
H  32.92900 49.74200 31.54900
H  37.18300 50.44400 31.59400
H  37.46300 48.79900 31.42500
H  37.21200 49.79000 33.82200
H  36.62600 48.27300 33.34100
H  34.81400 55.29300 27.27800
H  33.59200 54.29000 27.97600
H  33.38100 55.17800 26.35900
H  34.23600 56.28000 24.22200
H  35.88100 56.49600 23.45700
H  35.60700 56.09200 25.23600
H  37.54200 50.01500 21.32600
H  36.87300 47.22300 21.85000
H  34.94000 48.54300 21.04700
H  36.10800 49.31300 19.78300
H  35.09700 50.24100 20.79700
H  39.03000 48.21400 20.74900
H  39.20500 46.84100 21.67000
H  40.49300 49.40700 22.06800
H  40.63200 47.92400 23.17100
H  39.47100 49.21000 23.48500
H  37.67000 43.48500 25.53400
H  38.91200 43.48800 26.79800
H  39.17500 44.32600 25.13600
H  37.77200 46.54000 30.75900
H  35.10200 43.85600 32.87700
H  34.37600 45.51100 33.09100
H  35.78600 44.92100 34.02000

