158

Mg 41.42500 8.82600 29.16000
C  43.15200 9.77900 32.12200
C  38.83500 7.54200 31.04900
C  40.15700 7.60200 26.31000
C  44.44100 9.83300 27.37900
N  41.02700 8.65800 31.32900
C  41.83200 9.21300 32.32400
C  41.04000 9.03800 33.65300
C  39.90800 8.02600 33.33700
C  39.85900 8.07700 31.79200
C  40.18600 6.58000 33.72100
C  40.75500 10.46100 34.19000
C  40.10900 10.55100 35.62900
H  40.90500 11.31800 36.70400
N  39.73700 7.73000 28.76400
C  38.72900 7.32900 29.62100
C  37.67200 6.67600 28.89600
C  37.93400 6.84800 27.53900
C  39.33100 7.38500 27.50000
C  36.42500 6.15500 29.68300
C  37.07300 6.47900 26.28800
O  37.60500 6.49800 25.18500
C  35.62400 6.03800 26.44600
N  42.28100 8.50800 27.21200
C  41.49900 8.05200 26.19700
C  42.25900 8.13300 24.77000
C  43.55500 8.96700 25.13900
C  43.42100 9.07000 26.71300
C  42.49000 6.69400 24.16900
C  43.46300 10.35900 24.43300
C  42.59500 11.45300 25.05700
N  43.43100 9.62500 29.59200
C  44.48200 10.02400 28.75200
C  45.52700 10.62300 29.57900
C  45.04900 10.51700 30.88900
C  43.77000 9.94300 30.86100
C  46.73200 11.25400 29.05100
C  45.45000 10.75900 32.25500
O  46.44200 11.22600 32.78600
C  44.16100 10.32600 33.10600
C  44.47300 9.37500 34.20400
O  44.96900 8.23900 34.05100
O  43.95400 9.85300 35.36300
C  44.02000 8.97600 36.56500
H  38.16700 6.94900 31.67700
H  39.80200 7.10700 25.40300
H  45.30200 10.17500 26.80100
H  41.78600 8.56500 34.29100
H  39.06300 8.31700 33.96100
H  40.18300 5.83200 32.92800
H  39.37200 6.33500 34.40200
H  41.08800 6.56200 34.33300
H  39.98200 10.83900 33.52000
H  41.64500 11.09000 34.17800
H  40.10100 9.54800 36.05700
H  39.08700 10.92000 35.54800
H  36.51800 6.18300 30.76900
H  36.09500 5.21200 29.24800
H  35.64100 6.82200 29.32500
H  35.30800 5.36600 25.64800
H  35.04700 6.96200 26.48400
H  35.45600 5.48500 27.37000
H  41.66700 8.68500 24.04000
H  44.52800 8.53700 24.90300
H  42.09800 5.96200 24.87500
H  43.52900 6.40600 24.00800
H  42.12800 6.55100 23.15100
H  43.09800 10.16700 23.42400
H  44.46300 10.79300 24.42800
H  41.76300 11.48200 24.35400
H  43.07300 12.43200 25.03100
H  42.17100 11.26900 26.04400
H  47.29100 11.73700 29.85200
H  46.40400 11.95300 28.28200
H  47.27400 10.45400 28.54500
H  43.97300 11.27500 33.60800
H  43.29600 9.28800 37.31800
H  45.03100 8.92600 36.96800
H  43.74000 7.94400 36.35300
Mg 41.86600 40.86900 26.67400
C  40.87400 43.28300 28.92300
C  42.99400 38.92500 29.21800
C  42.89800 38.63800 24.32000
C  41.20700 43.20500 24.12500
N  41.89200 41.09100 28.82000
C  41.31200 42.07700 29.49100
C  41.30100 41.75200 31.00900
C  42.34600 40.65100 31.10200
C  42.45300 40.19800 29.65000
C  43.75800 40.90400 31.46500
C  39.96600 41.61900 31.68500
C  39.56000 42.44200 32.98400
H  39.39100 41.59500 34.30300
N  42.75700 39.01600 26.72700
C  43.16000 38.36100 27.91800
C  43.66500 37.02600 27.55500
C  43.67200 36.94700 26.13800
C  43.08300 38.24300 25.66300
C  44.07900 36.01200 28.59200
C  44.20600 35.90600 25.21600
O  44.32700 36.04900 23.98600
C  44.67200 34.55300 25.79600
N  42.08700 40.94100 24.49400
C  42.46400 39.84300 23.72100
C  42.29500 40.17400 22.27500
C  41.73300 41.61400 22.20500
C  41.66000 41.96000 23.70900
C  43.68200 40.02700 21.44800
C  40.35500 41.72100 21.56400
C  40.41300 42.13600 20.08400
N  41.22800 42.88800 26.48800
C  40.96900 43.66600 25.38200
C  40.29700 44.83400 25.83200
C  40.25700 44.80500 27.24100
C  40.87100 43.58900 27.56800
C  39.78700 45.89300 24.93000
C  39.84100 45.49800 28.55300
O  39.34100 46.58400 28.69100
C  40.20300 44.46900 29.63900
C  41.12000 45.17300 30.56300
O  42.15300 45.78300 30.19200
O  40.70500 45.08100 31.89300
C  41.44100 45.71500 32.93700
H  43.32700 38.27100 30.02700
H  43.17500 37.96700 23.50400
H  40.90200 43.85800 23.30500
H  41.81100 42.64900 31.36100
H  41.96400 39.87300 31.76300
H  43.94200 40.64600 32.50800
H  44.06500 41.93300 31.27900
H  44.49600 40.38100 30.85700
H  39.85000 40.55000 31.86400
H  39.22300 41.93300 30.95300
H  38.69500 43.07600 32.79200
H  40.48800 43.00300 33.09400
H  43.53800 35.06800 28.52400
H  43.95600 36.48400 29.56700
H  45.15300 35.88900 28.45700
H  45.41700 34.62100 26.58800
H  45.18300 34.13800 24.92700
H  43.82300 33.96000 26.13700
H  41.61700 39.35600 22.03100
H  42.44500 42.27900 21.71800
H  44.53300 39.75700 22.07400
H  43.99800 40.81900 20.77100
H  43.34200 39.20000 20.82400
H  39.71700 42.50000 21.98100
H  40.01300 40.68900 21.64400
H  39.55900 42.73900 19.77500
H  40.34700 41.19300 19.54300
H  41.32700 42.67600 19.83800
H  40.59700 46.51900 24.55400
H  39.09900 46.51700 25.50000
H  39.27900 45.37300 24.11700
H  39.42400 44.06200 30.28300
H  41.66200 45.05400 33.77500
H  40.92400 46.60300 33.30000
H  42.42500 46.06700 32.62600

