158

Mg 24.51900 -5.28300 45.70600
C  26.59700 -3.29200 43.63700
C  21.86200 -4.64600 43.61300
C  22.99500 -8.26500 46.68600
C  27.42700 -6.37100 47.46100
N  24.34200 -4.34100 43.68400
C  25.28400 -3.42900 43.14000
C  24.64800 -2.63000 42.02000
C  23.11500 -2.80600 42.34500
C  23.07300 -4.03200 43.23000
C  22.42500 -1.57200 42.94200
C  25.33800 -3.18400 40.66100
C  25.79800 -2.04900 39.78300
H  25.63400 -2.37300 38.31600
N  22.63100 -6.23100 45.34700
C  21.69600 -5.73300 44.48800
C  20.48300 -6.46700 44.68800
C  20.79500 -7.61700 45.56300
C  22.17800 -7.41600 45.90600
C  19.19700 -6.02700 44.02700
C  19.79800 -8.66100 45.94200
O  18.70000 -8.62700 45.32600
C  20.03000 -9.78700 46.91700
N  25.16100 -7.03700 46.97400
C  24.28100 -8.15800 47.14800
C  25.04700 -9.28300 47.97800
C  26.22200 -8.45400 48.54100
C  26.35900 -7.28400 47.60400
C  24.22000 -10.14300 49.10400
C  27.54800 -9.23100 48.75900
C  28.55500 -8.82300 49.85000
N  26.55100 -4.86600 45.70500
C  27.59800 -5.31400 46.52700
C  28.82000 -4.67500 46.03700
C  28.46500 -3.90900 44.94500
C  27.09000 -4.09100 44.68600
C  30.18600 -4.94400 46.54100
C  28.95800 -3.04200 43.92100
O  30.10900 -2.75600 43.73900
C  27.80700 -2.63100 42.97500
C  27.89800 -1.15400 43.08900
O  27.67400 -0.51600 44.06100
O  28.39900 -0.59700 41.94700
C  28.75200 0.82000 41.90600
H  20.95800 -4.26100 43.13500
H  22.49300 -9.16700 47.04200
H  28.30200 -6.72200 48.01100
H  24.82800 -1.56300 42.15000
H  22.67800 -3.05000 41.37600
H  21.76000 -1.17400 42.17600
H  23.09000 -0.76000 43.23700
H  21.80200 -1.92400 43.76400
H  24.60100 -3.73600 40.07800
H  26.13600 -3.91300 40.79900
H  26.86800 -1.92200 39.94500
H  25.31200 -1.14300 40.14200
H  18.32100 -6.05600 44.67500
H  19.03500 -6.58900 43.10700
H  19.22200 -4.98100 43.71900
H  20.53100 -9.35800 47.78500
H  20.41300 -10.69700 46.45700
H  19.05800 -10.10500 47.29500
H  25.50300 -9.90500 47.20800
H  25.92200 -8.02000 49.49500
H  24.65200 -10.29200 50.09300
H  24.24800 -11.14500 48.67500
H  23.16400 -9.87200 49.12600
H  28.11200 -9.08200 47.83900
H  27.40800 -10.29500 48.94500
H  28.78800 -9.58200 50.59600
H  28.21700 -7.93800 50.39000
H  29.42500 -8.39900 49.34900
H  30.01000 -5.65400 47.34900
H  30.59500 -4.01200 46.93300
H  30.84100 -5.43700 45.82300
H  27.90300 -3.01200 41.95800
H  28.02100 1.49800 42.34700
H  28.62000 1.20200 40.89400
H  29.71500 1.07700 42.34600
Mg 9.30900 48.24700 25.34500
C  6.98500 48.80500 27.86600
C  11.70100 49.46500 27.44000
C  11.46100 47.64800 22.96800
C  6.67200 47.70000 22.98800
N  9.27800 49.20400 27.40000
C  8.28300 49.05500 28.35000
C  8.81800 49.13700 29.83200
C  10.21500 49.83500 29.60200
C  10.42800 49.47400 28.02300
C  10.15700 51.34300 29.82700
C  8.80600 47.75600 30.52400
C  9.37600 47.75700 31.96000
H  8.46000 47.21600 33.06100
N  11.34000 48.39000 25.25500
C  12.14800 48.90400 26.25200
C  13.50900 48.71900 25.78200
C  13.52000 48.21600 24.51400
C  12.05500 48.08700 24.18400
C  14.66000 49.15200 26.71600
C  14.58300 47.90800 23.57400
O  14.38600 47.35600 22.50000
C  15.96700 48.10200 23.99600
N  9.07200 47.81300 23.23600
C  10.18100 47.60200 22.57300
C  9.86500 46.99000 21.16000
C  8.29500 47.01700 21.13800
C  7.97200 47.61500 22.47700
C  10.67700 47.51000 19.93700
C  7.60600 45.67000 20.78800
C  6.59400 45.75600 19.54200
N  7.25800 48.33100 25.37600
C  6.28400 48.09200 24.30600
C  4.98400 48.18200 24.90900
C  5.25700 48.41800 26.34000
C  6.59000 48.52500 26.50700
C  3.62800 48.18300 24.17600
C  4.58800 48.66500 27.59900
O  3.36000 48.60700 27.88300
C  5.70100 48.85900 28.65100
C  5.39500 47.74800 29.66100
O  5.74900 46.60100 29.59600
O  4.60200 48.23000 30.65900
C  4.06900 47.26200 31.63700
H  12.46900 49.69000 28.18300
H  12.11900 47.31300 22.16400
H  5.87000 47.53400 22.26700
H  8.16000 49.77200 30.42500
H  11.05600 49.35900 30.10600
H  9.26000 51.61300 30.38300
H  10.18700 51.88500 28.88100
H  11.01300 51.60800 30.44800
H  9.23700 46.91900 29.97700
H  7.75500 47.52200 30.69300
H  9.72300 48.78000 32.10900
H  10.23500 47.08700 31.92400
H  14.42900 49.36600 27.75900
H  15.03900 50.12400 26.40000
H  15.44800 48.40000 26.67200
H  16.12500 47.31300 24.73100
H  16.01300 49.05400 24.52400
H  16.60700 48.05500 23.11500
H  10.25500 45.97200 21.13900
H  7.94100 47.86300 20.54900
H  10.08800 48.19400 19.32700
H  11.14300 46.77800 19.27700
H  11.49900 48.06200 20.39300
H  7.14800 45.14300 21.62500
H  8.37700 44.93900 20.54800
H  5.78600 45.04900 19.73300
H  7.07300 45.67600 18.56600
H  6.10900 46.72500 19.65500
H  3.84300 48.10200 23.11100
H  2.99700 49.04400 24.39900
H  3.10500 47.35500 24.65500
H  5.67300 49.83300 29.14000
H  3.44600 47.92100 32.24100
H  4.89500 46.97800 32.28900
H  3.57600 46.37700 31.23500

