158

Mg 7.88900 3.20500 27.84500
C  9.41300 1.62300 30.64400
C  6.31900 5.38900 30.17300
C  6.33400 4.76800 25.28400
C  8.95000 0.63200 25.85200
N  7.85200 3.44000 30.15400
C  8.61300 2.70500 31.01500
C  8.41200 3.26200 32.49800
C  7.36300 4.37600 32.32700
C  7.12600 4.40100 30.81600
C  6.06200 4.27900 33.13100
C  9.77800 3.71100 33.14300
C  9.92200 3.49800 34.69000
H  10.49700 4.61200 35.55300
N  6.58800 4.84300 27.75800
C  6.13100 5.59100 28.79500
C  5.38200 6.68400 28.22100
C  5.23200 6.46200 26.83000
C  6.02900 5.25600 26.59000
C  4.84000 7.78700 29.11000
C  4.65000 7.35900 25.72600
O  4.72200 7.11500 24.52100
C  4.01900 8.61600 26.07100
N  7.53500 2.64600 25.90400
C  7.07500 3.50800 24.96900
C  7.38200 3.20100 23.48600
C  8.02200 1.72500 23.75200
C  8.23600 1.65300 25.25400
C  6.05100 3.31100 22.67100
C  9.32500 1.60900 22.89800
C  10.55200 2.43400 23.39100
N  8.92000 1.42400 28.14100
C  9.18400 0.41100 27.29800
C  9.87400 -0.65500 27.99500
C  10.07400 -0.11200 29.27200
C  9.40800 1.05800 29.30900
C  10.57300 -1.83600 27.51700
C  10.75000 -0.36100 30.52700
O  11.48800 -1.25100 30.89700
C  10.25900 0.71700 31.43600
C  9.47600 0.13700 32.52000
O  8.49400 -0.55800 32.34300
O  10.15300 0.32400 33.73200
C  9.35300 -0.18400 34.86700
H  5.85900 6.13500 30.82400
H  6.06100 5.48100 24.50300
H  9.29400 -0.22900 25.27500
H  7.96300 2.44100 33.05800
H  7.79700 5.31700 32.66900
H  5.23900 3.86700 32.54600
H  5.77200 5.28100 33.44700
H  6.11700 3.64300 34.01500
H  9.89000 4.77300 32.92800
H  10.53400 3.10000 32.65000
H  10.64800 2.70300 34.86300
H  8.94800 3.24500 35.11000
H  5.40600 7.96800 30.02400
H  3.77200 7.67000 29.29700
H  4.90600 8.72700 28.56200
H  3.32000 8.44600 26.89000
H  3.54900 8.81800 25.10800
H  4.82400 9.29500 26.35400
H  8.11700 3.84700 23.00700
H  7.37800 0.88000 23.50800
H  5.16600 3.50300 23.27800
H  5.94400 2.34700 22.17500
H  6.04100 4.03200 21.85400
H  9.10100 1.95400 21.88900
H  9.54300 0.54200 22.84300
H  11.13200 1.80500 24.06700
H  10.25100 3.33800 23.92000
H  11.10900 2.78100 22.52000
H  11.59000 -1.69200 27.15300
H  9.97100 -2.36400 26.77800
H  10.67300 -2.56400 28.32200
H  11.13800 1.20800 31.85300
H  9.24600 -1.26800 34.91200
H  8.35700 0.23700 34.99900
H  9.80800 0.09500 35.81700
Mg 47.40200 25.70200 28.85200
C  48.35600 27.76200 31.30700
C  46.46500 23.38000 31.21300
C  46.89500 23.32200 26.33100
C  49.07600 27.53800 26.56200
N  47.60600 25.57500 31.05400
C  47.84900 26.62100 31.88600
C  47.28800 26.32300 33.32900
C  46.82600 24.87300 33.28300
C  46.99100 24.56200 31.77300
C  47.34200 23.91800 34.35600
C  46.27800 27.30900 33.85200
C  46.64800 28.09400 35.11700
H  45.58200 28.26100 36.22600
N  46.71100 23.60700 28.77100
C  46.40800 22.85000 29.90000
C  45.88900 21.54000 29.45600
C  45.94800 21.56800 28.04100
C  46.46700 22.90800 27.62800
C  45.25300 20.54100 30.51800
C  45.58500 20.42100 27.08900
O  45.71000 20.54700 25.86800
C  45.01600 19.12700 27.69300
N  48.04000 25.40100 26.81400
C  47.59400 24.42600 25.93100
C  47.89400 24.79900 24.48000
C  48.13600 26.30600 24.57700
C  48.46900 26.45300 26.08600
C  49.07800 23.88700 24.09100
C  46.96900 27.26200 24.08000
C  45.54100 26.91200 24.65900
N  48.41800 27.41700 28.85700
C  49.11000 28.05200 27.86800
C  49.56200 29.39200 28.36300
C  49.27500 29.27800 29.69900
C  48.63700 28.06300 30.00800
C  50.28300 30.40000 27.54100
C  49.35100 30.01400 31.00400
O  49.72500 31.13900 31.22000
C  48.75100 29.06200 32.05200
C  49.84100 28.79800 33.04200
O  50.67600 27.89600 32.87200
O  49.79500 29.74300 34.13600
C  50.89900 29.54400 35.11000
H  45.94500 22.75400 31.94000
H  46.62100 22.52300 25.63900
H  49.43000 28.12500 25.71200
H  48.13500 26.30100 34.01600
H  45.74800 24.82300 33.43800
H  46.45800 23.40800 34.73800
H  47.87200 24.50100 35.10900
H  47.97900 23.16000 33.90000
H  45.34100 26.80700 34.09400
H  45.99000 27.94700 33.01600
H  46.92000 29.06900 34.71300
H  47.56900 27.73700 35.57800
H  44.21700 20.31700 30.26000
H  45.34700 20.95200 31.52300
H  45.82200 19.61300 30.48000
H  45.61800 18.59600 28.43000
H  44.79000 18.57600 26.78000
H  44.00900 19.24400 28.09300
H  47.01800 24.59100 23.86600
H  48.97800 26.60400 23.95200
H  49.57800 23.48900 24.97400
H  49.80500 24.52500 23.58800
H  48.85900 22.99400 23.50600
H  47.00800 27.09100 23.00400
H  47.36000 28.28000 24.05200
H  45.79700 26.29600 25.52000
H  45.01600 26.31200 23.91500
H  44.89500 27.75300 24.91400
H  50.17300 31.39800 27.96600
H  49.81800 30.31000 26.56000
H  51.31300 30.11300 27.32800
H  47.88600 29.50800 32.54200
H  51.81300 29.39300 34.53600
H  50.71500 28.75100 35.83500
H  50.99800 30.45400 35.70200

