158

Mg 48.42100 35.31500 27.42800
C  46.49700 33.81800 30.06600
C  48.59300 38.16000 29.22200
C  49.70400 36.77100 24.65000
C  47.53400 32.44100 25.49000
N  47.70700 35.87000 29.35800
C  47.07800 35.07400 30.28500
C  47.23800 35.69300 31.69600
C  47.33400 37.23200 31.34000
C  47.90300 37.11100 29.90300
C  46.04700 38.09800 31.55400
C  48.52900 35.07700 32.36900
C  48.53200 35.07700 33.85700
H  47.69600 36.07200 34.57000
N  49.22900 37.14500 27.05800
C  49.29800 38.15400 27.98600
C  50.04400 39.29700 27.39900
C  50.26300 38.94600 26.05600
C  49.69700 37.61500 25.85100
C  50.35700 40.59400 28.13300
C  50.87800 39.81000 24.94800
O  51.07800 39.31000 23.87700
C  51.40700 41.16600 25.16400
N  48.42000 34.74100 25.32400
C  49.07300 35.50700 24.42000
C  49.10900 34.83700 22.98600
C  48.70400 33.36100 23.36700
C  48.14300 33.50800 24.79500
C  48.02400 35.42900 21.98800
C  49.95400 32.41100 23.35400
C  49.74000 31.00000 22.71100
N  47.27900 33.44800 27.65500
C  47.08000 32.36500 26.82500
C  46.26000 31.36000 27.54500
C  46.06500 31.86100 28.82900
C  46.66200 33.15500 28.84500
C  45.81000 30.05200 27.05300
C  45.37800 31.65400 30.06200
O  44.74100 30.68300 30.48400
C  45.52800 33.00100 30.88100
C  45.85300 32.67200 32.31200
O  46.90800 32.16300 32.71600
O  44.79800 33.07300 33.12800
C  45.15100 32.94900 34.55900
H  48.69400 39.05600 29.83900
H  50.12100 37.28100 23.78000
H  47.38100 31.58200 24.83300
H  46.35200 35.43200 32.27500
H  48.07100 37.66000 32.02000
H  45.19700 37.58900 32.00900
H  45.70600 38.62800 30.66400
H  46.15800 38.96500 32.20500
H  49.29600 35.69500 31.90100
H  48.49800 34.06900 31.95700
H  49.58000 35.32300 34.02700
H  48.46500 34.04100 34.19000
H  50.20200 41.43000 27.45100
H  51.43300 40.67200 28.29200
H  49.69900 40.67500 28.99900
H  52.07800 41.40200 24.33900
H  51.92200 41.19400 26.12400
H  50.70600 42.00000 25.19100
H  50.12600 34.76800 22.60000
H  47.89100 32.84600 22.85400
H  47.47600 36.23900 22.47100
H  47.24800 34.69400 21.77700
H  48.45000 35.79200 21.05300
H  50.32300 32.34000 24.37700
H  50.78300 32.74800 22.73000
H  50.43500 30.94800 21.87200
H  48.80100 30.69700 22.24700
H  50.06500 30.27200 23.45400
H  46.08000 29.29000 27.78400
H  46.28400 29.73600 26.12300
H  44.74300 30.14500 26.85100
H  44.58000 33.53600 30.94800
H  45.35800 31.91000 34.81400
H  44.31100 33.23800 35.19000
H  45.98000 33.64800 34.67500
Mg 9.93200 46.68500 26.29200
C  7.64400 47.12100 28.97000
C  12.32400 48.17300 28.31500
C  11.85600 46.80000 23.58100
C  7.19600 46.02300 24.27600
N  10.07200 47.26100 28.41100
C  9.01200 47.29900 29.34400
C  9.47200 47.67600 30.81300
C  10.77800 48.39100 30.41800
C  11.13300 47.82300 29.01200
C  10.58400 49.96200 30.43200
C  9.62400 46.34300 31.65300
C  9.33500 46.42300 33.13700
H  10.06900 45.39100 34.02400
N  11.89600 47.22700 25.97400
C  12.69800 47.85000 26.96000
C  14.01400 47.92500 26.43800
C  13.94600 47.55100 25.06200
C  12.56900 47.21900 24.80000
C  15.20000 48.41500 27.24200
C  15.09800 47.45300 24.02100
O  14.77000 47.12200 22.89500
C  16.47300 47.66900 24.32400
N  9.56700 46.54100 24.17400
C  10.59300 46.49500 23.28400
C  10.05200 46.25000 21.80300
C  8.58500 45.85100 22.10200
C  8.45600 46.01600 23.62600
C  10.32000 47.47200 20.92400
C  7.97900 44.51100 21.51200
C  7.43700 44.60300 20.07100
N  7.84700 46.76000 26.50500
C  6.86600 46.41100 25.62300
C  5.55900 46.44900 26.23100
C  5.79700 46.68900 27.61000
C  7.19400 46.90700 27.68600
C  4.20400 46.22900 25.52600
C  5.17100 46.88200 28.87500
O  3.97900 46.81900 29.21200
C  6.29500 47.34400 29.77300
C  6.10400 46.52700 31.04500
O  6.47900 45.35900 31.15900
O  5.43700 47.21400 32.01900
C  5.17400 46.35400 33.16400
H  13.05300 48.71100 28.92400
H  12.42300 46.94700 22.65900
H  6.32700 45.66300 23.72100
H  8.74800 48.35200 31.26900
H  11.58700 48.15100 31.10800
H  10.40200 50.32100 29.41900
H  11.47700 50.42400 30.85200
H  9.79600 50.28000 31.11500
H  10.64400 45.96700 31.57200
H  8.91400 45.66100 31.18600
H  8.27700 46.19200 33.26100
H  9.48500 47.45200 33.46300
H  15.03400 48.42200 28.32000
H  15.72200 49.28300 26.84100
H  15.94900 47.62300 27.24600
H  16.89600 46.86700 24.92900
H  16.69000 48.47500 25.02400
H  16.95000 47.84800 23.36000
H  10.55300 45.43300 21.28500
H  7.86600 46.56700 21.70400
H  10.99900 48.17100 21.41300
H  9.38800 47.96100 20.64200
H  10.71900 47.12900 19.96900
H  7.11800 44.21900 22.11300
H  8.78200 43.78300 21.63400
H  8.15100 44.11000 19.41100
H  7.36400 45.57600 19.58500
H  6.42400 44.22300 19.93900
H  3.84000 45.25200 25.84200
H  4.25200 46.31000 24.44000
H  3.42600 46.91900 25.85200
H  6.22600 48.39100 30.06700
H  4.29400 46.82700 33.59900
H  6.07800 46.24700 33.76500
H  4.82100 45.33100 33.03300

