158

Mg 26.47300 -0.20500 28.81500
C  28.13800 -0.38400 31.87700
C  23.53800 0.53700 30.64200
C  24.67900 -0.26200 25.99000
C  29.32600 -0.83300 27.15700
N  25.91300 -0.01600 31.05200
C  26.81400 -0.05000 32.09600
C  26.14200 0.35900 33.35900
C  24.65400 0.67300 33.01300
C  24.67500 0.34400 31.47700
C  23.61300 -0.15300 33.84700
C  26.80400 1.58000 34.10900
C  26.98300 1.42000 35.63400
H  25.96900 0.61900 36.50300
N  24.39600 0.15200 28.36400
C  23.35800 0.36100 29.25000
C  22.16200 0.51600 28.49300
C  22.43500 0.15300 27.16900
C  23.87600 -0.04100 27.11400
C  20.86200 0.85900 29.13200
C  21.56000 -0.04700 25.98700
O  21.98000 -0.50100 24.95600
C  20.04300 0.28900 26.12400
N  26.96400 -0.48600 26.89000
C  26.08200 -0.41800 25.82900
C  26.75100 -0.59500 24.50100
C  28.28800 -0.53600 24.80300
C  28.21200 -0.65100 26.38200
C  26.37100 -1.83100 23.65900
C  28.86100 0.79600 24.29400
C  30.14800 0.72800 23.48600
N  28.29900 -0.79400 29.39500
C  29.40500 -0.96700 28.56100
C  30.60400 -1.11000 29.39700
C  30.12300 -0.98400 30.74600
C  28.74300 -0.71100 30.67400
C  32.02700 -1.32300 28.91900
C  30.47300 -1.03400 32.16500
O  31.51700 -1.18500 32.75300
C  29.20300 -0.60100 32.99800
C  28.79600 -1.61400 33.97400
O  28.17000 -2.62000 33.74000
O  29.42500 -1.34300 35.22500
C  29.41500 -2.42400 36.26400
H  22.66100 0.88700 31.19100
H  24.24500 -0.50600 25.01800
H  30.29800 -0.75300 26.66600
H  26.23300 -0.44900 34.08500
H  24.51500 1.75300 33.05900
H  23.91100 -0.76100 34.70100
H  23.04600 -0.79800 33.17500
H  22.98000 0.66000 34.20100
H  26.24200 2.51100 34.03700
H  27.79300 1.71600 33.67300
H  27.10100 2.42500 36.03700
H  27.92700 0.90700 35.81500
H  20.93500 1.21100 30.16100
H  20.24100 -0.03600 29.14000
H  20.25500 1.58300 28.58800
H  19.66800 0.19700 25.10500
H  19.96200 1.32000 26.47100
H  19.74500 -0.38400 26.92800
H  26.43200 0.21800 23.85000
H  28.83800 -1.37900 24.38500
H  27.21400 -2.41900 23.29600
H  25.81400 -1.60900 22.74900
H  25.70200 -2.46600 24.24000
H  29.10900 1.35700 25.19500
H  28.11500 1.24300 23.63600
H  31.08800 1.21600 23.74400
H  29.95000 1.13500 22.49400
H  30.40700 -0.30200 23.24500
H  32.71300 -0.93800 29.67400
H  32.15300 -0.94800 27.90300
H  32.22700 -2.39300 28.87500
H  29.56000 0.24400 33.58700
H  29.43600 -3.42900 35.84300
H  28.53800 -2.36900 36.90900
H  30.30000 -2.30500 36.88900
Mg 48.02800 44.84800 43.30900
C  44.60800 44.77600 42.76700
C  48.14200 41.52000 42.35500
C  51.27100 45.17500 43.20400
C  47.69500 48.24400 44.29000
N  46.45900 43.35900 42.75200
C  45.15800 43.51100 42.50900
C  44.49400 42.24100 41.87100
C  45.63400 41.21300 42.21300
C  46.88400 42.07500 42.44500
C  45.43600 40.39200 43.49900
C  44.33300 42.48200 40.38400
C  43.11400 41.82300 39.66300
H  43.31600 40.62500 38.70300
N  49.55900 43.45400 42.93000
C  49.42000 42.17600 42.53300
C  50.76600 41.59400 42.31600
C  51.68700 42.60100 42.67200
C  50.87000 43.80500 42.93600
C  50.88600 40.12700 41.95100
C  53.13700 42.46400 42.64400
O  53.64800 41.38400 42.24300
C  54.06800 43.53500 43.05300
N  49.27600 46.53100 43.47200
C  50.58800 46.38800 43.45400
C  51.39800 47.75200 43.65900
C  50.20600 48.74200 43.89200
C  49.01500 47.79100 43.98000
C  52.58300 47.83100 44.68500
C  50.18300 49.98300 42.87300
C  51.26500 51.05700 43.07700
N  46.48500 46.30200 43.47800
C  46.49700 47.63000 43.95000
C  45.09400 48.11000 44.00800
C  44.33400 47.11500 43.39600
C  45.23100 46.02200 43.19500
C  44.70600 49.50900 44.47500
C  43.03600 46.69300 42.94800
O  41.98500 47.28000 42.93200
C  43.19300 45.29600 42.32900
C  41.97300 44.46500 42.79500
O  41.41700 43.65100 42.03700
O  41.71100 44.77400 44.07500
C  40.72100 43.89600 44.69200
H  48.13700 40.47700 42.03200
H  52.33400 45.40300 43.10400
H  47.70000 49.30600 44.54200
H  43.55900 42.02100 42.38700
H  45.79000 40.55000 41.36200
H  44.38600 40.10200 43.54700
H  45.70000 40.83500 44.45900
H  45.93400 39.42200 43.50800
H  45.20300 42.06900 39.87300
H  44.30000 43.55000 40.16900
H  42.64800 42.66200 39.14700
H  42.41000 41.52700 40.44100
H  49.92200 39.66200 41.74500
H  51.44100 39.52500 42.67000
H  51.41800 40.12600 40.99900
H  54.07400 44.24600 42.22600
H  55.09500 43.17700 43.11900
H  53.80500 44.03000 43.98800
H  51.95300 47.87100 42.72900
H  50.22100 49.08100 44.92800
H  52.89300 46.83500 44.99900
H  52.23900 48.33900 45.58600
H  53.43500 48.40500 44.32000
H  49.15500 50.31900 43.00800
H  50.04800 49.55800 41.87800
H  50.79500 52.02500 43.25000
H  51.70700 51.22500 42.09500
H  52.08800 50.87600 43.76900
H  44.42100 49.40700 45.52300
H  43.83400 49.85100 43.91800
H  45.52300 50.21000 44.30700
H  42.94700 45.47600 41.28300
H  40.78300 43.56100 45.72700
H  40.70100 42.94600 44.15800
H  39.77000 44.38700 44.48500

