158

Mg 41.32000 8.94900 29.96800
C  43.19300 10.12400 32.64800
C  38.88100 8.00800 32.32700
C  39.39500 7.77400 27.41900
C  43.90900 9.37500 27.81400
N  41.05100 9.07300 32.23600
C  41.93800 9.65600 33.07800
C  41.35100 9.64500 34.49300
C  40.20400 8.68400 34.38700
C  39.95700 8.69000 32.85500
C  40.42300 7.25800 35.05000
C  40.92300 11.06900 35.01100
C  40.41800 11.19800 36.48700
H  41.33600 11.76600 37.62100
N  39.39900 8.07500 29.94200
C  38.58200 7.74800 30.99200
C  37.36800 7.16400 30.50600
C  37.51900 7.05500 29.08200
C  38.76400 7.76100 28.74900
C  36.30500 6.64400 31.51400
C  36.53800 6.62900 28.16100
O  36.58600 6.85500 26.96000
C  35.28500 5.90100 28.68000
N  41.56000 8.51000 27.87100
C  40.65800 8.10200 27.01800
C  41.35800 7.81000 25.61700
C  42.73300 8.53400 25.81600
C  42.76200 8.74400 27.29000
C  41.52600 6.28100 25.15900
C  42.96300 9.75200 24.88700
C  42.31700 11.15900 25.23400
N  43.16700 9.68200 30.09100
C  44.10800 9.88500 29.11200
C  45.28200 10.62600 29.72100
C  44.97400 10.72600 31.09000
C  43.67900 10.11000 31.27600
C  46.47200 11.01200 28.97000
C  45.40800 11.18700 32.36300
O  46.42500 11.85500 32.59000
C  44.36600 10.91800 33.41900
C  44.95400 10.20900 34.57200
O  45.29700 9.04400 34.63300
O  44.96700 11.08200 35.65800
C  45.31600 10.60700 36.98200
H  38.27000 7.65100 33.15900
H  38.82400 7.39700 26.56700
H  44.69600 9.63600 27.10400
H  42.22700 9.36200 35.07700
H  39.33700 9.19500 34.80700
H  39.72200 7.26000 35.88500
H  41.41600 7.12900 35.48100
H  40.19600 6.46600 34.33600
H  40.19900 11.54200 34.34900
H  41.85000 11.63400 35.10400
H  40.04100 10.25300 36.88000
H  39.64400 11.94500 36.31000
H  35.32100 7.05100 31.28100
H  36.42600 6.83900 32.58000
H  36.31700 5.56300 31.37200
H  35.58700 5.07000 29.31800
H  34.63000 5.59100 27.86500
H  34.76600 6.64900 29.27800
H  40.80600 8.34300 24.84200
H  43.53900 7.81100 25.68600
H  40.99600 5.64200 25.86600
H  42.53700 5.87400 25.14400
H  41.11700 6.24700 24.15000
H  42.60800 9.39400 23.92100
H  44.05100 9.68700 24.85900
H  41.99600 11.22700 26.27300
H  41.59000 11.57600 24.53700
H  43.09700 11.92000 25.27200
H  46.89000 11.98700 29.22100
H  46.13000 11.02300 27.93500
H  47.27600 10.31200 29.19600
H  43.95200 11.86100 33.77500
H  44.79300 11.17400 37.75200
H  46.40600 10.63600 36.99800
H  45.02400 9.55900 37.05900
Mg 47.69400 23.92200 28.11500
C  48.69400 25.99700 30.60100
C  46.74600 21.53000 30.42000
C  47.04800 21.84400 25.54300
C  49.12100 26.14700 25.74300
N  47.65700 23.79900 30.30500
C  48.05500 24.84500 31.10900
C  47.61900 24.51300 32.54100
C  47.28100 23.01900 32.47100
C  47.27600 22.71300 30.96100
C  48.10600 22.00600 33.25700
C  46.67600 25.52800 33.22000
C  47.32600 26.03300 34.47300
H  46.72800 27.29600 35.17600
N  46.98300 21.92000 28.00500
C  46.68900 21.11600 29.06700
C  46.22100 19.87300 28.53100
C  45.94500 20.04800 27.14400
C  46.61400 21.30700 26.82200
C  45.96700 18.72800 29.43400
C  45.30900 19.07600 26.17100
O  45.23700 19.39200 24.96700
C  44.59700 17.74200 26.47200
N  48.02300 24.01100 26.00500
C  47.58000 23.05700 25.14100
C  47.86200 23.34800 23.65200
C  48.29100 24.82900 23.67300
C  48.53300 25.00000 25.21700
C  48.99700 22.42600 23.02100
C  47.35600 25.86400 23.08900
C  47.98900 26.88200 22.06000
N  48.61200 25.66600 28.10200
C  49.13200 26.42400 27.09400
C  49.70000 27.63500 27.64100
C  49.51900 27.49700 29.02200
C  48.85600 26.29600 29.25000
C  50.42700 28.83700 26.94000
C  49.80200 28.18300 30.30100
O  50.44400 29.23200 30.56300
C  49.11800 27.33900 31.39600
C  50.13300 27.14300 32.44800
O  50.92100 26.17300 32.47800
O  50.13400 28.13300 33.36400
C  50.92400 27.97400 34.65600
H  46.34100 20.92400 31.23300
H  46.84300 21.20700 24.68100
H  49.46900 26.87200 25.00400
H  48.56900 24.60600 33.06600
H  46.32900 22.90600 32.99000
H  47.52900 21.62800 34.10000
H  49.12600 22.35300 33.42200
H  48.11800 21.15400 32.57800
H  45.75700 25.03900 33.54200
H  46.33000 26.20800 32.44200
H  48.37700 26.32400 34.47600
H  47.36600 25.30400 35.28200
H  44.88800 18.66400 29.57600
H  46.40200 18.83700 30.42800
H  46.38500 17.80800 29.02600
H  45.05500 17.33700 27.37500
H  44.59600 16.89500 25.78600
H  43.60100 17.92300 26.87700
H  46.94600 23.24800 23.06900
H  49.29300 24.95600 23.26400
H  49.67200 22.05800 23.79300
H  49.74700 22.94100 22.42100
H  48.67300 21.47600 22.59700
H  46.97400 26.46200 23.91700
H  46.37800 25.49600 22.77900
H  47.47900 26.72800 21.10900
H  49.07700 26.82000 22.08500
H  47.67800 27.89200 22.32500
H  51.43200 28.79800 27.36100
H  50.00400 29.82600 27.12000
H  50.63600 28.80200 25.87100
H  48.27300 27.91000 31.78100
H  51.65900 28.77700 34.70900
H  51.43600 27.02500 34.81600
H  50.27000 28.13600 35.51300

