158

Mg 16.48300 -2.57000 28.15900
C  15.89500 -0.44200 30.90300
C  17.83400 -4.81300 30.41900
C  17.66000 -4.42200 25.50700
C  15.29600 -0.35000 26.07500
N  16.91400 -2.61200 30.48300
C  16.52200 -1.63900 31.27900
C  16.86000 -2.04600 32.75000
C  17.77900 -3.32500 32.55000
C  17.46300 -3.65900 31.09200
C  19.29900 -2.96700 32.77600
C  15.61900 -2.45400 33.56900
C  15.36800 -1.65500 34.87600
H  16.66800 -1.19400 35.64700
N  17.51000 -4.44500 27.97300
C  17.84500 -5.22300 29.01700
C  18.38200 -6.47800 28.48500
C  18.24400 -6.42200 27.04400
C  17.77200 -5.03900 26.77300
C  18.88300 -7.57600 29.36200
C  18.58600 -7.47600 25.97500
O  18.38000 -7.27800 24.74700
C  19.24500 -8.77700 26.51900
N  16.55400 -2.33400 26.08700
C  17.07600 -3.22800 25.19000
C  16.95300 -2.72600 23.77400
C  15.88000 -1.62600 23.97800
C  15.80700 -1.46500 25.48400
C  18.27100 -2.18000 23.21400
C  14.40000 -1.77800 23.38300
C  13.11300 -1.97100 24.22000
N  15.71900 -0.76700 28.34100
C  15.26600 0.03800 27.38400
C  14.67600 1.17300 27.93800
C  14.87900 1.08200 29.34900
C  15.57500 -0.13900 29.48000
C  13.99300 2.29800 27.22800
C  14.68600 1.59300 30.67700
O  14.16800 2.63700 31.04500
C  15.37800 0.63600 31.72800
C  16.41700 1.48600 32.33200
O  17.58900 1.41800 32.03300
O  15.85300 2.42600 33.13500
C  16.70400 3.48900 33.67500
H  18.26400 -5.46800 31.17900
H  18.05000 -5.05300 24.70600
H  14.90400 0.44700 25.44000
H  17.39300 -1.20400 33.19200
H  17.74700 -4.13100 33.28400
H  19.51500 -1.96500 33.14600
H  19.86200 -3.15900 31.86200
H  19.66000 -3.54700 33.62400
H  15.46200 -3.53200 33.58700
H  14.88900 -2.05900 32.86200
H  14.91600 -2.25500 35.66500
H  14.69300 -0.88400 34.50600
H  18.50500 -8.58400 29.19600
H  18.42000 -7.44000 30.33900
H  19.95700 -7.51800 29.54300
H  20.04200 -8.52600 27.21900
H  19.72400 -9.31900 25.70400
H  18.50000 -9.43100 26.97300
H  16.51100 -3.54600 23.20800
H  16.16400 -0.67400 23.52700
H  18.95800 -1.83000 23.98500
H  18.10800 -1.30600 22.58300
H  19.01400 -2.77100 22.67800
H  14.38400 -2.57100 22.63400
H  14.19300 -0.84500 22.85900
H  12.74200 -1.02900 24.62500
H  13.31900 -2.51800 25.14000
H  12.44400 -2.55000 23.58400
H  12.98600 1.93900 27.01300
H  14.56400 2.51300 26.32500
H  13.95700 3.25100 27.75500
H  14.69800 0.28000 32.50200
H  16.09500 4.05200 34.38200
H  17.01800 4.17400 32.88700
H  17.59000 3.02200 34.10500
Mg 47.52900 35.09900 27.75900
C  45.74000 33.37900 30.33400
C  48.09700 37.70000 30.09900
C  48.30900 37.29800 25.24500
C  46.63400 32.75400 25.55400
N  46.86500 35.47000 30.02300
C  46.33200 34.55600 30.87800
C  46.41400 35.16900 32.28700
C  46.71900 36.70800 32.12300
C  47.26600 36.65700 30.67400
C  45.51400 37.67400 32.20300
C  47.57000 34.51800 33.13400
C  47.06700 34.34700 34.56500
H  47.71300 35.35500 35.55900
N  48.30400 37.13100 27.74800
C  48.50400 37.98900 28.80800
C  49.13700 39.18700 28.35300
C  49.27900 39.11300 26.97100
C  48.62200 37.81000 26.60700
C  49.53800 40.25800 29.36500
C  50.01600 39.98700 25.97900
O  50.28100 39.60300 24.88600
C  50.75600 41.27800 26.42300
N  47.47500 35.09200 25.64800
C  47.71100 36.09300 24.79700
C  47.68100 35.66000 23.32900
C  47.33800 34.09700 23.53000
C  47.16700 33.93200 25.01800
C  46.64100 36.36700 22.49100
C  48.36400 33.16500 22.84500
C  47.90900 32.00700 22.00200
N  46.52300 33.43700 27.89200
C  46.37200 32.47200 26.87400
C  45.73000 31.29700 27.45400
C  45.47400 31.54300 28.85000
C  45.90100 32.93000 29.03300
C  45.23600 30.09300 26.62700
C  44.89200 31.05900 30.07200
O  44.26100 30.05000 30.36800
C  44.97800 32.25400 31.07100
C  45.45800 31.87400 32.42700
O  46.50500 31.31300 32.68200
O  44.44100 32.05100 33.28200
C  44.47200 31.31500 34.54500
H  48.40700 38.38000 30.89600
H  48.64300 38.04800 24.52500
H  46.35200 32.04800 24.77000
H  45.47000 34.87900 32.74800
H  47.52700 37.06900 32.75900
H  45.44000 38.15600 33.17800
H  44.57400 37.12600 32.15000
H  45.42500 38.46100 31.45400
H  48.45100 35.14700 33.00500
H  47.83100 33.55900 32.68500
H  47.37000 33.38400 34.97600
H  45.97900 34.36000 34.63600
H  48.82500 40.19400 30.18700
H  49.51600 41.25800 28.93300
H  50.54800 40.08100 29.73500
H  51.48400 40.90100 27.14200
H  49.99300 41.96800 26.78200
H  51.36100 41.68100 25.61100
H  48.60500 35.85200 22.78300
H  46.36700 33.89700 23.07600
H  46.67800 36.11900 21.43000
H  46.59200 37.45300 22.57300
H  45.66100 35.96900 22.75300
H  49.03900 32.79800 23.61800
H  49.04600 33.75900 22.23600
H  48.13700 32.24700 20.96300
H  46.83800 31.82800 22.08900
H  48.37100 31.05200 22.25400
H  44.26200 30.32500 26.19400
H  45.04900 29.21500 27.24600
H  45.96100 29.92400 25.83200
H  43.99600 32.69300 31.24900
H  45.37800 30.73100 34.71000
H  43.63200 30.63400 34.68000
H  44.37200 32.13300 35.25800

