158

Mg 17.07000 50.94100 25.96500
C  18.93700 49.48700 28.55300
C  14.57300 51.77100 28.10600
C  15.21700 51.94300 23.26500
C  19.58000 49.81500 23.67400
N  16.82700 50.67100 28.13800
C  17.74400 50.17900 28.98000
C  17.34600 50.51100 30.39600
C  15.78400 50.96300 30.22700
C  15.67700 51.18700 28.72200
C  14.77600 50.01900 30.85400
C  18.28900 51.58700 30.99700
C  18.44700 51.66700 32.47600
H  17.45000 50.99400 33.33500
N  15.16400 51.80800 25.73600
C  14.33100 52.15500 26.72900
C  13.34000 53.02800 26.26100
C  13.52500 53.13100 24.83500
C  14.65200 52.30200 24.53300
C  12.32400 53.71300 27.17800
C  12.69600 53.93000 23.81300
O  12.99800 53.82700 22.64400
C  11.59500 54.96300 24.23300
N  17.32000 50.91400 23.85100
C  16.46300 51.44400 23.01500
C  16.95000 51.28600 21.57200
C  18.41900 50.78700 21.73700
C  18.46900 50.45200 23.15800
C  15.96500 50.43600 20.70400
C  19.54200 51.81400 21.23800
C  20.60000 51.23600 20.31000
N  18.85000 49.81900 26.01200
C  19.78800 49.51100 25.05700
C  20.87900 48.83200 25.62200
C  20.57600 48.80200 27.03900
C  19.33600 49.44200 27.20200
C  22.03600 48.34000 24.88500
C  21.09700 48.46200 28.33100
O  22.09300 47.85400 28.68200
C  20.12400 49.02600 29.34300
C  19.70900 48.00900 30.28300
O  19.43500 46.86300 29.96500
O  19.71600 48.49600 31.59100
C  19.28900 47.62700 32.66500
H  13.77600 52.09200 28.78000
H  14.83900 52.31600 22.31100
H  20.35300 49.57800 22.94000
H  17.40600 49.58500 30.96700
H  15.73400 51.96100 30.66200
H  14.07100 50.44900 31.56500
H  15.25300 49.14900 31.30700
H  14.15300 49.68600 30.02400
H  17.97700 52.58700 30.69700
H  19.28400 51.37400 30.60500
H  18.52200 52.70800 32.78900
H  19.43000 51.30200 32.77300
H  12.35000 53.17200 28.12300
H  11.29600 53.55000 26.85300
H  12.54600 54.74900 27.43400
H  12.05200 55.71600 24.87500
H  10.76600 54.45800 24.72900
H  11.22700 55.27600 23.25600
H  17.01100 52.29000 21.15200
H  18.48000 49.83200 21.21400
H  16.26300 49.47000 20.29700
H  15.52500 51.08500 19.94700
H  15.12800 50.05900 21.29100
H  20.06700 52.40200 21.99200
H  19.05500 52.54200 20.58900
H  21.39800 50.67000 20.79100
H  21.00300 51.98800 19.63300
H  20.09400 50.51900 19.66300
H  22.09400 47.27000 24.68900
H  22.84300 48.65000 25.54900
H  22.14200 48.90000 23.95600
H  20.63500 49.80000 29.91600
H  18.36600 47.05100 32.59900
H  19.21100 48.15100 33.61700
H  20.05400 46.85100 32.68100
Mg -11.37200 16.60700 41.59200
C  -8.39100 14.99200 40.94100
C  -10.27000 19.35000 39.75400
C  -14.52400 17.83900 41.63600
C  -12.69200 13.48200 42.42000
N  -9.49200 17.14600 40.55300
C  -8.42800 16.26800 40.32400
C  -7.26600 16.91800 39.52800
C  -7.91700 18.24900 39.02400
C  -9.27700 18.29400 39.81600
C  -6.95500 19.50600 39.09600
C  -6.79000 15.97800 38.37300
C  -5.28600 15.94800 38.19100
H  -4.71800 15.83500 36.80800
N  -12.27600 18.38900 40.89100
C  -11.65100 19.40600 40.21400
C  -12.53700 20.56100 39.96400
C  -13.79300 20.15500 40.52700
C  -13.59100 18.72800 41.01600
C  -12.15300 21.83800 39.18200
C  -15.06800 20.98400 40.56000
O  -15.16500 22.03300 39.95300
C  -16.23600 20.58500 41.34500
N  -13.33800 15.72300 41.77600
C  -14.41200 16.53700 42.05600
C  -15.58200 15.75400 42.62600
C  -15.16900 14.33900 42.32600
C  -13.65300 14.46900 42.20100
C  -15.79300 15.96600 44.13300
C  -15.87800 13.67600 41.03300
C  -16.37100 12.19300 41.30600
N  -10.66200 14.77700 41.86800
C  -11.33100 13.59000 42.24400
C  -10.38500 12.57000 42.49500
C  -9.21400 13.12400 42.03400
C  -9.46400 14.43300 41.62800
C  -10.52700 11.17000 42.93300
C  -7.81600 12.84500 41.84400
O  -7.19000 11.84400 42.08900
C  -7.23200 14.03000 41.06800
C  -6.16700 14.61900 41.95600
O  -6.31500 15.11000 43.07600
O  -4.89500 14.55400 41.33900
C  -3.80100 15.38100 41.89700
H  -9.88100 20.12600 39.09000
H  -15.55900 18.13300 41.82100
H  -13.23300 12.58700 42.73300
H  -6.48100 17.14800 40.24900
H  -8.24800 18.14500 37.99100
H  -6.02200 19.12400 39.51100
H  -7.37400 20.33600 39.66500
H  -6.81100 19.89100 38.08700
H  -7.19500 16.31000 37.41700
H  -7.22100 14.97900 38.43300
H  -4.79500 15.20000 38.81400
H  -4.95900 16.95500 38.45200
H  -12.96700 22.56100 39.23800
H  -11.81100 21.57200 38.18200
H  -11.27100 22.22800 39.69200
H  -16.99600 21.36500 41.39900
H  -15.96900 20.20400 42.33100
H  -16.68100 19.81700 40.71200
H  -16.45500 15.92800 41.99800
H  -15.30900 13.67700 43.18100
H  -16.55600 16.73900 44.22200
H  -14.85800 16.16400 44.65700
H  -16.25000 15.03900 44.48000
H  -15.21500 13.74700 40.17100
H  -16.74100 14.29800 40.79500
H  -15.79400 11.57400 41.99300
H  -16.46400 11.70200 40.33800
H  -17.36400 12.11700 41.75000
H  -9.64000 10.73400 43.39400
H  -10.66300 10.47000 42.10900
H  -11.33600 11.16800 43.66400
H  -6.76900 13.58500 40.18700
H  -2.82800 15.24500 41.42600
H  -3.72300 15.25900 42.97700
H  -4.01300 16.45000 41.87800

