158

Mg 15.71200 -1.50200 28.16500
C  14.55800 0.49100 30.86300
C  17.89600 -3.10600 30.38300
C  16.66300 -3.43200 25.68800
C  13.88500 0.51000 26.00000
N  16.24200 -1.21900 30.33700
C  15.52300 -0.45200 31.23500
C  16.08600 -0.67700 32.70500
C  17.15300 -1.82900 32.50800
C  17.13200 -2.05100 30.93800
C  18.57500 -1.52800 33.04400
C  14.93900 -1.11600 33.72000
C  15.09500 -0.73500 35.18700
H  16.35300 -0.07400 35.76600
N  17.17500 -2.99100 28.01100
C  17.85000 -3.57600 29.07700
C  18.73300 -4.59600 28.48300
C  18.24900 -4.89800 27.15200
C  17.32700 -3.75000 26.89400
C  19.69100 -5.32500 29.36700
C  18.51800 -5.96400 26.12700
O  17.71800 -6.13100 25.19800
C  19.41900 -7.09700 26.54400
N  15.37300 -1.49300 26.14700
C  15.83900 -2.42400 25.33500
C  15.43200 -2.15200 23.85000
C  14.49500 -0.88500 23.96900
C  14.57000 -0.63000 25.50200
C  16.58200 -1.95300 22.81500
C  13.06700 -1.02200 23.38100
C  11.90500 -1.65900 24.15400
N  14.37000 0.09300 28.37500
C  13.74600 0.81500 27.32700
C  12.95900 1.81000 27.97200
C  13.28400 1.79700 29.37000
C  14.11600 0.74300 29.52500
C  12.19600 2.85900 27.22200
C  13.05600 2.44700 30.62900
O  12.37700 3.42700 30.83400
C  13.70500 1.47700 31.70200
C  14.49000 2.38800 32.56400
O  15.58200 2.91500 32.35400
O  13.77800 2.68800 33.66200
C  14.38900 3.59000 34.65500
H  18.59000 -3.52600 31.11400
H  16.85800 -4.00800 24.78100
H  13.29800 1.10300 25.29600
H  16.54500 0.29700 32.87200
H  16.94800 -2.74900 33.05500
H  18.41300 -0.60500 33.60200
H  19.27900 -1.25800 32.25700
H  18.82500 -2.43000 33.60200
H  15.03600 -2.19900 33.65000
H  14.00400 -0.80700 33.25400
H  14.87800 -1.65700 35.72700
H  14.30500 -0.02100 35.42100
H  20.65900 -5.56000 28.92600
H  19.25800 -6.24200 29.76900
H  19.92600 -4.71500 30.23900
H  19.35600 -7.95900 25.88000
H  19.12900 -7.46900 27.52700
H  20.45300 -6.76600 26.45600
H  14.80000 -2.93900 23.43700
H  15.04600 -0.05900 23.51900
H  17.47500 -1.93000 23.44000
H  16.46100 -1.19600 22.04000
H  16.62400 -2.88700 22.25400
H  13.05900 -1.60400 22.45900
H  12.61900 -0.07100 23.09300
H  12.14000 -2.20600 25.06700
H  11.39500 -2.37300 23.50800
H  11.32100 -0.84100 24.57600
H  12.67700 3.14700 26.28700
H  12.02700 3.65700 27.94500
H  11.19600 2.46700 27.03500
H  12.96000 0.96300 32.31000
H  14.36500 4.61600 34.28700
H  15.45400 3.39100 34.77000
H  13.78100 3.64100 35.55800
Mg 48.52100 25.39400 27.87200
C  49.20200 27.64800 30.49600
C  47.38200 23.26900 30.20400
C  48.31400 23.17200 25.39100
C  50.04800 27.65800 25.64400
N  48.23900 25.49100 30.09200
C  48.64800 26.43300 30.93800
C  48.47300 26.07700 32.41100
C  47.93400 24.62100 32.34500
C  47.78300 24.41700 30.80200
C  48.79500 23.51400 33.02800
C  47.65800 27.11600 33.24100
C  46.68000 26.73900 34.27200
H  46.46400 27.70500 35.43400
N  47.80300 23.48700 27.83800
C  47.33200 22.79000 28.87800
C  46.98300 21.47500 28.39900
C  47.20000 21.44600 26.96200
C  47.74600 22.74500 26.65100
C  46.41000 20.37500 29.28800
C  46.86600 20.30700 25.91100
O  47.06800 20.50800 24.73600
C  46.26300 18.97600 26.41700
N  49.19200 25.32900 25.81700
C  49.03800 24.30100 24.98500
C  49.49400 24.50400 23.49600
C  49.64900 26.05100 23.60900
C  49.60100 26.42200 25.14000
C  50.83600 23.79800 23.10300
C  48.56100 26.89100 22.81200
C  49.17500 27.68600 21.60500
N  49.38900 27.27700 27.95700
C  49.93200 28.11300 26.99800
C  50.50000 29.29000 27.61900
C  50.15500 29.17000 28.97300
C  49.44500 27.99700 29.10200
C  51.48200 30.29800 26.96400
C  50.29600 29.82000 30.25100
O  50.85000 30.87700 30.57000
C  49.64700 28.85300 31.29200
C  50.64000 28.66400 32.31600
O  51.52600 27.82500 32.25100
O  50.38200 29.37400 33.43600
C  51.20800 29.03900 34.65200
H  47.23300 22.53100 30.99500
H  48.33000 22.45700 24.56600
H  50.31200 28.37600 24.86400
H  49.45700 26.01900 32.87600
H  46.88500 24.54000 32.63100
H  49.44900 24.10100 33.67300
H  49.44300 22.89700 32.40700
H  48.20600 22.91700 33.72500
H  47.02200 27.59900 32.49900
H  48.32100 27.83900 33.71700
H  46.90400 25.76600 34.71000
H  45.68700 26.61100 33.84100
H  47.03400 19.48700 29.18600
H  45.45900 19.99000 28.92000
H  46.23700 20.74000 30.30000
H  46.97900 18.54200 27.11600
H  46.07300 18.49300 25.45800
H  45.31600 19.11600 26.93700
H  48.70900 24.05700 22.88600
H  50.60200 26.31800 23.15300
H  51.24600 23.18400 23.90500
H  51.53800 24.52000 22.68600
H  50.54100 23.10800 22.31300
H  48.05900 27.56200 23.50900
H  47.80500 26.23800 22.37700
H  48.89500 28.72800 21.75900
H  48.93400 27.31000 20.61000
H  50.25800 27.62200 21.70700
H  52.18400 29.76100 26.32600
H  52.05300 30.80700 27.74000
H  51.08800 31.16900 26.44100
H  48.87700 29.50200 31.71000
H  50.75100 28.15000 35.08600
H  51.12700 29.89300 35.32400
H  52.25900 28.88800 34.40600

