158

Mg 25.34000 51.52600 26.19600
C  23.16400 52.35900 28.74000
C  27.73000 50.83200 28.54600
C  27.57400 51.18400 23.56100
C  23.07500 52.87000 23.90900
N  25.45300 51.84700 28.43400
C  24.36400 52.03600 29.23400
C  24.64700 51.79300 30.77400
C  26.21100 51.39400 30.58700
C  26.54800 51.30200 29.08400
C  27.21300 52.32200 31.43900
C  23.79800 50.64000 31.44700
C  23.23700 50.89500 32.87900
H  24.11800 51.49100 33.90300
N  27.26400 50.93500 26.11800
C  28.08400 50.69500 27.20100
C  29.38500 50.34500 26.73800
C  29.40400 50.54100 25.31300
C  28.01100 50.91800 24.92600
C  30.53600 49.98200 27.68600
C  30.57600 50.34100 24.40000
O  30.59400 50.63400 23.22900
C  31.82800 49.69700 24.91500
N  25.28200 51.89300 23.95700
C  26.37000 51.70900 23.16500
C  26.03000 52.08900 21.71200
C  24.45800 52.40300 21.82700
C  24.25200 52.38400 23.30500
C  26.86300 53.29200 21.12700
C  23.68500 51.25800 21.09900
C  23.67300 51.42100 19.52800
N  23.55700 52.41200 26.23300
C  22.75400 52.91100 25.27400
C  21.50500 53.43800 25.70900
C  21.65300 53.26000 27.11600
C  22.90700 52.66600 27.42200
C  20.36100 54.00000 24.91700
C  20.95400 53.40800 28.37500
O  19.80800 53.75700 28.64900
C  21.91600 52.86600 29.50500
C  22.10500 53.97800 30.49000
O  22.83100 54.95200 30.30500
O  21.31100 53.83400 31.58100
C  21.44300 54.89300 32.58600
H  28.44600 50.45000 29.27700
H  28.19800 51.07700 22.67100
H  22.35300 53.17000 23.14700
H  24.49300 52.75900 31.25500
H  26.53000 50.42600 30.97400
H  27.66100 51.71800 32.22800
H  26.69500 53.07300 32.03600
H  28.01400 52.78200 30.86100
H  24.45900 49.77600 31.38800
H  22.85000 50.50700 30.92500
H  23.05000 49.89300 33.26500
H  22.33500 51.50700 32.87700
H  31.47200 50.51600 27.52400
H  30.80700 48.98500 27.33900
H  30.28900 50.07100 28.74400
H  32.56300 49.48200 24.14000
H  31.83700 48.87400 25.63000
H  32.24600 50.55000 25.44900
H  26.21600 51.15600 21.18000
H  24.36500 53.39000 21.37300
H  27.72400 53.37900 21.78900
H  26.34700 54.24400 21.00000
H  27.24600 53.06600 20.13200
H  22.64600 51.22400 21.42600
H  24.13500 50.28700 21.30700
H  22.64600 51.52100 19.17600
H  24.25200 50.62200 19.06700
H  24.27700 52.28100 19.23800
H  20.50100 53.89000 23.84200
H  20.28500 55.04200 25.22800
H  19.46000 53.49100 25.26100
H  21.42300 52.02900 29.99900
H  22.33200 54.61400 33.15400
H  20.58700 54.97400 33.25500
H  21.62900 55.90600 32.22900
Mg -9.80200 17.96100 42.88200
C  -6.59000 16.60500 42.42000
C  -8.43900 21.05100 42.11000
C  -12.91300 18.95900 42.47400
C  -10.96400 14.59900 42.85000
N  -7.77000 18.74700 42.27900
C  -6.64900 18.00700 42.26900
C  -5.48700 18.89000 42.02800
C  -6.05200 20.34300 41.82700
C  -7.47600 20.06100 42.25000
C  -5.30600 21.48000 42.65600
C  -4.28300 18.47300 41.09200
C  -4.66700 17.81800 39.75600
H  -4.67800 18.59500 38.43100
N  -10.60200 19.76700 42.40800
C  -9.88300 20.87600 42.04600
C  -10.89600 22.00700 41.92900
C  -12.20200 21.56900 42.22000
C  -11.95300 20.03100 42.33900
C  -10.51800 23.38600 41.42700
C  -13.45000 22.33000 42.43600
O  -13.45500 23.58500 42.32000
C  -14.71700 21.66900 42.89600
N  -11.66000 16.92900 42.69300
C  -12.77400 17.59900 42.68200
C  -13.95500 16.68400 42.82300
C  -13.37500 15.22700 42.53000
C  -11.88100 15.56400 42.65000
C  -14.60400 16.75700 44.22600
C  -13.80500 14.52600 41.17400
C  -14.10000 13.01600 41.18100
N  -8.96100 15.96600 42.89200
C  -9.59000 14.79600 42.92300
C  -8.55300 13.70000 42.98100
C  -7.33000 14.42200 42.86600
C  -7.65400 15.75600 42.73400
C  -8.61400 12.21800 42.91600
C  -5.97900 14.17700 42.75500
O  -5.24700 13.15600 42.84500
C  -5.36400 15.64000 42.55200
C  -4.29300 15.99900 43.55200
O  -3.14000 15.57700 43.46300
O  -4.85200 16.59000 44.62600
C  -4.12400 16.79800 45.81500
H  -8.11700 22.06200 41.85300
H  -13.96100 19.21900 42.31300
H  -11.44100 13.62000 42.93600
H  -5.07600 19.00800 43.03000
H  -5.98800 20.42400 40.74200
H  -5.98500 21.93700 43.37600
H  -4.98400 22.21500 41.91800
H  -4.41700 21.15200 43.19500
H  -3.61600 17.76800 41.58800
H  -3.77300 19.42500 40.94100
H  -5.68200 17.43400 39.85600
H  -3.99700 16.96200 39.67200
H  -11.33300 23.89800 40.91600
H  -9.69100 23.30700 40.72100
H  -10.15900 23.99500 42.25700
H  -14.56500 20.92200 43.67500
H  -15.20900 21.30200 41.99600
H  -15.33400 22.37700 43.45000
H  -14.67900 17.02700 42.08400
H  -13.55300 14.46900 43.29200
H  -15.29200 15.93400 44.41600
H  -15.17500 17.64900 44.48700
H  -13.85100 16.47500 44.96200
H  -13.02500 14.67700 40.42700
H  -14.55100 15.12700 40.65400
H  -13.29100 12.38400 40.81600
H  -15.08700 12.89300 40.73500
H  -14.24300 12.76600 42.23300
H  -9.21600 12.12300 42.01200
H  -9.17000 11.85100 43.77900
H  -7.58900 11.88400 42.75600
H  -4.86200 15.60900 41.58500
H  -4.73500 16.97200 46.70000
H  -3.40200 17.60400 45.68300
H  -3.40900 15.98200 45.92000

