158

Mg 23.08600 -6.06000 44.89800
C  25.48800 -4.08500 43.41800
C  20.73900 -4.42500 42.93600
C  20.73900 -8.67400 45.36200
C  25.41300 -8.00200 46.35700
N  23.08000 -4.52800 43.42900
C  24.25000 -3.78300 43.09400
C  23.93900 -2.59800 42.20200
C  22.40000 -2.60800 42.25300
C  22.03000 -3.91900 42.89700
C  21.63800 -1.39900 42.85800
C  24.48100 -2.88400 40.74900
C  25.07500 -1.69300 39.98800
H  26.19900 -2.06000 39.01500
N  21.03100 -6.46400 44.32100
C  20.25200 -5.58300 43.62300
C  18.89300 -6.13400 43.42400
C  18.86000 -7.38700 44.14500
C  20.26100 -7.54400 44.64400
C  17.81400 -5.50700 42.49900
C  17.68600 -8.36800 44.17900
O  16.53600 -7.96400 43.92000
C  17.71500 -9.84600 44.55500
N  23.04200 -8.11200 45.70800
C  21.99500 -8.88300 45.89400
C  22.38700 -10.18900 46.61400
C  23.77800 -9.83700 47.12300
C  24.10100 -8.60300 46.39100
C  21.35100 -10.67500 47.66300
C  24.84600 -10.93400 46.96000
C  25.88600 -11.05300 48.07500
N  25.04000 -6.15900 44.86800
C  25.94500 -6.91700 45.68600
C  27.29300 -6.34800 45.59800
C  27.15100 -5.26700 44.72200
C  25.76300 -5.20000 44.25300
C  28.53800 -6.90600 46.15600
C  27.93100 -4.19800 44.03400
O  29.15200 -3.92000 44.14100
C  26.86000 -3.44400 43.12400
C  26.97200 -2.00300 43.52400
O  26.44300 -1.42500 44.47700
O  27.77700 -1.41500 42.55300
C  27.99200 0.01500 42.69000
H  20.10500 -3.80700 42.29700
H  19.99900 -9.47700 45.39000
H  26.19400 -8.53900 46.90100
H  24.44700 -1.72000 42.60100
H  22.14800 -2.75400 41.20200
H  21.06500 -1.63700 43.75500
H  20.91300 -0.98400 42.15800
H  22.40800 -0.65400 43.05800
H  23.69500 -3.40200 40.20000
H  25.25000 -3.65600 40.72200
H  25.35000 -0.94100 40.72700
H  24.23600 -1.23700 39.46200
H  17.44200 -6.35000 41.91700
H  18.07300 -4.74200 41.76700
H  16.99800 -5.06500 43.07100
H  16.70900 -10.19800 44.32700
H  17.98200 -10.03600 45.59500
H  18.30000 -10.41300 43.83100
H  22.51100 -10.99200 45.88800
H  23.61500 -9.47400 48.13700
H  20.52000 -9.97000 47.69700
H  21.78700 -10.97800 48.61500
H  20.99200 -11.61000 47.23400
H  25.37300 -10.78800 46.01700
H  24.29700 -11.87500 46.93800
H  26.82100 -11.50800 47.74700
H  25.55800 -11.82700 48.76900
H  26.06700 -10.11600 48.60200
H  28.91000 -6.09500 46.78300
H  29.33000 -7.07900 45.42700
H  28.43600 -7.81400 46.75000
H  27.27300 -3.53100 42.12000
H  29.01000 0.26300 42.38900
H  27.77000 0.50000 43.64000
H  27.46200 0.54900 41.90100
Mg 7.79200 53.30700 42.01000
C  7.13900 50.00200 41.36100
C  10.97600 52.90000 40.89400
C  8.05500 56.70100 41.77100
C  4.42000 53.79600 42.88000
N  8.83900 51.61900 40.99800
C  8.47400 50.34300 40.98200
C  9.66900 49.40400 40.47500
C  10.93400 50.29100 40.53100
C  10.25900 51.68900 40.79200
C  11.96800 49.76700 41.55900
C  9.45500 48.75600 39.11700
C  9.11000 49.56200 37.90300
H  8.01100 48.95900 36.96300
N  9.34000 54.59700 41.55100
C  10.55100 54.20300 41.14600
C  11.35600 55.37500 40.95500
C  10.52100 56.50100 40.90000
C  9.22400 55.96300 41.41800
C  12.81100 55.25800 40.57100
C  10.91200 57.97700 40.57100
O  12.05100 58.16600 40.19100
C  10.05200 59.29000 40.73400
N  6.44200 54.98900 42.30000
C  6.85900 56.32300 42.25100
C  5.63900 57.29300 42.38100
C  4.45100 56.33100 42.60100
C  5.14400 54.92900 42.67100
C  5.83500 58.32100 43.49400
C  3.46100 56.32100 41.40900
C  2.00900 56.74200 41.74700
N  6.07600 52.20000 42.11600
C  4.78900 52.46000 42.56100
C  4.06700 51.20000 42.62900
C  4.91300 50.23000 42.29500
C  6.12200 50.84600 41.89100
C  2.58900 50.97700 43.02600
C  5.13800 48.79500 42.20000
O  4.45000 47.86500 42.54600
C  6.48700 48.58600 41.48000
C  6.34800 47.79900 40.26200
O  6.20000 48.23300 39.12800
O  6.27800 46.48100 40.69600
C  6.36300 45.59200 39.53700
H  12.01800 52.73500 40.61300
H  8.16700 57.78800 41.75800
H  3.40600 54.06200 43.18600
H  9.69500 48.51700 41.10800
H  11.39200 50.35300 39.54300
H  11.99200 50.22900 42.54600
H  12.92600 49.86100 41.04800
H  11.82000 48.69700 41.70300
H  8.76400 47.91800 39.20600
H  10.42800 48.31600 38.89700
H  9.91800 49.60100 37.17200
H  8.83000 50.58500 38.15300
H  13.38100 54.34700 40.75700
H  13.24400 56.07500 41.14900
H  13.00700 55.49600 39.52600
H  9.04300 59.39100 40.33200
H  10.54400 60.06300 40.14400
H  9.96000 59.59200 41.77700
H  5.47600 57.95000 41.52600
H  3.91900 56.53400 43.53000
H  5.77500 59.32700 43.08000
H  6.77700 58.19600 44.02800
H  5.03700 58.32200 44.23700
H  3.47200 55.41700 40.80000
H  3.76400 57.15400 40.77600
H  1.87100 56.55800 42.81300
H  1.31600 56.13300 41.16700
H  1.86600 57.78100 41.45100
H  2.06100 51.92700 43.11200
H  2.66500 50.44200 43.97300
H  2.14600 50.18900 42.41700
H  7.10200 47.97600 42.14200
H  7.24600 45.89400 38.97500
H  5.38200 45.52600 39.06500
H  6.60400 44.60900 39.94100

