158

Mg 26.12000 1.07400 29.27400
C  28.08700 0.54700 32.03300
C  23.39200 1.56200 31.12100
C  24.20500 0.95000 26.36300
C  28.89800 -0.07000 27.30200
N  25.82200 1.06500 31.35100
C  26.73700 0.88400 32.29200
C  26.12200 0.96200 33.76200
C  24.58600 1.07600 33.36800
C  24.55600 1.22000 31.84400
C  23.71800 -0.03400 33.97900
C  26.66900 2.12100 34.68400
C  26.61800 1.91500 36.15600
H  27.04800 3.09100 37.11300
N  24.15000 1.42200 28.80200
C  23.19600 1.69900 29.72600
C  21.91800 1.93400 29.06500
C  22.15700 1.80500 27.66700
C  23.54000 1.34800 27.53400
C  20.67400 2.38100 29.84500
C  21.18800 1.85000 26.54400
O  21.42800 1.47300 25.40300
C  19.75600 2.16200 26.97200
N  26.44900 0.44800 27.11100
C  25.53300 0.54400 26.14700
C  26.19600 0.16500 24.77800
C  27.73600 0.19000 25.09400
C  27.70500 0.21300 26.63400
C  25.65400 -1.10400 24.08100
C  28.60800 1.33800 24.50800
C  29.78000 0.89300 23.66600
N  28.14100 0.32800 29.52500
C  29.09300 0.04800 28.68900
C  30.23000 -0.29600 29.38800
C  29.98100 -0.11200 30.74400
C  28.63600 0.31300 30.78100
C  31.49300 -0.60900 28.76200
C  30.43900 -0.06800 32.12500
O  31.53500 -0.25500 32.56500
C  29.20100 0.41500 32.99800
C  28.94300 -0.50700 34.16100
O  28.24700 -1.51100 34.21900
O  29.60700 -0.06300 35.31700
C  29.33500 -0.84200 36.56000
H  22.46400 1.62000 31.69300
H  23.69500 1.02100 25.40000
H  29.68400 -0.31400 26.58400
H  26.33900 0.05400 34.32500
H  24.15700 1.98600 33.78700
H  23.10100 -0.42400 33.17000
H  23.05700 0.48200 34.67600
H  24.28500 -0.86600 34.39600
H  25.90000 2.89000 34.61000
H  27.55100 2.53800 34.19800
H  27.19200 1.01000 36.35200
H  25.61300 1.58500 36.41600
H  20.87700 2.79900 30.83000
H  20.00000 1.53300 29.96900
H  20.23900 3.28400 29.41600
H  19.01200 2.17600 26.17600
H  19.72100 3.12600 27.48100
H  19.50700 1.35300 27.65800
H  25.86200 1.03800 24.21700
H  28.21000 -0.72700 24.74600
H  26.45300 -1.50100 23.45500
H  24.79300 -0.89600 23.44500
H  25.45400 -1.88300 24.81500
H  28.87200 1.90300 25.40200
H  28.01800 1.94000 23.81700
H  30.10700 -0.14100 23.77600
H  30.67600 1.48000 23.86800
H  29.54300 1.03700 22.61100
H  31.58600 0.02300 27.87900
H  31.56800 -1.60700 28.33300
H  32.38200 -0.34500 29.33500
H  29.35400 1.46200 33.25900
H  28.83400 -1.79700 36.40100
H  28.85000 -0.27800 37.35700
H  30.32600 -1.06300 36.95600
Mg 48.84400 44.46800 42.87700
C  45.47300 43.91300 42.36000
C  49.43000 41.10200 41.93000
C  52.20600 45.05500 42.74700
C  48.23300 47.79300 42.91500
N  47.67400 42.79600 41.95300
C  46.29000 42.80300 42.03400
C  45.76100 41.46800 41.38800
C  46.97800 40.48000 41.70300
C  48.12800 41.48900 41.80500
C  46.74500 39.68100 42.97700
C  45.51400 41.71300 39.85600
C  44.40600 41.09500 39.04000
H  44.86200 40.56800 37.71300
N  50.53100 43.17800 42.58200
C  50.58800 41.85100 42.19100
C  51.92800 41.49200 41.87300
C  52.79000 42.58200 42.25200
C  51.81700 43.66300 42.66200
C  52.29500 40.17500 41.32400
C  54.27200 42.57000 42.19200
O  54.88600 41.61000 41.69600
C  54.94800 43.70100 42.80400
N  50.02300 46.14800 42.69900
C  51.40600 46.16800 42.78600
C  51.99400 47.57100 42.90500
C  50.68800 48.44600 42.70400
C  49.54800 47.39100 42.89700
C  52.58600 47.84200 44.29100
C  50.67300 49.06700 41.28100
C  49.87500 50.33900 41.06100
N  47.21000 45.65000 42.91200
C  47.05600 46.97700 42.93100
C  45.65400 47.37300 42.97400
C  44.96100 46.14000 42.88300
C  45.96000 45.16600 42.74200
C  45.10000 48.79700 42.91000
C  43.59300 45.60600 42.70500
O  42.45100 46.05700 42.73600
C  43.91200 44.06800 42.28300
C  43.14000 43.18300 43.21400
O  41.95900 43.15600 43.22800
O  44.03800 42.54300 44.05200
C  43.44000 41.67400 45.14200
H  49.54600 40.04300 41.69200
H  53.25700 45.35300 42.74900
H  48.21600 48.88500 42.90500
H  44.82300 41.18800 41.86900
H  47.04700 39.82000 40.83800
H  45.85900 40.08700 43.46600
H  47.53500 39.95100 43.67800
H  46.55500 38.61200 42.87600
H  46.49700 41.44300 39.47300
H  45.42100 42.79200 39.73000
H  43.77900 41.95700 38.81200
H  43.89200 40.28900 39.56400
H  52.63400 40.31500 40.29700
H  51.37000 39.63700 41.11700
H  52.91100 39.60700 42.02100
H  54.88500 44.52400 42.09200
H  56.00000 43.50100 43.00700
H  54.51300 43.96400 43.76800
H  52.83400 47.78800 42.24600
H  50.42700 49.27200 43.36600
H  52.46700 48.87400 44.62100
H  53.65500 47.63600 44.34000
H  52.18000 47.17800 45.05400
H  50.26000 48.30600 40.61900
H  51.70000 49.37700 41.08300
H  49.36200 50.81600 41.89600
H  48.97200 50.21300 40.46400
H  50.57700 51.07700 40.67300
H  45.36300 49.25800 41.95800
H  45.70200 49.44700 43.54400
H  44.02300 48.86500 43.05900
H  43.56800 43.96000 41.25400
H  44.21100 41.75700 45.90900
H  43.29700 40.64900 44.80300
H  42.54800 42.03200 45.65500

