158

Mg -0.01000 7.40800 27.31800
C  1.08700 9.56600 29.91300
C  -0.12800 4.82200 29.73300
C  -0.65800 5.33700 24.82100
C  0.56600 9.95200 25.09300
N  0.60700 7.21800 29.56400
C  0.80300 8.31900 30.44700
C  0.64100 7.89900 31.89900
C  0.51100 6.36400 31.77800
C  0.36500 6.05700 30.26600
C  1.66100 5.58900 32.41400
C  -0.61800 8.58500 32.54400
C  -0.52800 8.91100 34.06900
H  0.66000 8.46700 34.91400
N  -0.35500 5.33200 27.25300
C  -0.35200 4.48400 28.28900
C  -0.59400 3.13000 27.77800
C  -0.74800 3.27400 26.35700
C  -0.55500 4.69800 26.08700
C  -0.54600 1.92100 28.68000
C  -1.08800 2.17200 25.38300
O  -1.20700 2.42800 24.19800
C  -1.33500 0.74500 25.81500
N  0.01200 7.59100 25.28000
C  -0.26400 6.58300 24.41800
C  -0.31500 7.02900 22.99500
C  -0.24100 8.59600 23.13500
C  0.09500 8.74500 24.58500
C  0.83200 6.48500 22.14400
C  -1.57300 9.37900 22.79000
C  -1.41500 10.62400 21.87000
N  0.78000 9.34700 27.37200
C  0.95000 10.25700 26.39500
C  1.33000 11.51200 26.96400
C  1.36900 11.30300 28.37100
C  1.04400 9.97200 28.57100
C  1.69900 12.75000 26.18600
C  1.68400 11.95200 29.65600
O  2.21500 13.03800 29.92900
C  1.39700 10.88500 30.75800
C  2.59300 10.82600 31.65300
O  3.40900 9.92300 31.62800
O  2.48300 11.73300 32.70600
C  3.46400 11.64900 33.76900
H  -0.30700 3.98200 30.40700
H  -0.91500 4.67200 23.99300
H  0.60300 10.79400 24.39800
H  1.55300 8.21500 32.40500
H  -0.36600 6.02400 32.32900
H  2.19800 6.16300 33.16900
H  2.25200 5.35100 31.52900
H  1.27100 4.67700 32.86500
H  -1.43200 7.88700 32.34700
H  -0.83500 9.46300 31.93600
H  -1.40600 8.45000 34.52200
H  -0.61900 9.99700 34.05600
H  0.20700 1.28000 28.22200
H  -1.53400 1.46000 28.63900
H  -0.31200 2.04900 29.73700
H  -1.85200 0.19100 25.03100
H  -1.88700 0.58200 26.74000
H  -0.32400 0.36800 25.96700
H  -1.27100 6.72300 22.56900
H  0.57600 9.04200 22.56900
H  1.68100 7.15100 22.29600
H  0.58100 6.39300 21.08700
H  1.11100 5.49000 22.48900
H  -1.99100 9.79600 23.70600
H  -2.30200 8.69300 22.35900
H  -0.37300 10.75400 21.57700
H  -1.72500 11.50700 22.43000
H  -2.10900 10.50800 21.03800
H  0.73600 13.10900 25.82400
H  2.21900 12.41300 25.28900
H  2.29200 13.43700 26.79100
H  0.61400 11.25100 31.42200
H  3.08400 11.11000 34.63700
H  3.77800 12.66500 34.00900
H  4.35400 11.12400 33.42300
Mg 8.34700 3.10000 28.28000
C  9.86200 1.58600 30.99200
C  6.35300 4.72900 30.33900
C  6.62600 4.21700 25.58700
C  10.07700 0.88200 26.10400
N  8.17000 3.17400 30.46200
C  8.95400 2.57400 31.34300
C  8.56500 3.02100 32.80800
C  7.21600 3.87100 32.58700
C  7.24200 3.94700 31.00600
C  5.78100 3.38100 33.09400
C  9.72900 3.75500 33.50900
C  9.34600 4.54400 34.66100
H  10.02200 4.29300 35.99300
N  6.76600 4.36800 27.97100
C  6.09100 5.01500 29.01900
C  5.10700 5.87200 28.49700
C  5.08400 5.69600 27.09300
C  6.12500 4.71100 26.83100
C  4.39000 6.94800 29.31400
C  4.30000 6.41000 26.08600
O  4.45900 6.32400 24.89900
C  3.24000 7.42200 26.47900
N  8.14200 2.41900 26.17700
C  7.51600 3.21300 25.23900
C  7.82000 2.84900 23.80200
C  8.89300 1.68300 23.95500
C  9.08300 1.66800 25.50000
C  6.63100 2.40600 22.83800
C  10.16200 2.03700 23.07200
C  11.17300 3.09100 23.67000
N  9.79500 1.52600 28.44300
C  10.43500 0.79100 27.50000
C  11.37600 -0.05200 28.18700
C  11.19500 0.28700 29.54600
C  10.28000 1.23000 29.63800
C  12.26300 -1.03000 27.58600
C  11.64800 -0.08200 30.86600
O  12.48100 -0.87500 31.20100
C  10.82300 0.76500 31.95000
C  9.97900 -0.18200 32.61300
O  8.93500 -0.71400 32.16800
O  10.46800 -0.48000 33.79700
C  9.53600 -1.00100 34.80100
H  5.80600 5.38700 31.01700
H  6.14100 4.68100 24.72600
H  10.70000 0.31300 25.41100
H  8.36600 2.09000 33.33800
H  7.44200 4.85300 33.00200
H  5.45400 4.26700 33.63800
H  5.96400 2.57200 33.80100
H  5.19300 3.02200 32.24900
H  10.28700 4.31300 32.75800
H  10.38900 2.97600 33.89000
H  8.30500 4.41100 34.95600
H  9.36200 5.58800 34.34900
H  4.64500 7.05300 30.36800
H  3.33200 6.78200 29.11200
H  4.58300 7.94600 28.92100
H  2.61000 7.73300 25.64600
H  3.75600 8.31300 26.83600
H  2.64400 6.99700 27.28700
H  8.31900 3.68000 23.30400
H  8.55600 0.70600 23.60800
H  5.69100 2.40200 23.39100
H  6.76500 1.47900 22.28100
H  6.53000 3.09700 22.00200
H  9.80700 2.39900 22.10700
H  10.73400 1.11100 23.01300
H  11.94700 2.56100 24.22500
H  10.68000 3.78900 24.34700
H  11.67400 3.59800 22.84500
H  12.68100 -0.63700 26.65900
H  11.70500 -1.94900 27.40400
H  13.04700 -1.30800 28.29000
H  11.58900 1.25700 32.54900
H  8.59300 -0.45600 34.75200
H  9.87500 -0.73400 35.80200
H  9.40600 -2.07600 34.67600

