158

Mg 42.18400 41.75800 25.93300
C  41.47700 44.11400 28.47100
C  43.21900 39.62600 28.55900
C  43.04700 39.53200 23.69700
C  41.77800 44.22200 23.59200
N  42.25300 41.88200 28.24400
C  41.71300 42.89700 29.02900
C  41.78100 42.49500 30.53000
C  42.39200 41.10700 30.51300
C  42.74000 40.88400 29.03100
C  43.51800 40.87400 31.43800
C  40.41700 42.55700 31.39200
C  40.54100 43.22500 32.78300
H  40.02100 42.44800 34.00100
N  42.95500 39.87100 26.08100
C  43.25400 39.15600 27.22500
C  43.56900 37.85600 26.83800
C  43.46600 37.75200 25.44500
C  43.20400 39.09300 24.99700
C  44.12000 36.85800 27.84000
C  43.70600 36.55300 24.55100
O  43.91400 36.64900 23.30100
C  43.72200 35.10600 25.18000
N  42.45900 41.88700 23.89400
C  42.74100 40.76800 23.14600
C  42.86800 41.19800 21.67500
C  42.10100 42.53100 21.65600
C  42.07400 42.92400 23.14000
C  44.30800 41.25700 21.10500
C  40.68500 42.63400 21.12800
C  39.48600 42.29500 22.02500
N  41.50800 43.72800 25.90700
C  41.54000 44.62600 24.88400
C  41.26900 45.97400 25.33700
C  41.10500 45.79100 26.73600
C  41.33100 44.40700 27.08100
C  41.11700 47.13400 24.54500
C  40.77200 46.43000 27.97600
O  40.42900 47.61300 28.13800
C  40.98300 45.37700 29.16600
C  42.02000 45.90500 30.10800
O  43.20900 46.00100 29.89800
O  41.36500 46.33400 31.28000
C  42.31800 46.98500 32.27200
H  43.46000 39.00300 29.42300
H  43.31800 38.79000 22.94300
H  41.56300 44.96600 22.82100
H  42.46200 43.22300 30.97100
H  41.57600 40.42100 30.73700
H  43.62700 41.62000 32.22500
H  44.49500 40.82100 30.95800
H  43.27800 39.89900 31.86300
H  40.09000 41.54000 31.60700
H  39.64300 43.10100 30.85100
H  39.88700 44.09700 32.79100
H  41.53900 43.59300 33.02200
H  43.52300 35.94600 27.87600
H  44.25400 37.32000 28.81800
H  45.08800 36.54400 27.44900
H  43.58300 34.45400 24.31800
H  42.89100 34.98800 25.87600
H  44.63900 34.82000 25.69600
H  42.29700 40.51000 21.05200
H  42.63600 43.34500 21.16600
H  44.95800 40.77400 21.83500
H  44.68700 42.27000 20.97100
H  44.40100 40.63200 20.21600
H  40.57200 41.97100 20.27000
H  40.52600 43.68400 20.88300
H  39.78200 41.93900 23.01200
H  38.92800 41.51400 21.50900
H  38.84000 43.16900 22.10000
H  40.57500 46.79800 23.66100
H  42.15500 47.35200 24.29400
H  40.57000 47.88300 25.11800
H  40.11100 45.10100 29.75900
H  42.66200 46.16200 32.89800
H  41.67400 47.55600 32.94100
H  43.12700 47.52900 31.78500
Mg 35.96600 49.40300 25.08400
C  36.56800 47.60800 28.02700
C  34.87600 52.11300 27.07000
C  35.46700 51.12800 22.24000
C  37.13200 46.69800 23.28200
N  35.99300 49.91700 27.24800
C  36.14700 48.95100 28.19000
C  36.00500 49.55700 29.62200
C  35.16900 50.82800 29.25100
C  35.42500 51.02000 27.75800
C  33.64600 50.82800 29.51400
C  37.41800 49.80400 30.36600
C  37.44700 50.34100 31.76300
H  36.14200 50.40900 32.59800
N  35.18000 51.35900 24.74100
C  34.78500 52.31600 25.69200
C  34.29600 53.51200 24.94900
C  34.39800 53.23900 23.57500
C  35.00500 51.83900 23.45200
C  33.87900 54.85000 25.67600
C  34.18300 54.12800 22.38900
O  34.32900 53.80400 21.23200
C  33.60800 55.51100 22.51800
N  35.98000 48.87900 22.99900
C  35.84900 49.80000 22.02900
C  36.37200 49.30800 20.67600
C  37.02400 47.95300 21.01600
C  36.72000 47.82400 22.52400
C  35.20800 49.23600 19.72200
C  38.54500 47.90400 20.68600
C  39.04100 46.55600 20.15700
N  36.64900 47.42300 25.45600
C  37.14200 46.47500 24.62800
C  37.44600 45.30700 25.44600
C  37.26400 45.72800 26.77000
C  36.72800 47.04900 26.71500
C  37.91600 44.04800 24.93100
C  37.31300 45.30200 28.17300
O  37.65600 44.27300 28.71200
C  36.93400 46.51500 29.03400
C  35.97300 46.01600 30.08900
O  35.04900 45.25400 29.94200
O  36.37000 46.50100 31.32200
C  35.66100 46.24000 32.58300
H  34.52700 52.92000 27.71800
H  35.35700 51.66600 21.29600
H  37.56400 45.94500 22.61900
H  35.40800 48.78900 30.11400
H  35.62700 51.62900 29.83100
H  32.97600 50.67700 28.66700
H  33.38700 51.70400 30.10800
H  33.45100 49.88600 30.02700
H  37.86000 50.56200 29.72000
H  38.03400 48.90800 30.28700
H  37.93200 51.31600 31.82000
H  38.02200 49.62100 32.34500
H  33.94400 55.75000 25.06400
H  34.49400 54.82400 26.57500
H  32.81600 54.77800 25.90400
H  33.55600 55.93300 21.51400
H  34.24400 56.23600 23.02600
H  32.57700 55.38500 22.84800
H  37.16800 50.00800 20.42000
H  36.46700 47.14100 20.54900
H  35.12400 48.25400 19.25600
H  35.40000 49.68900 18.75000
H  34.22100 49.50700 20.09700
H  39.13100 48.25100 21.53700
H  38.69900 48.66300 19.91900
H  39.06900 46.47400 19.07100
H  38.26700 45.82400 20.38700
H  40.04000 46.37800 20.55600
H  37.61100 43.89000 23.89600
H  37.43500 43.26400 25.51600
H  39.00600 44.04400 24.90500
H  37.94500 46.77700 29.34700
H  34.77100 46.85100 32.73000
H  36.27400 46.53700 33.43400
H  35.46900 45.17600 32.72400

