158

Mg 47.20700 25.22900 28.24800
C  47.98400 27.44900 30.89200
C  46.37600 22.89100 30.68300
C  46.54100 23.09600 25.86300
C  48.32900 27.62900 26.04600
N  47.35600 25.16500 30.52800
C  47.47600 26.24900 31.38300
C  47.18700 25.88700 32.84000
C  46.79000 24.35900 32.78200
C  46.75400 24.14400 31.21800
C  47.62800 23.28200 33.54200
C  46.15000 26.77900 33.58600
C  45.50400 26.27700 34.86200
H  45.32000 27.11100 36.09400
N  46.59100 23.24900 28.25900
C  46.22500 22.49700 29.32900
C  45.77500 21.19000 28.86300
C  45.71800 21.20500 27.45900
C  46.29100 22.49900 27.12500
C  45.38600 20.06500 29.76500
C  45.47200 20.05600 26.51800
O  45.63200 20.16000 25.28100
C  44.91500 18.76400 27.05100
N  47.57900 25.20400 26.32500
C  47.12100 24.28000 25.49800
C  47.31100 24.66500 24.00800
C  47.52000 26.21200 24.05000
C  47.80400 26.40500 25.57900
C  48.27700 23.84400 23.06000
C  46.32900 27.02600 23.49000
C  46.10400 27.24200 21.97800
N  48.02200 27.14500 28.36600
C  48.40000 28.03300 27.39300
C  48.84500 29.26600 28.00800
C  48.72700 29.08800 29.36200
C  48.24600 27.76900 29.51100
C  49.32600 30.45000 27.21700
C  48.92600 29.76200 30.61700
O  49.37100 30.83900 30.81800
C  48.43000 28.69900 31.71500
C  49.47700 28.43400 32.76000
O  50.42600 27.71700 32.61300
O  49.25500 29.14600 33.92500
C  50.15100 28.90900 35.06300
H  46.22200 22.09700 31.41700
H  46.19400 22.42300 25.07600
H  48.41700 28.34300 25.22500
H  48.14100 25.89900 33.36800
H  45.72500 24.33000 33.01300
H  47.21200 22.30300 33.30300
H  47.51600 23.49400 34.60500
H  48.66300 23.28100 33.20200
H  45.35000 27.15300 32.94700
H  46.63600 27.74000 33.75500
H  45.99200 25.36200 35.19600
H  44.47400 25.97000 34.68100
H  44.35600 19.80800 29.51800
H  45.29200 20.39200 30.80000
H  46.06000 19.21100 29.70200
H  45.74400 18.25600 27.54400
H  44.69800 18.14400 26.18200
H  44.09600 18.90700 27.75700
H  46.29000 24.54000 23.64900
H  48.34300 26.55700 23.42500
H  48.74000 23.01100 23.58900
H  49.04200 24.34300 22.46500
H  47.62300 23.38400 22.31800
H  46.65000 28.02800 23.77600
H  45.50200 26.65700 24.09600
H  45.20300 26.66100 21.78100
H  46.97100 26.88900 21.41800
H  45.98400 28.27300 21.64400
H  49.10400 30.46100 26.15000
H  50.39900 30.50600 27.39700
H  48.78700 31.28300 27.66800
H  47.55900 29.14500 32.19500
H  50.03900 27.95900 35.58600
H  49.89300 29.64800 35.82100
H  51.19600 28.81800 34.76600
Mg -10.53000 17.06900 40.59700
C  -7.12300 16.56300 40.49000
C  -10.14700 20.32000 39.93000
C  -13.80300 17.13700 39.94100
C  -10.79400 13.42500 40.71700
N  -8.80100 18.27700 39.97500
C  -7.48600 17.92200 40.15800
C  -6.57800 19.07500 39.92300
C  -7.52000 20.28700 40.12700
C  -8.89500 19.62600 39.94200
C  -7.42500 20.94700 41.54500
C  -5.94100 19.06600 38.50800
C  -4.42000 18.74100 38.49000
H  -3.93200 17.89400 37.30800
N  -11.81400 18.57000 39.98000
C  -11.48900 19.87300 39.88200
C  -12.64200 20.67800 39.76000
C  -13.70100 19.79600 39.68000
C  -13.13900 18.41800 39.88600
C  -12.62100 22.16700 39.75300
C  -15.20200 20.20600 39.61800
O  -15.47200 21.37400 39.40300
C  -16.32400 19.18000 39.76900
N  -12.06400 15.55500 40.35200
C  -13.30900 15.89200 40.08500
C  -14.34200 14.62500 40.18300
C  -13.28900 13.49700 40.24500
C  -11.99600 14.19200 40.52300
C  -15.36100 14.67100 41.43500
C  -13.22800 12.62900 38.99700
C  -13.05800 11.08000 39.17500
N  -9.24800 15.29400 40.71200
C  -9.48100 13.92500 40.75400
C  -8.24200 13.22900 40.94900
C  -7.24600 14.22000 40.89800
C  -7.89300 15.44200 40.60200
C  -8.01400 11.71700 41.21700
C  -5.88300 14.39600 40.91800
O  -4.93300 13.61000 41.16300
C  -5.72800 16.01600 40.76400
C  -5.01200 16.61400 41.91500
O  -3.99800 17.28600 41.79800
O  -5.53600 16.11300 43.06400
C  -4.84000 16.51600 44.31400
H  -10.06900 21.40800 39.88900
H  -14.89300 17.16700 39.87900
H  -10.82300 12.34100 40.84200
H  -5.76100 19.12500 40.64300
H  -7.41300 20.96900 39.28400
H  -6.37000 20.83300 41.79300
H  -8.08900 20.35500 42.17500
H  -7.76600 21.95000 41.28800
H  -6.03900 20.09400 38.16000
H  -6.47000 18.31600 37.91900
H  -4.18900 18.35800 39.48400
H  -3.92800 19.70400 38.35500
H  -13.38900 22.64300 40.36200
H  -12.69900 22.55700 38.73800
H  -11.73800 22.66300 40.15600
H  -16.26800 18.58600 38.85600
H  -17.22400 19.78200 39.89400
H  -16.27000 18.51000 40.62700
H  -14.80100 14.54300 39.19800
H  -13.51300 12.85200 41.09400
H  -15.68400 13.68400 41.76500
H  -16.30200 15.18400 41.23300
H  -14.82600 15.26000 42.18000
H  -12.47500 13.03300 38.32000
H  -14.19000 12.78900 38.51100
H  -13.91800 10.63400 39.67400
H  -12.20200 10.90400 39.82800
H  -12.80900 10.48300 38.29800
H  -6.97700 11.64300 41.54300
H  -8.15300 11.10000 40.32900
H  -8.65900 11.28900 41.98500
H  -5.12200 16.31500 39.90900
H  -3.79900 16.20000 44.25300
H  -5.35000 16.22400 45.23200
H  -4.88300 17.60500 44.30100

