158

Mg 54.49900 24.46500 44.20000
C  52.39200 27.15100 43.39000
C  52.43600 22.36400 42.57400
C  56.86000 22.05800 44.43300
C  56.86300 26.94200 44.99300
N  52.55500 24.76100 43.19800
C  51.86800 25.90700 42.90500
C  50.67100 25.59500 42.02200
C  50.62100 24.02600 42.03800
C  51.97100 23.67000 42.68100
C  49.45200 23.48200 42.92300
C  50.72500 26.02200 40.51600
C  49.47300 26.19700 39.67200
H  49.43400 25.54900 38.21600
N  54.55200 22.41900 43.73500
C  53.58300 21.76200 43.03000
C  53.96300 20.40400 42.90300
C  55.21100 20.21900 43.58700
C  55.58700 21.59100 43.96200
C  53.15200 19.31700 42.14400
C  55.87800 18.87300 43.85500
O  55.36300 17.83100 43.50200
C  57.12500 18.69800 44.81600
N  56.61200 24.54400 44.42800
C  57.35400 23.39800 44.57600
C  58.84500 23.69200 45.01600
C  58.78400 25.22300 45.18900
C  57.33300 25.64500 44.76000
C  59.31600 23.01600 46.34600
C  59.82400 26.01300 44.31700
C  60.41100 27.29900 44.80100
N  54.66600 26.66500 44.30100
C  55.61100 27.48400 44.81700
C  55.06900 28.80800 45.05300
C  53.78200 28.75300 44.52800
C  53.60500 27.44900 44.01400
C  55.74100 29.99500 45.76900
C  52.50200 29.48600 44.30100
O  52.14600 30.62800 44.52700
C  51.60000 28.47400 43.51200
C  51.34800 29.15300 42.19400
O  52.19200 29.66400 41.45800
O  49.99400 29.10600 42.01800
C  49.51600 29.47000 40.67300
H  51.75200 21.78000 41.95500
H  57.60000 21.25600 44.47500
H  57.59000 27.71500 45.25200
H  49.79700 26.11900 42.40900
H  50.58500 23.59100 41.04000
H  48.64800 23.01400 42.35500
H  49.00500 24.33400 43.43500
H  49.84300 22.82700 43.70100
H  51.36200 25.26000 40.06700
H  51.25900 26.96600 40.40900
H  49.33000 27.27700 39.63500
H  48.59300 25.74300 40.12700
H  52.44100 19.78500 41.46300
H  52.61100 18.75200 42.90200
H  53.80100 18.58800 41.65800
H  57.04000 17.67100 45.17200
H  56.95300 19.32100 45.69400
H  58.14900 18.84700 44.47500
H  59.39500 23.29700 44.16200
H  58.91600 25.58400 46.20900
H  59.11800 21.94500 46.34400
H  59.00800 23.53300 47.25500
H  60.39900 23.13500 46.31000
H  59.37200 26.15400 43.33500
H  60.72800 25.40900 44.23000
H  60.46800 28.06100 44.02400
H  61.45200 27.15300 45.08900
H  59.85100 27.75600 45.61700
H  55.08800 30.60400 46.39500
H  56.23300 30.75600 45.16300
H  56.50900 29.60800 46.43900
H  50.69700 28.39900 44.11800
H  50.21600 29.24100 39.87000
H  49.33000 30.53900 40.57000
H  48.53200 29.03900 40.48400
Mg 47.28100 25.08500 28.47000
C  47.97500 27.53100 30.91400
C  46.49500 23.00500 31.08300
C  46.84600 22.69200 26.22300
C  48.75100 27.13700 26.17200
N  47.22200 25.19900 30.78200
C  47.43300 26.38400 31.51400
C  47.09500 26.15900 32.99500
C  46.62000 24.66000 33.03600
C  46.75600 24.24000 31.58400
C  47.38900 23.77900 33.97000
C  46.02800 27.15000 33.46900
C  46.44600 28.05500 34.65300
H  45.61500 28.34100 35.89200
N  46.70800 23.18500 28.58700
C  46.40800 22.45800 29.75200
C  45.95800 21.14000 29.46400
C  45.99300 21.03700 28.05100
C  46.55100 22.28400 27.57200
C  45.53500 20.19900 30.52400
C  45.74800 19.82000 27.23500
O  45.95400 19.72400 26.01100
C  45.37100 18.54500 27.89700
N  47.55000 24.98800 26.54500
C  47.40200 23.86700 25.79300
C  47.78400 24.00200 24.29800
C  48.23200 25.47800 24.28200
C  48.20300 25.90800 25.72500
C  48.64600 22.87300 23.68700
C  47.44900 26.40200 23.21300
C  48.06500 26.41000 21.78600
N  48.11600 26.91400 28.44000
C  48.72400 27.64200 27.46000
C  49.14500 28.91000 27.87900
C  48.87200 28.94200 29.24300
C  48.26100 27.65400 29.55000
C  49.81100 29.89900 26.92700
C  48.91200 29.72000 30.44000
O  49.28000 30.81200 30.64400
C  48.52400 28.74500 31.58100
C  49.72300 28.51500 32.42300
O  50.71600 27.96400 32.00200
O  49.55800 29.03600 33.75200
C  50.73900 28.73100 34.56800
H  46.28400 22.18000 31.76600
H  46.53300 22.01000 25.42900
H  49.30700 27.60900 25.35900
H  48.00600 26.34800 33.56300
H  45.55500 24.57500 33.25000
H  48.25400 23.26200 33.55500
H  46.79200 23.02800 34.48500
H  47.57700 24.38200 34.85900
H  45.09800 26.64000 33.71800
H  45.78000 27.83200 32.65700
H  46.81700 29.00900 34.27900
H  47.34300 27.62000 35.09400
H  46.19800 19.35400 30.71200
H  44.54500 19.79400 30.31700
H  45.34300 20.51600 31.54900
H  45.26200 17.77900 27.12900
H  44.41100 18.62200 28.40900
H  46.15200 18.22300 28.58600
H  46.90900 23.97100 23.64900
H  49.29100 25.50900 24.02300
H  49.60900 23.25400 23.34800
H  48.03400 22.38100 22.93100
H  48.86500 22.07100 24.39200
H  47.48400 27.40000 23.65000
H  46.41800 26.04700 23.21000
H  49.12200 26.16800 21.89900
H  47.98200 27.39500 21.32700
H  47.50000 25.70000 21.18200
H  49.22800 29.88000 26.00600
H  50.85300 29.67100 26.69900
H  49.75100 30.88300 27.39100
H  47.81300 29.22900 32.25200
H  51.68000 28.88100 34.03900
H  50.66700 27.67300 34.82200
H  50.62600 29.29900 35.49100

