158

Mg 47.27300 24.60400 28.66100
C  47.81400 26.93400 31.31200
C  46.36900 22.35900 31.20400
C  47.06500 22.30600 26.42600
C  48.61800 26.94900 26.47600
N  47.15500 24.62100 31.03500
C  47.37700 25.70600 31.85400
C  47.04400 25.37600 33.31300
C  46.77000 23.85700 33.33000
C  46.76500 23.54200 31.80100
C  47.76400 22.96600 34.14600
C  45.83300 26.26700 33.80600
C  46.21600 27.06400 35.04000
H  46.35600 26.24700 36.31200
N  46.64700 22.65200 28.74400
C  46.28000 21.93000 29.85500
C  45.88500 20.59300 29.33900
C  46.09100 20.46300 27.95400
C  46.72900 21.78700 27.66500
C  45.11800 19.59800 30.30900
C  45.61500 19.38900 27.04100
O  45.84500 19.28500 25.80600
C  44.66900 18.41600 27.49300
N  47.75200 24.70800 26.73800
C  47.48100 23.59600 26.00100
C  47.78900 23.85300 24.51500
C  48.17800 25.37600 24.56500
C  48.32300 25.70200 26.00800
C  48.93800 22.93200 24.02300
C  47.13800 26.39200 23.98500
C  45.80900 26.60600 24.86300
N  48.03100 26.58600 28.78800
C  48.54600 27.38700 27.80000
C  48.85000 28.65500 28.32000
C  48.50400 28.56800 29.68600
C  48.12200 27.22800 29.92500
C  49.39900 29.86800 27.52800
C  48.41900 29.34200 30.98600
O  48.73800 30.48900 31.27800
C  47.98800 28.21000 32.06400
C  49.12400 28.20600 33.10500
O  49.93600 27.38700 33.18800
O  48.94400 29.22600 34.02200
C  49.90000 29.34300 35.12100
H  45.98900 21.65600 31.94800
H  46.89400 21.47700 25.73600
H  48.88700 27.66000 25.69200
H  47.98100 25.57400 33.83300
H  45.74700 23.70600 33.67700
H  47.39600 22.58500 35.09800
H  48.58800 23.60800 34.45600
H  48.15000 22.14900 33.53600
H  45.03200 25.61900 34.16100
H  45.39500 26.89400 33.03000
H  45.42900 27.80200 35.19300
H  47.03800 27.76500 34.89700
H  44.07300 19.65400 30.00300
H  45.14300 19.87200 31.36400
H  45.31400 18.52600 30.28700
H  43.80200 18.99100 27.81800
H  44.98300 17.77400 28.31600
H  44.45200 17.68200 26.71600
H  46.88900 23.58300 23.96200
H  49.11100 25.62100 24.05800
H  49.01600 22.09500 24.71700
H  49.76800 23.60900 23.81600
H  48.68800 22.50400 23.05200
H  46.96000 25.96600 22.99700
H  47.58700 27.37800 23.87300
H  45.81400 26.51200 25.94900
H  45.06400 25.86500 24.57200
H  45.35300 27.58300 24.70200
H  48.88100 30.78500 27.80900
H  49.18000 29.86100 26.46100
H  50.48600 29.91000 27.59800
H  47.13300 28.57400 32.63300
H  50.90000 29.06600 34.78700
H  49.63400 28.66400 35.93100
H  49.93900 30.32800 35.58600
Mg -5.28300 24.67800 25.84700
C  -3.71700 26.32900 28.48600
C  -6.72300 22.59300 28.28200
C  -7.02500 23.28800 23.48000
C  -3.50400 26.71500 23.62100
N  -5.23500 24.55700 28.12200
C  -4.60200 25.37600 28.97300
C  -5.12400 25.15600 30.43800
C  -5.83100 23.78100 30.29100
C  -5.93700 23.61200 28.77100
C  -5.01900 22.67900 31.04100
C  -6.05100 26.35600 30.86900
C  -6.02700 26.76200 32.32800
H  -5.61400 25.72500 33.40800
N  -6.72400 23.15500 25.89300
C  -7.19100 22.44500 26.93300
C  -8.25500 21.58500 26.45800
C  -8.29700 21.70600 25.07100
C  -7.36500 22.72600 24.75700
C  -9.10300 20.83100 27.47700
C  -9.22200 21.00800 24.03500
O  -9.31300 21.30000 22.82700
C  -10.18100 20.04000 24.60800
N  -5.20900 24.88500 23.78000
C  -6.10600 24.21100 23.00700
C  -5.87800 24.54700 21.50100
C  -4.80900 25.73700 21.57200
C  -4.51900 25.81300 23.03400
C  -5.18400 23.44100 20.55500
C  -5.25600 27.06900 21.03700
C  -4.37400 27.59300 19.92400
N  -3.88700 26.22100 25.98600
C  -3.27200 26.93200 24.99900
C  -2.45400 27.95500 25.64000
C  -2.52200 27.75700 27.00700
C  -3.41500 26.61800 27.12800
C  -1.67500 29.04600 25.04000
C  -2.06400 28.14900 28.37900
O  -1.33100 29.07000 28.69400
C  -2.76900 27.17900 29.38100
C  -1.81400 26.40300 30.19100
O  -1.00800 25.55000 29.80700
O  -1.99700 26.83900 31.43100
C  -1.30100 26.06600 32.45100
H  -7.05100 21.97300 29.11900
H  -7.64400 22.89200 22.67100
H  -2.84900 27.33600 23.00600
H  -4.26100 25.08900 31.10100
H  -6.83200 23.90300 30.70400
H  -5.08700 21.73800 30.49700
H  -5.53000 22.61300 32.00100
H  -3.99400 23.02300 31.17900
H  -7.07900 26.09200 30.62000
H  -5.78800 27.15300 30.17300
H  -6.99800 27.16100 32.62100
H  -5.30600 27.58000 32.33000
H  -10.15700 21.01400 27.26400
H  -8.95800 21.15200 28.50900
H  -8.94800 19.75400 27.41400
H  -9.71400 19.23400 25.17500
H  -10.74500 19.63800 23.76600
H  -10.84600 20.54900 25.30500
H  -6.81100 24.80800 21.00100
H  -3.82100 25.52700 21.16200
H  -5.88200 23.12200 19.78100
H  -4.85200 22.57200 21.12300
H  -4.28300 23.70800 20.00300
H  -5.49500 27.80500 21.80400
H  -6.15500 26.76700 20.49900
H  -4.91900 28.21100 19.21000
H  -3.98400 26.80500 19.28000
H  -3.52200 28.14700 20.32000
H  -1.40800 28.61400 24.07600
H  -0.85800 29.36300 25.68700
H  -2.26500 29.93300 24.80800
H  -3.37400 27.80600 30.03600
H  -0.73600 25.24700 32.00600
H  -2.15900 25.76500 33.05300
H  -0.70000 26.59300 33.19200

