158

Mg 40.79300 9.01800 29.70100
C  42.39700 10.77800 32.19800
C  38.65000 7.81000 31.95700
C  39.16900 7.39500 27.10700
C  43.24300 10.18100 27.37200
N  40.63400 9.19800 31.81700
C  41.32900 10.02600 32.63700
C  40.82600 9.87600 34.06100
C  39.70000 8.79700 33.97200
C  39.62800 8.59900 32.48300
C  39.73400 7.44100 34.81500
C  40.36900 11.24200 34.72500
C  39.39500 11.17100 35.98300
H  39.63000 12.10900 37.17800
N  39.12000 7.74900 29.56800
C  38.33900 7.39000 30.63900
C  37.21000 6.61600 30.15600
C  37.33700 6.48700 28.77200
C  38.64200 7.18100 28.40400
C  36.22900 5.98700 31.06500
C  36.45200 5.82900 27.71900
O  36.58800 6.03800 26.51400
C  35.20700 5.09700 28.24000
N  41.23800 8.64000 27.60700
C  40.42200 8.02600 26.79100
C  40.85800 8.23700 25.35600
C  41.99600 9.25200 25.40000
C  42.21000 9.36800 26.88500
C  41.24200 6.83500 24.86700
C  41.60900 10.60500 24.62200
C  40.57300 11.47100 25.31500
N  42.50700 10.19100 29.72900
C  43.35600 10.57600 28.72700
C  44.37000 11.33300 29.32100
C  44.02500 11.50200 30.70500
C  42.89500 10.77400 30.90700
C  45.60300 11.70100 28.67000
C  44.39100 12.14300 31.95700
O  45.32900 12.87000 32.20900
C  43.29300 11.66900 32.90600
C  43.94200 11.03100 34.08000
O  44.49300 9.93800 34.08700
O  43.69100 11.78500 35.17300
C  43.96100 11.23000 36.46000
H  37.94200 7.49000 32.72500
H  38.70800 6.88100 26.26100
H  43.85400 10.64700 26.59600
H  41.62200 9.55100 34.73100
H  38.79100 9.28000 34.32800
H  38.97800 7.39600 35.59900
H  40.71200 7.44400 35.29700
H  39.60500 6.55700 34.19000
H  39.78900 11.73000 33.94200
H  41.19500 11.88800 35.02300
H  39.44700 10.18300 36.43900
H  38.36300 11.40600 35.72200
H  35.23300 6.37000 30.84100
H  36.40900 6.23200 32.11100
H  36.17000 4.90700 30.93200
H  35.30500 4.29700 28.97500
H  34.81900 4.61500 27.34300
H  34.50100 5.87600 28.52800
H  40.01000 8.51700 24.73200
H  42.99700 8.98600 25.06100
H  40.83600 6.08400 25.54500
H  42.32500 6.76400 24.77000
H  40.63200 6.60000 23.99500
H  41.20300 10.50300 23.61500
H  42.52100 11.18700 24.48900
H  40.56000 11.36000 26.39900
H  39.59500 11.18600 24.92500
H  40.76700 12.52400 25.11200
H  45.66600 12.78600 28.59600
H  45.73300 11.24800 27.68600
H  46.32500 11.23600 29.34100
H  42.74600 12.55600 33.22700
H  44.70000 11.82400 36.99700
H  44.36400 10.21800 36.49500
H  43.08500 11.28300 37.10600
Mg 0.35400 42.69800 25.33200
C  2.69900 42.41700 27.94100
C  -2.16900 42.23000 27.69300
C  -1.91300 42.55900 22.91600
C  2.86700 43.03700 23.05100
N  0.34200 42.41100 27.55700
C  1.39400 42.36800 28.40500
C  0.87500 42.20000 29.89100
C  -0.64000 41.93500 29.66600
C  -0.85200 42.26000 28.18600
C  -1.18300 40.59800 30.12100
C  1.20300 43.49700 30.67800
C  0.85600 43.73100 32.15800
H  0.75500 42.45800 32.99700
N  -1.81300 42.47100 25.30300
C  -2.64000 42.41200 26.37600
C  -4.03700 42.46400 25.90000
C  -3.91400 42.59500 24.52600
C  -2.50500 42.61600 24.20500
C  -5.19900 42.41300 26.91500
C  -5.04000 42.78200 23.53600
O  -4.77300 43.11900 22.38500
C  -6.55400 42.71800 23.95000
N  0.44100 42.56100 23.29600
C  -0.60800 42.50700 22.51400
C  -0.27300 42.53700 20.98600
C  1.20700 43.01200 21.00000
C  1.54100 42.88800 22.52500
C  -0.51000 41.21200 20.20000
C  1.34500 44.49400 20.46300
C  2.10700 44.59200 19.07500
N  2.36600 42.68300 25.39200
C  3.30500 42.83400 24.36900
C  4.70300 42.85900 24.90400
C  4.47900 42.68200 26.28200
C  3.12200 42.59300 26.54300
C  6.00800 43.09900 24.25600
C  5.12000 42.49400 27.55600
O  6.30600 42.49900 27.79200
C  4.00500 42.42100 28.69600
C  4.25200 41.14100 29.48900
O  3.79300 40.01100 29.26800
O  4.87300 41.50100 30.61900
C  4.95300 40.50700 31.69900
H  -2.98600 42.29000 28.41500
H  -2.61200 42.23400 22.14200
H  3.69800 43.30800 22.39700
H  1.33100 41.38900 30.45800
H  -1.24400 42.68100 30.18200
H  -0.74700 40.28600 31.07000
H  -1.07200 39.81100 29.37500
H  -2.22300 40.69100 30.43200
H  0.81200 44.25600 30.00100
H  2.27900 43.64900 30.59000
H  -0.08800 44.27700 32.15900
H  1.66600 44.31200 32.59900
H  -5.71300 41.45500 26.83400
H  -5.89500 43.23200 26.73400
H  -4.82800 42.46900 27.93800
H  -6.57900 41.76100 24.47000
H  -7.12500 42.68100 23.02300
H  -6.83200 43.45100 24.70700
H  -0.90700 43.33100 20.58900
H  1.92300 42.38900 20.46300
H  -0.99700 40.56900 20.93300
H  0.43400 40.86900 19.77400
H  -1.17700 41.39200 19.35700
H  1.76900 45.14200 21.23000
H  0.37500 44.97500 20.33900
H  2.18000 43.62200 18.58400
H  3.11600 44.98500 19.20500
H  1.59300 45.29400 18.41900
H  6.93900 43.02700 24.81800
H  5.95800 44.05200 23.73100
H  6.00400 42.25200 23.56900
H  4.03200 43.27200 29.37600
H  3.96200 40.30900 32.10700
H  5.58300 41.11600 32.34700
H  5.60000 39.64200 31.55100

