158

Mg 35.93000 0.94400 29.77000
C  33.85600 2.34700 32.24700
C  38.48600 0.71900 32.05600
C  37.94000 0.33800 27.24400
C  33.32200 1.62000 27.32700
N  36.11600 1.47800 31.93600
C  35.13600 1.90300 32.81500
C  35.64300 1.98800 34.25900
C  37.23500 1.76000 34.07400
C  37.35100 1.28500 32.60400
C  38.19000 2.79900 34.59100
C  34.86400 0.90800 35.09300
C  34.12100 1.38800 36.30800
H  34.62800 2.65300 36.96900
N  37.89300 0.40600 29.68600
C  38.77600 0.35300 30.72200
C  40.00900 -0.15700 30.23200
C  39.88100 -0.22200 28.80900
C  38.51400 0.25900 28.46800
C  41.27000 -0.33300 31.10000
C  40.96300 -0.69900 27.79800
O  40.66400 -0.66100 26.62000
C  42.40300 -1.01200 28.22300
N  35.59100 0.85900 27.57600
C  36.65600 0.57100 26.78000
C  36.32600 0.77200 25.29800
C  34.72900 0.86100 25.33000
C  34.52700 1.14000 26.80000
C  36.97300 2.06100 24.77300
C  33.92700 -0.41200 24.78600
C  33.28100 -0.23300 23.44700
N  34.06300 1.86600 29.73800
C  33.07100 2.08000 28.64400
C  31.87300 2.51500 29.23800
C  32.10500 2.72100 30.60300
C  33.45300 2.30200 30.88000
C  30.62400 2.91600 28.53900
C  31.40700 3.02200 31.82900
O  30.24600 3.38400 31.94500
C  32.53200 2.85800 32.93300
C  32.66900 4.23100 33.66800
O  33.31700 5.16400 33.24100
O  31.83700 4.25400 34.77100
C  31.74100 5.51900 35.46100
H  39.24700 0.73500 32.83900
H  38.65400 0.16000 26.43700
H  32.44300 1.62600 26.67900
H  35.56500 3.01300 34.62000
H  37.48900 0.81100 34.54700
H  37.61400 3.60900 35.03800
H  38.87500 3.17400 33.83000
H  38.81200 2.36000 35.37200
H  35.62500 0.21300 35.44700
H  34.16900 0.51600 34.35000
H  33.86200 0.60500 37.02100
H  33.15700 1.70800 35.91300
H  41.05200 0.00800 32.11200
H  42.12300 0.24500 30.74600
H  41.59800 -1.37200 31.14300
H  42.88500 -1.08700 27.24800
H  42.44900 -1.90300 28.84800
H  42.86600 -0.16500 28.73000
H  36.77000 -0.04400 24.72900
H  34.39800 1.74500 24.78500
H  37.67300 2.41800 25.52900
H  36.33000 2.89400 24.48900
H  37.50000 1.77000 23.86500
H  33.29800 -0.70500 25.62600
H  34.63800 -1.22300 24.62800
H  33.08600 -1.13800 22.87200
H  33.75000 0.59000 22.90700
H  32.24200 0.02800 23.65100
H  30.57000 2.62900 27.48900
H  30.43200 3.98900 28.57200
H  29.74500 2.41100 28.93800
H  32.12800 2.05200 33.54600
H  32.74200 5.85000 35.73700
H  31.11900 5.31400 36.33300
H  31.33400 6.25000 34.76300
Mg -2.20300 35.18000 26.58400
C  -3.71500 33.33600 29.21600
C  -0.67400 37.14500 28.72200
C  -1.39200 36.94200 23.92200
C  -4.06800 32.96400 24.42100
N  -2.27100 35.24900 28.74700
C  -2.94500 34.43600 29.62500
C  -2.53800 34.80300 31.04500
C  -1.59000 36.05000 30.84300
C  -1.40100 36.11200 29.30500
C  -2.10900 37.39600 31.51000
C  -1.81700 33.59100 31.74600
C  -2.46300 32.86400 32.93500
H  -1.70700 32.89100 34.30700
N  -1.09200 36.77700 26.30700
C  -0.50600 37.48700 27.33500
C  0.21000 38.58100 26.73400
C  0.05900 38.49800 25.36300
C  -0.79200 37.32300 25.13300
C  0.89200 39.59600 27.60800
C  0.65800 39.36200 24.28300
O  0.55400 39.08100 23.09500
C  1.45900 40.58900 24.54400
N  -2.62400 34.96200 24.50500
C  -2.22900 35.89300 23.59400
C  -2.67800 35.60300 22.12900
C  -3.40400 34.21700 22.36400
C  -3.30600 34.00400 23.83800
C  -3.54200 36.70500 21.53900
C  -2.89500 32.96600 21.63000
C  -1.54300 32.35300 22.12000
N  -3.71200 33.51600 26.79400
C  -4.30600 32.74000 25.78400
C  -5.13300 31.69500 26.39100
C  -4.92500 31.93800 27.76000
C  -4.02400 32.98400 27.95100
C  -5.82800 30.65200 25.66100
C  -5.17100 31.38100 29.08800
O  -5.74300 30.36500 29.51000
C  -4.48200 32.37200 30.03400
C  -5.59300 33.02700 30.81300
O  -6.10300 34.10200 30.55600
O  -5.84200 32.29800 31.95100
C  -6.79500 32.93000 32.91200
H  -0.14100 37.71200 29.48800
H  -1.17400 37.57400 23.05800
H  -4.55100 32.24600 23.75600
H  -3.40700 35.13300 31.61500
H  -0.58500 35.82200 31.19900
H  -3.12100 37.27600 31.89900
H  -2.17400 38.13600 30.71300
H  -1.54300 37.73500 32.37700
H  -0.87000 33.93200 32.16300
H  -1.71700 32.68400 31.14900
H  -2.76900 31.84600 32.69300
H  -3.37400 33.45900 33.00600
H  1.17800 39.13800 28.55500
H  0.24900 40.46200 27.76300
H  1.84600 39.95700 27.22300
H  1.50600 41.21100 23.65000
H  2.49700 40.39000 24.80900
H  1.01700 41.20100 25.33000
H  -1.86600 35.55300 21.40300
H  -4.44100 34.34000 22.05300
H  -3.09200 37.10400 20.63000
H  -3.65600 37.45600 22.32100
H  -4.49700 36.26800 21.24800
H  -2.74900 33.32800 20.61200
H  -3.69000 32.22400 21.55800
H  -1.68400 31.27700 22.02000
H  -1.25200 32.62700 23.13400
H  -0.77300 32.68600 21.42400
H  -5.17900 30.14500 24.94700
H  -6.63500 31.16700 25.13800
H  -6.25200 29.93500 26.36300
H  -3.77300 31.80100 30.63400
H  -7.29900 32.17600 33.51700
H  -7.56900 33.49000 32.38600
H  -6.22200 33.54900 33.60200

