158

Mg -2.59700 17.13000 26.40000
C  -2.98500 14.73000 28.99000
C  -2.83600 19.56700 28.72600
C  -2.52300 19.43200 23.93900
C  -2.45200 14.52500 24.17300
N  -2.80600 17.08000 28.53400
C  -2.96200 16.02300 29.42800
C  -3.19900 16.55400 30.89700
C  -3.44900 18.15000 30.76300
C  -2.97300 18.30400 29.24500
C  -4.91300 18.58900 31.12200
C  -1.97700 16.29700 31.79700
C  -1.88700 16.94700 33.17600
H  -1.26600 16.21000 34.38000
N  -2.46700 19.17000 26.34500
C  -2.64000 20.04700 27.40100
C  -2.65600 21.41900 26.91800
C  -2.35800 21.41300 25.56500
C  -2.44500 19.95800 25.19900
C  -2.95200 22.61900 27.76200
C  -2.09300 22.53200 24.57600
O  -1.92200 22.30800 23.36200
C  -1.91800 23.88300 25.06500
N  -2.36900 17.00800 24.42000
C  -2.38700 18.08300 23.55700
C  -2.28200 17.60900 22.04800
C  -2.03100 16.02500 22.23900
C  -2.27700 15.80800 23.69000
C  -3.64700 17.96500 21.40400
C  -0.59000 15.63200 21.74300
C  0.51200 15.64400 22.78900
N  -2.73700 15.05400 26.43300
C  -2.58000 14.14500 25.48100
C  -2.73600 12.78400 26.04300
C  -2.96500 12.94400 27.38200
C  -2.87200 14.39800 27.60200
C  -2.32200 11.58000 25.31100
C  -3.18500 12.23700 28.66400
O  -3.35900 11.07200 28.87600
C  -3.10100 13.36400 29.71400
C  -1.94500 13.09500 30.58300
O  -0.82500 13.48000 30.44600
O  -2.39300 12.37800 31.70600
C  -1.51700 11.96600 32.84400
H  -3.07600 20.24900 29.54400
H  -2.60600 20.14500 23.11600
H  -2.37800 13.78600 23.37200
H  -4.10400 16.10400 31.30600
H  -2.68200 18.65600 31.34900
H  -5.59300 17.80300 31.45200
H  -5.31000 18.76000 30.12100
H  -4.90000 19.47900 31.75100
H  -1.11000 16.59700 31.20800
H  -2.08900 15.28700 32.19100
H  -2.96400 17.09500 33.25900
H  -1.30500 17.85000 32.99300
H  -3.37800 22.42300 28.74700
H  -3.74300 23.11400 27.19900
H  -2.10200 23.29900 27.79400
H  -2.84400 24.20700 25.53900
H  -1.80200 24.60800 24.25900
H  -1.09000 23.87600 25.77400
H  -1.48800 18.16100 21.54400
H  -2.65300 15.40700 21.59200
H  -4.34800 17.13000 21.39100
H  -3.55100 18.16700 20.33700
H  -4.09800 18.83800 21.87600
H  -0.31600 16.20700 20.85800
H  -0.62500 14.57600 21.47500
H  1.04200 14.69200 22.75700
H  0.15000 15.94700 23.77100
H  1.26700 16.31400 22.37700
H  -2.08000 10.79100 26.02300
H  -1.41100 11.75500 24.73900
H  -3.10600 11.24100 24.63300
H  -3.89300 13.38200 30.46300
H  -1.77800 10.91700 32.98400
H  -1.91700 12.50100 33.70500
H  -0.44200 12.13200 32.77100
Mg 45.45200 4.32300 47.55600
C  43.37800 7.03800 47.51400
C  42.61400 2.26800 47.11900
C  47.54600 1.71400 46.74400
C  48.25100 6.44100 47.42700
N  43.28100 4.63400 47.18600
C  42.66600 5.85600 47.19400
C  41.12400 5.82800 47.00600
C  40.90600 4.25100 47.07600
C  42.35000 3.66100 47.08400
C  39.94600 3.78100 48.22500
C  40.52100 6.38500 45.65000
C  41.43400 6.22000 44.48900
H  40.65200 5.57300 43.31000
N  45.12800 2.33800 47.07500
C  43.85300 1.66800 47.10700
C  44.13700 0.23100 47.05200
C  45.52100 0.04700 46.84500
C  46.12100 1.42300 46.83800
C  42.97700 -0.76700 47.14800
C  46.18300 -1.38900 46.63500
O  45.62800 -2.42400 46.87600
C  47.71700 -1.53100 46.32500
N  47.62700 4.16000 47.07100
C  48.20700 2.88900 47.01900
C  49.69600 2.92300 47.09200
C  49.86600 4.47100 47.39200
C  48.53600 5.07800 47.27700
C  50.22000 1.95600 48.21300
C  50.88600 5.20100 46.52200
C  52.31600 4.84000 46.97400
N  45.83900 6.37200 47.44200
C  47.04200 7.10700 47.47400
C  46.72200 8.50700 47.51400
C  45.31600 8.52800 47.58400
C  44.83400 7.19700 47.44600
C  47.70000 9.61600 47.55500
C  44.21700 9.34800 47.74500
O  44.20900 10.55200 47.82000
C  42.95000 8.51400 47.62000
C  42.09200 8.74100 48.74300
O  42.40600 8.52200 49.88800
O  40.90500 9.17200 48.34400
C  39.81600 9.26700 49.35100
H  41.70000 1.72400 46.86900
H  48.19700 0.83800 46.69100
H  49.10700 7.11600 47.48800
H  40.59000 6.17700 47.89000
H  40.40200 3.81300 46.21500
H  40.52500 3.27300 48.99600
H  39.24000 3.11700 47.72500
H  39.36500 4.58100 48.68500
H  40.35500 7.46100 45.71500
H  39.52700 6.03600 45.37200
H  42.25300 5.52800 44.68600
H  41.92700 7.14100 44.17800
H  42.04400 -0.35400 47.53000
H  43.18400 -1.68900 47.69000
H  42.61400 -1.05300 46.16100
H  47.87600 -2.50700 45.86700
H  48.29500 -1.40700 47.24100
H  47.96300 -0.85200 45.50900
H  50.12100 2.57800 46.14900
H  50.16800 4.59600 48.43200
H  50.71600 1.12600 47.71000
H  49.41000 1.57100 48.83200
H  50.93600 2.53100 48.80000
H  50.90100 6.29000 46.53900
H  50.92500 4.89400 45.47600
H  52.33900 3.96500 47.62400
H  52.81200 5.72100 47.37900
H  52.90000 4.61900 46.08100
H  48.16300 9.75200 48.53200
H  47.27200 10.60100 47.36900
H  48.51400 9.45200 46.84900
H  42.42100 8.78300 46.70500
H  40.20400 10.10600 49.92800
H  39.86900 8.34700 49.93200
H  38.80300 9.44800 48.99100

