158

Mg 9.17500 4.42100 28.15500
C  10.46200 2.66200 30.90700
C  7.04600 6.03400 30.13100
C  8.05700 6.02100 25.42900
C  10.83000 2.10700 26.05800
N  8.72400 4.22900 30.26600
C  9.56000 3.69300 31.21500
C  9.13600 4.07100 32.67300
C  7.90300 4.99300 32.40600
C  7.88700 5.10200 30.81300
C  6.48200 4.58700 32.90500
C  10.27700 4.70100 33.45800
C  10.01500 4.99000 34.98300
H  11.29700 4.82800 35.87200
N  7.79300 5.87500 27.84200
C  6.98200 6.39500 28.80800
C  6.22100 7.56300 28.20500
C  6.61900 7.56600 26.85000
C  7.55300 6.47800 26.63000
C  5.36100 8.44900 29.00600
C  6.18800 8.50600 25.79600
O  6.62300 8.44000 24.65400
C  5.13000 9.52600 26.06300
N  9.27400 4.01200 26.00300
C  8.78100 4.86800 25.03300
C  9.21700 4.54900 23.55300
C  9.97900 3.18800 23.79800
C  10.07800 3.10700 25.36600
C  8.03700 4.45900 22.53000
C  11.35200 3.16200 23.02000
C  11.51700 1.98500 22.01700
N  10.44900 2.81300 28.35500
C  11.05200 1.94800 27.42100
C  11.75700 0.95500 28.10100
C  11.65200 1.19200 29.43300
C  10.84500 2.34600 29.54400
C  12.44900 -0.25100 27.43200
C  12.06900 0.83200 30.76200
O  12.83500 -0.03400 31.11500
C  11.46200 1.91200 31.73600
C  10.89100 1.14200 32.86600
O  9.97900 0.30900 32.82700
O  11.62300 1.39700 34.03100
C  11.23000 0.69600 35.25100
H  6.44800 6.70400 30.75300
H  8.00500 6.64600 24.53500
H  11.34700 1.38700 25.42100
H  8.76200 3.18100 33.18000
H  8.09200 6.01800 32.72300
H  5.67600 4.69400 32.17900
H  6.21400 5.18700 33.77400
H  6.50800 3.54200 33.21300
H  10.66900 5.60700 32.99700
H  11.11800 4.01500 33.35600
H  9.41700 4.20700 35.44900
H  9.57600 5.95700 35.23000
H  4.99700 8.09900 29.97200
H  4.43600 8.60200 28.45100
H  5.80200 9.42000 29.23300
H  5.19600 10.16500 26.94300
H  4.21800 8.97200 26.28700
H  4.89000 10.15200 25.20400
H  9.86700 5.39900 23.34500
H  9.38900 2.29500 23.59100
H  7.10200 4.81500 22.96400
H  7.95300 3.44500 22.13900
H  8.17900 5.15400 21.70200
H  12.11900 3.07900 23.79000
H  11.55600 4.06600 22.44700
H  10.62400 1.71000 21.45700
H  11.84100 1.07300 22.51800
H  12.32700 2.21500 21.32500
H  13.46600 -0.04600 27.09700
H  11.90400 -0.66900 26.58600
H  12.41600 -0.98200 28.24000
H  12.22000 2.60400 32.10400
H  12.02000 0.03300 35.60500
H  10.38600 0.00900 35.18000
H  10.96400 1.47200 35.96900
Mg 5.98600 54.45500 39.87500
C  5.57000 50.96300 40.24400
C  9.15400 53.82400 38.69400
C  6.18900 57.71200 39.27900
C  2.52500 54.84400 40.68300
N  7.13600 52.47400 39.32700
C  6.73900 51.23200 39.55100
C  7.69200 50.28700 38.85200
C  9.01600 51.19600 38.75700
C  8.44900 52.60400 38.98500
C  10.10300 50.94800 39.93300
C  7.30500 49.65900 37.47100
C  6.38900 50.47400 36.58800
H  6.86400 51.40500 35.47500
N  7.47700 55.61300 39.03600
C  8.70900 55.23300 38.66000
C  9.44900 56.31800 38.10700
C  8.59500 57.46700 38.17100
C  7.34200 56.96800 38.88100
C  10.81800 56.14300 37.38700
C  8.85300 58.80300 37.65800
O  9.80700 59.00400 36.99400
C  8.08400 60.07500 38.09600
N  4.54500 56.07300 39.93100
C  4.91300 57.30400 39.80600
C  3.88600 58.34500 40.16900
C  2.66500 57.41600 40.49600
C  3.25300 56.01700 40.36100
C  4.34800 59.28100 41.27000
C  1.35600 57.76200 39.63000
C  0.39500 58.77300 40.28400
N  4.38700 53.20700 40.52000
C  3.06600 53.53800 40.83000
C  2.49500 52.36500 41.41500
C  3.43900 51.30200 41.21900
C  4.54600 51.86700 40.60200
C  1.09700 52.12600 41.93600
C  3.69400 49.81600 41.24900
O  3.01500 48.83800 41.55800
C  5.02800 49.60900 40.60800
C  4.76300 48.67200 39.52300
O  4.46100 48.95600 38.32300
O  4.82000 47.38900 39.97400
C  4.45700 46.26200 39.06200
H  10.19200 53.66800 38.39200
H  6.22900 58.80200 39.23100
H  1.58600 54.96000 41.22800
H  7.73000 49.38200 39.45800
H  9.57300 51.10000 37.82500
H  11.11800 51.01500 39.54000
H  9.94400 49.96800 40.38200
H  9.97400 51.82400 40.56900
H  6.99800 48.62100 37.60300
H  8.23900 49.47000 36.94200
H  5.69800 51.10600 37.14600
H  5.67000 49.89600 36.00700
H  10.93700 56.90700 36.61800
H  10.88400 55.19300 36.85700
H  11.59700 56.37900 38.11100
H  7.06100 60.15200 37.72600
H  8.61700 61.01300 37.93700
H  7.99900 60.06700 39.18300
H  3.71400 58.95300 39.28100
H  2.53900 57.56400 41.56900
H  4.37500 60.30600 40.90000
H  5.37900 59.09200 41.56900
H  3.75900 59.15700 42.17900
H  0.82900 56.83900 39.38700
H  1.59000 58.14100 38.63400
H  -0.67800 58.59800 40.20200
H  0.49800 59.75700 39.82800
H  0.66500 58.81800 41.33900
H  0.70600 51.30000 41.34200
H  0.43900 52.99400 41.90300
H  1.20700 51.76700 42.95900
H  5.64200 49.12500 41.36800
H  3.38000 46.26800 38.89200
H  4.68700 45.38900 39.67200
H  4.97000 46.32400 38.10200

