158

Mg 0.51600 7.55000 26.26900
C  1.58200 9.40800 29.00000
C  0.85300 4.69000 28.25400
C  0.07200 5.71200 23.54000
C  0.21300 10.44600 24.47600
N  1.00700 7.06700 28.32200
C  1.30400 8.07100 29.29000
C  1.24200 7.42300 30.67100
C  1.39800 5.85400 30.41100
C  1.04100 5.84400 28.87800
C  2.72500 5.14600 30.70100
C  0.01900 7.91700 31.49900
C  0.39200 8.29200 33.00900
H  1.12700 7.26800 33.79100
N  0.32100 5.45000 25.94600
C  0.49800 4.43100 26.90000
C  0.42500 3.16400 26.16200
C  0.12300 3.40500 24.82700
C  0.14000 4.92500 24.70800
C  0.66400 1.84100 26.87100
C  -0.14400 2.45100 23.74600
O  -0.20300 2.80500 22.59200
C  -0.27400 0.95900 23.98200
N  0.42100 8.00500 24.25600
C  0.09300 7.10600 23.32400
C  -0.41700 7.78200 22.01800
C  -0.58400 9.25800 22.45400
C  0.03800 9.26300 23.82600
C  0.58800 7.59100 20.90900
C  -2.05100 9.85800 22.41800
C  -2.89200 9.60000 21.16600
N  0.93200 9.56000 26.62300
C  0.74300 10.62000 25.79300
C  1.12600 11.82100 26.41600
C  1.52700 11.40300 27.71400
C  1.42900 10.02700 27.71400
C  1.18400 13.22800 25.81000
C  2.13000 11.71900 29.03100
O  2.42700 12.79300 29.54500
C  2.03800 10.44700 29.88400
C  3.34300 10.20100 30.56200
O  4.23800 9.40200 30.29000
O  3.34900 10.93100 31.73200
C  4.38700 10.73000 32.72400
H  0.99500 3.77000 28.82500
H  0.09900 5.25200 22.54900
H  0.05100 11.30400 23.82000
H  2.15800 7.65100 31.21700
H  0.56900 5.30800 30.86200
H  2.66000 4.56000 31.61700
H  3.48500 5.89800 30.91600
H  3.15400 4.55200 29.89400
H  -0.62400 7.03700 31.52500
H  -0.59500 8.64600 30.97200
H  -0.60000 8.56400 33.37100
H  0.95000 9.22400 33.09600
H  1.34800 1.22500 26.28700
H  -0.22200 1.24900 27.09700
H  1.30700 2.00300 27.73700
H  -0.38900 0.41900 23.04300
H  -1.20400 0.70800 24.49200
H  0.69800 0.60400 24.32700
H  -1.36800 7.28100 21.83500
H  -0.00300 9.92400 21.81700
H  1.60200 7.52000 21.30400
H  0.57500 8.49100 20.29400
H  0.24700 6.74700 20.31000
H  -1.95700 10.91300 22.67500
H  -2.61300 9.46700 23.26600
H  -2.50600 8.92500 20.40200
H  -2.97200 10.58500 20.70600
H  -3.88800 9.31000 21.49800
H  1.63900 13.89500 26.54200
H  0.16600 13.49600 25.52700
H  1.74100 13.17100 24.87500
H  1.27700 10.68400 30.62800
H  4.22900 9.98500 33.50400
H  4.50300 11.67100 33.26100
H  5.34100 10.39500 32.31600
Mg 15.77700 51.45100 25.60200
C  17.23600 50.31600 28.60000
C  12.93600 52.19700 27.38500
C  14.27000 52.01000 22.73500
C  18.54400 50.10500 23.90300
N  15.14900 51.18100 27.75700
C  15.99300 50.91100 28.82300
C  15.43100 51.44000 30.18200
C  13.95100 51.75400 29.81000
C  14.01500 51.78900 28.24000
C  12.69500 50.89000 30.25600
C  16.26800 52.69800 30.60400
C  16.07300 53.24900 31.95500
H  14.88500 52.79800 32.86400
N  13.87100 51.96600 25.12500
C  12.85000 52.29800 26.01600
C  11.65100 52.59300 25.26900
C  11.95000 52.37200 23.89200
C  13.42900 52.10500 23.84700
C  10.34600 52.93400 25.91300
C  11.07400 52.39600 22.62500
O  11.47800 52.04700 21.54900
C  9.64700 52.78700 22.75700
N  16.33100 51.06100 23.54000
C  15.58200 51.54600 22.51900
C  16.23800 51.37000 21.16400
C  17.54800 50.57400 21.59700
C  17.53300 50.58500 23.11600
C  15.28000 50.72900 20.11800
C  18.84800 51.12700 20.97000
C  19.34500 50.24700 19.83600
N  17.54900 50.34300 26.11200
C  18.59400 49.89900 25.32300
C  19.62400 49.34300 26.16300
C  19.14400 49.41100 27.44200
C  17.85600 50.03000 27.40900
C  20.91600 48.90500 25.63500
C  19.44600 49.20700 28.80500
O  20.50700 48.86800 29.36800
C  18.24600 49.82600 29.55600
C  17.55400 48.99600 30.62500
O  16.74800 48.10000 30.50900
O  18.11400 49.30900 31.84800
C  17.83700 48.41900 32.96200
H  12.07900 52.41600 28.02600
H  13.82500 52.21100 21.75900
H  19.41400 49.78100 23.32700
H  15.40600 50.64200 30.92500
H  13.83700 52.81100 30.04900
H  12.32900 50.41100 29.34900
H  11.92800 51.47600 30.76200
H  13.06500 50.12300 30.93600
H  16.32200 53.43300 29.80100
H  17.31000 52.37700 30.59100
H  15.91900 54.29700 31.69800
H  17.03000 53.06700 32.44300
H  9.98500 53.82000 25.39100
H  10.55300 53.31300 26.91400
H  9.59000 52.15000 25.89400
H  9.61400 53.85900 22.95100
H  9.18900 52.12500 23.49200
H  9.21300 52.58300 21.77800
H  16.51000 52.33400 20.73500
H  17.40400 49.57600 21.18400
H  14.42100 50.31900 20.64900
H  15.76200 49.90100 19.59900
H  14.81600 51.54800 19.56800
H  19.69900 51.29900 21.62900
H  18.54800 52.07300 20.52000
H  20.13000 49.61800 20.25500
H  19.90200 50.86200 19.12800
H  18.60000 49.76400 19.20300
H  21.33200 49.84500 25.27200
H  20.88600 48.12800 24.87200
H  21.58700 48.43500 26.35500
H  18.61400 50.74000 30.02200
H  17.21000 48.95000 33.67900
H  18.73800 48.10100 33.48800
H  17.30000 47.49000 32.77100

