158

Mg 25.97300 0.85700 29.05000
C  28.03000 0.37600 31.93300
C  23.39700 1.34100 31.19500
C  24.00100 0.81600 26.37400
C  28.73500 -0.00000 27.10200
N  25.81500 0.60100 31.38000
C  26.75300 0.61900 32.32600
C  26.06200 0.91300 33.74900
C  24.58200 1.14200 33.36300
C  24.62700 1.09800 31.83100
C  23.52400 0.18400 33.87600
C  26.67700 2.19900 34.42500
C  26.06500 2.70300 35.73400
H  26.98400 2.88600 36.96900
N  23.95400 0.99700 28.85200
C  23.04600 1.22800 29.81700
C  21.67200 1.27000 29.27700
C  21.90600 1.14500 27.81300
C  23.34600 1.08400 27.60900
C  20.44800 1.41300 30.10800
C  20.88200 1.32400 26.71500
O  21.17300 1.22100 25.53500
C  19.45100 1.65600 27.02500
N  26.38500 0.63100 26.98700
C  25.34800 0.54700 26.07400
C  25.95400 0.29400 24.65800
C  27.48200 0.19000 24.92900
C  27.60000 0.36200 26.42500
C  25.28700 -0.85100 23.83800
C  28.32800 1.20100 24.23700
C  28.05300 2.72100 24.60300
N  28.02300 0.35400 29.34600
C  29.02900 0.01400 28.51400
C  30.19400 -0.34500 29.25000
C  29.86400 -0.11500 30.62100
C  28.56100 0.29700 30.56300
C  31.58100 -0.72700 28.72300
C  30.38100 -0.29800 32.03200
O  31.44900 -0.63200 32.51900
C  29.15300 0.26900 32.86300
C  28.98100 -0.81000 33.85400
O  28.35400 -1.82200 33.62100
O  29.63700 -0.48700 34.99500
C  29.24900 -1.37600 36.10300
H  22.51700 1.40500 31.83800
H  23.40000 0.80600 25.46200
H  29.59000 -0.38800 26.54300
H  26.23100 0.06200 34.40800
H  24.35100 2.18000 33.60300
H  23.05800 -0.44000 33.11300
H  22.67900 0.73800 34.28600
H  23.92300 -0.35300 34.73600
H  26.77900 2.95100 33.64400
H  27.69900 1.87600 34.62400
H  25.33100 1.97500 36.08200
H  25.64800 3.67300 35.46600
H  20.00400 2.35200 29.77800
H  20.69600 1.38100 31.16900
H  19.86900 0.53800 29.81300
H  19.28700 1.03100 27.90300
H  18.93600 1.36000 26.11100
H  19.36100 2.70600 27.30600
H  25.79600 1.19200 24.06100
H  27.84500 -0.81800 24.72800
H  24.76900 -0.49400 22.94800
H  24.49500 -1.16700 24.51600
H  26.07400 -1.59000 23.68700
H  28.42500 0.90600 23.19200
H  29.35700 0.97400 24.51500
H  27.08800 2.96800 25.04400
H  27.99100 3.37000 23.73000
H  28.86000 3.11400 25.22200
H  31.50600 -1.00300 27.67200
H  32.05600 -1.48300 29.34900
H  32.20700 0.15400 28.86800
H  29.40000 1.19300 33.38600
H  29.07600 -2.37400 35.70000
H  28.30800 -1.00900 36.51200
H  30.09700 -1.40000 36.78700
Mg 29.38200 58.16100 40.79900
C  26.58500 56.51900 39.52300
C  31.38500 55.74800 39.24800
C  32.15200 60.22100 41.06600
C  27.25700 60.84800 41.59400
N  29.03100 56.46800 39.56200
C  27.80200 55.98700 39.10200
C  27.87400 54.77500 38.27000
C  29.39400 54.36500 38.44700
C  29.95900 55.59900 39.16200
C  29.57200 53.02600 39.14000
C  27.50000 55.00600 36.73700
C  26.34000 54.27700 36.07400
H  25.68400 55.08000 34.99600
N  31.53500 57.92900 40.39400
C  32.10300 56.81700 39.74900
C  33.49300 57.05000 39.54200
C  33.78300 58.27600 40.08500
C  32.49300 58.93200 40.50700
C  34.44800 56.03000 38.87800
C  35.19800 58.78600 40.21500
O  36.16400 58.07900 39.89600
C  35.53000 60.06800 40.87300
N  29.67700 60.23700 41.33300
C  30.91000 60.78600 41.37300
C  30.85400 62.30400 41.70800
C  29.33100 62.50500 42.00700
C  28.69800 61.13200 41.63700
C  31.82000 62.78800 42.77800
C  28.79600 63.73300 41.16500
C  28.86500 65.06200 41.84700
N  27.39500 58.54800 40.82900
C  26.62600 59.67600 41.24100
C  25.23500 59.31200 41.26700
C  25.19200 58.12400 40.54600
C  26.47700 57.69400 40.31000
C  24.14900 60.25800 41.73500
C  24.27700 57.23400 39.99300
O  23.08300 57.28100 39.93700
C  25.17500 56.08000 39.36400
C  24.77200 54.83200 40.15700
O  25.00500 54.61200 41.32600
O  23.86000 54.15100 39.42700
C  22.94900 53.31600 40.28500
H  31.89300 54.86400 38.85500
H  33.05000 60.84400 41.07400
H  26.56000 61.68300 41.69000
H  27.22100 54.00900 38.68800
H  29.95600 54.22000 37.52400
H  30.46100 53.03200 39.77100
H  29.68800 52.25200 38.38100
H  28.65900 52.70800 39.64300
H  28.43300 54.65000 36.30000
H  27.39600 56.08000 36.58000
H  25.57100 53.88700 36.74100
H  26.66700 53.31600 35.67800
H  35.04600 56.51300 38.10500
H  33.88000 55.26600 38.34600
H  35.02100 55.53200 39.66000
H  35.27300 60.93200 40.26000
H  36.60200 60.15800 41.04700
H  34.82900 60.15500 41.70300
H  31.12900 62.82800 40.79300
H  29.10300 62.78700 43.03400
H  32.60300 63.39800 42.32800
H  32.24800 61.98500 43.37900
H  31.26900 63.49100 43.40200
H  27.81800 63.50300 40.74200
H  29.36900 63.77600 40.23900
H  29.22400 65.73400 41.06800
H  29.48600 65.10300 42.74200
H  27.93700 65.44000 42.27500
H  23.12600 59.93400 41.54800
H  24.34300 61.19900 41.22100
H  24.22500 60.48000 42.80000
H  24.90500 55.96200 38.31500
H  22.34200 53.90300 40.97400
H  23.47300 52.65300 40.97300
H  22.34400 52.72200 39.60100

