158

Mg 2.08400 -2.00200 44.93300
C  5.30900 -1.22300 44.10200
C  0.96200 0.47900 42.72900
C  -1.00800 -3.22700 45.08700
C  3.38300 -5.17100 46.06000
N  3.02800 -0.62200 43.51100
C  4.36900 -0.43500 43.41200
C  4.77500 0.74700 42.56600
C  3.42400 1.40200 42.16800
C  2.38500 0.45100 42.85700
C  3.25700 2.84700 42.57800
C  5.70400 0.35800 41.27700
C  6.97700 1.15200 41.13200
H  7.54400 1.22500 39.65100
N  0.24700 -1.38300 44.16700
C  0.02300 -0.36800 43.30900
C  -1.34400 -0.20300 43.11600
C  -2.06400 -1.22100 43.82900
C  -0.94000 -1.97800 44.39600
C  -1.84300 0.82600 42.18200
C  -3.54600 -1.56100 43.87500
O  -4.27600 -0.89400 43.21800
C  -4.19300 -2.68400 44.69600
N  1.32100 -3.96600 45.26900
C  0.00600 -4.11400 45.45400
C  -0.34100 -5.50000 46.13700
C  1.03900 -6.13000 46.28700
C  2.04300 -5.00800 45.86700
C  -1.25400 -5.33900 47.36500
C  1.20200 -7.48100 45.54000
C  1.58000 -8.73900 46.25100
N  3.98200 -2.98000 45.38000
C  4.36700 -4.22400 45.84400
C  5.79700 -4.32400 45.90000
C  6.14400 -3.06700 45.35200
C  5.05800 -2.34700 45.00000
C  6.63400 -5.46600 46.49100
C  7.34700 -2.26000 44.98300
O  8.51900 -2.55600 45.23100
C  6.82700 -1.01600 44.22500
C  7.32500 0.22600 44.95200
O  6.97600 0.64000 46.04200
O  8.23900 0.87400 44.14800
C  8.59800 2.15600 44.63100
H  0.70200 1.39000 42.18400
H  -1.97500 -3.71300 45.23100
H  3.63300 -6.13600 46.50400
H  5.37700 1.33600 43.25900
H  3.32000 1.41800 41.08300
H  2.72500 2.92400 43.52600
H  2.78000 3.36700 41.74700
H  4.20700 3.37500 42.65700
H  5.25900 0.32100 40.28200
H  6.13800 -0.62600 41.45300
H  7.70600 0.66200 41.77800
H  6.77500 2.09400 41.64100
H  -1.80800 0.41600 41.17200
H  -1.28700 1.76000 42.25600
H  -2.87200 1.11400 42.39600
H  -3.80800 -3.64300 44.34800
H  -5.27600 -2.73800 44.58900
H  -3.93300 -2.55000 45.74500
H  -0.87500 -6.18800 45.48300
H  1.32600 -6.23400 47.33400
H  -0.64400 -5.70800 48.18900
H  -2.21200 -5.85700 47.31300
H  -1.39400 -4.28000 47.58200
H  2.12300 -7.39300 44.96400
H  0.43600 -7.52200 44.76600
H  1.84800 -8.65200 47.30400
H  2.48200 -9.16000 45.80800
H  0.88400 -9.54100 46.00300
H  7.52100 -5.29400 45.88200
H  6.20800 -6.42600 46.20000
H  6.69100 -5.36800 47.57500
H  7.22300 -1.04400 43.21000
H  9.17300 2.68600 43.87100
H  9.19000 2.07300 45.54200
H  7.67400 2.67700 44.87900
Mg 36.00800 49.67200 25.27800
C  36.27100 47.55300 28.06000
C  34.66200 51.96700 27.32900
C  35.00300 51.36900 22.59300
C  36.98300 46.93500 23.33700
N  35.42900 49.72700 27.41500
C  35.70500 48.78900 28.32700
C  35.34900 49.23500 29.76700
C  34.66900 50.59800 29.55900
C  34.94600 50.80000 28.03500
C  33.12500 50.66400 29.86300
C  36.60700 49.46400 30.72800
C  36.35700 49.15600 32.20200
H  34.90000 48.96900 32.68500
N  35.19300 51.58900 24.98700
C  34.71900 52.34600 25.99600
C  34.33600 53.60000 25.40100
C  34.32600 53.39600 23.95500
C  34.80700 52.06700 23.81000
C  33.92000 54.78100 26.21600
C  33.71100 54.24600 22.84200
O  33.50600 53.90100 21.67500
C  33.44400 55.72300 23.14300
N  35.84700 49.17000 23.27500
C  35.46500 50.06700 22.32500
C  35.83400 49.58500 20.91900
C  36.38500 48.19400 21.19600
C  36.45000 48.06500 22.66800
C  34.71600 49.74700 19.81800
C  37.72200 47.79100 20.30200
C  39.00600 48.46800 20.63800
N  36.48800 47.55900 25.58600
C  36.94200 46.62800 24.65800
C  37.35000 45.44500 25.33000
C  37.07500 45.72600 26.70000
C  36.56700 47.00900 26.76300
C  37.99500 44.25200 24.70700
C  37.09500 45.25500 28.08100
O  37.59400 44.16600 28.52400
C  36.64100 46.45800 28.98900
C  35.44000 45.88500 29.64500
O  34.32300 45.98500 29.21900
O  35.76700 45.22300 30.83000
C  34.69800 44.79900 31.75600
H  34.30600 52.76700 27.98200
H  34.95000 52.06500 21.75400
H  37.26200 46.09800 22.69200
H  34.66800 48.52600 30.24000
H  35.21300 51.37200 30.10000
H  32.50700 50.67500 28.96500
H  32.70400 51.52600 30.38000
H  32.89300 49.76300 30.43000
H  37.01400 50.47400 30.67100
H  37.45100 48.84200 30.43000
H  36.70300 50.00700 32.78900
H  36.96500 48.28100 32.43200
H  32.87300 55.06600 26.12000
H  34.44000 55.67100 25.86100
H  34.20400 54.69100 27.26500
H  32.48600 55.85800 23.64500
H  33.56900 56.19100 22.16700
H  34.24300 56.14800 23.75200
H  36.66900 50.15500 20.51100
H  35.71600 47.38200 20.91200
H  34.22900 50.67100 20.13100
H  34.04000 48.90100 19.69200
H  35.28700 50.01200 18.92800
H  37.61600 48.16200 19.28300
H  37.74700 46.70300 20.36500
H  39.82100 47.74800 20.70000
H  38.90500 48.83400 21.66000
H  39.18000 49.38600 20.07600
H  38.35500 43.60000 25.50200
H  38.86500 44.38500 24.06500
H  37.20000 43.68900 24.21700
H  37.40000 46.65000 29.74800
H  34.34400 43.81000 31.46600
H  33.86000 45.49500 31.77900
H  35.13900 44.73600 32.75100

