158

Mg 24.89200 -6.51500 47.94900
C  27.31700 -4.32400 46.81800
C  22.64600 -5.23600 45.60700
C  22.96500 -9.15200 48.69100
C  27.48700 -8.06300 50.12100
N  25.00800 -4.90200 46.52100
C  26.06900 -4.12400 46.17600
C  25.68700 -3.12800 45.09600
C  24.17800 -3.34900 44.85200
C  23.89500 -4.54600 45.76700
C  23.24400 -2.07700 45.05400
C  26.57900 -3.22400 43.78700
C  27.39800 -1.99400 43.31700
H  27.01500 -1.50100 41.89400
N  22.98600 -7.04600 47.24500
C  22.24800 -6.40400 46.35700
C  20.97600 -7.10000 46.29700
C  21.04500 -8.28600 47.10100
C  22.37200 -8.20200 47.73000
C  19.89500 -6.60000 45.36700
C  19.87700 -9.33300 47.29400
O  18.89200 -9.34200 46.57200
C  19.98600 -10.50500 48.31500
N  25.14700 -8.26500 49.27900
C  24.15600 -9.10900 49.41200
C  24.35000 -10.23300 50.44000
C  25.77800 -9.85600 50.94900
C  26.19500 -8.66700 50.06700
C  23.24500 -10.37400 51.49900
C  26.74000 -11.10500 50.95800
C  27.10000 -11.57400 52.36600
N  26.99000 -6.30100 48.45200
C  27.81700 -6.92100 49.35900
C  29.06800 -6.15900 49.36000
C  28.90900 -5.13600 48.41700
C  27.66500 -5.31700 47.80300
C  30.40200 -6.54800 50.18800
C  29.55500 -3.96100 47.86300
O  30.67000 -3.51300 48.07300
C  28.55700 -3.47900 46.77500
C  28.19100 -2.04700 47.18800
O  27.41600 -1.77200 48.06900
O  28.91700 -1.12700 46.38100
C  28.59300 0.28700 46.72300
H  22.02000 -4.91300 44.77300
H  22.34600 -10.01000 48.96400
H  28.24600 -8.36200 50.84700
H  25.74400 -2.17700 45.62600
H  23.96500 -3.70400 43.84400
H  23.25500 -1.54500 44.10300
H  23.70900 -1.44300 45.80900
H  22.23100 -2.26700 45.40800
H  25.85200 -3.34200 42.98400
H  27.07900 -4.19100 43.73100
H  28.46000 -2.24100 43.31100
H  27.24200 -1.15000 43.98900
H  19.93600 -5.51000 45.38800
H  18.91400 -6.91000 45.72600
H  20.16600 -6.93400 44.36600
H  20.67100 -11.19000 47.81500
H  18.95700 -10.86600 48.29800
H  20.27500 -10.11400 49.29100
H  24.34100 -11.16100 49.86900
H  25.51900 -9.42000 51.91400
H  23.66300 -10.30000 52.50200
H  22.70400 -11.32100 51.52200
H  22.48200 -9.60200 51.39200
H  27.60200 -10.88600 50.32900
H  26.18200 -11.90000 50.46400
H  26.80600 -10.97300 53.22600
H  28.18200 -11.55100 52.49300
H  26.84700 -12.62300 52.52000
H  30.26100 -6.14200 51.18900
H  31.26300 -6.24200 49.59300
H  30.45900 -7.63500 50.22700
H  28.95200 -3.42900 45.76000
H  28.84200 0.31600 47.78400
H  27.51200 0.40800 46.66000
H  29.00600 0.96300 45.97500
Mg 42.40700 42.04200 27.00300
C  41.57600 44.30100 29.64400
C  43.29300 39.71000 29.40600
C  43.88100 40.19900 24.58100
C  41.95200 44.74000 24.69000
N  42.35100 42.03600 29.29400
C  42.06100 43.07000 30.15300
C  42.21100 42.62800 31.65200
C  42.70800 41.21600 31.46700
C  42.84600 40.97300 29.96800
C  43.96200 40.71700 32.31600
C  40.96900 42.88800 32.59800
C  40.92000 42.06900 33.86700
H  40.92400 42.75800 35.24600
N  43.27900 40.18100 26.99600
C  43.48600 39.38800 28.06800
C  44.15000 38.22900 27.60100
C  44.41400 38.30800 26.21200
C  43.89700 39.61400 25.83200
C  44.49500 37.07500 28.42200
C  45.05200 37.38100 25.17800
O  44.97900 37.50800 23.96700
C  45.98200 36.24100 25.70600
N  42.98200 42.43000 24.98400
C  43.47300 41.44100 24.21100
C  43.65200 41.93600 22.78800
C  42.63900 43.18600 22.74900
C  42.53000 43.51900 24.26200
C  45.08800 42.35500 22.39100
C  41.34700 42.96400 21.94900
C  40.28900 42.04800 22.62900
N  41.78700 44.04000 27.08100
C  41.69300 45.02400 26.05500
C  41.30000 46.28000 26.66000
C  41.20300 46.01400 28.09900
C  41.54100 44.66600 28.23900
C  41.00600 47.55900 25.94900
C  40.94600 46.68400 29.39500
O  40.62600 47.83800 29.61900
C  41.17400 45.53800 30.47200
C  42.02900 46.13100 31.42900
O  43.17000 46.44000 31.15900
O  41.37000 46.52700 32.58800
C  41.95200 47.38200 33.62100
H  43.69700 38.94900 30.07700
H  44.20900 39.63800 23.70300
H  41.84100 45.60500 24.03400
H  42.93400 43.29600 32.12000
H  42.01000 40.51800 31.92900
H  44.10200 41.52500 33.03500
H  44.79500 40.58400 31.62600
H  43.79000 39.79300 32.86800
H  40.03300 42.63200 32.10200
H  41.06900 43.90500 32.97600
H  41.79500 41.42700 33.97300
H  40.03100 41.43900 33.90100
H  44.01400 37.01800 29.39900
H  45.55300 36.91100 28.63100
H  44.00700 36.22000 27.95400
H  46.59700 35.96000 24.85100
H  45.45000 35.31700 25.93200
H  46.70900 36.61200 26.42900
H  43.40400 41.26900 21.96200
H  43.16200 44.06600 22.37600
H  45.48700 41.85600 21.50800
H  45.76900 42.26700 23.23700
H  45.10100 43.38100 22.02300
H  41.57900 42.65400 20.93000
H  40.81800 43.91200 21.85000
H  40.89100 41.55000 23.38900
H  39.70800 41.38200 21.99200
H  39.58700 42.73900 23.09600
H  41.76100 47.89100 25.23500
H  40.86200 48.42500 26.59500
H  40.00500 47.47500 25.52600
H  40.20200 45.34400 30.92600
H  42.45800 46.63800 34.23700
H  41.11500 47.72400 34.23000
H  42.60900 48.01700 33.02600

