158

Mg 0.52400 7.50400 26.93800
C  1.52000 9.40700 29.60900
C  0.62100 4.70300 28.77400
C  0.32400 5.87800 24.07600
C  0.74000 10.59300 24.94800
N  1.01700 7.19100 28.94400
C  1.15900 8.11200 29.93400
C  0.90500 7.45400 31.31000
C  0.87000 5.93700 31.03500
C  0.84200 5.95200 29.47600
C  2.10900 5.04900 31.51800
C  -0.31800 8.09800 32.08200
C  -0.09100 8.32800 33.64200
H  0.93400 7.52300 34.34000
N  0.47300 5.45000 26.45300
C  0.44000 4.44700 27.42600
C  0.14600 3.26400 26.66500
C  0.01000 3.59200 25.27700
C  0.21200 5.06100 25.23900
C  -0.11700 1.94900 27.35000
C  -0.27100 2.72200 24.07900
O  -0.48800 3.13400 22.92500
C  -0.34200 1.30900 24.36500
N  0.55300 8.19500 24.76300
C  0.54200 7.26200 23.79200
C  0.68700 7.90300 22.43900
C  0.34400 9.39900 22.72400
C  0.60100 9.44300 24.24800
C  2.00000 7.59700 21.58200
C  -1.15400 9.81700 22.35100
C  -1.39500 10.41300 20.96500
N  0.90700 9.57000 27.11000
C  0.99200 10.72000 26.26900
C  1.51600 11.85100 26.97800
C  1.68300 11.45400 28.28800
C  1.40500 9.98400 28.28800
C  1.76100 13.21100 26.35300
C  2.08600 11.82400 29.59900
O  2.44900 12.87900 30.01400
C  1.65000 10.60600 30.50500
C  2.74000 10.53100 31.53500
O  3.81000 9.94100 31.41200
O  2.32400 11.15300 32.64200
C  3.34000 11.02800 33.73000
H  0.62900 3.80000 29.38800
H  0.37900 5.29500 23.15400
H  0.78300 11.49700 24.33700
H  1.83500 7.58800 31.86200
H  -0.07000 5.47900 31.34400
H  2.71900 5.35000 32.37000
H  2.77200 4.98800 30.65400
H  1.61100 4.15900 31.90200
H  -1.24000 7.55500 31.87300
H  -0.38300 9.10200 31.66300
H  -1.07900 8.43100 34.09000
H  0.29500 9.34400 33.73100
H  -0.17300 2.00100 28.43700
H  0.73400 1.29500 27.16500
H  -1.05400 1.51900 26.99500
H  -1.32100 1.11800 24.80500
H  0.56900 1.08000 24.91700
H  -0.17800 0.81500 23.40800
H  -0.17300 7.52000 21.89000
H  1.11000 10.03500 22.28000
H  2.88600 7.42900 22.19400
H  2.32700 8.47200 21.02100
H  1.86900 6.73300 20.93000
H  -1.66300 10.41600 23.10700
H  -1.69900 8.87900 22.44800
H  -0.58900 10.23800 20.25200
H  -1.57200 11.47300 21.14700
H  -2.30200 10.03400 20.49300
H  2.54000 13.72700 26.91400
H  0.80500 13.73200 26.39000
H  2.03500 13.05000 25.31000
H  0.71100 10.84000 31.00700
H  4.30700 11.49400 33.53700
H  3.44300 9.96800 33.96000
H  2.99800 11.58800 34.60100
Mg 17.42100 51.88700 25.75700
C  19.06300 50.55000 28.48300
C  15.10300 53.11300 27.85600
C  15.75700 52.72400 23.11300
C  19.93500 50.40400 23.66900
N  17.06200 51.66400 27.90800
C  17.92100 51.21000 28.86600
C  17.40400 51.45900 30.29700
C  16.04100 52.20000 30.07600
C  16.09900 52.41100 28.50400
C  14.69900 51.46200 30.47800
C  18.36600 52.12100 31.39300
C  18.72000 51.37100 32.70300
H  17.82400 51.83100 33.85500
N  15.70600 52.91000 25.46300
C  14.94500 53.35500 26.46000
C  13.77400 54.09100 25.87300
C  13.93400 54.01100 24.47300
C  15.19700 53.25000 24.28900
C  12.77700 54.79300 26.79500
C  13.18800 54.57000 23.29800
O  13.59600 54.45600 22.17900
C  11.83600 55.25300 23.47900
N  17.75800 51.48800 23.65100
C  16.89200 52.07900 22.78100
C  17.33300 51.85200 21.27100
C  18.71300 51.06900 21.52000
C  18.82100 50.98300 23.01500
C  16.34800 50.93600 20.55800
C  19.98900 51.64500 20.80700
C  20.77100 52.91100 21.31300
N  19.18100 50.67600 25.96400
C  20.11200 50.19600 25.02300
C  21.10100 49.45800 25.71300
C  20.79200 49.54000 27.11100
C  19.56500 50.29500 27.15100
C  22.34900 48.76900 25.19100
C  21.21900 49.23300 28.40900
O  22.22600 48.59000 28.75000
C  20.09800 49.85700 29.37400
C  19.42700 48.69600 30.07100
O  18.53300 48.02900 29.66700
O  20.12900 48.45400 31.23800
C  19.49200 47.46300 32.16500
H  14.30300 53.56000 28.44900
H  15.38400 53.01300 22.12800
H  20.76500 50.02400 23.06900
H  17.16700 50.50900 30.77500
H  16.06100 53.24700 30.38100
H  14.08300 52.20500 30.98400
H  14.86800 50.56700 31.07600
H  14.27600 51.17200 29.51600
H  17.88500 53.06400 31.65100
H  19.39200 52.27800 31.06000
H  19.73500 51.48800 33.08300
H  18.46500 50.32800 32.51900
H  12.51800 55.70500 26.25700
H  13.19300 55.14400 27.73900
H  11.88200 54.20300 26.99200
H  11.08600 54.81500 22.81900
H  12.00200 56.29100 23.18800
H  11.45300 55.09800 24.48700
H  17.55600 52.82300 20.82900
H  18.56000 50.06300 21.13000
H  15.40400 50.96800 21.10100
H  16.69700 49.90300 20.53300
H  16.17700 51.19700 19.51400
H  19.73100 51.80600 19.76000
H  20.61500 50.75600 20.87400
H  20.74300 53.69900 20.56000
H  21.79600 52.54900 21.39500
H  20.40700 53.25400 22.28200
H  22.23700 47.72500 25.48300
H  23.21500 49.25800 25.63700
H  22.38700 48.80500 24.10200
H  20.52700 50.52700 30.11900
H  19.67800 46.49400 31.70200
H  18.41800 47.61100 32.27600
H  19.95600 47.42200 33.15000

