158

Mg 24.60300 -6.97500 48.27500
C  27.18000 -4.60700 47.27700
C  22.71600 -5.64100 45.64100
C  22.62800 -9.62000 48.49300
C  26.88900 -8.29900 50.51900
N  24.91800 -5.34100 46.57800
C  25.98500 -4.44500 46.54000
C  25.77400 -3.37900 45.46300
C  24.19900 -3.58400 45.12800
C  23.91100 -4.94100 45.83000
C  23.24900 -2.47300 45.60000
C  26.64700 -3.52700 44.26300
C  27.25400 -2.33900 43.49400
H  26.94400 -1.89700 42.12300
N  22.77100 -7.54600 47.22300
C  22.21300 -6.89000 46.17900
C  21.05000 -7.62100 45.71800
C  21.03500 -8.86000 46.50300
C  22.18700 -8.74300 47.45000
C  20.05400 -7.26900 44.70700
C  19.90900 -9.91000 46.45900
O  18.94900 -9.74400 45.71300
C  19.84200 -11.15400 47.29500
N  24.65600 -8.72100 49.39200
C  23.68600 -9.63200 49.40800
C  23.96900 -10.79700 50.40300
C  25.32900 -10.39200 51.02200
C  25.66000 -9.01000 50.31000
C  22.82000 -10.97500 51.46100
C  26.45200 -11.52500 50.68100
C  27.33400 -12.22300 51.80600
N  26.58600 -6.59000 48.84800
C  27.38100 -7.21400 49.83100
C  28.61000 -6.52400 50.02300
C  28.63800 -5.55800 48.98300
C  27.35900 -5.60100 48.27700
C  29.64400 -6.90800 50.98300
C  29.40000 -4.51700 48.32500
O  30.50400 -4.08200 48.57500
C  28.42900 -3.81600 47.28300
C  28.21000 -2.37900 47.70300
O  27.89300 -2.01800 48.85900
O  28.39000 -1.59700 46.61500
C  28.30400 -0.07700 46.82500
H  21.96600 -5.28900 44.93000
H  22.02100 -10.52700 48.54500
H  27.54800 -8.68300 51.30100
H  25.91500 -2.39300 45.90600
H  24.02800 -3.70000 44.05800
H  22.29100 -2.76300 45.16900
H  23.54000 -1.50500 45.19200
H  23.17800 -2.39800 46.68500
H  26.03500 -3.97600 43.48200
H  27.37400 -4.27200 44.58800
H  28.34100 -2.40400 43.54600
H  26.92200 -1.51900 44.13000
H  20.53400 -6.66800 43.93500
H  19.22500 -6.66900 45.08500
H  19.62100 -8.10700 44.16200
H  19.29000 -11.05100 48.22900
H  20.85800 -11.54100 47.38500
H  19.38800 -12.02000 46.81300
H  24.10200 -11.75600 49.90300
H  25.20200 -10.19000 52.08500
H  22.03000 -10.30700 51.11900
H  23.11000 -10.59400 52.44000
H  22.40400 -11.98200 51.50800
H  27.22100 -10.99300 50.12200
H  25.99400 -12.31300 50.08200
H  27.14600 -11.79400 52.79000
H  28.39500 -12.06500 51.61600
H  27.01600 -13.26400 51.87600
H  29.80300 -7.98100 50.88500
H  29.51400 -6.72100 52.04900
H  30.64500 -6.73900 50.58500
H  28.82500 -3.82800 46.26700
H  29.24500 0.16900 47.31700
H  27.45600 0.25200 47.42600
H  28.15600 0.43400 45.87400
Mg 0.03400 43.86900 25.90600
C  2.00100 43.21100 28.74900
C  -2.65100 42.27700 27.53900
C  -1.64600 43.81000 23.07300
C  2.97500 44.66200 24.18500
N  -0.23300 42.79100 27.83600
C  0.64900 42.87500 28.89500
C  0.00200 42.61600 30.26700
C  -1.40400 42.06800 29.85800
C  -1.44200 42.36000 28.30200
C  -1.80200 40.67100 30.25700
C  0.02700 43.87200 31.25700
C  0.34300 43.61000 32.74600
H  0.07400 42.22100 33.50300
N  -1.88800 43.21200 25.35300
C  -2.83400 42.57100 26.17600
C  -4.08900 42.35500 25.38900
C  -3.78100 42.83000 24.07100
C  -2.35200 43.32300 24.10800
C  -5.34000 41.68300 25.97300
C  -4.61600 42.94500 22.84200
O  -4.31000 43.44700 21.79100
C  -5.99100 42.37100 22.94700
N  0.62000 44.24700 23.89900
C  -0.33000 44.32900 22.94800
C  0.17500 44.87500 21.66900
C  1.66100 44.99400 21.93900
C  1.76500 44.61600 23.42500
C  -0.02800 43.92100 20.48000
C  2.20200 46.34200 21.46800
C  2.16200 47.43700 22.59000
N  2.02700 44.12000 26.32800
C  3.16700 44.41700 25.52500
C  4.38600 44.56600 26.32700
C  3.92200 44.08400 27.58500
C  2.58300 43.78400 27.59000
C  5.72000 45.08600 25.96000
C  4.31300 43.75100 28.94300
O  5.41200 43.78300 29.33600
C  3.11500 43.22900 29.74500
C  3.46700 41.88600 30.27700
O  3.49100 40.85600 29.56100
O  3.65200 41.92400 31.66100
C  4.09900 40.63700 32.32900
H  -3.55700 41.89500 28.01500
H  -2.16800 43.83500 22.11500
H  3.76900 45.13300 23.60100
H  0.58700 41.75900 30.60200
H  -2.08700 42.80500 30.28200
H  -2.48200 40.09900 29.62500
H  -2.21400 40.78900 31.25900
H  -0.87900 40.10300 30.37400
H  -0.89700 44.43900 31.14000
H  0.75300 44.53400 30.78400
H  -0.39000 44.26200 33.22200
H  1.37000 43.87800 32.99200
H  -6.15500 42.37500 25.76000
H  -5.30300 41.44900 27.03700
H  -5.40200 40.74700 25.41800
H  -5.83900 41.30800 23.13500
H  -6.49400 42.52100 21.99200
H  -6.58000 42.87300 23.71500
H  -0.43000 45.74700 21.42100
H  2.17500 44.16300 21.45700
H  -0.32400 44.46600 19.58400
H  -0.87700 43.23800 20.48100
H  0.87100 43.45100 20.08100
H  1.70300 46.72000 20.57600
H  3.18200 46.18400 21.01800
H  3.13900 47.88900 22.76100
H  1.71200 47.09400 23.52200
H  1.40200 48.17400 22.33000
H  6.30000 45.30600 26.85600
H  5.64800 46.06800 25.49300
H  6.36100 44.44200 25.35700
H  2.90900 43.87900 30.59500
H  4.06700 39.85600 31.56900
H  3.41800 40.40000 33.14600
H  5.12800 40.87300 32.60100

