158

Mg 26.36900 50.66100 26.51600
C  24.00300 51.55000 28.95900
C  28.56500 50.01900 29.06300
C  28.57600 49.68600 24.12100
C  24.25400 51.75400 24.06100
N  26.20500 50.68300 28.71800
C  25.22400 51.04800 29.48500
C  25.35100 50.70800 30.91400
C  26.85500 50.38700 30.97700
C  27.25600 50.42400 29.49800
C  27.65400 51.45400 31.76500
C  24.39700 49.57500 31.50700
C  23.87800 49.71000 32.89900
H  24.54100 50.73300 33.79700
N  28.36600 49.96500 26.54700
C  29.04000 49.69400 27.71500
C  30.31200 49.06400 27.32000
C  30.29200 48.91200 25.96100
C  29.04900 49.52100 25.44300
C  31.33800 48.58600 28.35500
C  31.38300 48.29900 25.11100
O  31.29500 48.31700 23.87500
C  32.66600 47.80800 25.75700
N  26.35500 50.76200 24.44200
C  27.33300 50.14200 23.70200
C  26.97300 49.97000 22.24600
C  25.48200 50.63400 22.10900
C  25.27100 51.01000 23.64600
C  27.92000 50.57100 21.21500
C  24.43900 49.59400 21.67300
C  23.35800 50.21200 20.81300
N  24.52600 51.55100 26.44400
C  23.81200 51.98700 25.39300
C  22.50500 52.56400 25.83700
C  22.56900 52.39100 27.27200
C  23.84800 51.76900 27.56800
C  21.41300 52.86100 25.03500
C  21.80700 52.64000 28.47000
O  20.71500 53.14700 28.69200
C  22.76900 52.17200 29.57700
C  23.11000 53.39700 30.43400
O  23.87400 54.27500 30.19200
O  22.49900 53.21500 31.59000
C  22.28000 54.39000 32.46400
H  29.23500 49.58000 29.80500
H  29.14600 49.20800 23.32200
H  23.62100 52.03400 23.21600
H  25.14900 51.64400 31.43400
H  26.96400 49.35100 31.29900
H  28.23100 52.11400 31.11700
H  28.33500 51.00400 32.48800
H  27.07100 52.02000 32.49200
H  24.82700 48.57500 31.45600
H  23.53800 49.48500 30.84100
H  23.93500 48.74300 33.39900
H  22.81700 49.94900 32.83300
H  31.25000 47.50400 28.25400
H  31.11500 48.79100 29.40200
H  32.24600 49.14100 28.12200
H  33.37100 47.36000 25.05700
H  32.46400 47.05500 26.51900
H  33.10400 48.71600 26.17100
H  26.83600 48.92600 21.96300
H  25.46700 51.47600 21.41700
H  28.85300 50.93700 21.64200
H  27.61400 51.43100 20.62000
H  28.17300 49.77900 20.51000
H  23.98900 49.06100 22.51000
H  24.91500 48.77400 21.13400
H  22.32400 49.91000 20.97900
H  23.61800 49.99800 19.77600
H  23.37500 51.29900 20.89800
H  20.60700 52.13500 25.14500
H  21.68900 52.83400 23.98100
H  21.09800 53.86300 25.32500
H  22.30100 51.37300 30.15300
H  22.61100 55.23300 31.85800
H  22.83800 54.40000 33.40100
H  21.22300 54.53600 32.68700
Mg -5.08800 25.10700 26.18300
C  -3.37900 26.57300 28.83900
C  -6.53700 22.98800 28.54000
C  -6.60700 23.47100 23.60200
C  -3.03900 26.80100 23.86000
N  -4.93800 24.86600 28.37900
C  -4.30900 25.64700 29.26000
C  -4.74100 25.42100 30.70600
C  -5.39200 24.07000 30.65100
C  -5.66000 24.02200 29.10300
C  -4.51600 22.85700 31.24100
C  -5.64800 26.58300 31.33400
C  -5.55500 26.81800 32.83600
H  -4.72300 25.85900 33.73000
N  -6.38500 23.43100 26.07400
C  -6.89700 22.74000 27.16000
C  -7.70500 21.60900 26.62500
C  -7.77300 21.78200 25.18900
C  -6.83600 22.89300 24.87100
C  -8.54700 20.57900 27.50400
C  -8.49400 21.00800 24.07700
O  -8.22800 21.05100 22.89400
C  -9.55900 19.95600 24.35700
N  -5.06500 25.30900 24.00000
C  -5.71200 24.49200 23.15400
C  -5.69500 24.95200 21.74300
C  -4.38700 25.84100 21.78700
C  -4.06800 25.97600 23.28800
C  -5.64700 23.76900 20.76300
C  -4.41300 27.23800 21.11600
C  -3.34900 27.66100 20.06100
N  -3.65500 26.47900 26.35900
C  -2.92500 27.12400 25.29100
C  -2.06000 28.08700 25.91700
C  -2.17000 27.86000 27.30600
C  -3.19000 26.86700 27.54200
C  -1.12000 29.03800 25.29900
C  -1.52500 28.22000 28.54600
O  -0.65400 28.96900 28.86400
C  -2.45400 27.50100 29.63300
C  -1.59100 26.73600 30.57400
O  -0.82200 25.87100 30.25500
O  -1.66300 27.30300 31.80900
C  -0.80400 26.70200 32.84100
H  -7.04900 22.25200 29.16300
H  -7.27400 23.07800 22.83100
H  -2.32600 27.33100 23.22600
H  -3.80200 25.39800 31.25900
H  -6.42700 24.00800 30.98800
H  -5.19100 22.41000 31.97000
H  -3.61000 23.06300 31.81000
H  -4.28200 22.22100 30.38700
H  -6.70700 26.33400 31.26300
H  -5.38000 27.52700 30.85900
H  -6.53400 26.90100 33.30900
H  -5.06000 27.77700 32.98500
H  -8.36700 20.58000 28.57900
H  -8.37600 19.53800 27.23100
H  -9.61500 20.72100 27.34200
H  -10.02500 19.78100 23.38700
H  -10.25800 20.51400 24.98000
H  -9.26700 18.97100 24.72200
H  -6.66200 25.44100 21.62200
H  -3.57600 25.25700 21.35300
H  -5.87700 22.78300 21.16600
H  -4.64900 23.66100 20.33800
H  -6.16400 23.98300 19.82800
H  -4.64600 27.98400 21.87600
H  -5.41300 27.32700 20.69300
H  -2.58400 26.91700 19.83500
H  -2.87900 28.57600 20.42000
H  -3.96400 27.85100 19.18100
H  -0.22500 28.45800 25.07500
H  -1.12800 29.90100 25.96500
H  -1.51600 29.45000 24.37000
H  -3.10600 28.13700 30.23200
H  -1.12200 26.82100 33.87700
H  0.11400 27.24200 32.60800
H  -0.57900 25.65100 32.65900

