158

Mg 9.13500 2.97500 28.09200
C  10.26900 1.54800 31.09000
C  7.82600 5.43600 30.02500
C  7.41100 3.79800 25.48600
C  10.17900 0.03000 26.41000
N  8.81700 3.26200 30.31700
C  9.49900 2.64700 31.36400
C  9.46100 3.44700 32.69800
C  8.44200 4.58900 32.31600
C  8.39400 4.40800 30.76700
C  7.01200 4.43900 32.96200
C  10.81800 4.00200 33.16500
C  10.75100 4.69600 34.59300
H  11.50200 3.97700 35.80100
N  7.97600 4.51500 27.72800
C  7.53400 5.46500 28.60100
C  6.83200 6.53300 27.85800
C  6.64900 6.01300 26.56800
C  7.34100 4.70800 26.54700
C  6.50000 7.86100 28.50400
C  5.89000 6.68200 25.39300
O  5.86400 6.18600 24.29000
C  5.26800 8.13300 25.58400
N  8.97300 2.11200 26.10800
C  7.98200 2.60700 25.25300
C  7.76300 1.65800 24.01500
C  8.99300 0.74900 24.14500
C  9.36900 0.96600 25.59600
C  6.37500 0.95100 24.17100
C  10.19400 1.05400 23.23900
C  10.33200 0.16300 21.95600
N  10.18600 1.25800 28.56200
C  10.56000 0.17900 27.77800
C  11.24400 -0.69200 28.60600
C  11.25200 -0.19100 29.87400
C  10.56500 1.00700 29.81900
C  11.95900 -1.90900 28.21600
C  11.70500 -0.48700 31.19700
O  12.27700 -1.46400 31.67100
C  11.14500 0.73900 32.03200
C  10.36900 0.17900 33.16300
O  9.47900 -0.69400 33.09300
O  10.74900 0.77200 34.33400
C  10.01900 0.38100 35.55400
H  7.27500 6.17800 30.60700
H  6.68200 4.09800 24.73000
H  10.39400 -0.85100 25.80100
H  9.06600 2.77300 33.45700
H  8.86000 5.55000 32.61500
H  6.74600 5.29500 33.58200
H  6.99900 3.58300 33.63700
H  6.28200 4.23200 32.18000
H  11.13800 4.76600 32.45700
H  11.61900 3.26300 33.17400
H  9.72300 4.93300 34.86500
H  11.10500 5.72700 34.59800
H  5.41700 7.90500 28.61100
H  6.82800 8.64000 27.81500
H  7.09700 7.97200 29.41000
H  4.69700 8.32500 24.67500
H  6.06700 8.87400 25.58400
H  4.66500 8.16800 26.49100
H  7.78200 2.25800 23.10600
H  8.70300 -0.28200 23.94100
H  5.96100 1.04500 23.16700
H  5.65500 1.51800 24.76200
H  6.48200 -0.12000 24.34000
H  11.14300 0.96400 23.76900
H  10.05000 2.03400 22.78500
H  10.30200 0.78800 21.06300
H  9.56800 -0.60900 21.86400
H  11.28900 -0.35800 21.93300
H  13.02700 -1.84300 28.42200
H  11.82000 -2.15200 27.16200
H  11.41500 -2.69200 28.74400
H  11.97600 1.28500 32.47800
H  9.61700 1.17500 36.18300
H  10.83300 -0.01100 36.16300
H  9.39100 -0.50600 35.46600
Mg -9.48400 40.65600 43.62400
C  -8.04700 37.49400 42.90200
C  -6.94000 42.19300 41.86100
C  -11.17300 43.49800 43.77700
C  -12.23700 38.85500 45.03400
N  -7.88400 39.92100 42.28300
C  -7.44800 38.58300 42.19200
C  -6.31600 38.55300 41.25000
C  -5.62100 39.96200 41.58100
C  -6.91300 40.77400 41.95400
C  -4.55600 39.98000 42.64000
C  -6.71900 38.38400 39.76200
C  -6.32400 37.04300 39.16000
H  -5.24500 37.09400 38.12400
N  -9.14100 42.50300 42.81900
C  -8.02400 42.97000 42.18700
C  -8.12500 44.39800 41.93400
C  -9.37000 44.83500 42.41600
C  -9.94400 43.63400 43.07800
C  -7.14200 45.24300 41.22400
C  -9.85600 46.37400 42.38100
O  -9.24500 47.26200 41.81800
C  -11.23200 46.68100 42.92600
N  -11.37200 41.10900 44.26600
C  -11.78900 42.34300 44.30600
C  -13.10900 42.47400 45.13200
C  -13.52700 40.99400 45.42900
C  -12.31400 40.24900 44.87700
C  -12.92600 43.43200 46.33900
C  -14.77400 40.50700 44.64900
C  -15.82600 39.64400 45.37200
N  -10.00800 38.62100 44.07900
C  -11.06500 38.04400 44.73500
C  -10.96200 36.63900 44.68400
C  -9.69400 36.36500 44.19800
C  -9.23500 37.59900 43.66100
C  -12.02200 35.71400 45.14800
C  -8.80000 35.31700 43.84100
O  -8.84900 34.05600 43.99300
C  -7.70300 36.03000 42.87200
C  -6.27700 35.77400 43.35300
O  -5.66500 36.36000 44.23500
O  -5.72200 34.82400 42.56800
C  -4.31500 34.50200 42.68900
H  -6.01300 42.67900 41.55000
H  -11.69700 44.45600 43.80600
H  -13.02200 38.27900 45.52900
H  -5.62000 37.75500 41.50600
H  -5.10400 40.42500 40.74100
H  -4.76400 40.83400 43.28500
H  -3.56600 40.10400 42.20400
H  -4.52800 39.15800 43.35600
H  -6.33000 39.18700 39.13600
H  -7.80900 38.37300 39.75400
H  -7.24200 36.77500 38.63600
H  -6.07700 36.29300 39.91200
H  -6.35600 44.67300 40.72800
H  -6.74100 45.95200 41.94800
H  -7.65600 45.78100 40.42700
H  -11.39500 46.61400 44.00100
H  -12.00500 46.12700 42.39300
H  -11.36300 47.71700 42.61200
H  -13.88300 42.90400 44.49700
H  -13.57000 40.91600 46.51600
H  -13.57100 44.29700 46.18200
H  -11.88900 43.76000 46.41100
H  -13.23000 43.02500 47.30300
H  -14.52200 39.88400 43.79100
H  -15.34400 41.30900 44.17800
H  -16.15000 38.83700 44.71500
H  -16.67500 40.28600 45.60700
H  -15.44800 39.13700 46.25900
H  -12.88000 35.85500 44.49100
H  -12.27500 35.86000 46.19800
H  -11.67400 34.68800 45.02300
H  -7.85100 35.64400 41.86300
H  -4.11000 33.73500 41.94200
H  -4.07800 34.10000 43.67400
H  -3.61900 35.33500 42.59300

