158

Mg 26.81100 50.13200 26.45600
C  24.72500 51.11900 29.05900
C  29.06600 48.92600 28.49600
C  28.90700 49.73200 23.74900
C  24.30100 51.46400 24.34000
N  26.78300 49.98500 28.51300
C  25.85500 50.34900 29.43900
C  26.24800 49.87600 30.82500
C  27.78100 49.61600 30.63600
C  27.99400 49.51200 29.14800
C  28.75100 50.46800 31.50600
C  25.43900 48.66100 31.36800
C  24.79500 48.85600 32.75000
H  25.49100 49.68600 33.92000
N  28.66300 49.30200 26.11400
C  29.43800 48.84200 27.12700
C  30.70600 48.31400 26.57900
C  30.69500 48.53900 25.18200
C  29.40500 49.23200 24.95900
C  31.70900 47.69800 27.55200
C  31.72300 48.19400 24.13400
O  31.46500 48.43000 22.96400
C  33.04200 47.57100 24.48400
N  26.71900 50.70900 24.38700
C  27.62400 50.30100 23.48700
C  27.15100 50.56700 22.10800
C  25.63100 50.81900 22.29500
C  25.48700 50.95500 23.76300
C  27.93200 51.75100 21.48900
C  24.64500 49.68900 21.71100
C  23.38900 50.21900 20.91700
N  24.99300 51.32500 26.62500
C  24.12000 51.75400 25.71100
C  22.95700 52.40000 26.32600
C  23.11200 52.14000 27.67700
C  24.40100 51.54000 27.77800
C  21.83300 53.02100 25.66100
C  22.52700 52.21000 28.98600
O  21.46500 52.70900 29.33200
C  23.53600 51.59200 29.99900
C  23.88200 52.62400 31.05900
O  24.97000 53.18700 31.18300
O  22.82800 52.72400 31.93200
C  23.21300 53.43400 33.15000
H  29.73200 48.48900 29.24300
H  29.46400 49.56100 22.82600
H  23.39200 51.70300 23.78500
H  26.09900 50.66700 31.55900
H  28.02000 48.62200 31.01200
H  29.18900 49.92100 32.34100
H  28.20300 51.32500 31.89800
H  29.57800 50.71400 30.84000
H  26.20200 47.91700 31.59700
H  24.74400 48.47300 30.55000
H  24.74900 47.82600 33.10400
H  23.76200 49.19600 32.66900
H  31.62800 48.03300 28.58600
H  32.74600 47.83200 27.24200
H  31.56300 46.61900 27.60500
H  33.57200 48.25000 25.15100
H  33.50100 47.35400 23.52000
H  32.65400 46.72400 25.05100
H  27.29400 49.65000 21.53500
H  25.34000 51.75600 21.82200
H  28.72100 52.02800 22.18800
H  27.26900 52.58000 21.24200
H  28.38800 51.32800 20.59400
H  24.29700 49.16200 22.60000
H  25.15300 48.96000 21.07900
H  22.70900 49.39300 21.12800
H  23.50100 50.40200 19.84900
H  22.95500 51.17200 21.22100
H  21.36200 52.45100 24.86000
H  22.17000 54.00100 25.32300
H  21.01100 53.20600 26.35300
H  22.92900 50.76500 30.36800
H  23.38000 54.48600 32.92000
H  24.08600 53.01100 33.64600
H  22.46500 53.32100 33.93600
Mg -13.20400 16.09100 42.74500
C  -10.36400 14.20100 41.94700
C  -11.85200 18.65100 40.77600
C  -16.23200 17.61400 42.47900
C  -14.81300 13.04800 43.51800
N  -11.34000 16.36500 41.38000
C  -10.33100 15.46000 41.32300
C  -9.13100 16.04900 40.46200
C  -9.58300 17.55400 40.21200
C  -10.99700 17.53800 40.81800
C  -8.62200 18.60100 40.83300
C  -8.70300 15.30100 39.18600
C  -7.23000 15.03500 38.95200
H  -6.45100 15.85000 37.87800
N  -13.87600 17.96600 41.93600
C  -13.13000 18.87900 41.31200
C  -13.87400 20.12500 41.25100
C  -15.15100 19.83300 41.80500
C  -15.18000 18.41000 42.02500
C  -13.22600 21.39400 40.74300
C  -16.20600 20.82100 42.14200
O  -16.18700 22.02600 41.68900
C  -17.41200 20.56400 42.88900
N  -15.22900 15.38300 42.97300
C  -16.26300 16.31400 43.00100
C  -17.62700 15.59700 43.40100
C  -17.16100 14.19200 43.74400
C  -15.64300 14.15600 43.41600
C  -18.63000 16.35800 44.28300
C  -17.98000 12.96000 43.12300
C  -19.47800 13.09700 42.75800
N  -12.61900 14.07000 42.94800
C  -13.40200 12.95100 43.31900
C  -12.48900 11.84400 43.47300
C  -11.26100 12.29800 43.08400
C  -11.45800 13.59700 42.54900
C  -12.90900 10.44000 43.75100
C  -9.85800 11.96700 42.87300
O  -9.17400 10.97200 43.08300
C  -9.21600 13.22000 42.09700
C  -8.03000 13.75900 42.82700
O  -8.04200 14.54200 43.72500
O  -6.87400 13.17200 42.34900
C  -5.63800 13.70600 43.01300
H  -11.27900 19.46900 40.33400
H  -17.23200 18.05000 42.43900
H  -15.22300 12.12700 43.93700
H  -8.31400 15.92700 41.17300
H  -9.70400 17.84200 39.16800
H  -9.02400 19.02500 41.75300
H  -8.62700 19.39200 40.08300
H  -7.62700 18.18900 40.99900
H  -8.97200 15.96600 38.36600
H  -9.27900 14.37800 39.13000
H  -7.15200 13.97500 38.70900
H  -6.76400 15.20800 39.92200
H  -13.50700 21.55300 39.70200
H  -12.14000 21.32900 40.80900
H  -13.48000 22.20500 41.42600
H  -17.86300 21.43500 43.36500
H  -17.33500 19.84200 43.70100
H  -18.14000 20.21700 42.15500
H  -18.07900 15.54500 42.41000
H  -17.16900 14.15700 44.83300
H  -18.97000 15.76500 45.13100
H  -19.52100 16.50100 43.67200
H  -18.27600 17.32200 44.64900
H  -18.03900 12.15600 43.85600
H  -17.45400 12.61500 42.23300
H  -20.03700 12.20900 43.05500
H  -19.64600 13.31600 41.70300
H  -19.83200 13.97300 43.30200
H  -13.43100 10.40000 44.70700
H  -12.14000 9.68500 43.91400
H  -13.52400 10.09200 42.92200
H  -8.80800 12.97200 41.11700
H  -4.94700 14.13600 42.28800
H  -5.23100 12.90900 43.63500
H  -5.80300 14.60600 43.60500

