158

Mg 40.42400 9.74400 29.61700
C  42.18800 11.06700 32.40600
C  38.21000 8.40100 31.90400
C  38.91700 8.26500 27.01600
C  43.24400 10.38200 27.66600
N  40.25600 9.64200 31.89200
C  40.97500 10.45000 32.80700
C  40.32500 10.55900 34.13600
C  39.24000 9.42400 34.04300
C  39.20000 9.11800 32.48700
C  39.42800 8.19700 34.96100
C  39.84800 11.91400 34.74400
C  39.22000 11.89800 36.16100
H  40.03600 12.44100 37.40400
N  38.68900 8.64800 29.48100
C  37.93400 8.17300 30.53600
C  36.87800 7.29200 30.06000
C  36.99800 7.37500 28.56700
C  38.23600 8.11700 28.26000
C  35.96600 6.46400 30.96000
C  36.12500 6.74300 27.41400
O  36.31000 6.95900 26.17200
C  34.95900 5.88300 27.81800
N  41.10000 9.30100 27.68900
C  40.22100 8.74500 26.78700
C  40.73800 8.97400 25.34000
C  42.22700 9.40200 25.52500
C  42.20900 9.73300 27.01500
C  40.60800 7.74700 24.36600
C  42.73200 10.53200 24.55900
C  42.60700 12.03200 24.96300
N  42.32700 10.63200 29.85400
C  43.36400 10.85300 28.97400
C  44.39800 11.61500 29.59500
C  43.90800 11.83200 30.89200
C  42.73200 11.01100 31.10500
C  45.54900 12.08800 28.87600
C  44.23400 12.47600 32.18000
O  45.19900 13.13200 32.42300
C  43.15000 11.96000 33.16100
C  43.80700 11.37700 34.37300
O  44.51400 10.35500 34.34700
O  43.40500 12.08500 35.44800
C  43.86600 11.60100 36.76300
H  37.49600 8.00400 32.63000
H  38.33900 7.96900 26.13700
H  43.99700 10.69500 26.93900
H  41.14200 10.16100 34.73700
H  38.28600 9.89400 34.28300
H  40.47700 8.16900 35.25500
H  39.31000 7.25200 34.43200
H  38.75100 8.26500 35.81300
H  38.98700 12.24700 34.16600
H  40.58500 12.71600 34.79700
H  38.90800 10.88000 36.39400
H  38.33700 12.53300 36.23500
H  36.33700 6.29600 31.97100
H  35.86500 5.48600 30.49000
H  34.95600 6.87000 31.02400
H  35.37100 5.01800 28.33700
H  34.32700 5.66900 26.95700
H  34.44000 6.45600 28.58700
H  40.30100 9.89200 24.94700
H  42.96300 8.63200 25.29300
H  40.26400 6.81900 24.82300
H  41.51800 7.51500 23.81400
H  39.80400 7.98700 23.66900
H  42.28400 10.37500 23.57800
H  43.78900 10.30900 24.41400
H  41.91200 12.24300 25.77500
H  42.18400 12.57900 24.12100
H  43.61300 12.42500 25.10700
H  45.31600 12.48400 27.88700
H  46.34600 11.35500 28.75100
H  45.82900 12.97500 29.44400
H  42.70200 12.88600 33.52200
H  44.95400 11.59000 36.83500
H  43.35500 10.66100 36.97300
H  43.56000 12.35500 37.48800
Mg 47.47400 25.30300 28.19900
C  48.64700 27.69700 30.59400
C  46.24600 23.45700 30.79000
C  47.21800 22.77300 26.06500
C  49.57400 26.96500 25.87200
N  47.55000 25.52800 30.40800
C  47.75300 26.71500 31.13000
C  47.33700 26.61900 32.64400
C  46.83600 25.08900 32.74500
C  46.90400 24.65100 31.23200
C  47.76600 24.06400 33.51700
C  46.41300 27.68600 33.28300
C  46.78700 28.09600 34.73900
H  45.81400 28.45500 35.79200
N  46.70000 23.39900 28.38700
C  46.20900 22.80500 29.49900
C  45.64400 21.50300 29.22900
C  45.83800 21.28300 27.80000
C  46.59700 22.48100 27.31900
C  45.14600 20.49600 30.26600
C  45.43100 20.02700 26.93300
O  45.55300 19.96800 25.68000
C  44.61500 19.02900 27.62300
N  48.17900 24.93500 26.26700
C  47.88100 23.88300 25.54200
C  48.41100 23.96400 24.15100
C  48.86200 25.42200 24.00000
C  48.81000 25.79500 25.46500
C  49.49100 22.86900 23.81900
C  48.03000 26.40500 23.10400
C  48.54900 26.44500 21.70500
N  48.83000 27.09300 28.10800
C  49.51600 27.63200 27.10800
C  50.32600 28.76600 27.62500
C  49.99400 28.86600 29.00400
C  49.06900 27.80100 29.25000
C  51.33700 29.58700 26.75300
C  50.21100 29.54900 30.23700
O  50.74800 30.62600 30.42300
C  49.29800 28.87000 31.30800
C  50.18900 28.39100 32.44700
O  50.95700 27.41500 32.43800
O  49.98400 29.20600 33.52900
C  50.71800 28.85000 34.74500
H  45.52300 22.99300 31.46400
H  47.06700 21.92500 25.39400
H  49.98500 27.55100 25.04700
H  48.25100 26.64900 33.23700
H  45.80100 24.99800 33.07500
H  48.50000 24.60000 34.11900
H  48.26900 23.33500 32.88300
H  47.12200 23.57300 34.24700
H  45.38900 27.31300 33.31700
H  46.30400 28.59100 32.68600
H  47.58300 28.84000 34.69700
H  47.22800 27.23500 35.24000
H  44.22700 19.97600 29.99700
H  45.06100 20.92700 31.26300
H  45.86800 19.68100 30.22400
H  45.22700 18.78100 28.49000
H  44.45300 18.14900 27.00200
H  43.69100 19.58900 27.77100
H  47.52300 23.66300 23.59600
H  49.92100 25.38200 23.74100
H  50.41400 23.35700 23.50600
H  49.09200 22.14600 23.10800
H  49.68000 22.27200 24.71100
H  47.86800 27.37900 23.56600
H  47.04000 25.95100 23.14300
H  48.71000 27.51900 21.61100
H  47.74800 26.08300 21.06100
H  49.47700 25.92400 21.47300
H  50.81700 30.23100 26.04300
H  52.06300 28.88000 26.35100
H  51.86700 30.21100 27.47300
H  48.58900 29.59200 31.71300
H  51.72700 28.48200 34.55800
H  50.19900 28.13500 35.38300
H  50.78900 29.75800 35.34400

