158

Mg 6.49000 53.12200 41.01400
C  6.15000 49.71000 41.20000
C  9.76500 52.91600 40.39400
C  6.52600 56.60200 40.89800
C  3.01800 53.46400 41.27200
N  7.74800 51.45400 40.53800
C  7.45100 50.16000 40.81400
C  8.68900 49.37200 40.55000
C  9.81700 50.42900 40.80100
C  9.12700 51.70900 40.59500
C  10.64000 50.25800 42.06200
C  8.94100 48.52100 39.22900
C  8.89900 49.28600 37.89200
H  7.88800 48.83200 36.77200
N  7.88500 54.50900 40.53700
C  9.23400 54.23800 40.26900
C  9.90500 55.46300 39.97800
C  8.93500 56.48900 40.09700
C  7.71000 55.88900 40.58400
C  11.30200 55.41300 39.46900
C  9.23200 57.93400 39.79200
O  10.34800 58.27900 39.56900
C  8.12300 58.91400 39.62400
N  4.90600 54.85200 40.99800
C  5.22600 56.14400 41.08300
C  3.97600 57.01700 41.26800
C  2.84400 55.97500 41.08100
C  3.66300 54.69600 41.08800
C  4.04600 57.77400 42.65200
C  1.98600 56.07200 39.83300
C  0.41300 55.89800 39.98200
N  4.86800 51.94100 41.34200
C  3.47700 52.21900 41.45000
C  2.80200 50.86700 41.63500
C  3.83700 49.91000 41.64400
C  5.03300 50.59600 41.42600
C  1.29200 50.58100 41.83200
C  4.10400 48.54100 41.87700
O  3.34600 47.64200 42.26800
C  5.56800 48.28300 41.49900
C  5.58500 47.43000 40.37500
O  5.03400 47.68800 39.28400
O  6.20800 46.20200 40.69600
C  5.74300 45.08700 39.81300
H  10.82800 52.76400 40.19700
H  6.59300 57.69000 40.96100
H  1.94300 53.58200 41.42600
H  8.72200 48.62400 41.34300
H  10.66600 50.33400 40.12300
H  11.68000 50.54100 41.89700
H  10.53500 49.22000 42.37800
H  10.29200 50.95400 42.82500
H  8.11300 47.81200 39.22300
H  9.77700 47.82500 39.30600
H  9.87500 49.31700 37.40800
H  8.64700 50.33100 38.06900
H  12.12200 55.51800 40.17900
H  11.46400 56.18900 38.72100
H  11.48800 54.46600 38.96300
H  7.27700 58.56300 39.03400
H  8.47600 59.62700 38.87900
H  7.78600 59.46500 40.50200
H  3.99800 57.72900 40.44200
H  2.14800 56.02200 41.91900
H  3.44000 58.67400 42.54700
H  5.08200 57.99000 42.91500
H  3.57800 57.09700 43.36700
H  2.35600 55.49200 38.98700
H  2.13000 57.10900 39.52900
H  0.01800 56.70600 39.36600
H  -0.05000 56.01200 40.96200
H  0.00800 55.02100 39.47600
H  0.92800 50.53200 40.80500
H  0.77000 51.42000 42.29200
H  1.05800 49.66800 42.37900
H  5.88200 47.74000 42.39100
H  6.23800 45.10800 38.84200
H  4.65700 45.13600 39.73100
H  5.99900 44.06800 40.10400
Mg 0.91600 43.03900 26.42000
C  2.97300 43.22800 29.11700
C  -1.77600 42.57400 28.82700
C  -1.38000 42.42600 23.95800
C  3.47600 43.35300 24.20500
N  0.65500 42.70800 28.70800
C  1.70900 42.91000 29.61300
C  1.26500 42.71700 31.00500
C  -0.20900 42.24500 30.78400
C  -0.51000 42.52200 29.30900
C  -0.51600 40.75900 31.21900
C  1.33100 44.10000 31.71200
C  1.14200 44.25300 33.19700
H  0.91900 42.93600 34.01200
N  -1.33000 42.61300 26.37400
C  -2.19100 42.57500 27.45800
C  -3.55300 42.27800 26.99700
C  -3.42000 42.17900 25.54900
C  -1.97500 42.44000 25.21600
C  -4.75600 42.12400 27.94000
C  -4.44800 41.69700 24.61500
O  -4.19700 41.39900 23.46800
C  -5.84400 41.59000 25.14200
N  1.06500 42.67700 24.48400
C  -0.00500 42.46700 23.64800
C  0.44200 42.50800 22.16600
C  1.89800 43.03100 22.21000
C  2.18300 43.07100 23.70300
C  0.30700 41.13100 21.44700
C  2.03100 44.41900 21.52500
C  1.94800 45.68800 22.39900
N  2.81700 43.29600 26.54200
C  3.82500 43.48300 25.61600
C  5.13600 43.71000 26.27500
C  4.82000 43.63900 27.60000
C  3.41300 43.36900 27.74700
C  6.58100 43.77600 25.69700
C  5.33500 43.79600 28.96300
O  6.43900 44.12300 29.33300
C  4.23900 43.45000 29.90900
C  4.64100 42.18600 30.54600
O  4.63700 41.10200 30.11100
O  5.00300 42.52000 31.81700
C  5.71800 41.54900 32.68300
H  -2.63500 42.36600 29.46900
H  -2.05800 42.37500 23.10300
H  4.39600 43.61400 23.67900
H  1.89900 41.95600 31.46000
H  -0.87400 42.86100 31.38900
H  -1.10700 40.28900 30.43300
H  -0.96700 40.75000 32.21100
H  0.36100 40.18000 31.50800
H  0.50700 44.71600 31.34900
H  2.28200 44.55600 31.43900
H  0.33900 44.92000 33.51000
H  2.11100 44.58200 33.57300
H  -5.45000 42.91000 27.63900
H  -4.48000 42.26500 28.98500
H  -5.18500 41.12800 27.82900
H  -5.98000 40.65500 25.68500
H  -6.46300 41.55000 24.24600
H  -6.16000 42.48200 25.68300
H  -0.34300 43.15100 21.76800
H  2.52400 42.27400 21.73800
H  1.24700 40.62000 21.23800
H  -0.27200 41.13800 20.52300
H  -0.29300 40.40400 21.99400
H  1.25400 44.45600 20.76100
H  2.95200 44.33400 20.94900
H  1.27100 46.37200 21.88700
H  2.95700 46.08800 22.49400
H  1.67000 45.63200 23.45100
H  7.18000 43.16400 26.37100
H  6.89800 44.81800 25.75100
H  6.58100 43.37100 24.68600
H  4.10700 44.31300 30.56200
H  6.60400 42.02300 33.10500
H  6.11300 40.71500 32.10300
H  5.11300 41.05000 33.44100

