158

Mg 50.44300 46.04700 42.30700
C  47.36800 46.75400 40.59200
C  50.40400 42.89800 40.92800
C  53.74200 45.67000 43.12800
C  50.85800 49.54800 42.69800
N  48.94400 44.92200 40.99800
C  47.78500 45.41700 40.45000
C  47.03600 44.29600 39.61600
C  47.96600 43.05700 39.93000
C  49.21400 43.65300 40.68300
C  47.37500 41.95300 40.76800
C  46.81000 44.57900 38.14200
C  45.40900 44.70200 37.57400
H  44.83400 43.73800 36.55100
N  51.92300 44.50000 42.06100
C  51.64500 43.21600 41.57300
C  52.77800 42.38300 41.88700
C  53.80200 43.08400 42.62200
C  53.16900 44.49900 42.67000
C  52.82000 40.86400 41.49800
C  55.10300 42.59900 43.21800
O  55.50100 41.45900 43.05300
C  55.80200 43.43100 44.16600
N  52.17300 47.46000 42.68800
C  53.35200 47.05400 43.11600
C  54.28500 48.21300 43.53800
C  53.33100 49.41700 43.51000
C  52.03900 48.79000 42.94500
C  55.10200 48.04500 44.89600
C  53.84900 50.74600 42.80600
C  53.40200 52.03700 43.46400
N  49.28400 47.77700 42.05800
C  49.54100 49.11900 42.30000
C  48.41900 49.95200 41.98500
C  47.53600 49.06200 41.33000
C  48.13100 47.74400 41.29600
C  48.28100 51.46100 42.11700
C  46.27900 48.89200 40.63200
O  45.42300 49.79100 40.46700
C  46.10100 47.42100 40.11500
C  44.85500 46.85100 40.60900
O  44.78200 46.16800 41.62700
O  43.82000 47.18500 39.72300
C  42.62700 46.35200 40.05400
H  50.37500 41.85400 40.60900
H  54.77000 45.60500 43.49000
H  50.90100 50.60900 42.95100
H  46.08400 44.13900 40.12200
H  48.28800 42.69000 38.95600
H  48.00700 41.55600 41.56300
H  47.10400 41.11300 40.12800
H  46.48900 42.40400 41.21600
H  47.37400 43.80300 37.62400
H  47.46100 45.44700 38.04400
H  45.30800 45.71800 37.19400
H  44.61800 44.64400 38.32100
H  53.76500 40.54700 41.05600
H  52.02400 40.66600 40.78100
H  52.68400 40.23800 42.38000
H  55.28300 44.02000 44.92300
H  56.38800 44.09100 43.52700
H  56.48000 42.75500 44.68800
H  54.94300 48.31700 42.67500
H  53.02900 49.67100 44.52600
H  54.74600 47.18800 45.46700
H  55.10800 48.97400 45.46600
H  56.10300 47.75000 44.58300
H  53.44400 50.72000 41.79400
H  54.93700 50.68200 42.80600
H  52.47500 52.29400 42.95200
H  54.14600 52.82900 43.38600
H  53.09300 51.72900 44.46300
H  48.65600 51.80000 43.08300
H  47.23600 51.69100 41.91300
H  48.78100 51.99400 41.30900
H  46.13300 47.53500 39.03200
H  41.91500 46.49500 39.24100
H  42.05700 46.65000 40.93400
H  42.70200 45.26900 39.96300
Mg 28.13400 56.26700 40.27100
C  25.63000 53.74200 39.82700
C  30.47400 54.06600 39.43500
C  30.13500 58.80000 40.55600
C  25.21100 58.48200 40.62900
N  27.96900 54.30400 39.44300
C  26.90600 53.42600 39.38700
C  27.38300 52.03900 38.82200
C  28.94900 52.04600 39.08100
C  29.18800 53.57000 39.45200
C  29.44300 51.11500 40.20800
C  27.01600 51.83700 37.33500
C  26.79300 53.03900 36.37600
H  27.40800 52.83300 34.98000
N  30.08600 56.39000 39.93700
C  30.91200 55.38200 39.66300
C  32.25600 55.90900 39.61900
C  32.13600 57.31100 39.86500
C  30.71700 57.51800 40.15900
C  33.40400 54.97300 39.25000
C  33.25800 58.29600 39.63500
O  34.38800 57.92700 39.64000
C  33.00200 59.72300 39.36800
N  27.73700 58.29500 40.47300
C  28.81100 59.10500 40.72900
C  28.31100 60.57400 40.93800
C  26.80400 60.46100 40.56800
C  26.54200 58.97300 40.60700
C  28.62200 61.15900 42.23900
C  26.28900 61.12300 39.18900
C  25.16300 62.17100 39.32800
N  25.87200 56.14400 40.41000
C  24.93200 57.13300 40.55500
C  23.61000 56.53900 40.56700
C  23.82400 55.15500 40.42800
C  25.20200 55.01000 40.20800
C  22.31400 57.06300 40.78900
C  23.28300 53.77900 40.41500
O  22.17800 53.35500 40.72600
C  24.42100 52.84200 39.96300
C  24.51800 51.74800 40.96200
O  24.34700 50.53300 40.67600
O  25.04500 52.22100 42.15500
C  25.53100 51.18900 43.06600
H  31.15900 53.21700 39.38200
H  30.74500 59.67400 40.79400
H  24.35300 59.14400 40.76600
H  26.86100 51.33100 39.46500
H  29.60000 51.82200 38.23600
H  29.87800 51.83400 40.90200
H  30.25300 50.46300 39.87900
H  28.66200 50.55900 40.72600
H  26.15100 51.17700 37.26900
H  27.79500 51.16600 36.97300
H  27.30000 53.90500 36.80200
H  25.73700 53.29700 36.29900
H  33.78700 55.18000 38.25100
H  33.00300 53.96300 39.33900
H  34.18000 55.10500 40.00300
H  32.73400 60.27900 40.26700
H  32.10400 59.79900 38.75500
H  33.84200 60.11300 38.79400
H  28.88700 61.04100 40.14000
H  26.24900 60.87500 41.41000
H  29.62400 61.58500 42.19300
H  28.62600 60.36400 42.98400
H  27.92800 61.96600 42.47600
H  26.09200 60.28800 38.51600
H  27.10000 61.65700 38.69400
H  24.41700 62.10600 38.53600
H  25.71700 63.10900 39.29300
H  24.69500 62.15500 40.31300
H  21.57200 56.51900 40.20400
H  22.28000 58.13000 40.56700
H  21.98800 56.89400 41.81500
H  24.11100 52.33900 39.04800
H  24.81100 50.98600 43.86000
H  26.39700 51.58700 43.59500
H  25.79100 50.23200 42.61500

