158

Mg 47.62700 25.38300 27.97100
C  48.19500 27.75100 30.32400
C  46.47000 23.24900 30.29500
C  46.66700 23.50700 25.43800
C  49.03500 27.62200 25.48200
N  47.40700 25.51700 30.06600
C  47.62900 26.59900 30.89000
C  47.26300 26.32500 32.32700
C  46.73300 24.88000 32.31600
C  46.85100 24.52200 30.78700
C  47.26100 23.87300 33.31300
C  46.19600 27.29300 32.79700
C  45.46800 27.11100 34.13700
H  45.34000 28.34200 35.07100
N  46.82100 23.60700 27.85900
C  46.46700 22.82500 28.91700
C  45.97000 21.58100 28.38900
C  45.72800 21.78400 27.00900
C  46.40200 23.00100 26.74900
C  45.56200 20.42200 29.25300
C  44.85800 21.02900 26.06700
O  44.80400 21.30600 24.86100
C  44.07700 19.77500 26.38100
N  47.95600 25.55500 25.73400
C  47.36600 24.60200 24.94600
C  47.84700 24.81800 23.48000
C  48.43600 26.17200 23.48000
C  48.42500 26.51800 24.94700
C  48.89400 23.75200 23.03200
C  47.79800 27.33900 22.66000
C  48.75200 28.11900 21.67400
N  48.42900 27.25300 27.83500
C  49.01000 28.02700 26.81200
C  49.45800 29.27800 27.42500
C  49.17300 29.15400 28.78400
C  48.53200 27.96100 28.96000
C  50.11900 30.37100 26.75500
C  49.30800 29.89800 29.99900
O  49.84500 30.96900 30.28300
C  48.55400 29.00200 31.01500
C  49.60900 28.69600 32.08500
O  50.46500 27.82000 32.07200
O  49.50700 29.61700 33.04200
C  50.26500 29.24100 34.28600
H  46.10400 22.52000 31.02100
H  46.44100 22.88900 24.56700
H  49.46700 28.42000 24.87500
H  48.16700 26.32300 32.93700
H  45.65900 24.89900 32.50300
H  47.78500 23.11100 32.73500
H  46.41200 23.38700 33.79300
H  47.76600 24.42000 34.10900
H  45.39500 27.43600 32.07300
H  46.62800 28.29200 32.85500
H  45.96200 26.37500 34.77100
H  44.55200 26.63400 33.78700
H  44.47400 20.39700 29.30100
H  45.96200 20.56200 30.25800
H  46.00700 19.63200 28.64800
H  43.42500 19.95500 27.23700
H  44.70600 18.89300 26.50200
H  43.30200 19.57300 25.64200
H  46.98000 24.72200 22.82800
H  49.48800 26.13400 23.20000
H  49.87700 23.92900 23.46900
H  48.82500 23.50700 21.97200
H  48.51800 22.86100 23.53500
H  47.32600 28.00300 23.38400
H  47.02900 26.92500 22.00800
H  48.45700 29.16300 21.77800
H  48.64800 27.80500 20.63600
H  49.80000 27.90100 21.88000
H  51.17600 30.11300 26.68000
H  49.97700 31.32000 27.27100
H  49.74100 30.48500 25.73900
H  47.76700 29.59900 31.47500
H  51.28000 28.86100 34.17000
H  49.58200 28.52300 34.74000
H  50.32300 30.09100 34.96600
Mg -4.76200 25.14400 26.15100
C  -3.11400 26.49500 28.96700
C  -6.98000 23.67500 28.27600
C  -6.04600 23.52300 23.49800
C  -2.35200 26.58500 24.11200
N  -4.91100 24.91900 28.39400
C  -4.20700 25.65200 29.34000
C  -4.70300 25.37300 30.73500
C  -5.65100 24.13600 30.52300
C  -5.88400 24.23400 28.98100
C  -4.96600 22.80500 30.95400
C  -5.48200 26.59300 31.25100
C  -5.94400 26.60900 32.74600
H  -5.70400 25.42200 33.56600
N  -6.34200 23.90000 25.90100
C  -7.24500 23.50900 26.87000
C  -8.22500 22.59500 26.35400
C  -7.81600 22.45600 24.99600
C  -6.63600 23.30500 24.75000
C  -9.43200 22.04600 27.10400
C  -8.55400 21.62600 23.87400
O  -8.25000 21.62000 22.68300
C  -9.65500 20.50900 24.25900
N  -4.21100 25.01900 24.07900
C  -4.94900 24.28200 23.19500
C  -4.31700 24.44700 21.74600
C  -3.32700 25.63300 21.92700
C  -3.24000 25.73800 23.48000
C  -3.68400 23.18300 21.17400
C  -3.65100 27.00800 21.24500
C  -2.66400 27.54200 20.27300
N  -3.07000 26.36000 26.42500
C  -2.23900 26.91600 25.47500
C  -1.23800 27.70100 26.12100
C  -1.52800 27.58000 27.52000
C  -2.66400 26.79700 27.64800
C  -0.13900 28.37800 25.39600
C  -1.10400 27.91500 28.87500
O  -0.11400 28.53400 29.27500
C  -2.23600 27.27400 29.80400
C  -1.49100 26.40200 30.68900
O  -0.82300 25.41600 30.45000
O  -1.72900 26.81800 31.97700
C  -1.28800 25.93900 33.00200
H  -7.61300 23.37800 29.11500
H  -6.51200 23.15800 22.58000
H  -1.69900 27.23000 23.52100
H  -3.91000 25.10200 31.43200
H  -6.59600 24.38200 31.00800
H  -5.43700 22.39500 31.84700
H  -3.92200 22.93400 31.23800
H  -5.07100 22.03200 30.19200
H  -6.42000 26.75200 30.71900
H  -4.86900 27.46300 31.01600
H  -6.83000 27.21000 32.94800
H  -5.27300 27.38100 33.12200
H  -10.30700 22.09200 26.45600
H  -9.63800 22.58500 28.02900
H  -9.33200 21.02000 27.45900
H  -9.46800 20.13700 25.26700
H  -9.41000 19.66100 23.61900
H  -10.64600 20.95200 24.16900
H  -5.16900 24.58600 21.08100
H  -2.32500 25.25200 21.72900
H  -4.12900 22.98800 20.19800
H  -3.98300 22.30900 21.75300
H  -2.61800 23.17200 20.94600
H  -3.80400 27.64600 22.11500
H  -4.60300 26.98200 20.71600
H  -1.74500 26.97200 20.41100
H  -2.49200 28.56500 20.60600
H  -3.06300 27.53700 19.25800
H  0.61500 28.68100 26.12300
H  -0.49900 29.30900 24.95600
H  0.19900 27.79100 24.54300
H  -2.71700 28.07700 30.36400
H  -0.40900 26.33100 33.51500
H  -1.10800 24.92300 32.65000
H  -2.13500 25.83900 33.68000

