158

Mg 6.87900 53.44300 40.82800
C  6.52200 50.04100 40.46700
C  10.36600 52.99100 40.50100
C  7.29300 56.77800 40.32600
C  3.41800 53.82700 40.84700
N  8.19300 51.75700 40.37500
C  7.83600 50.40200 40.37300
C  9.05200 49.49500 40.27600
C  10.26000 50.42600 40.51700
C  9.58400 51.83700 40.52100
C  11.10300 50.07400 41.83800
C  9.22600 48.70700 38.96200
C  9.10000 49.29300 37.56000
H  7.97900 48.81200 36.62600
N  8.56200 54.72500 40.59000
C  9.87300 54.31900 40.42400
C  10.71100 55.49400 40.21200
C  9.80100 56.59300 40.10600
C  8.48400 56.08300 40.33600
C  12.24400 55.52100 40.06400
C  10.18700 57.98800 39.65800
O  11.37800 58.17800 39.56400
C  9.20600 59.16100 39.42500
N  5.53700 55.04500 40.60600
C  5.99300 56.33200 40.54400
C  4.81000 57.33000 40.41500
C  3.57400 56.45200 40.98700
C  4.14000 55.03300 40.78000
C  4.90400 58.66000 41.20400
C  2.20600 56.77600 40.25200
C  0.89400 56.79200 41.06100
N  5.24500 52.18400 40.80700
C  3.94500 52.46600 40.89500
C  3.28000 51.22900 41.16800
C  4.22100 50.23100 41.04700
C  5.37800 50.89100 40.67300
C  1.72000 51.05400 41.36600
C  4.43200 48.82800 40.99800
O  3.67600 47.91100 41.19500
C  5.93600 48.66900 40.53200
C  5.80800 47.95900 39.18600
O  5.35400 48.44700 38.16500
O  6.08800 46.62400 39.29300
C  5.50200 45.84400 38.14400
H  11.44600 52.84100 40.56100
H  7.23400 57.84100 40.08200
H  2.35600 53.97400 41.05500
H  8.98100 48.74500 41.06400
H  11.09400 50.31900 39.82300
H  11.15100 50.97700 42.44500
H  12.15700 49.90600 41.61600
H  10.68700 49.34300 42.53200
H  8.39400 48.00900 39.04800
H  10.15700 48.16600 39.13200
H  9.99600 49.10100 36.96900
H  9.06700 50.37600 37.68400
H  12.59800 55.90700 39.10800
H  12.64000 54.51000 40.15800
H  12.72800 56.10600 40.84700
H  8.61200 58.94700 38.53700
H  9.70000 60.07700 39.09900
H  8.68600 59.20400 40.38100
H  4.72300 57.63500 39.37300
H  3.43700 56.71400 42.03700
H  5.78200 58.62800 41.84900
H  4.01500 58.86800 41.80000
H  5.01500 59.46900 40.48200
H  2.03800 56.09200 39.42000
H  2.25500 57.76700 39.80200
H  0.28900 57.65100 40.77100
H  1.09900 56.66800 42.12500
H  0.35000 55.89900 40.75300
H  1.18700 51.45200 40.50200
H  1.28500 51.57300 42.22000
H  1.49500 49.98900 41.41800
H  6.38700 48.08200 41.33200
H  5.98300 44.87200 38.02800
H  5.57800 46.25800 37.13900
H  4.44200 45.68700 38.34700
Mg -1.90700 34.36700 27.22400
C  -3.34000 32.71600 29.80000
C  -0.24500 36.28700 29.52200
C  -0.81200 36.32700 24.68700
C  -3.75300 32.55500 24.92900
N  -1.91200 34.55100 29.44800
C  -2.48800 33.65500 30.28100
C  -2.13700 33.88900 31.74800
C  -1.09200 35.09700 31.64200
C  -1.07100 35.32100 30.12200
C  -1.33400 36.40000 32.39500
C  -1.51700 32.60300 32.50100
C  -2.16400 32.00800 33.75000
H  -1.36100 31.64300 35.01100
N  -0.64800 36.03700 27.10100
C  -0.02700 36.65400 28.17900
C  0.91900 37.60000 27.64200
C  0.67500 37.73900 26.23500
C  -0.32700 36.72000 25.96300
C  1.70900 38.49100 28.65700
C  1.17400 38.77700 25.13600
O  0.77800 38.90900 24.03300
C  2.37000 39.54900 25.56500
N  -2.30100 34.47800 25.15700
C  -1.65600 35.32800 24.33700
C  -2.15100 35.16100 22.93300
C  -2.85200 33.77000 22.93900
C  -3.02100 33.58400 24.40100
C  -3.10000 36.25200 22.46100
C  -2.08000 32.65000 22.22400
C  -0.56900 32.39200 22.69500
N  -3.32800 33.00200 27.30400
C  -3.89700 32.17300 26.30000
C  -4.70000 31.12000 26.88700
C  -4.58000 31.33900 28.26400
C  -3.65100 32.42900 28.43400
C  -5.56500 30.06900 26.25400
C  -4.91400 30.81400 29.52800
O  -5.48900 29.77700 29.77700
C  -4.14700 31.77600 30.61300
C  -5.25500 32.43400 31.29200
O  -6.14500 33.05000 30.80800
O  -5.14500 32.01600 32.61600
C  -6.22000 32.53000 33.48700
H  0.35700 36.64100 30.36200
H  -0.47100 36.93000 23.84200
H  -4.17000 31.89700 24.16400
H  -3.01700 34.22600 32.29500
H  -0.09400 34.87900 32.02100
H  -0.43200 36.75100 32.89600
H  -2.09900 36.37000 33.17000
H  -1.69600 37.18300 31.72900
H  -0.47100 32.85900 32.67300
H  -1.52000 31.78800 31.77800
H  -2.71000 31.10600 33.47500
H  -2.77700 32.81000 34.16200
H  2.74200 38.61500 28.33200
H  1.73400 38.10500 29.67600
H  1.30600 39.49500 28.79100
H  2.87800 39.98700 24.70500
H  3.07600 38.88300 26.05900
H  1.95300 40.34100 26.18700
H  -1.29600 35.13900 22.25800
H  -3.87000 33.71100 22.55400
H  -3.33200 36.78800 23.38100
H  -4.02600 35.85600 22.04500
H  -2.54800 36.83200 21.72100
H  -2.09600 32.79000 21.14300
H  -2.63800 31.72600 22.37400
H  0.14800 32.55600 21.89000
H  -0.42600 31.36900 23.04100
H  -0.31100 33.12600 23.45900
H  -5.22800 29.87200 25.23600
H  -6.59600 30.40200 26.37700
H  -5.39500 29.06500 26.64300
H  -3.59000 31.10200 31.26400
H  -7.16700 32.08900 33.17600
H  -6.31000 33.61600 33.45400
H  -5.91700 32.29600 34.50800

