158

Mg 46.22600 44.23300 43.51400
C  42.97200 43.42600 43.54000
C  47.13200 40.99700 42.64100
C  49.35300 45.38000 42.50500
C  45.43500 47.62800 44.16200
N  45.13300 42.48000 43.02200
C  43.82600 42.30600 43.17100
C  43.39500 40.91900 42.80200
C  44.71600 40.11800 42.86400
C  45.78800 41.27200 42.85800
C  44.91000 39.07300 44.07600
C  42.39000 40.82400 41.54800
C  42.76100 41.83700 40.39700
H  42.30800 41.61900 38.95200
N  47.97500 43.31200 42.78800
C  48.13700 42.02100 42.55400
C  49.48900 41.75300 42.03200
C  50.19300 42.96900 42.12800
C  49.17200 44.01100 42.44500
C  49.96900 40.35200 41.56400
C  51.69100 43.20200 41.96900
O  52.49800 42.31600 41.77600
C  52.38300 44.54500 41.97400
N  47.19500 46.30200 43.15600
C  48.49200 46.45200 42.79200
C  48.93600 47.97400 42.77900
C  47.74800 48.70700 43.50100
C  46.76200 47.48100 43.70500
C  50.29100 48.20900 43.47100
C  47.16800 50.02700 42.77500
C  47.13200 51.35600 43.54500
N  44.54900 45.34600 43.94700
C  44.34000 46.66200 44.17500
C  42.89200 46.89600 44.43300
C  42.34500 45.61600 44.19300
C  43.37600 44.72100 43.88000
C  42.29000 48.27000 44.67600
C  41.16000 44.88300 44.14800
O  40.01300 45.28500 44.32400
C  41.44500 43.35900 43.74400
C  41.02800 42.57700 44.93000
O  40.23600 41.59600 44.87400
O  41.74500 42.95000 46.07800
C  41.20300 42.46700 47.34300
H  47.36400 39.93900 42.50200
H  50.27700 45.54800 41.94600
H  45.18700 48.67400 44.35300
H  42.76300 40.61000 43.63600
H  44.86300 39.52200 41.96400
H  45.73500 39.29500 44.75200
H  45.04500 38.07400 43.66300
H  43.93000 38.98700 44.54500
H  41.32600 40.73000 41.76500
H  42.45900 39.86100 41.04200
H  43.83800 41.98100 40.48500
H  42.18600 42.74100 40.59600
H  49.95800 39.67900 42.42100
H  50.98300 40.51600 41.19700
H  49.35500 40.04300 40.71900
H  52.01700 45.14500 42.80700
H  52.08200 45.11400 41.09500
H  53.47200 44.49800 42.01000
H  48.82300 48.18400 41.71600
H  48.16200 48.97100 44.47500
H  50.57800 47.34100 44.06300
H  50.37700 49.18200 43.95500
H  51.14300 48.20900 42.79100
H  46.14200 49.85500 42.44900
H  47.80600 50.24200 41.91800
H  47.50900 52.16100 42.91400
H  47.75400 51.26300 44.43600
H  46.11200 51.66800 43.77000
H  42.16300 48.74300 43.70200
H  42.84800 49.00600 45.25500
H  41.30700 48.10900 45.11800
H  40.93700 43.02000 42.84100
H  41.85900 42.83300 48.13300
H  41.09300 41.38200 47.33600
H  40.20900 42.85800 47.56100
Mg -8.98900 19.04800 42.66600
C  -5.62200 18.70900 42.85700
C  -8.60900 22.39800 41.89700
C  -12.40600 19.32200 42.25500
C  -9.28300 15.55500 42.54600
N  -7.30000 20.34800 42.39300
C  -5.99400 20.01900 42.51800
C  -5.06600 21.20600 42.25000
C  -6.09300 22.34700 42.11700
C  -7.45200 21.65800 42.16100
C  -5.95500 23.54400 43.14500
C  -4.21600 20.89100 40.98200
C  -4.78700 20.06200 39.74700
H  -4.33400 20.51700 38.35300
N  -10.38100 20.66600 42.05500
C  -9.97600 21.96600 41.86000
C  -11.16700 22.76500 41.66800
C  -12.33600 21.89400 41.91400
C  -11.72000 20.53400 42.06200
C  -11.17200 24.16600 41.13300
C  -13.72800 22.36800 41.84900
O  -13.96100 23.55100 41.61600
C  -14.99700 21.44400 41.96600
N  -10.59800 17.63100 42.15900
C  -11.88700 18.00800 42.27700
C  -12.84900 16.79500 42.37000
C  -11.87400 15.55500 42.10700
C  -10.47000 16.23700 42.24500
C  -13.54600 16.74000 43.71000
C  -12.10000 14.79800 40.69900
C  -12.19700 13.29200 40.73000
N  -7.76900 17.46700 42.74400
C  -7.95600 16.09300 42.74800
C  -6.81100 15.37300 43.02300
C  -5.80200 16.40400 43.05100
C  -6.46000 17.61500 42.82900
C  -6.70500 13.90800 43.07500
C  -4.40700 16.67800 43.28600
O  -3.45900 15.92600 43.61300
C  -4.22200 18.16200 43.19300
C  -3.70400 18.80800 44.38000
O  -2.68500 19.53600 44.40300
O  -4.48900 18.31000 45.43100
C  -4.01000 18.67500 46.84100
H  -8.53100 23.48600 41.84000
H  -13.49600 19.38500 42.27400
H  -9.34400 14.48000 42.72700
H  -4.43100 21.20800 43.13700
H  -6.04000 22.91500 41.18700
H  -5.85600 24.46900 42.57600
H  -5.06100 23.44000 43.76000
H  -6.82600 23.55100 43.80100
H  -3.26000 20.43700 41.24100
H  -3.85700 21.83600 40.57500
H  -5.87000 20.13600 39.65900
H  -4.62900 18.98500 39.81000
H  -11.76100 24.20600 40.21700
H  -10.11500 24.39400 40.99700
H  -11.59800 24.77100 41.93300
H  -14.98000 20.90800 42.91500
H  -14.96600 20.60400 41.27200
H  -15.85600 22.09500 41.80100
H  -13.61100 16.96100 41.60900
H  -11.90400 14.75300 42.84400
H  -14.56400 16.37700 43.56700
H  -13.59500 17.70700 44.21100
H  -13.01300 16.17300 44.47300
H  -11.25100 15.07800 40.07600
H  -12.98900 15.10300 40.14600
H  -12.98700 12.86200 40.11500
H  -12.14800 12.83800 41.72000
H  -11.39800 12.90100 40.10000
H  -5.72400 13.56800 42.74300
H  -7.33400 13.50100 42.28400
H  -6.97000 13.36900 43.98500
H  -3.54100 18.46800 42.39900
H  -2.96700 18.97300 46.73300
H  -4.04300 17.80500 47.49600
H  -4.48200 19.59600 47.18400

