158

Mg 1.08000 8.52400 26.79700
C  1.36600 10.90300 29.36900
C  1.12600 6.06500 29.21600
C  0.85400 6.18500 24.29800
C  1.13500 11.08300 24.38800
N  1.43100 8.50500 29.08100
C  1.40500 9.59900 29.92000
C  1.12100 9.24700 31.36200
C  1.22800 7.65200 31.30800
C  1.23700 7.38700 29.81000
C  2.42800 7.01500 32.01700
C  -0.29900 9.58900 31.85300
C  -0.63600 9.38500 33.35800
H  0.42000 9.00200 34.39500
N  0.98100 6.40400 26.74400
C  1.06800 5.58800 27.87600
C  1.00900 4.18800 27.40400
C  0.81500 4.19500 25.97200
C  0.89500 5.61900 25.62100
C  1.17000 3.08600 28.38900
C  0.73700 3.06000 25.00100
O  0.55300 3.11900 23.78600
C  0.71200 1.70800 25.63600
N  1.05300 8.65000 24.68300
C  0.89800 7.53000 23.87800
C  0.65300 7.99700 22.49000
C  0.49800 9.50500 22.48500
C  0.95700 9.77600 23.93800
C  1.81500 7.54800 21.64500
C  -0.90700 10.08700 22.10300
C  -0.93100 10.95500 20.78400
N  1.43800 10.50500 26.80200
C  1.37100 11.43800 25.76500
C  1.66300 12.77200 26.32900
C  1.50400 12.59100 27.67700
C  1.48300 11.17300 27.96300
C  1.90600 14.06600 25.61800
C  1.52100 13.28900 28.89300
O  1.51100 14.50500 29.13900
C  1.23800 12.22700 30.06000
C  2.31300 12.45000 31.08100
O  3.49000 12.68100 30.89300
O  1.80800 12.49000 32.37800
C  2.75600 12.78700 33.49500
H  1.09800 5.30600 30.00000
H  0.72400 5.46300 23.49000
H  1.09600 11.93000 23.70000
H  1.88900 9.79500 31.90800
H  0.42000 7.13000 31.82200
H  2.11100 6.58500 32.96800
H  3.29300 7.65200 32.19800
H  2.79900 6.24600 31.33900
H  -1.03200 9.05900 31.24600
H  -0.44300 10.63300 31.57400
H  -1.44200 8.65400 33.29400
H  -1.07000 10.27500 33.81300
H  2.00300 2.44900 28.09200
H  0.28500 2.46200 28.26500
H  1.37200 3.38400 29.41800
H  -0.14400 1.79000 26.30600
H  1.62500 1.46700 26.18000
H  0.46300 0.91200 24.93400
H  -0.17900 7.43700 22.06300
H  1.15300 10.04800 21.80400
H  1.88200 8.15200 20.74000
H  1.90100 6.48700 21.41100
H  2.72100 7.74000 22.21900
H  -1.27700 10.63100 22.97200
H  -1.60600 9.27900 21.89100
H  -1.80700 10.67600 20.19900
H  -0.10500 10.80900 20.08800
H  -1.07500 11.99800 21.06400
H  1.26400 14.13100 24.73900
H  2.95200 14.02200 25.31400
H  1.69400 14.86900 26.32400
H  0.26500 12.29900 30.54600
H  3.49400 11.98800 33.41700
H  2.23300 12.64300 34.44100
H  3.14700 13.80400 33.49500
Mg 35.68900 49.05100 25.73000
C  35.68000 46.90800 28.61400
C  34.82400 51.61700 27.66800
C  35.86600 50.99100 22.87900
C  36.36800 46.27700 23.80800
N  35.25500 49.13300 27.91800
C  35.35700 48.25300 28.95100
C  35.15400 48.90900 30.36800
C  34.76500 50.39500 29.98500
C  34.97500 50.39700 28.38900
C  33.35700 50.82400 30.43400
C  36.52700 48.81800 31.18100
C  36.49800 48.05400 32.43400
H  35.25400 48.24300 33.41400
N  35.21600 50.99500 25.29900
C  34.91500 51.92900 26.26800
C  34.88900 53.20700 25.62700
C  35.20400 53.01700 24.28900
C  35.49300 51.58000 24.14400
C  34.47500 54.49800 26.37500
C  35.47700 54.06000 23.22300
O  35.98900 53.82700 22.13200
C  35.14700 55.50800 23.41000
N  35.79800 48.67100 23.53400
C  35.96200 49.61700 22.61100
C  36.20600 48.94100 21.20300
C  36.62800 47.53100 21.57600
C  36.23200 47.45300 23.04800
C  35.01900 48.97700 20.22600
C  38.15500 47.19200 21.33600
C  38.52900 45.80800 20.90800
N  35.95400 47.01300 26.04700
C  36.34100 46.05400 25.20800
C  36.59600 44.76600 25.84000
C  36.29900 45.03700 27.18900
C  35.87300 46.40100 27.30000
C  36.90400 43.47200 25.18400
C  36.16700 44.41900 28.49000
O  36.37000 43.31300 28.87500
C  35.75400 45.62800 29.45300
C  34.47400 45.29800 30.09400
O  33.37000 45.59400 29.65700
O  34.71500 44.59800 31.29300
C  33.49300 44.29900 32.12200
H  34.61100 52.47800 28.30600
H  36.04500 51.65600 22.03100
H  36.70800 45.39900 23.25600
H  34.36300 48.29500 30.79800
H  35.45700 51.18700 30.27000
H  33.65300 51.79500 30.83200
H  32.78400 50.29400 31.19400
H  32.64000 51.00400 29.63300
H  36.92800 49.83200 31.21400
H  37.32700 48.34800 30.60900
H  37.31700 48.37300 33.07900
H  36.61500 46.97900 32.30300
H  33.92300 55.20200 25.75300
H  35.41400 55.01300 26.57600
H  34.03600 54.39700 27.36800
H  35.77500 55.92500 24.19700
H  34.15200 55.77800 23.76500
H  35.18000 56.13500 22.51900
H  37.01000 49.52100 20.75000
H  35.99100 46.76300 21.13800
H  34.49900 49.93300 20.28100
H  34.40100 48.08400 20.32100
H  35.40000 48.80200 19.22000
H  38.59400 47.40200 22.31200
H  38.57400 47.94700 20.67100
H  38.55600 45.70800 19.82300
H  37.73600 45.11000 21.17800
H  39.43600 45.43600 21.38500
H  37.95500 43.36000 24.91400
H  36.31200 43.22500 24.30300
H  36.75900 42.73900 25.97700
H  36.53100 45.82600 30.19100
H  32.62500 44.89700 31.84600
H  33.55500 44.34400 33.21000
H  33.11000 43.29600 31.93700

