158

Mg 24.42700 1.47600 29.02700
C  26.60500 1.08900 31.83400
C  21.80000 1.38900 31.18400
C  22.49400 1.23100 26.28800
C  27.20100 1.01400 26.98800
N  24.23800 1.02000 31.28700
C  25.27000 1.28700 32.16300
C  24.77400 1.58600 33.59400
C  23.22000 1.64800 33.37000
C  23.04000 1.34500 31.83700
C  22.45800 0.63900 34.17200
C  25.48500 2.88400 34.10600
C  26.18300 2.75200 35.44900
H  26.16500 3.94300 36.45800
N  22.46200 1.33300 28.78400
C  21.49700 1.41200 29.75400
C  20.22200 1.38900 29.12700
C  20.37700 1.25100 27.71100
C  21.80200 1.18200 27.56100
C  19.05100 1.27500 30.00200
C  19.34000 1.22500 26.53200
O  19.64600 1.02100 25.34700
C  17.80500 1.27800 26.85700
N  24.79200 1.30100 26.89500
C  23.83900 1.31300 25.98100
C  24.41400 1.36100 24.56500
C  25.90700 1.18000 24.79900
C  26.00600 1.10900 26.30400
C  23.84500 0.36000 23.45200
C  26.79500 2.36900 24.21600
C  27.26800 3.51100 25.11100
N  26.47200 1.09500 29.29000
C  27.50600 0.94200 28.37100
C  28.73900 0.66800 29.03500
C  28.43900 0.70900 30.40400
C  27.07900 0.93900 30.54600
C  30.07300 0.41000 28.40100
C  29.02400 0.69800 31.69800
O  30.21300 0.55600 32.04500
C  27.79800 0.93300 32.73600
C  27.71300 -0.22400 33.64000
O  27.08600 -1.21100 33.41100
O  28.27100 0.06700 34.80000
C  27.86300 -0.84700 35.91100
H  21.03500 1.68400 31.90500
H  21.98600 1.04400 25.34000
H  28.03400 0.92100 26.28800
H  25.10600 0.76800 34.23300
H  22.83200 2.64300 33.58800
H  22.15600 -0.24400 33.61000
H  21.53400 1.16500 34.41200
H  23.04200 0.26700 35.01400
H  24.86600 3.78100 34.14800
H  26.27200 3.15200 33.40100
H  27.25300 2.64300 35.26800
H  25.72300 1.91500 35.97400
H  18.61300 2.25900 30.16700
H  19.18200 0.70000 30.91900
H  18.25800 0.76900 29.45100
H  17.59300 2.11300 27.52500
H  17.42500 0.35900 27.30300
H  17.33400 1.25200 25.87500
H  24.10400 2.33700 24.19000
H  26.28200 0.28600 24.30200
H  24.63300 -0.06400 22.83000
H  23.18200 0.82900 22.72500
H  23.42000 -0.51200 23.95100
H  26.26800 2.81400 23.37300
H  27.62600 1.82400 23.76800
H  26.54400 3.47600 25.92500
H  27.09400 4.46800 24.61900
H  28.29700 3.49400 25.47000
H  30.17100 -0.67500 28.35900
H  30.91400 0.81300 28.96500
H  30.06900 0.73400 27.36000
H  28.03300 1.79200 33.36500
H  27.49100 -1.84800 35.69400
H  27.04800 -0.33400 36.42000
H  28.68500 -0.91800 36.62300
Mg 40.60500 9.24700 29.92800
C  42.73500 10.46800 32.57800
C  38.28500 8.44400 32.05500
C  38.87200 8.23400 27.24000
C  43.39400 10.03200 27.75300
N  40.60500 9.32900 32.07700
C  41.45400 9.94400 32.96000
C  40.93800 9.97600 34.43200
C  39.53200 9.28800 34.17900
C  39.45800 8.90800 32.66000
C  39.25700 8.09600 35.08500
C  41.01200 11.40000 34.99000
C  40.23000 11.62700 36.29600
H  40.91500 12.40800 37.39000
N  38.78300 8.45300 29.63700
C  37.95100 8.20900 30.67400
C  36.70200 7.65400 30.18300
C  36.80200 7.68000 28.75900
C  38.19000 8.13200 28.46000
C  35.54100 7.17600 31.10800
C  35.82600 7.31800 27.65900
O  36.06900 7.44800 26.43500
C  34.41200 6.74800 28.06000
N  41.12500 9.10400 27.75700
C  40.17500 8.67600 26.91000
C  40.71400 8.65600 25.47100
C  42.14500 9.17700 25.66600
C  42.20200 9.60100 27.14400
C  40.52000 7.29000 24.68800
C  42.62400 10.33100 24.72000
C  42.22800 11.74400 25.04400
N  42.63400 10.12400 30.09500
C  43.54900 10.35900 29.15800
C  44.79200 10.90000 29.76800
C  44.56200 10.95100 31.11600
C  43.18800 10.52200 31.23300
C  46.04900 11.23800 28.97400
C  45.07400 11.31800 32.40700
O  46.17200 11.74200 32.67700
C  43.93100 11.01500 33.52100
C  44.42700 9.88100 34.36300
O  44.71400 8.73100 34.02700
O  44.71300 10.40000 35.64800
C  45.33900 9.49000 36.53400
H  37.52000 8.05700 32.73300
H  38.31100 7.95700 26.34500
H  44.16200 10.20000 26.99600
H  41.58800 9.37500 35.06700
H  38.81200 10.03300 34.51600
H  40.17900 7.75800 35.55800
H  38.75300 7.29900 34.53800
H  38.57100 8.33100 35.89900
H  40.69800 12.06900 34.18900
H  42.09100 11.50800 35.10500
H  39.86000 10.64500 36.59100
H  39.38500 12.24900 36.00000
H  35.55800 7.67600 32.07600
H  35.43500 6.10700 31.29200
H  34.55600 7.40100 30.69700
H  33.99000 6.33700 27.14300
H  33.95500 7.60100 28.56100
H  34.43400 5.92000 28.76800
H  40.14300 9.45600 25.00100
H  42.84700 8.35900 25.50300
H  41.47200 6.98200 24.25500
H  39.81600 7.48100 23.87700
H  40.19100 6.47100 25.32800
H  42.31600 10.07500 23.70600
H  43.70500 10.19300 24.74700
H  42.95200 12.15300 25.74900
H  41.30100 11.71100 25.61800
H  42.06200 12.28000 24.10900
H  46.93200 10.90300 29.51900
H  46.15000 12.32000 28.88200
H  46.20100 10.70900 28.03400
H  43.74200 11.87400 34.16600
H  45.89100 10.01400 37.31400
H  45.77800 8.63700 36.01700
H  44.49000 9.09700 37.09200

