158

Mg -2.16200 17.14500 26.18900
C  -2.50300 14.60700 28.72000
C  -3.19900 19.44300 28.60100
C  -1.88300 19.65700 24.02700
C  -1.87800 14.61200 23.86100
N  -2.62700 17.03600 28.30000
C  -2.55900 15.91000 29.18900
C  -2.80800 16.25300 30.64300
C  -3.46700 17.66900 30.44400
C  -3.15700 18.07600 28.96100
C  -4.94700 17.74200 30.73500
C  -1.41700 16.37500 31.43200
C  -1.47400 17.24100 32.75800
H  -1.01600 16.63200 34.03600
N  -2.52000 19.31000 26.25600
C  -2.97300 20.04600 27.37500
C  -3.13400 21.46600 26.96900
C  -2.79200 21.47200 25.59800
C  -2.32500 20.13100 25.25400
C  -3.44400 22.66700 27.95600
C  -2.79100 22.57900 24.55500
O  -2.57500 22.38400 23.39300
C  -3.12300 23.96400 25.05000
N  -2.00600 17.16600 24.23700
C  -1.86500 18.30200 23.47400
C  -1.57400 17.93400 22.06100
C  -1.39300 16.35400 22.12700
C  -1.73100 16.00200 23.52300
C  -2.70600 18.45900 21.10900
C  0.12300 15.97400 21.83700
C  0.27600 15.00500 20.62800
N  -2.06100 15.01500 26.21900
C  -1.99400 14.12100 25.15000
C  -2.00700 12.77000 25.62000
C  -2.23200 12.91300 27.01100
C  -2.28200 14.32100 27.32500
C  -1.80800 11.54600 24.78800
C  -2.31400 12.18700 28.24700
O  -2.07000 10.99000 28.39400
C  -2.76300 13.25900 29.38600
C  -1.82500 12.99500 30.56200
O  -0.66500 12.85800 30.49600
O  -2.57700 12.96800 31.72500
C  -1.96100 12.44800 32.89200
H  -3.59700 19.95100 29.48200
H  -1.56000 20.39000 23.28500
H  -1.74700 13.90100 23.04300
H  -3.54200 15.64500 31.17200
H  -3.16200 18.46800 31.12000
H  -5.28900 18.73100 30.43100
H  -4.93800 17.71900 31.82500
H  -5.52700 16.94200 30.27600
H  -0.56200 16.67600 30.82500
H  -1.22000 15.33700 31.69700
H  -2.51400 17.53500 32.90500
H  -0.98700 18.21600 32.78400
H  -3.20900 22.42600 28.99300
H  -4.48900 22.97600 27.94400
H  -2.90900 23.57400 27.67400
H  -4.06600 23.81300 25.57700
H  -3.20700 24.59200 24.16300
H  -2.31600 24.24100 25.72800
H  -0.63800 18.37700 21.72100
H  -2.06300 15.85000 21.43200
H  -3.55700 18.51600 21.78700
H  -3.00800 17.74800 20.34000
H  -2.37600 19.43700 20.75700
H  0.62500 15.56000 22.71200
H  0.73800 16.85200 21.63700
H  -0.68500 14.55200 20.38600
H  1.08400 14.27500 20.68100
H  0.43300 15.74800 19.84600
H  -1.10800 11.74000 23.97600
H  -2.76400 11.25000 24.35500
H  -1.35700 10.87400 25.51900
H  -3.80700 13.10400 29.66000
H  -0.87400 12.48500 32.82400
H  -2.28600 11.42500 33.08100
H  -2.45600 12.97000 33.71100
Mg 35.80600 1.62200 29.94800
C  33.63300 2.91500 32.23400
C  38.23700 1.35900 32.29600
C  38.06500 0.69800 27.47400
C  33.39400 2.10200 27.42000
N  35.90400 2.14400 31.96100
C  34.84700 2.58700 32.71900
C  35.26400 2.64100 34.24000
C  36.77200 2.31800 34.19400
C  37.01300 1.82100 32.70700
C  37.82000 3.41100 34.66200
C  34.32700 1.63400 35.09000
C  33.87800 2.06500 36.46600
H  34.69700 3.09500 37.22500
N  37.87800 1.15800 29.94900
C  38.72300 0.98100 31.02700
C  39.99500 0.50300 30.67200
C  39.91800 0.26300 29.20500
C  38.60000 0.72600 28.83400
C  41.21000 0.35400 31.58200
C  40.88500 -0.39500 28.19800
O  40.74300 -0.40600 26.96600
C  42.12300 -0.98800 28.75200
N  35.76400 1.57900 27.74900
C  36.78700 1.13000 26.98800
C  36.55700 1.31800 25.53000
C  35.02000 1.56600 25.42800
C  34.67300 1.74100 26.97000
C  37.46400 2.34500 24.81300
C  34.21900 0.53300 24.68800
C  34.27500 -0.83800 25.32100
N  33.82500 2.19400 29.84900
C  32.97700 2.39300 28.76000
C  31.73200 2.97200 29.22100
C  31.93200 3.00600 30.62300
C  33.25100 2.73700 30.89300
C  30.53400 3.23300 28.45400
C  31.24400 3.46000 31.76700
O  30.08300 3.78200 31.95300
C  32.38800 3.45200 32.95400
C  32.54800 4.76500 33.65200
O  33.22600 5.66300 33.24000
O  32.12700 4.64900 34.91600
C  32.01400 5.92000 35.63500
H  39.06500 1.41900 33.00600
H  38.59100 0.39800 26.56500
H  32.53800 2.19800 26.74900
H  35.03600 3.66300 34.54400
H  36.93100 1.54200 34.94300
H  37.21000 4.19200 35.11700
H  38.29600 3.96500 33.85300
H  38.55600 3.09800 35.40300
H  34.96200 0.77200 35.29400
H  33.51300 1.24700 34.47700
H  33.90800 1.19400 37.12100
H  32.82400 2.32200 36.36300
H  41.91100 1.15800 31.35700
H  41.71700 -0.60500 31.48000
H  40.95700 0.49000 32.63400
H  42.66700 -1.47300 27.94100
H  41.80300 -1.77000 29.44000
H  42.78700 -0.20400 29.11800
H  36.75400 0.41100 24.95900
H  34.78600 2.56100 25.04900
H  37.85000 3.01100 25.58500
H  36.98700 2.88900 23.99800
H  38.33200 1.83900 24.39100
H  34.49400 0.59400 23.63500
H  33.21800 0.95800 24.62000
H  33.27200 -1.02200 25.70600
H  34.94000 -0.84400 26.18400
H  34.42700 -1.67500 24.64000
H  29.75000 3.37200 29.19900
H  30.23200 2.43000 27.78200
H  30.53700 4.20500 27.96000
H  31.95800 2.72200 33.64000
H  32.19900 5.75900 36.69700
H  31.02400 6.36000 35.51300
H  32.65900 6.70500 35.24000

