158

Mg 41.15100 9.34400 29.85300
C  42.74800 10.48100 32.78200
C  38.58000 8.20100 31.77200
C  39.80700 7.96800 27.07800
C  43.91800 10.38200 28.06500
N  40.70300 9.45400 32.06100
C  41.49400 9.94100 33.02900
C  40.74900 9.77600 34.40300
C  39.50600 8.89500 34.11000
C  39.59200 8.76100 32.56200
C  39.42500 7.59800 34.91000
C  40.49400 11.15700 35.06700
C  40.02500 11.17200 36.55300
H  40.84300 12.07500 37.53600
N  39.34200 8.24400 29.48600
C  38.43200 7.95600 30.37900
C  37.30600 7.39700 29.72400
C  37.54200 7.35400 28.30600
C  38.96000 7.84100 28.20800
C  36.11600 6.83300 30.51100
C  36.66600 6.97900 27.13100
O  37.04300 7.20900 25.97100
C  35.26600 6.52200 27.35200
N  41.86900 9.21100 27.89800
C  41.10300 8.57900 26.92200
C  41.80900 8.55600 25.52900
C  43.11600 9.29500 25.88300
C  42.92000 9.70700 27.33900
C  42.07300 7.15500 24.85500
C  43.60500 10.40900 24.94100
C  42.95900 11.72000 25.08500
N  42.94800 10.32800 30.20500
C  43.97200 10.66000 29.35200
C  45.05300 11.20300 30.11500
C  44.67500 11.12400 31.47100
C  43.35000 10.63200 31.45000
C  46.48100 11.59900 29.61800
C  45.06700 11.38500 32.81800
O  46.05400 11.99800 33.25500
C  43.83400 10.95900 33.74500
C  44.33500 10.05500 34.75900
O  44.34500 8.86100 34.72400
O  44.82200 10.76900 35.89200
C  45.27100 9.91000 36.95200
H  37.73800 7.93200 32.41300
H  39.41600 7.50200 26.17100
H  44.88100 10.54900 27.57800
H  41.49600 9.24600 34.99500
H  38.53800 9.31800 34.38100
H  40.17900 7.51700 35.69300
H  39.64200 6.76500 34.24200
H  38.40600 7.38600 35.23500
H  39.82000 11.72200 34.42400
H  41.39900 11.73000 34.86600
H  39.91100 10.17000 36.96600
H  39.01700 11.58600 36.55400
H  35.18400 7.28300 30.16800
H  36.17300 7.08700 31.57000
H  35.87500 5.77600 30.40200
H  35.26300 5.77100 28.14200
H  34.93700 5.97200 26.47100
H  34.64400 7.40800 27.48100
H  41.17400 9.26500 24.99700
H  43.99100 8.64500 25.90900
H  41.73700 6.45800 25.62300
H  43.13200 6.99300 24.65400
H  41.41400 7.00600 23.99900
H  43.41400 9.91400 23.98800
H  44.66500 10.64500 25.03500
H  42.24300 11.63400 25.90200
H  42.36900 11.97100 24.20400
H  43.64500 12.54500 25.27900
H  46.54100 12.61700 29.23300
H  46.88800 10.89200 28.89500
H  47.04600 11.71000 30.54400
H  43.47000 11.90000 34.15800
H  45.99700 10.56900 37.42900
H  45.84100 9.03500 36.63900
H  44.54000 9.57800 37.68900
Mg -9.52800 38.95400 41.18800
C  -7.51200 36.11400 40.56700
C  -7.23200 41.00800 39.81200
C  -11.67400 41.41100 41.54100
C  -12.08700 36.65600 42.10100
N  -7.72800 38.58900 40.17500
C  -6.96500 37.39700 40.15200
C  -5.57800 37.60700 39.59300
C  -5.44200 39.16100 39.67500
C  -6.88800 39.66500 39.94400
C  -4.38500 39.68600 40.67500
C  -5.40000 36.92200 38.25000
C  -6.65900 36.70500 37.37500
H  -6.40600 36.52100 35.84100
N  -9.38200 40.94500 40.82300
C  -8.41700 41.58200 40.16900
C  -8.84900 42.95000 39.91300
C  -9.96800 43.15200 40.70400
C  -10.39100 41.82500 41.04100
C  -7.95700 43.94700 39.06700
C  -10.70300 44.47600 40.89500
O  -10.32500 45.50800 40.40300
C  -11.85500 44.69000 41.88400
N  -11.58400 38.98700 41.58400
C  -12.19100 40.20200 41.90700
C  -13.62200 40.08100 42.17600
C  -13.70200 38.55900 42.44500
C  -12.33200 38.04500 41.97700
C  -14.15400 40.99100 43.28100
C  -14.93800 37.82700 41.76000
C  -16.39100 38.45600 41.86900
N  -9.72300 36.76500 41.35000
C  -10.81400 36.01000 41.85700
C  -10.45300 34.58200 41.89900
C  -9.14700 34.56300 41.34100
C  -8.75600 35.89100 41.01800
C  -11.21700 33.54000 42.48600
C  -7.94500 33.74100 41.07200
O  -7.70300 32.52900 41.13600
C  -6.82500 34.76800 40.53300
C  -5.58800 34.62800 41.27800
O  -5.19800 35.41200 42.15600
O  -4.86300 33.63100 40.70600
C  -3.53500 33.27500 41.18500
H  -6.49400 41.47700 39.15700
H  -12.47600 42.15100 41.57900
H  -12.84500 35.98200 42.50500
H  -4.88100 37.20500 40.32800
H  -5.23100 39.62900 38.71300
H  -4.50100 40.76500 40.77500
H  -3.44100 39.32600 40.26600
H  -4.44900 39.20200 41.65000
H  -4.97200 35.92800 38.38600
H  -4.61600 37.43600 37.69500
H  -7.39300 37.48800 37.56800
H  -7.20600 35.82000 37.70100
H  -7.91600 44.85800 39.66400
H  -8.48400 44.29200 38.17800
H  -6.96600 43.50300 38.97700
H  -11.79300 44.04000 42.75700
H  -12.76500 44.52500 41.30800
H  -11.83600 45.71200 42.26400
H  -14.14800 40.26400 41.23900
H  -13.63400 38.41200 43.52300
H  -13.47100 41.64400 43.82500
H  -14.51400 40.26800 44.01300
H  -15.00300 41.58500 42.94200
H  -15.06300 36.82000 42.16000
H  -14.61400 37.51600 40.76700
H  -16.74200 38.73700 40.87600
H  -16.44700 39.25700 42.60600
H  -16.97900 37.60700 42.22000
H  -12.16600 33.97000 42.80800
H  -10.75200 32.96800 43.28900
H  -11.24100 33.00800 41.53500
H  -6.67300 34.48000 39.49300
H  -2.94300 32.66500 40.50400
H  -3.69600 32.72100 42.11000
H  -2.91800 34.15200 41.38200

