158

Mg 43.75300 4.50800 47.56700
C  41.57000 7.17900 47.33200
C  41.04800 2.39600 46.98400
C  45.88800 1.96600 47.27800
C  46.40700 6.79200 47.70100
N  41.68000 4.72400 47.05200
C  40.96200 5.96500 47.07000
C  39.50000 5.73600 46.79100
C  39.32600 4.21700 47.02500
C  40.78000 3.71800 47.11100
C  38.32500 3.80000 48.21100
C  39.12600 6.29400 45.32200
C  37.88900 7.13500 45.30600
H  37.15800 7.00100 43.98600
N  43.51700 2.43900 47.16500
C  42.33400 1.72200 47.06300
C  42.61300 0.33400 46.86700
C  44.02300 0.08200 46.96800
C  44.55300 1.53100 47.12200
C  41.49800 -0.63600 46.59400
C  44.71700 -1.19200 46.95900
O  44.04700 -2.16600 46.90500
C  46.16500 -1.37600 47.09600
N  45.77600 4.42900 47.44000
C  46.44900 3.23500 47.45700
C  48.02800 3.43600 47.59200
C  48.18000 4.98000 47.64600
C  46.67500 5.43100 47.56900
C  48.69100 2.84000 48.76900
C  48.96000 5.74600 46.51400
C  49.99800 6.86600 46.93000
N  43.97000 6.55400 47.53400
C  45.05800 7.30000 47.68800
C  44.69100 8.70700 47.74000
C  43.24000 8.73100 47.68200
C  42.86700 7.37100 47.50100
C  45.71100 9.87400 47.73400
C  42.14400 9.55700 47.66300
O  42.03800 10.72200 47.78700
C  40.93800 8.56000 47.48300
C  39.98800 8.69700 48.66500
O  40.15200 8.16800 49.72600
O  38.91300 9.48900 48.34300
C  37.86900 9.68700 49.35700
H  40.22400 1.71400 46.76300
H  46.68900 1.23300 47.16000
H  47.33500 7.36500 47.65700
H  39.01900 6.19900 47.65200
H  38.82600 3.87100 46.12100
H  37.85900 4.61600 48.76300
H  38.93600 3.30100 48.96300
H  37.49800 3.17800 47.86900
H  38.98800 5.48400 44.60600
H  39.97400 6.90700 45.01800
H  38.19700 8.16100 45.50600
H  37.21300 7.03400 46.15500
H  41.65200 -1.10500 45.62200
H  40.49700 -0.20800 46.64600
H  41.54500 -1.37500 47.39400
H  46.45300 -1.28100 48.14300
H  46.61200 -0.59900 46.47700
H  46.39700 -2.34100 46.64400
H  48.47500 3.16500 46.63500
H  48.57700 5.27300 48.61800
H  48.02700 2.10600 49.22700
H  48.74400 3.53900 49.60300
H  49.68100 2.43500 48.56200
H  48.17700 6.13500 45.86200
H  49.52900 5.06700 45.88000
H  50.20700 6.89800 48.00000
H  49.42400 7.76200 46.69500
H  50.85100 6.83600 46.25200
H  45.22600 10.58500 47.06500
H  46.62800 9.45800 47.31700
H  45.81100 10.22700 48.76100
H  40.42000 8.83400 46.56400
H  36.98600 9.32300 48.83100
H  37.78200 10.74300 49.61200
H  37.98500 9.04900 50.23300
Mg 41.70700 42.12700 26.00000
C  40.98700 44.36100 28.77100
C  42.71700 39.94100 28.38800
C  42.67300 40.22600 23.52300
C  40.90500 44.67400 23.84600
N  41.94300 42.19700 28.42400
C  41.49600 43.13200 29.27500
C  41.71000 42.68300 30.76300
C  42.06200 41.19000 30.57600
C  42.17100 41.06100 29.08100
C  43.25700 40.59500 31.44400
C  40.46900 43.15100 31.63700
C  40.13500 42.41100 32.94900
H  41.16800 42.67400 34.08300
N  42.47600 40.25100 25.94000
C  42.92100 39.58000 27.04800
C  43.52700 38.33300 26.62200
C  43.41100 38.35100 25.18900
C  42.83300 39.58200 24.77500
C  44.17500 37.23800 27.52800
C  43.82300 37.32700 24.12500
O  43.56800 37.52300 22.94300
C  44.51200 36.14300 24.56000
N  41.89100 42.50100 23.98900
C  42.07200 41.44400 23.10100
C  42.04600 41.88200 21.56200
C  41.14900 43.14100 21.81800
C  41.35500 43.48000 23.25900
C  43.38200 42.18400 20.84700
C  39.65300 43.03700 21.30300
C  38.85300 41.76700 21.50800
N  41.14200 44.11600 26.24500
C  40.81200 45.03100 25.22400
C  40.34900 46.30600 25.82400
C  40.42400 46.06400 27.20000
C  40.94400 44.73600 27.39300
C  39.98400 47.56000 25.08700
C  40.12600 46.69600 28.47800
O  39.60200 47.81300 28.70100
C  40.47200 45.56700 29.52400
C  41.35700 46.10600 30.57000
O  42.58600 46.24000 30.41800
O  40.64700 46.47700 31.64600
C  41.39300 46.68900 32.86900
H  42.93300 39.11200 29.06600
H  43.03900 39.68100 22.65000
H  40.58000 45.42600 23.12500
H  42.62400 43.22400 31.00600
H  41.13000 40.66600 30.78900
H  43.92700 40.01000 30.81500
H  42.83900 39.86400 32.13600
H  43.77400 41.43000 31.91700
H  39.56000 43.02500 31.04900
H  40.43900 44.19800 31.94100
H  40.00100 41.33000 32.91900
H  39.18000 42.87000 33.20500
H  45.16100 37.12500 27.07600
H  43.71600 36.26700 27.34100
H  44.10400 37.39000 28.60500
H  44.69000 35.53400 23.67400
H  43.88100 35.64800 25.29800
H  45.45100 36.47200 25.00700
H  41.47100 41.16500 20.97700
H  41.52900 44.06800 21.38800
H  43.73700 43.14300 21.22500
H  43.37700 42.12900 19.75900
H  44.14700 41.44700 21.09200
H  39.81400 43.13100 20.22900
H  39.20400 43.97400 21.63300
H  37.85500 42.10700 21.78500
H  39.37000 41.20500 22.28500
H  38.83700 41.28500 20.53000
H  39.31300 47.19300 24.31000
H  40.93900 47.92700 24.71200
H  39.64700 48.26100 25.85100
H  39.56600 45.29000 30.06400
H  41.14200 45.80800 33.45900
H  40.93000 47.50300 33.42700
H  42.45900 46.87500 32.73800

