158

Mg 30.99300 57.31300 40.01000
C  28.51500 55.32200 38.90800
C  33.35700 54.94100 39.12000
C  33.61100 59.56800 40.43400
C  28.78100 59.95800 40.39200
N  30.87900 55.47000 38.95600
C  29.78500 54.76500 38.74200
C  30.11200 53.37300 38.24300
C  31.63600 53.18400 38.58900
C  32.00700 54.61800 38.97900
C  31.92300 52.05400 39.65300
C  29.76800 53.07500 36.74700
C  29.99400 54.11600 35.64000
H  29.06900 54.25600 34.38400
N  33.21400 57.20100 39.90700
C  33.95000 56.19100 39.41400
C  35.35900 56.60000 39.40000
C  35.44600 57.85400 39.98200
C  34.05100 58.27700 40.18700
C  36.43500 55.67800 38.92400
C  36.71500 58.59000 40.30100
O  37.81100 58.13900 39.89100
C  36.78300 59.78000 41.15300
N  31.13900 59.58700 40.08400
C  32.31600 60.15000 40.49600
C  32.20200 61.63000 40.93400
C  30.58400 61.72300 40.97700
C  30.08000 60.36500 40.41200
C  33.05900 62.12500 42.15000
C  29.90900 62.93400 40.23500
C  28.81400 63.81400 40.90700
N  28.98900 57.62600 39.87100
C  28.17800 58.74900 40.02800
C  26.83600 58.32100 39.77900
C  26.92300 56.95800 39.29800
C  28.25200 56.56000 39.40900
C  25.63500 59.14700 39.85900
C  26.11000 55.88500 38.83500
O  24.91500 55.78500 38.68100
C  27.17200 54.74500 38.50100
C  26.79600 53.50800 39.21100
O  26.83200 53.22500 40.40000
O  26.07100 52.78300 38.29200
C  25.17100 51.67500 38.76100
H  33.98800 54.10800 38.80300
H  34.31700 60.39600 40.51600
H  28.07300 60.72300 40.71900
H  29.46700 52.76600 38.87900
H  32.11200 52.92300 37.64300
H  32.42600 51.26900 39.08900
H  31.03800 51.76100 40.21700
H  32.66200 52.39000 40.38100
H  28.72800 52.75200 36.77900
H  30.38100 52.25500 36.37400
H  30.99900 53.89700 35.27800
H  30.02000 55.12000 36.06300
H  36.83400 56.08600 37.99500
H  36.12700 54.65200 38.72100
H  37.20500 55.51200 39.67700
H  37.50600 59.57700 41.94300
H  35.88400 59.78500 41.77000
H  36.87300 60.69500 40.56700
H  32.54300 62.16900 40.04900
H  30.28800 61.66900 42.02500
H  33.77000 62.92000 41.92400
H  33.57900 61.37500 42.74500
H  32.30100 62.53500 42.81700
H  29.41500 62.64000 39.30900
H  30.77500 63.55700 40.01300
H  29.20700 64.81300 40.71700
H  28.69400 63.60100 41.96900
H  27.86000 63.46400 40.51200
H  24.86800 58.50300 40.29000
H  25.25600 59.37700 38.86300
H  25.88100 60.08200 40.36200
H  27.09800 54.66000 37.41600
H  25.45200 51.32400 39.75500
H  25.31200 50.90700 38.00000
H  24.14000 52.01800 38.67600
Mg 27.57600 50.82800 26.11300
C  25.48000 51.72900 28.81700
C  29.68500 49.50400 28.35000
C  29.80900 50.57200 23.65200
C  25.34000 52.53900 24.00400
N  27.53500 50.61800 28.35300
C  26.59900 51.06600 29.28800
C  26.99100 50.63100 30.66000
C  28.46500 50.24900 30.52800
C  28.61800 50.12300 28.97700
C  29.55400 51.22000 31.16300
C  26.07900 49.52000 31.21800
C  25.62000 49.59000 32.64300
H  26.56000 49.97500 33.73700
N  29.48700 50.08600 26.00000
C  30.17900 49.51800 27.03400
C  31.50500 49.10600 26.60400
C  31.59300 49.45900 25.24800
C  30.28800 50.08500 24.91000
C  32.46600 48.32200 27.42400
C  32.76000 49.42700 24.31800
O  32.69700 49.94300 23.20500
C  34.03200 48.87000 24.83400
N  27.61200 51.61600 24.12100
C  28.59800 51.23500 23.24600
C  28.21700 51.41900 21.72600
C  26.84000 52.16700 21.89500
C  26.52500 52.10800 23.43300
C  29.25700 52.22200 20.92000
C  25.70000 51.54900 21.06800
C  25.19500 50.17200 21.49800
N  25.80600 51.97700 26.32500
C  24.97500 52.54000 25.38100
C  23.80600 53.18600 25.96200
C  23.96800 52.88500 27.31800
C  25.19700 52.15600 27.49800
C  22.68400 54.00000 25.26900
C  23.41000 53.04900 28.62700
O  22.34600 53.58800 28.97600
C  24.34700 52.33000 29.60700
C  24.79500 53.38000 30.66200
O  25.59800 54.31800 30.42200
O  24.16700 53.15300 31.86500
C  24.68800 53.91600 33.04000
H  30.48600 49.12000 28.98500
H  30.38300 50.51000 22.72500
H  24.55700 53.04400 23.43500
H  26.93900 51.51300 31.29800
H  28.59000 49.20200 30.80600
H  29.04900 51.96000 31.78500
H  30.09600 51.64600 30.31900
H  30.22800 50.70500 31.84800
H  26.48300 48.51200 31.12100
H  25.18000 49.56200 30.60300
H  25.14400 48.65100 32.92800
H  24.84500 50.35600 32.65600
H  33.45500 48.74700 27.59000
H  32.63400 47.34700 26.96700
H  32.05000 48.03500 28.39000
H  34.70800 48.80600 23.98100
H  33.75900 47.84600 25.09200
H  34.29000 49.51500 25.67500
H  28.31400 50.39600 21.36400
H  26.83500 53.20300 21.55600
H  30.08000 52.63600 21.50200
H  28.68000 53.00300 20.42400
H  29.70700 51.62300 20.12800
H  26.20900 51.50200 20.10600
H  24.86700 52.24200 20.94600
H  25.36200 49.46700 20.68300
H  24.19800 50.10700 21.93300
H  25.87200 49.78300 22.25800
H  21.77700 54.09300 25.86600
H  22.40200 53.37100 24.42400
H  23.03000 55.01400 25.06900
H  23.78000 51.52600 30.07500
H  24.78100 54.97800 32.81300
H  25.65200 53.49700 33.32800
H  23.96100 53.97700 33.85000

