158

Mg 25.37200 -5.76900 46.48700
C  27.13200 -2.88800 45.59500
C  22.79200 -4.84600 44.47200
C  23.98300 -8.82900 46.76600
C  28.23500 -6.84200 48.04000
N  24.97600 -4.04200 45.27600
C  25.93100 -3.04200 44.96600
C  25.44400 -2.12000 43.80200
C  23.87100 -2.57700 43.68800
C  23.82300 -3.88100 44.53600
C  22.98000 -1.51000 44.31600
C  26.22700 -2.19700 42.43500
C  26.40700 -1.01000 41.52200
H  25.55200 -1.04000 40.22600
N  23.57400 -6.69100 45.79800
C  22.57200 -6.10600 45.04800
C  21.50300 -7.03100 44.87400
C  21.79800 -8.18300 45.63800
C  23.12300 -7.89300 46.18300
C  20.21400 -6.79000 43.99300
C  20.90500 -9.31600 45.76400
O  19.87800 -9.35000 45.14400
C  21.27800 -10.46200 46.66800
N  26.06400 -7.60800 47.17100
C  25.26500 -8.74700 47.23400
C  25.90000 -9.87400 48.02900
C  27.34300 -9.23800 48.36500
C  27.24300 -7.83900 47.85300
C  25.09300 -10.50400 49.28200
C  28.53600 -10.05200 47.80500
C  29.52500 -10.77400 48.71600
N  27.25700 -5.02400 46.88500
C  28.33900 -5.55100 47.52700
C  29.47000 -4.67400 47.54900
C  28.98500 -3.60300 46.76800
C  27.61700 -3.84000 46.45300
C  30.82900 -4.87100 48.17100
C  29.41500 -2.28700 46.20500
O  30.39900 -1.63700 46.34200
C  28.24000 -1.88000 45.28900
C  27.86000 -0.53500 45.63800
O  28.23400 0.43000 45.00900
O  27.11400 -0.58300 46.80200
C  26.55100 0.65500 47.26800
H  21.91400 -4.64000 43.85600
H  23.69200 -9.88000 46.82400
H  29.13600 -7.12300 48.59000
H  25.56100 -1.09500 44.15300
H  23.48800 -2.70800 42.67600
H  23.46900 -0.54000 44.22200
H  22.81500 -1.60700 45.38900
H  22.09200 -1.40500 43.69400
H  25.77500 -3.03700 41.90700
H  27.19200 -2.62400 42.70800
H  27.45400 -1.02200 41.22000
H  26.22300 -0.14600 42.16000
H  19.99800 -7.53000 43.22200
H  20.35500 -5.89600 43.38600
H  19.40200 -6.66200 44.71000
H  21.49700 -10.04200 47.65000
H  22.03600 -11.15900 46.31000
H  20.46800 -11.16500 46.86000
H  25.92100 -10.66800 47.28300
H  27.53200 -9.22900 49.43900
H  25.43100 -9.98500 50.17900
H  25.31200 -11.57200 49.31700
H  24.05200 -10.20300 49.16500
H  29.26100 -9.43100 47.27900
H  28.16200 -10.79400 47.10000
H  29.08200 -10.94300 49.69800
H  30.30700 -10.05000 48.94000
H  29.93200 -11.64100 48.19500
H  31.42700 -3.96300 48.10300
H  31.32300 -5.74500 47.74800
H  30.77700 -5.13800 49.22700
H  28.50300 -1.85400 44.23200
H  25.48800 0.48000 47.43700
H  26.58400 1.43300 46.50400
H  27.06100 1.04700 48.14800
Mg 16.44200 51.51800 25.20300
C  18.02700 50.46300 27.97400
C  13.52800 52.08200 27.18200
C  14.73200 52.52600 22.52100
C  18.80100 50.04000 23.21800
N  15.84700 51.23100 27.30700
C  16.72700 50.94200 28.25900
C  16.31900 51.37900 29.70200
C  14.82300 51.63200 29.37200
C  14.71500 51.71400 27.88200
C  13.85700 50.63300 30.06900
C  17.03500 52.64600 30.24700
C  17.40700 52.70000 31.78700
H  16.55500 51.81200 32.73300
N  14.47100 52.41800 24.94700
C  13.45600 52.58400 25.90700
C  12.38100 53.46300 25.30500
C  12.71300 53.57900 23.90700
C  14.02800 52.87400 23.73600
C  11.23600 54.16500 26.07700
C  11.97600 54.28500 22.74200
O  12.29100 54.20500 21.54900
C  10.78600 55.05200 23.00400
N  16.72200 51.29700 23.14800
C  15.88000 51.80100 22.27600
C  16.37700 51.53600 20.87400
C  17.79700 50.83700 21.07300
C  17.74400 50.73700 22.59200
C  15.43800 50.60800 20.02000
C  18.86200 51.66900 20.40800
C  19.64700 50.94300 19.21600
N  18.10100 50.50000 25.52800
C  19.04200 49.93100 24.61800
C  20.13200 49.34200 25.35700
C  19.75700 49.55400 26.67100
C  18.48200 50.12700 26.69700
C  21.37500 48.70200 24.76700
C  20.23100 49.32200 28.01000
O  21.26600 48.81900 28.42900
C  19.09700 49.91000 28.90900
C  18.54400 48.87300 29.80800
O  17.64900 48.07800 29.63700
O  19.37900 48.83700 30.88700
C  19.01900 47.97200 32.03900
H  12.67800 52.34100 27.81700
H  14.12600 52.87200 21.68100
H  19.49100 49.46800 22.59500
H  16.50000 50.53200 30.36400
H  14.40700 52.55900 29.76700
H  14.38600 50.12100 30.87300
H  13.39100 49.90100 29.40900
H  13.07300 51.17500 30.59800
H  16.27100 53.42300 30.21500
H  17.93700 52.90600 29.69300
H  17.36000 53.71900 32.17000
H  18.37800 52.22100 31.91300
H  10.25300 53.88400 25.70000
H  11.34300 55.22600 25.85000
H  11.29400 53.91900 27.13800
H  11.01900 55.82100 23.74000
H  10.08600 54.41000 23.53800
H  10.30500 55.36700 22.07700
H  16.47600 52.58700 20.60500
H  17.87000 49.81000 20.71600
H  14.66700 50.15400 20.64200
H  15.93100 49.73600 19.58900
H  15.00800 51.14400 19.17400
H  19.58800 52.06700 21.11700
H  18.36200 52.52600 19.95600
H  20.69300 51.23700 19.30000
H  19.09600 51.12000 18.29200
H  19.63800 49.86800 19.39600
H  22.27200 49.02600 25.29600
H  21.52100 49.18400 23.80000
H  21.28200 47.61900 24.68500
H  19.53200 50.62400 29.60900
H  17.97500 47.69900 31.88700
H  19.00700 48.40100 33.04100
H  19.70500 47.12700 31.97400

