158

Mg 27.68900 50.51600 27.00700
C  25.52200 51.02400 29.63500
C  30.12900 49.72400 29.19300
C  29.56300 50.03400 24.35800
C  25.07700 51.72200 24.78300
N  27.80300 50.30100 29.19200
C  26.79000 50.55400 30.03200
C  27.23600 50.30500 31.44700
C  28.79300 50.15900 31.39600
C  28.92200 49.96000 29.84100
C  29.55700 51.37200 31.96000
C  26.46900 49.22200 32.36800
C  27.03800 49.08400 33.77600
H  26.10200 49.41100 35.00200
N  29.52600 49.80600 26.84100
C  30.38600 49.50100 27.84500
C  31.57700 49.05200 27.25600
C  31.41900 49.10200 25.88300
C  30.12800 49.61200 25.61700
C  32.85100 48.47100 27.95200
C  32.36600 48.69100 24.83300
O  32.16300 48.78800 23.66700
C  33.77300 48.18600 25.22700
N  27.40500 51.11900 24.89800
C  28.31100 50.61800 24.04100
C  27.88300 50.78100 22.54000
C  26.36300 51.17600 22.69300
C  26.27500 51.35100 24.19400
C  28.79400 51.83300 21.83300
C  25.34800 50.11900 22.11300
C  25.36800 48.68400 22.69600
N  25.76700 51.41700 27.12300
C  24.86200 51.72800 26.14900
C  23.60100 52.15000 26.84200
C  23.80200 51.88300 28.25700
C  25.13900 51.41700 28.31000
C  22.45100 52.65200 26.02900
C  23.14800 51.90700 29.58100
O  22.04300 52.34600 29.96300
C  24.35500 51.42200 30.49500
C  24.61000 52.56200 31.43300
O  25.08600 53.62300 30.94300
O  24.21300 52.38500 32.74100
C  24.63700 53.40400 33.68800
H  30.98400 49.47800 29.82800
H  30.22200 50.08200 23.48800
H  24.25400 51.71100 24.06500
H  26.86100 51.22800 31.89000
H  29.05800 49.21800 31.87900
H  30.17200 51.73400 31.13600
H  30.15100 51.14100 32.84400
H  28.95700 52.26100 32.15800
H  26.45200 48.25400 31.86600
H  25.43900 49.57400 32.43400
H  27.84100 49.80000 33.95300
H  27.48600 48.11000 33.97300
H  33.05400 47.40100 27.98700
H  32.72300 48.80700 28.98100
H  33.77600 49.04700 27.89500
H  34.16300 49.03600 25.78800
H  34.41000 48.06400 24.35100
H  33.63000 47.20700 25.68300
H  28.02700 49.88300 21.94000
H  26.17600 52.18000 22.31200
H  29.53000 52.22100 22.53700
H  28.17400 52.65500 21.47600
H  29.25600 51.39200 20.94900
H  25.59100 49.99600 21.05700
H  24.32500 50.47900 22.21500
H  25.99100 48.70200 23.59100
H  25.83300 48.00100 21.98500
H  24.40900 48.29500 23.03900
H  21.56500 52.59800 26.66200
H  22.25300 52.08600 25.11900
H  22.84200 53.65600 25.86000
H  24.02700 50.50700 30.98800
H  24.19400 54.34000 33.34900
H  25.70700 53.59400 33.60300
H  24.40700 53.27800 34.74600
Mg -5.42000 24.68700 25.96300
C  -4.09400 26.08100 28.84100
C  -7.17500 22.41700 27.96400
C  -6.43900 23.21500 23.30500
C  -3.39100 26.77200 24.12300
N  -5.63600 24.42100 28.17700
C  -5.01600 25.13500 29.14900
C  -5.55600 24.78700 30.55900
C  -6.32000 23.41200 30.26300
C  -6.36500 23.36900 28.70000
C  -5.67700 22.10500 30.86300
C  -6.48200 25.81600 31.24300
C  -6.21200 26.12500 32.72800
H  -7.19400 25.41400 33.69100
N  -6.70300 23.20000 25.68200
C  -7.39100 22.43200 26.57400
C  -8.39400 21.72000 25.94200
C  -8.24000 21.92400 24.55400
C  -7.03500 22.79500 24.45700
C  -9.44100 20.93700 26.60600
C  -9.01200 21.35500 23.40000
O  -8.59200 21.40000 22.22400
C  -10.33600 20.54600 23.54000
N  -4.76500 24.79300 24.01400
C  -5.41900 24.10800 23.09500
C  -4.89700 24.48500 21.72400
C  -4.09100 25.72500 21.96800
C  -4.05500 25.79700 23.44300
C  -4.20800 23.37500 20.91600
C  -4.41900 27.05200 21.14300
C  -3.24000 27.85100 20.56400
N  -3.89100 26.10700 26.34200
C  -3.24900 26.99300 25.51900
C  -2.30500 27.86600 26.22900
C  -2.70000 27.57200 27.57700
C  -3.65500 26.51700 27.59200
C  -1.27300 28.87600 25.65700
C  -2.51800 28.07000 28.96400
O  -1.82800 28.98200 29.41100
C  -3.40600 27.13300 29.84300
C  -2.53800 26.49200 30.92800
O  -1.68400 25.64600 30.77100
O  -2.79800 27.18900 32.10200
C  -1.79600 26.91600 33.15800
H  -7.64500 21.65400 28.58700
H  -6.70800 22.65600 22.40600
H  -2.81400 27.43600 23.47700
H  -4.65200 24.53900 31.11500
H  -7.38700 23.55600 30.43400
H  -6.46400 21.52000 31.33900
H  -4.98900 22.39100 31.65900
H  -5.06900 21.51700 30.17600
H  -7.49600 25.42700 31.14500
H  -6.44600 26.74900 30.68000
H  -6.28700 27.19700 32.90900
H  -5.23000 25.73500 32.99800
H  -10.41900 21.14800 26.17400
H  -9.43300 21.10900 27.68300
H  -9.27900 19.87100 26.44100
H  -10.78900 20.37400 22.56300
H  -11.00600 21.28300 23.98200
H  -10.27000 19.62500 24.11800
H  -5.80500 24.68800 21.15500
H  -3.08200 25.41300 21.70000
H  -4.45700 22.40500 21.34700
H  -3.12500 23.49100 20.94700
H  -4.48200 23.41900 19.86100
H  -5.15300 27.71200 21.60400
H  -5.06100 26.59800 20.38900
H  -3.53900 27.97200 19.52200
H  -2.34000 27.23600 20.55600
H  -2.98700 28.82700 20.97800
H  -0.63400 29.18100 26.48600
H  -1.79000 29.80800 25.43100
H  -0.71200 28.44100 24.83000
H  -4.06300 27.80700 30.39200
H  -2.10900 26.08200 33.78500
H  -1.94900 27.77200 33.81600
H  -0.77400 26.78800 32.80100

