158

Mg 40.42400 10.23400 29.42000
C  42.18400 11.35300 32.13500
C  38.07100 8.99200 31.53300
C  38.82000 8.92900 26.71600
C  42.96500 11.35200 27.17700
N  40.25800 10.04600 31.56700
C  40.99600 10.75700 32.45400
C  40.39500 10.68400 33.87500
C  39.23000 9.73200 33.67100
C  39.09900 9.63000 32.15600
C  39.43600 8.29200 34.24000
C  39.93300 12.00400 34.57900
C  39.53800 12.07100 36.12300
H  40.44900 12.52200 37.27300
N  38.61100 9.16800 29.16000
C  37.78800 8.77400 30.19000
C  36.57400 8.20800 29.54200
C  36.82400 8.14800 28.17900
C  38.09300 8.79200 27.99000
C  35.32900 7.94400 30.34200
C  35.98000 7.40700 27.17000
O  36.40900 7.07400 26.07600
C  34.53300 7.07100 27.59000
N  40.83200 10.13700 27.17400
C  39.97300 9.61800 26.27000
C  40.47800 9.75800 24.81400
C  41.66000 10.83100 25.01400
C  41.93100 10.74100 26.52300
C  40.93100 8.44700 24.13700
C  41.37300 12.37200 24.75000
C  39.94000 12.89700 24.71800
N  42.22500 10.98000 29.57700
C  43.18800 11.39300 28.62800
C  44.32200 11.96200 29.33900
C  43.97300 12.00700 30.72200
C  42.68000 11.41300 30.82600
C  45.59600 12.45300 28.75100
C  44.50800 12.40700 31.99700
O  45.60200 12.91300 32.25300
C  43.30700 12.02300 32.99700
C  43.81600 11.08100 34.01500
O  43.89600 9.86400 33.89100
O  44.13500 11.74500 35.13200
C  44.69000 10.96700 36.21000
H  37.33800 8.61400 32.24900
H  38.37000 8.55700 25.79400
H  43.67800 11.91500 26.57200
H  41.20100 10.34800 34.52600
H  38.35000 10.13700 34.17200
H  38.97200 8.15700 35.21700
H  40.48000 7.98100 34.25400
H  39.03000 7.54900 33.55400
H  39.10300 12.48900 34.06400
H  40.76400 12.70900 34.56900
H  39.39600 11.01900 36.37000
H  38.59300 12.60900 36.18100
H  35.41600 8.04000 31.42400
H  35.18100 6.86600 30.28400
H  34.47500 8.56500 30.07200
H  34.18500 6.69800 26.62600
H  34.00800 8.00600 27.78400
H  34.41200 6.30700 28.35700
H  39.75400 10.27200 24.18100
H  42.58100 10.57800 24.48900
H  40.49500 8.35900 23.14200
H  40.74200 7.62600 24.82900
H  42.00300 8.64300 24.16800
H  41.74500 12.57400 23.74600
H  42.04900 12.97700 25.35600
H  39.46500 12.87200 23.73700
H  40.00800 13.90700 25.12400
H  39.41700 12.47500 25.57500
H  45.96000 13.17200 29.48500
H  45.51400 13.07800 27.86200
H  46.22700 11.58500 28.55800
H  42.91000 12.90300 33.50300
H  45.13700 10.02800 35.88400
H  43.84200 10.67000 36.82700
H  45.32000 11.67000 36.75600
Mg 49.52900 46.03100 42.52000
C  46.14700 46.95200 41.47400
C  48.86500 42.85600 40.93300
C  52.78900 45.54500 42.28100
C  50.09100 49.45800 42.96300
N  47.64500 45.00100 41.50800
C  46.43000 45.62700 41.15100
C  45.62000 44.82500 40.12700
C  46.49900 43.49700 39.99600
C  47.72000 43.76000 40.82600
C  45.74700 42.21300 40.37700
C  45.36400 45.62900 38.78900
C  43.91300 45.74700 38.20700
H  43.67600 45.44800 36.73300
N  50.64000 44.36300 42.01900
C  50.16500 43.15500 41.41700
C  51.34000 42.26800 41.36400
C  52.49200 42.96100 41.79800
C  52.04500 44.33500 42.09600
C  51.33100 40.88900 40.74900
C  53.94900 42.40300 41.76200
O  54.21700 41.26400 41.32800
C  55.18900 43.22300 42.25300
N  51.21300 47.24800 42.42300
C  52.43200 46.84100 42.47800
C  53.45300 47.84400 43.00100
C  52.52600 49.10800 43.24000
C  51.18200 48.58300 42.88300
C  54.43100 47.49800 44.16100
C  52.86800 50.49800 42.53300
C  53.10800 51.79000 43.44900
N  48.33500 47.87200 42.45100
C  48.72200 49.20200 42.62800
C  47.54800 50.01100 42.70700
C  46.50800 49.19700 42.23300
C  47.04200 47.88300 42.08600
C  47.53500 51.48000 43.14800
C  45.05900 49.05100 42.06300
O  44.22100 49.83200 42.39300
C  44.82800 47.68100 41.41500
C  43.72200 46.96300 42.04700
O  43.71500 46.51400 43.20500
O  42.70400 46.69600 41.11000
C  41.70800 45.64800 41.46400
H  48.80400 41.89200 40.42400
H  53.87600 45.44100 42.26400
H  50.34500 50.39300 43.46700
H  44.64100 44.61100 40.55700
H  47.03800 43.34200 39.06100
H  46.20800 41.70400 41.22300
H  45.78500 41.61000 39.46900
H  44.67000 42.35300 40.46300
H  46.09100 45.21900 38.08800
H  45.69000 46.66700 38.85100
H  43.64900 46.78200 38.42600
H  43.10600 45.23000 38.72600
H  52.15900 40.82300 40.04300
H  50.44400 40.64200 40.16500
H  51.19300 40.18600 41.57100
H  55.64400 43.75900 41.42000
H  55.96400 42.52800 42.57500
H  54.80100 43.88500 43.02700
H  54.03800 47.89600 42.08200
H  52.50700 49.20600 44.32600
H  55.44500 47.87800 44.04200
H  54.47700 46.41000 44.21800
H  54.02100 47.76400 45.13500
H  52.07000 50.63100 41.80200
H  53.82900 50.38700 42.03000
H  54.16400 51.97700 43.25200
H  52.88600 51.49300 44.47400
H  52.57800 52.71500 43.22300
H  48.22900 51.67700 43.96600
H  46.51900 51.79400 43.38500
H  47.76400 52.18600 42.35000
H  44.66500 47.91300 40.36300
H  40.76200 46.13800 41.69400
H  42.04900 45.10700 42.34600
H  41.62900 44.86900 40.70600

