158

Mg 0.77700 -2.51000 44.60700
C  4.04000 -1.59400 43.81600
C  -0.33100 0.30100 42.97600
C  -2.43000 -3.62800 44.97300
C  2.00600 -5.55800 45.95100
N  1.77100 -0.88000 43.49000
C  3.10600 -0.76000 43.25100
C  3.38000 0.44000 42.28200
C  2.02200 1.20900 42.26500
C  1.09500 0.17800 42.97600
C  1.93700 2.60500 42.92800
C  3.98200 0.02200 40.91900
C  5.31500 0.61600 40.44900
H  5.17700 1.56300 39.17200
N  -1.14400 -1.87400 43.99900
C  -1.34800 -0.62500 43.45200
C  -2.73500 -0.35500 43.28400
C  -3.41300 -1.47400 43.89100
C  -2.31700 -2.40300 44.32900
C  -3.27700 0.89800 42.68400
C  -4.92700 -1.73100 43.99400
O  -5.77500 -0.92900 43.53400
C  -5.46300 -2.93500 44.68600
N  -0.12800 -4.33800 45.33800
C  -1.45700 -4.57500 45.34800
C  -1.75600 -5.98300 46.05600
C  -0.34300 -6.52800 46.25900
C  0.58400 -5.41400 45.77500
C  -2.68400 -5.90300 47.27900
C  -0.07500 -7.89600 45.57500
C  0.68900 -8.94200 46.39300
N  2.64300 -3.36200 45.01700
C  2.98900 -4.62800 45.59000
C  4.48300 -4.73200 45.56800
C  4.89600 -3.51800 44.98800
C  3.75600 -2.76000 44.57600
C  5.27100 -5.93500 46.01800
C  6.05100 -2.77600 44.59800
O  7.27300 -3.01600 44.77300
C  5.53500 -1.53900 43.76400
C  6.10200 -0.23700 44.21200
O  6.92100 0.36600 43.52100
O  5.57900 0.24600 45.39600
C  6.07700 1.46500 45.96600
H  -0.74000 1.21300 42.53700
H  -3.35000 -4.13600 45.26800
H  2.27400 -6.58700 46.19700
H  4.11100 1.11700 42.72400
H  1.74800 1.35200 41.22000
H  1.59000 3.37700 42.24000
H  2.94900 2.80900 43.27900
H  1.16300 2.47500 43.68400
H  3.26400 0.23800 40.12800
H  4.08200 -1.06300 40.92400
H  5.99300 -0.15400 40.07800
H  5.76800 1.20500 41.24600
H  -4.34000 0.83400 42.45000
H  -2.73800 1.00800 41.74300
H  -3.03800 1.67300 43.41200
H  -5.00200 -2.85500 45.67000
H  -5.31000 -3.90400 44.21000
H  -6.54700 -2.83500 44.73800
H  -2.28100 -6.54700 45.28500
H  -0.17600 -6.75600 47.31100
H  -2.83700 -4.85800 47.55200
H  -2.18200 -6.24500 48.18400
H  -3.59300 -6.50000 47.20500
H  0.60700 -7.72400 44.74200
H  -0.99000 -8.45400 45.37500
H  1.69100 -9.04900 45.97700
H  0.25400 -9.94100 46.39400
H  0.68600 -8.75400 47.46700
H  4.83500 -6.31900 46.94100
H  6.27200 -5.55600 46.22500
H  5.29300 -6.72200 45.26500
H  5.85400 -1.59800 42.72400
H  6.91900 1.91000 45.43500
H  6.40800 1.16900 46.96200
H  5.22700 2.14700 46.00800
Mg -12.01700 15.89600 41.52800
C  -9.25700 13.84500 41.11000
C  -10.23900 18.46100 40.16900
C  -15.00300 17.62800 41.21900
C  -13.84200 13.18600 42.86000
N  -9.99200 16.09900 40.77400
C  -8.97400 15.21200 40.82600
C  -7.67600 15.85400 40.32700
C  -7.98800 17.38600 40.28600
C  -9.50600 17.35300 40.45000
C  -7.36800 18.18500 41.41200
C  -7.14600 15.18800 39.02200
C  -5.60100 14.93500 38.95800
H  -4.92700 15.71000 37.80200
N  -12.57400 17.77300 40.82100
C  -11.63800 18.66600 40.26700
C  -12.37900 19.68500 39.64300
C  -13.81000 19.56600 39.92400
C  -13.88000 18.28100 40.74400
C  -11.76300 20.83300 38.92200
C  -14.89400 20.51100 39.50700
O  -14.64700 21.42500 38.75000
C  -16.27200 20.34500 40.05100
N  -14.13700 15.48300 41.99400
C  -15.18800 16.35400 41.78200
C  -16.49200 15.81900 42.23900
C  -16.06600 14.41600 42.80100
C  -14.55000 14.32900 42.56600
C  -17.21900 16.72700 43.18800
C  -17.00900 13.23200 42.20700
C  -17.89600 12.42400 43.23700
N  -11.71700 13.86200 41.89500
C  -12.50800 12.88200 42.42500
C  -11.69100 11.67400 42.52400
C  -10.42100 11.96500 42.04900
C  -10.51000 13.30100 41.65300
C  -12.12000 10.41700 43.23700
C  -9.03300 11.54400 41.82400
O  -8.46400 10.50500 42.04800
C  -8.30400 12.72000 41.23100
C  -7.13300 13.13200 42.17600
O  -7.32400 13.62800 43.23100
O  -5.86800 12.73200 41.61300
C  -4.79300 13.34300 42.38800
H  -9.57200 19.32100 40.07900
H  -15.94400 18.16000 41.06800
H  -14.45100 12.36400 43.24300
H  -6.98100 15.71400 41.15500
H  -7.52100 17.75200 39.37200
H  -8.12000 18.44100 42.15800
H  -7.04000 19.14000 41.00200
H  -6.45700 17.74900 41.82300
H  -7.39200 15.97700 38.31100
H  -7.80600 14.35200 38.78800
H  -5.38900 13.87200 38.85000
H  -5.15300 15.21000 39.91300
H  -12.03700 20.97000 37.87600
H  -10.67600 20.88300 38.98600
H  -12.07000 21.78400 39.35800
H  -16.85400 21.11600 39.54700
H  -16.18800 20.33200 41.13800
H  -16.72700 19.39100 39.78500
H  -17.09800 15.71500 41.33900
H  -16.07900 14.27400 43.88100
H  -18.20000 16.88900 42.74000
H  -16.64200 17.64300 43.31300
H  -17.26500 16.19600 44.13900
H  -16.44800 12.46900 41.66800
H  -17.65400 13.58100 41.40100
H  -17.96500 13.03400 44.13700
H  -17.69600 11.37300 43.44300
H  -18.90400 12.28000 42.84700
H  -12.78800 9.87900 42.56500
H  -12.79200 10.82500 43.99200
H  -11.33100 9.73100 43.54400
H  -7.75000 12.59500 40.30100
H  -4.76400 12.84600 43.35800
H  -4.81500 14.43200 42.44000
H  -3.93900 13.13100 41.74400

