158

Mg 1.60300 -0.92900 44.12800
C  4.89100 0.10900 43.62000
C  0.46500 1.79400 42.52000
C  -1.43900 -2.51500 44.00900
C  3.04300 -4.11300 45.05300
N  2.55700 0.63200 43.10200
C  3.88600 0.96000 43.21400
C  4.11300 2.48200 42.76300
C  2.65500 2.98300 42.47300
C  1.82800 1.71600 42.70200
C  2.22400 4.25200 43.20700
C  4.98500 2.51100 41.45500
C  5.15300 1.32100 40.41600
H  6.45900 1.25200 39.68600
N  -0.28100 -0.37600 43.35400
C  -0.49500 0.82100 42.80000
C  -1.91400 0.82300 42.46500
C  -2.52100 -0.33900 42.93000
C  -1.38200 -1.15500 43.42000
C  -2.46200 1.95100 41.81600
C  -3.97400 -0.75500 42.75800
O  -4.80000 0.00800 42.30800
C  -4.52600 -2.11800 43.01700
N  0.92500 -2.95700 44.50300
C  -0.39700 -3.31300 44.45000
C  -0.60600 -4.76400 44.97300
C  0.80300 -5.25000 45.19200
C  1.64900 -4.04200 44.88100
C  -1.49700 -4.83700 46.24100
C  1.16600 -6.60100 44.55100
C  0.88300 -7.86100 45.43200
N  3.61000 -1.90600 44.28700
C  3.97200 -3.14700 44.72700
C  5.39600 -3.15400 44.83700
C  5.80300 -1.85400 44.47700
C  4.70100 -1.18900 43.95300
C  6.19800 -4.23300 45.31700
C  6.95200 -0.93700 44.40600
O  8.12600 -1.16300 44.82500
C  6.36100 0.41100 43.87200
C  6.40400 1.38700 44.99900
O  5.85200 1.38200 46.07600
O  7.29900 2.45500 44.64300
C  7.65400 3.48300 45.61100
H  0.16400 2.73100 42.04800
H  -2.42000 -2.97700 44.13800
H  3.42800 -5.05800 45.44000
H  4.57500 3.05900 43.56400
H  2.53800 3.23300 41.41800
H  1.45300 4.03500 43.94600
H  1.80200 4.95600 42.49000
H  3.04600 4.65500 43.79900
H  5.89200 2.86400 41.94600
H  4.70900 3.44500 40.96500
H  4.38400 1.54300 39.67700
H  4.86000 0.39700 40.91500
H  -2.08700 1.80500 40.80300
H  -2.27300 2.86900 42.37100
H  -3.52700 1.86100 41.60200
H  -4.07400 -2.93600 42.45600
H  -5.57600 -2.10300 42.72400
H  -4.45000 -2.36900 44.07500
H  -0.98800 -5.29900 44.10300
H  0.95600 -5.39700 46.26100
H  -2.13900 -3.96100 46.32500
H  -0.96900 -4.86100 47.19400
H  -2.29000 -5.58300 46.18800
H  2.22800 -6.64700 44.30800
H  0.70200 -6.74400 43.57500
H  0.48900 -8.74900 44.93700
H  0.13100 -7.61000 46.18000
H  1.81500 -8.13100 45.92800
H  5.67900 -4.53500 46.22600
H  7.17300 -3.80900 45.56000
H  6.26300 -5.12200 44.69100
H  7.05500 0.75900 43.10700
H  6.92500 3.51300 46.42100
H  7.65100 4.39700 45.01800
H  8.64700 3.23300 45.98300
Mg 5.91400 53.18100 41.10900
C  5.77500 49.75300 40.31300
C  9.19700 53.17700 39.64800
C  5.75900 56.52700 40.90600
C  2.56700 52.94700 41.98500
N  7.32600 51.62100 40.20200
C  7.08500 50.31000 40.06900
C  8.43600 49.58500 39.64000
C  9.50100 50.72400 39.83200
C  8.62200 51.94300 39.85500
C  10.28300 50.58900 41.16600
C  8.28600 49.08800 38.20100
C  7.56300 49.99300 37.10900
H  8.13100 49.88400 35.68800
N  7.29200 54.67200 40.37000
C  8.52800 54.44500 39.79000
C  9.14800 55.73300 39.61000
C  8.18300 56.75700 39.93300
C  7.01900 55.99300 40.46900
C  10.44200 55.96800 38.96600
C  8.37400 58.27400 39.74200
O  9.35600 58.68400 39.16400
C  7.42100 59.31500 40.32200
N  4.36000 54.49400 41.48900
C  4.56800 55.85500 41.31200
C  3.35500 56.57500 41.74900
C  2.29100 55.40600 41.97200
C  3.09500 54.20900 41.83900
C  3.71700 57.39300 43.00500
C  1.02000 55.44600 40.98400
C  -0.26700 55.56600 41.73900
N  4.52500 51.68900 41.25000
C  3.22200 51.75900 41.66200
C  2.61700 50.48300 41.72300
C  3.58400 49.64700 41.19300
C  4.73700 50.46000 40.88300
C  1.34800 50.00000 42.24600
C  3.94500 48.29400 40.84400
O  3.28400 47.29200 40.94600
C  5.39600 48.29200 40.21400
C  5.23600 47.86100 38.82200
O  4.43400 48.26200 38.01100
O  6.00800 46.77700 38.70300
C  5.85000 46.20000 37.33300
H  10.24000 53.17600 39.32600
H  5.75200 57.61100 41.03600
H  1.49600 53.00000 42.19000
H  8.60600 48.69200 40.24100
H  10.14400 50.88600 38.96700
H  11.31900 50.46000 40.85500
H  9.97300 49.71700 41.74300
H  10.11000 51.41500 41.85600
H  8.03100 48.04100 38.36500
H  9.35600 48.93000 38.06400
H  7.68700 51.00900 37.48200
H  6.51100 49.71000 37.15200
H  10.38200 56.32100 37.93600
H  11.07200 55.08000 38.92400
H  10.91100 56.77600 39.52700
H  7.80000 60.27400 39.96800
H  7.43100 59.27900 41.41100
H  6.41800 59.16200 39.92400
H  3.04400 57.23700 40.94100
H  1.94100 55.45800 43.00300
H  3.06900 57.02100 43.79900
H  3.55000 58.46400 42.88900
H  4.76100 57.19200 43.24500
H  0.92200 54.51400 40.42600
H  1.15000 56.17700 40.18600
H  -0.11700 55.62600 42.81700
H  -0.93000 54.77500 41.39100
H  -0.81100 56.46000 41.43100
H  0.59700 50.38800 41.55800
H  1.15100 50.34400 43.26200
H  1.22400 48.91900 42.18100
H  6.01500 47.58300 40.76500
H  6.76500 45.71000 37.00100
H  5.75500 46.96300 36.56100
H  5.05500 45.46700 37.19600

