158

Mg 40.62900 9.20000 30.00400
C  42.49900 10.56700 32.68100
C  38.17200 8.35300 32.10800
C  39.09800 7.73400 27.39900
C  43.30700 9.99700 27.94400
N  40.42400 9.38900 32.23000
C  41.26800 9.99000 33.10200
C  40.81700 9.71800 34.54800
C  39.37000 8.99600 34.32700
C  39.29200 8.86600 32.77800
C  39.26200 7.57100 34.98600
C  40.66700 11.03000 35.42700
C  40.80600 10.94200 36.98300
H  40.67000 12.21800 37.85300
N  38.80100 8.27400 29.73400
C  37.86600 8.16100 30.69000
C  36.70100 7.63600 30.08100
C  36.89500 7.55000 28.68200
C  38.30900 7.89100 28.48800
C  35.45600 7.34100 30.89000
C  35.91400 7.07300 27.55700
O  36.35500 6.88400 26.45700
C  34.46800 6.67700 27.89400
N  41.19400 8.82300 27.92900
C  40.34200 8.21800 27.12300
C  40.92800 8.09100 25.65400
C  42.24400 8.86600 25.90900
C  42.24000 9.32000 27.36400
C  40.87000 6.63100 24.91700
C  42.42200 9.98900 24.83200
C  41.68700 11.30500 24.96300
N  42.52500 10.07700 30.18800
C  43.49300 10.36300 29.26300
C  44.62700 10.97700 29.91200
C  44.26500 11.17900 31.25000
C  42.97500 10.55800 31.37700
C  45.84400 11.48900 29.29500
C  44.63400 11.70700 32.54900
O  45.55400 12.35900 32.88000
C  43.49100 11.34000 33.54200
C  44.09900 10.37300 34.57500
O  44.43800 9.20800 34.37100
O  44.35300 10.97000 35.77800
C  44.92500 10.12400 36.87300
H  37.35500 8.19000 32.81300
H  38.75900 7.28400 26.46300
H  44.13900 10.19500 27.26500
H  41.51100 9.00000 34.98400
H  38.53500 9.60900 34.66700
H  40.20900 7.33900 35.47400
H  39.21400 6.76000 34.26000
H  38.48900 7.55200 35.75400
H  39.61500 11.28700 35.30000
H  41.22500 11.93800 35.19700
H  41.81200 10.53800 37.10400
H  40.18600 10.18500 37.46300
H  35.64000 7.49100 31.95400
H  35.16900 6.29400 30.80000
H  34.58500 7.86600 30.49700
H  33.90600 7.46700 28.39300
H  34.35700 5.70100 28.36600
H  34.06200 6.72600 26.88300
H  40.32300 8.76200 25.04300
H  42.97600 8.06800 25.78300
H  40.57800 5.87900 25.65000
H  41.83400 6.41100 24.45900
H  40.15100 6.64500 24.09800
H  42.16800 9.54200 23.87100
H  43.45500 10.31400 24.95400
H  42.32900 11.92100 25.59200
H  40.77300 11.26300 25.55600
H  41.41300 11.75100 24.00700
H  46.71200 11.54700 29.95200
H  45.61200 12.54300 29.13700
H  46.01800 10.92900 28.37700
H  43.17200 12.21500 34.10900
H  44.33700 9.21000 36.95900
H  44.71100 10.72900 37.75400
H  45.99900 10.01100 36.72800
Mg -9.77100 38.71700 41.17500
C  -9.12700 35.28900 40.68500
C  -6.68600 39.44900 39.91100
C  -10.83300 41.90700 40.73000
C  -13.13700 37.82200 42.20500
N  -8.07700 37.46900 40.47400
C  -7.92000 36.05100 40.33000
C  -6.57500 35.58900 39.78500
C  -5.82000 36.98700 39.71000
C  -6.89200 38.00700 40.08800
C  -4.56000 37.14300 40.61500
C  -6.75600 34.85900 38.48900
C  -5.46700 34.12300 38.09700
H  -4.79300 34.59600 36.73200
N  -8.86100 40.36400 40.48700
C  -7.60700 40.51700 40.10000
C  -7.32500 41.87500 39.66000
C  -8.57100 42.57000 39.67400
C  -9.48500 41.59600 40.29900
C  -5.97200 42.22700 39.16100
C  -8.86800 43.95600 39.07900
O  -7.97400 44.77600 38.68000
C  -10.24900 44.56400 39.10500
N  -11.90100 39.66900 41.23300
C  -11.86100 41.05700 41.14500
C  -13.16900 41.58300 41.86300
C  -13.90000 40.32900 42.32700
C  -13.02300 39.19100 41.82500
C  -12.95800 42.65300 43.01200
C  -15.37800 40.12300 41.80100
C  -16.50300 39.79000 42.81900
N  -10.88300 37.00900 41.46700
C  -12.22800 36.80000 41.81400
C  -12.48800 35.37000 41.98700
C  -11.26000 34.76900 41.53900
C  -10.35600 35.82200 41.12000
C  -13.78700 34.71500 42.56800
C  -10.71700 33.49900 41.39600
O  -11.16700 32.41300 41.70200
C  -9.35300 33.78500 40.71400
C  -8.34000 32.94500 41.36500
O  -7.64000 32.07200 40.82000
O  -8.18000 33.34600 42.66900
C  -7.09200 32.65000 43.39000
H  -5.70800 39.56600 39.43900
H  -11.17100 42.94500 40.73800
H  -14.05700 37.58400 42.74300
H  -6.23500 34.90800 40.56500
H  -5.51400 37.16100 38.67800
H  -4.04700 36.24600 40.96300
H  -4.66600 37.80400 41.47500
H  -3.84800 37.63700 39.95400
H  -7.06400 35.49700 37.66100
H  -7.56500 34.13300 38.56600
H  -5.76100 33.09200 37.90200
H  -4.78500 34.11900 38.94700
H  -5.37900 41.87300 40.00400
H  -5.74600 43.29200 39.10900
H  -5.71200 41.77000 38.20600
H  -10.95700 43.88500 38.62900
H  -10.19700 45.50100 38.55000
H  -10.72100 44.83000 40.05000
H  -13.81100 42.13800 41.17900
H  -13.82100 40.31800 43.41400
H  -11.90700 42.76700 43.27600
H  -13.58500 42.51900 43.89300
H  -13.39500 43.55700 42.58600
H  -15.41100 39.32000 41.06500
H  -15.69600 40.99200 41.22600
H  -16.84000 38.77400 42.61400
H  -17.37800 40.43700 42.87900
H  -16.07500 39.82300 43.82100
H  -14.71800 34.80400 42.00800
H  -13.97500 35.08300 43.57600
H  -13.69400 33.62900 42.54800
H  -9.39300 33.38800 39.69900
H  -7.26800 31.57700 43.32000
H  -7.13500 32.97500 44.42900
H  -6.15500 32.91000 42.89700

