158

Mg 41.36700 9.45700 29.76700
C  43.18100 10.61900 32.43500
C  39.17800 7.81400 32.08300
C  39.56500 8.27500 27.30900
C  43.86300 10.32000 27.62500
N  41.27600 9.15900 32.04500
C  42.03100 9.89000 32.88000
C  41.50000 9.90900 34.29500
C  40.56000 8.64000 34.14500
C  40.30100 8.50300 32.63500
C  40.85300 7.23800 34.78000
C  40.82600 11.32000 34.70400
C  40.37300 11.41600 36.20800
H  41.10900 12.41200 37.18700
N  39.57100 8.33400 29.65400
C  38.81800 7.80600 30.69100
C  37.59300 7.24800 30.10600
C  37.58700 7.52200 28.72000
C  38.95700 8.03600 28.51600
C  36.52900 6.59300 30.89100
C  36.52400 7.28000 27.68100
O  36.79700 7.29200 26.47600
C  35.04400 7.10600 28.01900
N  41.72100 9.38000 27.71800
C  40.73200 8.91400 26.89900
C  41.15500 9.00000 25.44200
C  42.58400 9.70500 25.59300
C  42.75900 9.79900 27.03800
C  41.30500 7.50900 24.83800
C  42.62400 10.97900 24.70800
C  43.07400 10.73000 23.29600
N  43.22400 10.28400 29.96000
C  44.13400 10.61700 29.01600
C  45.30400 11.30200 29.65700
C  45.01200 11.35200 31.03500
C  43.72000 10.78700 31.13000
C  46.46600 11.86300 28.90200
C  45.40200 11.77600 32.30000
O  46.42900 12.37000 32.60000
C  44.23600 11.29600 33.31900
C  44.79300 10.34900 34.39900
O  44.97000 9.17000 34.23700
O  45.01600 10.96700 35.60500
C  45.22700 10.08400 36.76600
H  38.31300 7.55400 32.69600
H  38.98900 7.91300 26.45500
H  44.68700 10.64300 26.98500
H  42.27200 9.72400 35.04200
H  39.67000 8.96900 34.68200
H  41.82900 7.27700 35.26300
H  40.94200 6.46600 34.01600
H  40.03500 7.04600 35.47600
H  39.94000 11.32500 34.07000
H  41.52400 12.10600 34.41300
H  40.37200 10.44200 36.69700
H  39.34100 11.76800 36.20300
H  36.80200 6.35800 31.91900
H  36.26000 5.62300 30.47200
H  35.58500 7.13300 30.96300
H  34.91500 6.44500 28.87600
H  34.57000 6.62300 27.16500
H  34.56400 8.07100 28.17900
H  40.46000 9.58200 24.83700
H  43.39500 9.07000 25.23800
H  40.53200 7.21300 24.13000
H  41.25500 6.70400 25.57100
H  42.25200 7.39900 24.30900
H  43.29900 11.78000 25.00800
H  41.61700 11.34200 24.50400
H  42.38700 9.98800 22.88800
H  44.07700 10.30300 23.28100
H  43.03500 11.60500 22.64800
H  46.23600 11.75000 27.84300
H  47.37000 11.35700 29.24200
H  46.57500 12.93900 29.04000
H  43.65800 12.07100 33.82200
H  45.63000 9.09600 36.54600
H  44.24500 9.93800 37.21700
H  46.00200 10.60000 37.33300
Mg 1.03200 42.71100 26.27300
C  3.40300 42.63300 28.98500
C  -1.51700 42.22800 28.48100
C  -1.07500 42.59100 23.58600
C  3.75100 42.85700 24.13400
N  1.05700 42.55700 28.47700
C  2.01000 42.55700 29.37500
C  1.39400 42.47500 30.80000
C  -0.10700 42.11900 30.60900
C  -0.21600 42.23900 29.08200
C  -0.76300 40.84600 31.19900
C  1.68900 43.78100 31.53700
C  1.24400 43.79500 33.06400
H  0.90900 42.44400 33.63000
N  -1.01200 42.44100 26.13800
C  -1.90200 42.41300 27.12100
C  -3.25000 42.36600 26.57400
C  -3.17000 42.40500 25.18400
C  -1.69000 42.49900 24.89500
C  -4.44000 42.31900 27.39400
C  -4.30000 42.57000 24.15700
O  -4.07600 42.94600 23.01900
C  -5.67700 42.35500 24.62600
N  1.33800 42.68500 24.22300
C  0.30200 42.56600 23.32600
C  0.71800 42.69600 21.89600
C  2.25000 42.72800 22.05400
C  2.48600 42.76900 23.54900
C  0.36300 41.44400 21.04800
C  2.86500 43.89000 21.30600
C  3.28900 45.14600 22.08200
N  3.25000 42.81700 26.48800
C  4.13000 42.85600 25.50300
C  5.52800 42.88800 26.06900
C  5.26200 42.77600 27.49800
C  3.86500 42.76300 27.62300
C  6.77800 43.04400 25.31700
C  5.86300 42.69100 28.78800
O  7.01700 42.59400 29.06300
C  4.65800 42.65200 29.84900
C  4.88800 41.53600 30.75200
O  4.85200 40.39100 30.31000
O  5.14000 41.98000 32.02300
C  5.41200 40.87800 32.93800
H  -2.35400 42.10900 29.17300
H  -1.73600 42.54600 22.71800
H  4.47200 43.03600 23.33400
H  1.89600 41.58500 31.17800
H  -0.71700 42.88500 31.08800
H  -1.17700 40.34700 30.32300
H  -1.54700 41.05700 31.92700
H  -0.02500 40.23800 31.72200
H  1.09200 44.57600 31.09000
H  2.75600 43.99300 31.46200
H  0.35500 44.41700 33.17100
H  2.10200 44.11400 33.65500
H  -5.12200 41.49900 27.16700
H  -5.07100 43.16900 27.13300
H  -4.38200 42.53200 28.46200
H  -6.23700 42.39000 23.69200
H  -6.07700 43.11800 25.29500
H  -5.82100 41.35900 25.04700
H  0.30300 43.62500 21.50600
H  2.58500 41.71900 21.81200
H  -0.13000 40.72500 21.70300
H  1.17100 40.94000 20.51800
H  -0.44200 41.78500 20.39700
H  2.14800 44.25500 20.57000
H  3.71900 43.44900 20.79300
H  2.77600 45.27600 23.03500
H  3.07900 46.01000 21.45200
H  4.37400 45.24500 22.11900
H  6.68100 43.97200 24.75300
H  6.88500 42.24500 24.58400
H  7.63700 43.02800 25.98800
H  4.61100 43.57000 30.43500
H  4.94800 41.07400 33.90400
H  6.49200 40.77200 33.04300
H  5.09000 39.90000 32.58200

