158

Mg 16.89200 -2.56000 28.52000
C  15.37000 -0.80700 31.23100
C  19.03100 -4.11300 30.69100
C  18.14300 -4.20100 25.97000
C  15.08800 -0.41800 26.39100
N  17.05900 -2.62700 30.79200
C  16.41700 -1.73200 31.66300
C  17.13900 -1.90700 33.04700
C  18.41800 -2.73700 32.78700
C  18.19600 -3.17400 31.31500
C  19.79300 -2.08000 32.92100
C  16.18000 -2.56800 34.02300
C  15.81600 -1.80300 35.31400
H  16.90700 -0.95200 35.97000
N  18.15200 -4.25600 28.38500
C  18.93600 -4.72000 29.39700
C  19.73200 -5.78200 28.81800
C  19.45300 -5.90200 27.40100
C  18.56700 -4.72300 27.15500
C  20.63200 -6.54500 29.69000
C  19.92500 -6.81100 26.34100
O  19.69500 -6.77200 25.15700
C  20.72600 -8.01800 26.78100
N  16.69900 -2.22700 26.45100
C  17.22900 -3.17100 25.61400
C  16.99800 -2.66700 24.16400
C  15.92900 -1.59200 24.25200
C  15.83900 -1.41500 25.75800
C  18.32000 -2.19500 23.48000
C  14.58300 -1.90900 23.52000
C  14.19900 -0.88800 22.28700
N  15.58300 -0.95300 28.67300
C  14.96200 -0.16400 27.77900
C  14.07800 0.80400 28.33700
C  14.24700 0.59600 29.69900
C  15.11100 -0.51900 29.87500
C  13.14200 1.78100 27.64600
C  13.89000 1.10500 30.97800
O  13.31500 2.14700 31.31700
C  14.48900 0.13800 32.04900
C  15.22000 0.97100 33.09400
O  16.40300 1.20600 32.95500
O  14.39900 1.72600 33.97700
C  15.12400 2.64600 34.80200
H  19.98600 -4.35300 31.16400
H  18.60700 -4.74400 25.14400
H  14.53300 0.15000 25.64100
H  17.49600 -0.96600 33.46600
H  18.52600 -3.64200 33.38500
H  19.64600 -1.23800 33.59700
H  20.26900 -1.78000 31.98700
H  20.53100 -2.77400 33.32300
H  16.47700 -3.57100 34.33000
H  15.26800 -2.60900 33.42600
H  15.28600 -2.44500 36.01700
H  15.07600 -1.03300 35.09700
H  20.39900 -7.60000 29.54300
H  20.39900 -6.43300 30.74900
H  21.65900 -6.38700 29.36200
H  21.53300 -7.60200 27.38400
H  21.19500 -8.38300 25.86800
H  20.15300 -8.77800 27.31300
H  16.55800 -3.51600 23.64100
H  16.26100 -0.60100 23.94200
H  18.60300 -3.02700 22.83700
H  19.14700 -1.96000 24.15100
H  18.17200 -1.25300 22.95100
H  13.80100 -1.91000 24.27900
H  14.47500 -2.94100 23.18500
H  13.17700 -0.54300 22.44400
H  14.18600 -1.55800 21.42700
H  14.94400 -0.10300 22.15600
H  13.53500 2.07600 26.67400
H  13.13200 2.67000 28.27700
H  12.14600 1.35200 27.53400
H  13.72400 -0.35600 32.64700
H  14.41200 2.93200 35.57700
H  15.26700 3.59700 34.29000
H  16.06900 2.27400 35.19800
Mg 49.22200 36.53000 27.34500
C  47.17900 34.79300 29.74800
C  48.99100 39.31400 29.29500
C  50.76900 38.12100 24.91600
C  48.61500 33.76500 25.26900
N  48.18100 36.97800 29.29500
C  47.55000 36.09700 30.11700
C  47.16500 36.81300 31.43200
C  47.60700 38.29100 31.18300
C  48.32200 38.19600 29.83500
C  46.57500 39.45500 31.30100
C  47.81500 36.23100 32.80400
C  46.73900 36.04000 33.99200
H  46.50200 37.18600 35.02600
N  49.86000 38.48700 27.15100
C  49.78100 39.46000 28.09900
C  50.53700 40.63600 27.62400
C  51.12500 40.29700 26.29000
C  50.62100 38.94500 26.06900
C  50.71100 41.84300 28.59500
C  51.97100 41.16300 25.41400
O  52.32600 40.76300 24.29700
C  52.35100 42.59800 25.82900
N  49.48300 36.09600 25.43200
C  50.24800 36.86900 24.68600
C  50.56100 36.22400 23.28500
C  50.19900 34.69800 23.59000
C  49.33300 34.82300 24.81600
C  49.60600 36.86800 22.27000
C  51.40600 33.66700 23.67000
C  51.23200 32.31300 22.94100
N  48.16800 34.59200 27.46200
C  47.93700 33.63900 26.48700
C  46.98800 32.59500 27.00800
C  46.80400 32.98000 28.34100
C  47.46800 34.17800 28.52800
C  46.51200 31.39800 26.27800
C  46.09700 32.59600 29.60500
O  45.39100 31.62200 29.93300
C  46.44600 33.70900 30.58400
C  47.03700 33.01200 31.82000
O  48.16300 32.85000 32.17300
O  45.95000 32.61100 32.59600
C  46.30100 31.80000 33.74200
H  48.92700 40.12800 30.02000
H  51.20200 38.67400 24.08000
H  48.42000 32.97800 24.53800
H  46.08200 36.73100 31.51900
H  48.35800 38.60100 31.90900
H  46.57200 40.01700 30.36700
H  46.76200 40.19000 32.08300
H  45.65400 38.93000 31.55700
H  48.53100 36.99200 33.11500
H  48.35700 35.28900 32.72400
H  46.93900 35.08000 34.46900
H  45.72800 35.95300 33.59300
H  50.75700 41.44600 29.61000
H  49.91900 42.57200 28.43000
H  51.61900 42.44600 28.58200
H  52.98000 42.46600 26.70900
H  51.52800 43.25900 26.10000
H  52.90700 43.16700 25.08500
H  51.56700 36.42600 22.91600
H  49.48100 34.38900 22.83000
H  49.23600 37.75000 22.79300
H  48.86100 36.18300 21.86500
H  50.17700 37.30200 21.44900
H  51.57600 33.50500 24.73400
H  52.26300 34.27600 23.37800
H  51.42000 31.49300 23.63300
H  51.95900 32.37400 22.13200
H  50.24100 32.26900 22.48900
H  45.48700 31.60600 25.97200
H  46.60700 30.52200 26.92000
H  47.10600 31.21800 25.38100
H  45.46700 34.17500 30.69900
H  46.50700 30.77500 33.43500
H  45.43500 31.78400 34.40300
H  47.21200 32.10600 34.25600

