158

Mg 40.60500 8.84300 28.96500
C  42.60300 10.23200 31.67400
C  38.78600 7.29700 31.53200
C  38.87300 7.72200 26.63200
C  43.12600 9.97900 26.79300
N  40.65300 8.89000 31.34000
C  41.44200 9.60500 32.17700
C  40.91300 9.62100 33.56100
C  39.90400 8.40700 33.49600
C  39.76800 8.13800 32.03400
C  40.21000 7.10500 34.32500
C  40.28800 11.08300 33.79100
C  39.56700 11.30400 35.18300
H  39.96500 12.48400 36.00800
N  39.03700 7.68400 29.02500
C  38.40800 7.13100 30.16200
C  37.18700 6.47600 29.78600
C  37.15600 6.54300 28.30700
C  38.37000 7.33400 27.92500
C  36.11100 5.96500 30.76300
C  36.24900 5.89000 27.31700
O  36.28300 6.12000 26.13000
C  35.23200 4.77000 27.91600
N  41.10200 8.71400 26.94400
C  40.03700 8.34300 26.15800
C  40.34700 8.61700 24.73900
C  41.66200 9.44900 24.82700
C  41.98900 9.38200 26.26200
C  40.46600 7.24200 23.85500
C  41.46200 10.94100 24.33600
C  40.43800 11.86700 25.10300
N  42.43500 9.78100 29.13800
C  43.37700 10.13400 28.16200
C  44.57300 10.77300 28.76300
C  44.23900 10.86600 30.06400
C  42.94100 10.31600 30.25900
C  45.76200 11.24900 28.10900
C  44.79300 11.35600 31.33500
O  45.85000 11.84400 31.65700
C  43.71000 10.94200 32.42900
C  44.38800 9.99100 33.41900
O  44.73000 8.83200 33.13800
O  44.52700 10.63000 34.56600
C  45.08500 9.80400 35.63100
H  38.20500 6.73000 32.26300
H  38.34900 7.41200 25.72600
H  43.97800 10.39400 26.25100
H  41.57300 9.33600 34.38000
H  38.98300 8.75300 33.96600
H  40.49600 6.18600 33.81300
H  39.44400 6.92000 35.07900
H  41.14000 7.32300 34.84900
H  39.57800 11.27000 32.98500
H  41.11800 11.78800 33.73800
H  39.62100 10.33500 35.68000
H  38.54600 11.55400 34.89600
H  36.06700 6.43700 31.74400
H  36.31400 4.92200 31.00700
H  35.08000 5.86200 30.42300
H  35.83000 4.23200 28.65200
H  34.94600 4.07500 27.12600
H  34.41800 5.27700 28.43200
H  39.55800 9.24200 24.32200
H  42.37700 8.89100 24.22200
H  40.52900 6.36900 24.50400
H  41.42900 7.37700 23.36300
H  39.69500 7.09400 23.09900
H  41.20000 11.00100 23.28000
H  42.48200 11.32100 24.28500
H  40.90300 12.83900 25.27000
H  40.29000 11.33900 26.04400
H  39.54600 11.84900 24.47700
H  46.33000 11.87100 28.80100
H  45.62700 11.72900 27.14000
H  46.47600 10.45500 27.89100
H  43.43600 11.88900 32.89400
H  45.66500 10.38900 36.34600
H  45.84100 9.07800 35.33300
H  44.30100 9.34500 36.23300
Mg 30.38700 57.62500 40.45100
C  27.60800 55.64000 39.59300
C  32.39800 55.16600 38.98000
C  33.01100 59.78600 40.67800
C  28.25500 60.32900 40.90400
N  29.99600 55.72000 39.09500
C  28.81900 54.99600 39.11500
C  28.91800 53.56100 38.79300
C  30.51200 53.42300 38.77000
C  30.98800 54.84800 38.97100
C  31.05200 52.52600 39.88600
C  28.16300 53.00100 37.53700
C  28.72600 53.05400 36.13200
H  27.80400 53.71100 35.03900
N  32.39600 57.48000 39.94000
C  32.99200 56.38700 39.30900
C  34.41700 56.64700 39.16500
C  34.65000 58.01300 39.64900
C  33.32500 58.53600 40.13200
C  35.51700 55.65300 38.67900
C  35.95600 58.63600 39.66800
O  36.96000 58.03200 39.31900
C  36.16000 60.08500 40.03000
N  30.56200 59.63900 40.77100
C  31.75000 60.26200 40.98800
C  31.64400 61.68400 41.57700
C  30.08600 61.87300 41.57400
C  29.62400 60.55200 40.94100
C  32.43500 61.84100 42.93000
C  29.48600 63.17300 40.97600
C  29.66100 64.48900 41.76200
N  28.33100 57.87400 40.41400
C  27.62200 59.07800 40.72800
C  26.28300 58.78000 40.55400
C  26.15300 57.46200 40.15200
C  27.50200 56.92800 40.07800
C  25.14700 59.66100 40.87200
C  25.26900 56.48200 39.74200
O  24.06200 56.43200 39.55000
C  26.18300 55.19200 39.43500
C  25.74500 54.03800 40.24500
O  26.34200 53.62500 41.22200
O  24.54900 53.46000 39.77200
C  23.73000 52.78900 40.85200
H  33.03800 54.29900 38.80600
H  33.84000 60.48700 40.79500
H  27.57000 61.17800 40.93200
H  28.68800 53.03700 39.72100
H  30.88400 53.13100 37.78800
H  31.59200 53.06700 40.66300
H  31.80600 51.91000 39.39500
H  30.29100 51.86800 40.30600
H  27.16800 53.44100 37.46900
H  28.00200 51.93300 37.68800
H  28.89200 52.05700 35.72300
H  29.69600 53.54500 36.05700
H  35.92800 56.00900 37.73400
H  35.15700 54.63700 38.51700
H  36.29400 55.39500 39.39900
H  35.81600 60.41300 41.01100
H  35.64400 60.60800 39.22500
H  37.20800 60.38200 40.01600
H  31.99600 62.31200 40.75900
H  29.66200 61.79100 42.57500
H  32.87100 60.94100 43.36600
H  31.70500 62.17600 43.66700
H  33.17200 62.64200 42.87300
H  28.43400 62.99000 40.75900
H  29.84800 63.27000 39.95300
H  28.72500 64.74700 42.25700
H  29.87100 65.23600 40.99700
H  30.53900 64.46100 42.40700
H  24.89200 60.12800 39.92000
H  25.38800 60.51500 41.50500
H  24.32900 59.09300 41.31500
H  25.95900 54.87600 38.41700
H  23.38400 53.61100 41.47900
H  24.36400 52.03300 41.31500
H  22.91900 52.24300 40.36900

