158

Mg 1.83400 -1.31600 43.70400
C  5.31600 -0.70900 43.14200
C  1.15800 1.66100 42.11200
C  -1.31600 -2.40300 43.42700
C  2.73400 -4.41100 45.22100
N  3.07400 0.23800 42.53300
C  4.42700 0.32300 42.57400
C  4.89800 1.48000 41.73500
C  3.65000 2.35200 41.59500
C  2.51600 1.36500 42.08700
C  3.66500 3.54600 42.52800
C  5.54600 1.00100 40.45900
C  6.81800 1.75300 39.98000
H  6.67600 2.28800 38.52600
N  0.11700 -0.51000 42.92000
C  0.08100 0.74600 42.39700
C  -1.30000 1.02900 42.18200
C  -2.05400 -0.11900 42.42000
C  -1.10400 -1.09400 42.90900
C  -1.74400 2.37100 41.73200
C  -3.56500 -0.27500 42.32100
O  -4.21000 0.66900 41.80900
C  -4.49400 -1.50200 42.54200
N  0.86100 -3.20700 44.27100
C  -0.46400 -3.35500 44.05600
C  -0.97800 -4.69600 44.46100
C  0.31000 -5.24400 45.19000
C  1.40600 -4.29300 44.81200
C  -2.20800 -4.66200 45.28200
C  0.56200 -6.70300 44.80300
C  0.54800 -7.61700 46.07500
N  3.60000 -2.37900 44.15700
C  3.78700 -3.60500 44.79700
C  5.27400 -3.78300 45.03900
C  5.90900 -2.71200 44.34600
C  4.81900 -1.87900 43.77900
C  5.94500 -4.90800 45.67000
C  7.17700 -2.11000 43.96700
O  8.30000 -2.58100 44.17500
C  6.87000 -0.68000 43.31400
C  7.21500 0.38900 44.16500
O  6.50500 0.91300 45.01600
O  8.49900 0.73000 43.86800
C  8.77200 2.13800 44.16600
H  0.98400 2.60200 41.58500
H  -2.38200 -2.64000 43.43000
H  3.05900 -5.29000 45.78200
H  5.64600 1.94100 42.37900
H  3.54100 2.71100 40.57100
H  3.05900 3.48300 43.43200
H  3.47700 4.42000 41.90400
H  4.64800 3.65200 42.98800
H  4.73900 0.99000 39.72700
H  5.95800 0.00100 40.59000
H  7.61300 1.00700 39.95400
H  7.10600 2.67200 40.49200
H  -2.77800 2.59400 41.46800
H  -1.09500 2.71500 40.92700
H  -1.50700 2.96100 42.61600
H  -5.52700 -1.43300 42.20200
H  -4.63500 -1.82700 43.57400
H  -4.20000 -2.33500 41.90400
H  -1.18400 -5.23000 43.53400
H  0.29600 -4.98500 46.24900
H  -2.28100 -5.42700 46.05500
H  -3.11700 -4.66000 44.67900
H  -2.16400 -3.67000 45.73200
H  1.49500 -6.76600 44.24300
H  -0.21800 -7.08700 44.14500
H  1.55500 -8.03000 46.13800
H  -0.05400 -8.44800 45.70800
H  0.16800 -7.12600 46.97100
H  6.73900 -4.60800 46.35400
H  6.43700 -5.28400 44.77300
H  5.21200 -5.53500 46.17900
H  7.36800 -0.61600 42.34700
H  9.29600 2.57300 43.31500
H  9.55700 2.21800 44.91800
H  7.89100 2.74000 44.38700
Mg 41.62600 41.20000 27.34800
C  41.06900 43.52700 29.80300
C  42.41100 38.82100 29.74900
C  42.40600 39.14300 24.88500
C  41.03300 43.69300 24.87700
N  41.85800 41.30500 29.47400
C  41.31100 42.24400 30.29000
C  41.06300 41.82900 31.77400
C  41.54600 40.30000 31.62900
C  41.98300 40.11200 30.18000
C  42.71200 39.90300 32.54400
C  39.62600 42.05400 32.37100
C  39.43400 42.88600 33.67600
H  38.76500 42.13700 34.77300
N  42.30900 39.22700 27.31900
C  42.57300 38.40700 28.40700
C  42.94100 37.09900 27.93000
C  42.94000 37.12100 26.54200
C  42.57400 38.53100 26.15400
C  43.06300 35.91400 28.92700
C  43.16000 35.98100 25.56400
O  43.29700 36.19800 24.34600
C  43.52200 34.65400 26.03400
N  41.83200 41.49700 25.17400
C  42.03800 40.39000 24.38200
C  41.78400 40.71400 22.84400
C  41.15300 42.09100 22.97200
C  41.28200 42.44100 24.45500
C  43.16800 40.68400 22.06000
C  39.68700 42.08000 22.48500
C  38.54800 41.56600 23.43100
N  41.24600 43.26400 27.29500
C  41.00800 44.16600 26.24300
C  40.51100 45.37600 26.82700
C  40.48500 45.16500 28.19800
C  41.00700 43.90900 28.45500
C  40.00200 46.67300 26.17400
C  40.07900 45.72300 29.49700
O  39.54600 46.80600 29.74800
C  40.60100 44.74500 30.54900
C  41.69100 45.41400 31.23000
O  42.81100 45.70900 30.77700
O  41.27200 45.53400 32.51700
C  42.19000 46.22900 33.42400
H  42.48300 38.06100 30.53000
H  42.61900 38.46500 24.05600
H  40.63800 44.24700 24.02300
H  41.83900 42.47900 32.17800
H  40.69100 39.63700 31.76100
H  43.68200 40.03700 32.06500
H  42.52300 38.90700 32.94200
H  42.75400 40.44800 33.48700
H  39.17700 41.06600 32.47400
H  39.05700 42.63200 31.64200
H  38.77600 43.71400 33.41200
H  40.35400 43.33800 34.04800
H  42.11900 35.38000 29.03100
H  43.42200 36.35600 29.85600
H  43.91900 35.30600 28.63200
H  44.43100 34.80900 26.61500
H  43.76400 33.91400 25.27100
H  42.83800 34.23800 26.77300
H  41.20700 39.87000 22.46600
H  41.79900 42.81600 22.47700
H  43.39400 41.57500 21.47400
H  43.13200 39.88700 21.31700
H  44.01300 40.49800 22.72300
H  39.63200 41.55000 21.53400
H  39.40100 43.07300 22.13800
H  38.94400 41.12200 24.34400
H  38.08900 40.74900 22.87500
H  37.76600 42.31100 23.57700
H  40.77300 47.43800 26.27000
H  39.09300 46.82900 26.75500
H  39.81700 46.49200 25.11500
H  39.78500 44.60800 31.26000
H  42.45500 47.20700 33.02200
H  43.11700 45.65800 33.46000
H  41.57300 46.17000 34.32100

