158

Mg 40.62600 9.65800 29.43600
C  42.40400 10.96500 32.22800
C  38.35100 8.34000 31.53100
C  39.26800 8.11200 26.82700
C  43.37800 10.50100 27.50200
N  40.55100 9.39600 31.66600
C  41.22000 10.20000 32.53500
C  40.68300 9.96100 33.93900
C  39.63100 8.78500 33.75000
C  39.38100 8.91800 32.22400
C  40.23200 7.40300 34.08000
C  40.01300 11.26000 34.60600
C  39.52700 11.02000 36.01900
H  40.01900 12.08800 36.95800
N  38.88100 8.57500 29.16400
C  38.07900 8.18500 30.17600
C  36.88500 7.49800 29.59600
C  37.07600 7.51100 28.16900
C  38.44900 8.02300 27.97600
C  35.74300 6.88100 30.40000
C  36.12900 7.10500 27.01000
O  36.54200 7.03600 25.83100
C  34.65400 6.74500 27.32300
N  41.31800 9.16900 27.55900
C  40.52000 8.62900 26.59300
C  41.25700 8.39200 25.23900
C  42.39400 9.47200 25.45800
C  42.36800 9.72000 26.92600
C  41.85100 6.94400 25.13400
C  42.22100 10.73000 24.62300
C  41.55800 11.94300 25.26400
N  42.49300 10.62300 29.72600
C  43.48100 10.97700 28.83100
C  44.56700 11.74400 29.45000
C  44.11300 11.80400 30.77900
C  42.84600 11.12800 30.89700
C  45.93200 12.16400 28.83800
C  44.54400 12.26400 32.09700
O  45.56000 12.86600 32.41800
C  43.37700 11.76600 33.09500
C  44.03900 10.91800 34.13100
O  44.57200 9.88200 33.95300
O  43.93800 11.52700 35.37600
C  44.30800 10.66900 36.50900
H  37.54400 8.04400 32.20400
H  38.73300 7.67900 25.97900
H  44.21200 10.89000 26.91400
H  41.42300 9.52800 34.61200
H  38.70800 8.97300 34.29900
H  40.12000 7.15700 35.13600
H  41.30800 7.56000 34.00500
H  39.95600 6.58700 33.41300
H  39.11900 11.51900 34.03900
H  40.72200 12.07800 34.47000
H  39.81000 10.00300 36.29300
H  38.44600 11.04100 35.88800
H  35.44100 5.88400 30.08000
H  34.84900 7.50100 30.47400
H  35.97700 6.71200 31.45100
H  34.05100 6.66400 26.42000
H  34.32400 7.60600 27.90400
H  34.52000 6.01800 28.12400
H  40.64200 8.59300 24.36200
H  43.36500 9.03700 25.22300
H  41.50000 6.43400 26.03100
H  42.93800 6.85900 25.15400
H  41.39100 6.50200 24.25100
H  41.69000 10.49600 23.70000
H  43.27300 10.93300 24.42200
H  40.89900 11.69500 26.09600
H  40.94500 12.28700 24.43100
H  42.28700 12.66200 25.63600
H  46.27100 12.90900 29.55700
H  45.95500 12.62700 27.85100
H  46.62300 11.33100 28.70700
H  42.90700 12.55600 33.68100
H  43.94200 9.64300 36.46600
H  43.91200 11.14800 37.40500
H  45.38600 10.58500 36.64800
Mg 5.78500 53.54800 42.00400
C  5.11100 50.04000 41.52800
C  8.69300 53.06500 40.57700
C  6.05900 56.70900 42.29900
C  2.32400 53.60800 43.29000
N  6.69200 51.70800 40.95100
C  6.31400 50.36800 40.96600
C  7.38900 49.41800 40.45200
C  8.58000 50.45900 40.39700
C  7.97800 51.83400 40.62500
C  9.71300 50.13800 41.33200
C  6.98700 48.80100 39.06500
C  6.08500 49.54200 38.05300
H  6.46500 49.52800 36.56000
N  7.18600 54.73600 41.41800
C  8.37800 54.39600 40.87300
C  9.08300 55.60700 40.51300
C  8.33200 56.70200 41.06700
C  7.12900 56.08200 41.58400
C  10.40100 55.67600 39.78900
C  8.75600 58.15100 40.89800
O  9.80900 58.48000 40.38700
C  7.86500 59.22100 41.33100
N  4.36200 54.92700 42.73200
C  4.82000 56.22700 42.87000
C  3.69900 57.16300 43.30900
C  2.44700 56.11900 43.50400
C  3.05200 54.79400 43.08700
C  4.09700 58.02200 44.59600
C  1.17200 56.56400 42.65700
C  0.10000 57.41400 43.30800
N  4.07700 52.14900 42.41200
C  2.86400 52.32300 42.98100
C  2.28000 51.04300 43.40000
C  3.12500 50.09900 42.83100
C  4.16300 50.83300 42.19400
C  0.93200 50.82000 44.08400
C  3.33700 48.70000 42.59400
O  2.64800 47.70200 42.96500
C  4.64200 48.54700 41.77300
C  4.20400 47.80600 40.58100
O  3.41100 48.15700 39.71500
O  4.82000 46.56600 40.61400
C  4.50800 45.58400 39.53600
H  9.72900 52.87600 40.28800
H  6.02500 57.79100 42.44100
H  1.30700 53.70600 43.67600
H  7.51000 48.74400 41.30000
H  8.93500 50.49700 39.36700
H  9.70000 49.05200 41.42800
H  9.65000 50.70000 42.26300
H  10.58400 50.24900 40.68600
H  6.53000 47.81400 39.14700
H  7.94800 48.64500 38.57500
H  6.00100 50.61400 38.23300
H  5.08900 49.10600 38.11700
H  10.52900 54.70600 39.31000
H  11.14200 55.96300 40.53500
H  10.56300 56.44100 39.02900
H  8.25500 60.22600 41.16800
H  7.72100 59.18900 42.41100
H  6.92100 59.14500 40.79200
H  3.46200 57.75800 42.42600
H  2.22500 56.08900 44.57100
H  5.18000 58.00700 44.71800
H  3.66900 57.56600 45.48900
H  3.77500 59.05900 44.50400
H  0.73400 55.61700 42.34100
H  1.44800 56.95700 41.67900
H  -0.27300 58.16000 42.60700
H  0.42800 57.97700 44.18200
H  -0.71400 56.75200 43.60500
H  0.54200 49.85400 43.76200
H  0.30500 51.61500 43.68100
H  0.90700 51.00400 45.15800
H  5.35300 47.92500 42.31700
H  5.49400 45.35700 39.13000
H  4.00300 45.95700 38.64500
H  4.11800 44.63300 39.90100

