158

Mg 24.39900 -5.09000 46.70000
C  26.21400 -2.40000 45.05500
C  21.57000 -4.00900 45.12200
C  23.07200 -8.04300 47.35100
C  27.49800 -6.21100 47.93400
N  24.00000 -3.48700 45.20500
C  24.87500 -2.49000 44.66900
C  24.09400 -1.70900 43.67000
C  22.63600 -1.95400 44.03600
C  22.70800 -3.25500 44.81900
C  21.99100 -0.80000 44.77900
C  24.62000 -1.96700 42.21800
C  25.12100 -0.77500 41.37100
H  26.03200 -1.04200 40.16600
N  22.50600 -5.91700 46.33400
C  21.48600 -5.34700 45.63600
C  20.38800 -6.26400 45.55900
C  20.76600 -7.44600 46.31800
C  22.11800 -7.16600 46.82700
C  19.05700 -5.85200 44.85200
C  19.90700 -8.64600 46.43900
O  18.82600 -8.78300 45.92800
C  20.28500 -9.77400 47.25900
N  25.19200 -6.86000 47.57300
C  24.41400 -7.98300 47.70900
C  25.22500 -9.11000 48.25400
C  26.53100 -8.45700 48.69700
C  26.47500 -7.10400 48.05100
C  24.42600 -10.04100 49.25500
C  27.77600 -9.30000 48.32100
C  28.73500 -9.46000 49.41200
N  26.44800 -4.46100 46.54000
C  27.54200 -5.00300 47.23100
C  28.71400 -4.06500 47.01700
C  28.25400 -3.08300 46.12900
C  26.86000 -3.37300 45.85900
C  30.03900 -4.27700 47.56800
C  28.73000 -1.86000 45.41800
O  29.77600 -1.26500 45.36800
C  27.35800 -1.37700 44.63300
C  27.04300 -0.01300 44.97900
O  26.22100 0.46000 45.72100
O  27.82900 0.74100 44.21600
C  27.64300 2.19100 44.20100
H  20.63500 -3.71400 44.64000
H  22.73900 -9.08200 47.38700
H  28.38200 -6.54100 48.48400
H  24.41600 -0.68000 43.82700
H  22.05100 -1.99100 43.11800
H  22.74000 -0.08700 45.12100
H  21.49100 -1.23700 45.64400
H  21.26300 -0.29200 44.14700
H  23.90500 -2.62800 41.72800
H  25.42600 -2.70100 42.21100
H  25.45200 0.00100 42.06100
H  24.28000 -0.29300 40.87300
H  19.22400 -5.93000 43.77800
H  18.81600 -4.79500 44.97300
H  18.21200 -6.47300 45.15000
H  19.38000 -10.35000 47.45200
H  20.60400 -9.30600 48.19000
H  20.95400 -10.48000 46.76600
H  25.52300 -9.79000 47.45500
H  26.40900 -8.29500 49.76800
H  24.94200 -10.11000 50.21200
H  24.21600 -10.98600 48.75500
H  23.46000 -9.62700 49.54500
H  28.41600 -8.73200 47.64600
H  27.44400 -10.24900 47.90100
H  29.68400 -9.02100 49.10500
H  28.84400 -10.53800 49.53600
H  28.27900 -9.02700 50.30200
H  30.63300 -4.96800 46.97000
H  30.05300 -4.68900 48.57700
H  30.48600 -3.28800 47.66900
H  27.69700 -1.50300 43.60500
H  27.84000 2.56700 45.20500
H  26.65100 2.59500 44.00300
H  28.28200 2.79500 43.55600
Mg 39.93900 9.12000 28.91500
C  41.86100 10.25500 31.55200
C  37.65400 7.76600 31.07300
C  38.18400 8.01400 26.25700
C  42.60400 9.90900 26.76300
N  39.90600 8.91600 31.06100
C  40.71800 9.54400 31.92900
C  40.15900 9.51200 33.32800
C  38.92500 8.52100 33.19500
C  38.76700 8.43200 31.67800
C  38.96900 7.19300 33.93800
C  39.85100 10.91700 33.86100
C  39.51000 11.17500 35.34800
H  40.50300 11.96100 36.19400
N  38.16000 8.06000 28.72200
C  37.29700 7.61300 29.72300
C  36.03800 7.12500 29.20800
C  36.22400 7.20900 27.73600
C  37.56800 7.79600 27.49700
C  34.85700 6.58700 30.03100
C  35.23600 6.99200 26.71900
O  35.49700 7.09200 25.51800
C  33.75100 6.59500 27.06300
N  40.41600 8.94300 26.83100
C  39.44900 8.52000 25.86200
C  40.00100 8.41200 24.41600
C  41.42500 9.11300 24.61800
C  41.52600 9.35200 26.15600
C  39.98100 6.98200 23.87500
C  41.45300 10.59600 23.92100
C  40.73800 11.81500 24.52700
N  41.81700 10.04200 29.03000
C  42.77700 10.33000 28.11200
C  43.88000 11.02700 28.71600
C  43.63500 11.00700 30.12700
C  42.34000 10.41100 30.21500
C  45.06900 11.61400 28.01400
C  44.11900 11.29200 31.43800
O  45.18100 11.75700 31.87600
C  42.94600 10.94300 32.42400
C  43.42200 10.10900 33.50500
O  44.16900 9.16600 33.33600
O  42.96000 10.63200 34.67300
C  43.36500 10.04600 35.90500
H  36.96600 7.37200 31.82400
H  37.62300 7.78400 25.34900
H  43.45900 10.05600 26.10000
H  40.83900 9.06600 34.05400
H  38.04300 9.07600 33.51600
H  39.81700 7.22600 34.62200
H  39.05400 6.36700 33.23200
H  38.04300 7.10100 34.50500
H  38.94200 11.22900 33.34700
H  40.74900 11.47900 33.60400
H  39.56200 10.13800 35.67700
H  38.50900 11.60800 35.34000
H  34.89800 6.76400 31.10500
H  34.62500 5.53500 29.86100
H  33.97300 7.14000 29.71100
H  33.59100 5.95500 27.93100
H  33.25300 6.14200 26.20600
H  33.18700 7.49900 27.29400
H  39.46700 9.01000 23.67700
H  42.29900 8.51600 24.35500
H  39.09100 6.85000 23.25900
H  39.88300 6.42100 24.80400
H  40.91000 6.81500 23.33100
H  41.04700 10.40300 22.92900
H  42.52500 10.74800 23.79100
H  40.12000 11.55400 25.38700
H  39.96400 12.13200 23.82900
H  41.41800 12.65800 24.64700
H  44.64200 11.81600 27.03200
H  45.82600 10.83000 27.99400
H  45.46100 12.54200 28.43200
H  42.59100 11.89800 32.81200
H  42.49700 9.88100 36.54300
H  44.03700 10.79200 36.32900
H  43.92900 9.11300 35.90200

