158

Mg 47.75700 25.02500 28.21100
C  48.05600 27.25300 30.93300
C  45.93400 22.98500 30.26100
C  47.73000 22.88900 25.74200
C  49.32300 27.35900 26.24700
N  47.40700 24.95700 30.40000
C  47.41800 26.08300 31.24300
C  46.80500 25.68700 32.59200
C  46.37600 24.26200 32.38800
C  46.53400 24.06200 30.89400
C  47.25700 23.28900 33.04900
C  45.63200 26.54900 33.14700
C  45.69400 26.56400 34.65600
H  44.34500 26.46600 35.52100
N  46.97200 23.21600 28.02400
C  46.15200 22.56100 28.95200
C  45.61900 21.32000 28.36300
C  46.02500 21.32800 27.03100
C  46.95700 22.54900 26.87500
C  44.78400 20.30800 29.08300
C  45.58800 20.37800 25.86000
O  45.89900 20.51000 24.70500
C  44.59500 19.25500 26.18800
N  48.54800 25.05700 26.31500
C  48.43200 24.04800 25.40400
C  48.97500 24.36600 24.00100
C  49.47900 25.81100 24.14100
C  49.11700 26.08800 25.68900
C  49.95000 23.21800 23.54200
C  48.72700 26.81900 23.11200
C  47.24900 27.04200 23.38100
N  48.54600 26.96800 28.44600
C  49.10200 27.78600 27.52700
C  49.48600 29.07000 28.12000
C  49.06300 28.92000 29.46300
C  48.48700 27.60200 29.64100
C  50.08600 30.21800 27.31400
C  48.95100 29.55700 30.70700
O  49.20600 30.70700 31.06700
C  48.24900 28.47500 31.73800
C  49.03600 28.35800 33.00400
O  50.08600 27.84300 33.13900
O  48.36700 28.90300 34.02900
C  48.91300 28.44700 35.33200
H  45.17500 22.49900 30.87800
H  47.67600 22.15100 24.93900
H  49.79900 28.10800 25.61100
H  47.63000 25.85500 33.28400
H  45.31600 24.10100 32.58700
H  47.82400 23.79100 33.83400
H  47.87400 22.64700 32.42100
H  46.52800 22.64800 33.54300
H  44.64700 26.23400 32.80300
H  45.72200 27.59100 32.84300
H  46.07700 27.54600 34.93500
H  46.45400 25.91000 35.08200
H  43.70200 20.30100 28.95700
H  44.93900 20.45800 30.15100
H  45.26000 19.34500 28.89800
H  45.12600 18.60300 26.88200
H  44.44500 18.64800 25.29500
H  43.65100 19.58900 26.62000
H  48.21700 24.26600 23.22400
H  50.55700 25.77900 23.98700
H  50.89300 23.61600 23.16800
H  49.56300 22.68200 22.67500
H  50.29400 22.59700 24.36900
H  48.88000 26.27100 22.18200
H  49.27100 27.76000 23.19300
H  47.30100 28.05800 23.77200
H  46.64800 26.38800 24.01300
H  46.68900 27.10100 22.44800
H  49.29300 30.64400 26.69900
H  50.78500 29.87500 26.55100
H  50.44700 30.97400 28.01200
H  47.24500 28.87600 31.87400
H  48.46400 27.48600 35.58000
H  48.80800 29.18200 36.13100
H  49.99600 28.32600 35.35800
Mg 25.99000 50.57900 27.06500
C  23.52200 51.42200 29.43400
C  28.19700 49.97600 29.45100
C  28.39900 50.37800 24.57800
C  23.62000 51.43300 24.53000
N  25.78200 50.69700 29.16000
C  24.74300 51.01600 29.97000
C  25.03300 50.77800 31.49100
C  26.56800 50.57000 31.42900
C  26.86700 50.33500 29.90700
C  27.48100 51.65700 32.15700
C  24.20900 49.53400 31.99700
C  23.53800 49.66100 33.38100
H  24.19900 50.51000 34.51100
N  27.94300 50.13000 27.05800
C  28.75100 49.90900 28.16600
C  30.15300 49.77600 27.79100
C  30.19600 49.82800 26.43200
C  28.80100 50.08100 25.95000
C  31.21400 49.55900 28.85000
C  31.48100 49.65300 25.54400
O  31.46400 49.74300 24.32600
C  32.78200 49.40500 26.18700
N  25.98200 50.89000 24.88300
C  27.12600 50.76400 24.11600
C  26.90800 51.19400 22.65000
C  25.30800 51.26600 22.60400
C  24.92900 51.12700 24.09800
C  27.59800 52.51000 22.21500
C  24.67600 50.13500 21.73100
C  24.10200 50.43000 20.34300
N  23.97200 51.31600 26.96900
C  23.14700 51.57800 25.86000
C  21.85700 51.93900 26.36900
C  22.00900 51.94000 27.76000
C  23.30700 51.55400 28.08600
C  20.74500 52.26700 25.47300
C  21.28700 52.22300 29.02200
O  20.13900 52.54800 29.22100
C  22.30300 51.91800 30.20300
C  22.60500 53.08800 31.12400
O  23.14700 54.12400 30.81200
O  22.02500 52.82200 32.36100
C  22.03900 54.00100 33.25100
H  28.86100 49.73500 30.28400
H  29.20500 50.31900 23.84400
H  22.92800 51.65800 23.71600
H  24.69700 51.66900 32.02200
H  26.82100 49.62300 31.90600
H  28.40500 51.24200 32.56000
H  26.89400 51.95700 33.02500
H  27.52900 52.38000 31.34300
H  24.89200 48.68600 31.95000
H  23.45700 49.50000 31.20900
H  23.46900 48.63000 33.72900
H  22.53500 49.99100 33.11100
H  30.77700 49.52000 29.84800
H  31.95800 50.35300 28.89800
H  31.72900 48.61400 28.67200
H  32.74100 48.42700 26.66600
H  33.10100 50.28600 26.74500
H  33.57400 49.12800 25.49200
H  27.35200 50.46200 21.97600
H  24.94100 52.23400 22.26300
H  28.30500 52.28500 21.41700
H  28.02500 52.85600 23.15600
H  26.95600 53.31500 21.85900
H  23.78900 49.77000 22.24900
H  25.27900 49.25600 21.50000
H  24.29800 49.64000 19.61800
H  24.56500 51.38800 20.10700
H  23.03600 50.65800 20.33900
H  19.83900 52.45500 26.05000
H  20.56900 51.43000 24.79800
H  21.07000 53.18400 24.98300
H  21.89900 51.12900 30.83900
H  22.73500 54.82600 33.10000
H  22.26700 53.69900 34.27300
H  21.00200 54.33500 33.28200

