158

Mg 16.46100 -1.56100 27.82900
C  15.28500 0.37600 30.43700
C  18.40900 -3.30900 30.00600
C  17.64300 -3.13100 25.18000
C  14.75800 0.76400 25.60400
N  16.95400 -1.42900 29.94500
C  16.25800 -0.61900 30.84400
C  16.82000 -0.69700 32.24500
C  17.95500 -1.76600 32.07300
C  17.80600 -2.19200 30.60200
C  19.36000 -1.34100 32.46000
C  15.77800 -1.19100 33.24200
C  15.87000 -0.60400 34.65100
H  17.25800 -0.18300 35.18800
N  17.78000 -3.09600 27.62100
C  18.45300 -3.79400 28.65200
C  19.26100 -4.91200 28.07800
C  19.03900 -4.79900 26.58700
C  18.11800 -3.63400 26.41500
C  20.08100 -5.80500 28.96200
C  19.60400 -5.68900 25.44300
O  19.51600 -5.52000 24.23500
C  20.45500 -7.00400 25.85400
N  16.25000 -1.20400 25.57900
C  16.81200 -2.09100 24.77000
C  16.59300 -1.64400 23.29700
C  15.51100 -0.51000 23.44400
C  15.48000 -0.26100 24.93400
C  17.84400 -1.25600 22.42800
C  14.02800 -0.85200 22.96800
C  13.82200 -0.79500 21.46800
N  15.15000 0.08900 27.91100
C  14.52900 0.92600 26.93300
C  13.70300 1.91900 27.58400
C  14.00000 1.73400 28.97100
C  14.79700 0.54500 29.09200
C  12.98100 3.02800 26.94200
C  13.85900 2.40300 30.22000
O  13.37100 3.49500 30.53700
C  14.67700 1.49200 31.23800
C  15.67900 2.30000 32.05000
O  16.88100 2.59100 31.80500
O  14.94700 2.72300 33.15000
C  15.59500 3.74600 33.88600
H  18.90900 -3.87900 30.79200
H  18.13600 -3.65100 24.35600
H  14.12900 1.39100 24.96700
H  17.31400 0.22600 32.54700
H  17.72800 -2.64500 32.67600
H  19.39600 -0.32700 32.85700
H  20.01000 -1.41700 31.58800
H  19.76700 -2.05400 33.17700
H  15.68800 -2.27500 33.30900
H  14.78200 -0.83200 32.98400
H  15.53200 -1.40500 35.30900
H  15.19900 0.24000 34.81300
H  20.17200 -5.38800 29.96500
H  21.04400 -5.91400 28.46200
H  19.67400 -6.81500 28.91800
H  19.81500 -7.68400 26.41600
H  21.34800 -6.69900 26.40100
H  20.80300 -7.46100 24.92800
H  16.05500 -2.38100 22.70200
H  15.87900 0.42500 23.02200
H  17.92800 -0.21100 22.12900
H  17.86600 -1.85900 21.51900
H  18.75300 -1.53900 22.95900
H  13.29300 -0.17400 23.40200
H  13.80500 -1.82800 23.39800
H  14.16800 0.15200 21.05300
H  12.73700 -0.84300 21.37600
H  14.22500 -1.65600 20.93400
H  13.53800 3.36700 26.06900
H  12.88100 3.86600 27.63100
H  12.00900 2.69500 26.57700
H  13.89800 1.12000 31.90300
H  14.97800 3.96400 34.75800
H  15.75800 4.63700 33.28100
H  16.63000 3.51800 34.14100
Mg 24.87600 1.49700 29.44100
C  26.72800 1.70400 32.31000
C  22.00100 1.63200 31.13700
C  23.22000 1.46600 26.43800
C  27.84200 1.18100 27.62700
N  24.46500 1.59300 31.52600
C  25.33700 1.79700 32.58800
C  24.59500 1.99200 33.87300
C  23.05300 1.97800 33.46000
C  23.13500 1.64600 31.90700
C  22.18600 0.91800 34.21900
C  25.10700 3.10700 34.85300
C  25.08400 2.83600 36.38300
H  25.25200 4.09200 37.29400
N  22.81900 1.57600 28.91000
C  21.78400 1.54200 29.74400
C  20.55300 1.40900 29.09100
C  20.86500 1.43000 27.66000
C  22.32700 1.43900 27.59300
C  19.23500 1.26200 29.81300
C  19.92900 1.31800 26.46500
O  20.38800 1.33700 25.33500
C  18.48500 1.16500 26.60300
N  25.52800 1.37100 27.31000
C  24.62400 1.43800 26.27400
C  25.34000 1.29200 24.86100
C  26.82100 1.22600 25.31900
C  26.72200 1.32900 26.82100
C  24.80900 -0.08000 24.23100
C  27.80300 2.33300 24.73800
C  27.17400 3.76800 24.98300
N  26.86100 1.21100 29.82100
C  27.95700 1.13400 29.02400
C  29.15100 0.95000 29.80200
C  28.69300 1.18000 31.10700
C  27.32800 1.41100 31.07700
C  30.56700 0.52800 29.29000
C  29.13900 1.31600 32.50600
O  30.27800 1.17400 32.99400
C  27.92500 1.68700 33.29800
C  27.74100 0.70600 34.38500
O  27.13200 -0.38500 34.30300
O  28.46900 1.16600 35.52500
C  28.52900 0.16400 36.59200
H  21.16700 1.69400 31.84000
H  22.74600 1.51700 25.45600
H  28.74800 1.04000 27.03500
H  24.82100 1.08200 34.42800
H  22.68400 3.00100 33.53200
H  22.70900 0.47500 35.06600
H  21.83600 0.13200 33.55000
H  21.34000 1.46900 34.63000
H  24.33600 3.87700 34.89400
H  26.09100 3.52400 34.64000
H  25.95400 2.22200 36.61700
H  24.19900 2.29000 36.70800
H  18.82600 2.25900 29.65100
H  19.33000 1.06000 30.88000
H  18.54200 0.51100 29.43500
H  18.37200 0.15600 26.99900
H  17.88200 1.24000 25.69800
H  18.09900 1.82300 27.38100
H  24.93300 2.03000 24.16900
H  27.29000 0.30400 24.97600
H  23.91800 0.12800 23.63800
H  24.59300 -0.66100 25.12700
H  25.54000 -0.55900 23.58000
H  27.90900 2.09000 23.68000
H  28.75500 2.34200 25.26900
H  27.89300 4.34100 25.56900
H  26.24100 3.69300 25.54000
H  27.06300 4.20700 23.99100
H  31.29800 1.32200 29.13800
H  30.45300 -0.07600 28.39000
H  31.02400 -0.14700 30.01400
H  28.02600 2.69800 33.69200
H  27.94700 0.54800 37.42900
H  29.58400 -0.03500 36.78000
H  28.14800 -0.83900 36.40100

