158

Mg 47.55800 44.92700 42.59700
C  44.04500 44.29900 42.45300
C  47.99900 41.43000 42.17500
C  50.65100 45.66000 41.79300
C  46.67700 48.42100 42.49900
N  46.16000 43.08000 42.01100
C  44.78100 43.09100 42.13900
C  44.25300 41.69100 42.01300
C  45.52700 40.73200 42.22800
C  46.65400 41.84400 42.22700
C  45.40100 39.80900 43.42500
C  43.46900 41.46100 40.77800
C  43.94300 42.29300 39.53500
H  43.74100 41.59000 38.23600
N  49.09700 43.78400 42.14200
C  49.11800 42.37100 42.11300
C  50.49300 41.92400 41.89100
C  51.30300 43.11700 41.62700
C  50.33800 44.29100 41.80700
C  50.92900 40.47000 41.92600
C  52.78400 43.13200 41.43700
O  53.44200 42.09900 41.23200
C  53.64400 44.45100 41.32900
N  48.49300 46.80300 42.15600
C  49.88700 46.81500 42.00400
C  50.49100 48.25800 42.10100
C  49.17900 49.10600 42.17000
C  48.00300 48.04900 42.22800
C  51.42800 48.41500 43.37600
C  48.91700 50.18700 41.00700
C  48.45300 51.54900 41.29200
N  45.78700 46.12500 42.64700
C  45.57300 47.56000 42.66200
C  44.19800 47.88400 42.90100
C  43.54700 46.55600 42.86200
C  44.53500 45.59800 42.61700
C  43.48100 49.16600 43.10400
C  42.27000 45.88700 42.93100
O  41.10300 46.24600 43.02600
C  42.56800 44.41700 42.64000
C  42.06500 43.63200 43.78200
O  41.28300 42.67100 43.64500
O  42.36200 44.21500 44.97200
C  41.68500 43.62400 46.09600
H  48.20000 40.35700 42.16600
H  51.71200 45.90000 41.69700
H  46.57000 49.50500 42.57000
H  43.63700 41.51500 42.89500
H  45.65900 40.17200 41.30200
H  45.73800 40.27900 44.34800
H  45.91200 38.85600 43.28300
H  44.34200 39.58600 43.55200
H  42.38800 41.54100 40.89000
H  43.71500 40.42400 40.54900
H  44.99300 42.56400 39.65000
H  43.32600 43.18800 39.60400
H  50.73300 39.98500 40.96900
H  50.43800 39.85500 42.68000
H  51.96100 40.40300 42.27000
H  53.35500 45.09900 40.50200
H  54.71200 44.26800 41.20600
H  53.55900 44.90600 42.31600
H  51.04100 48.41500 41.17300
H  49.09700 49.67000 43.09900
H  52.27300 49.00700 43.02500
H  51.77500 47.40800 43.61000
H  50.86300 48.92400 44.15800
H  48.31100 49.70900 40.23800
H  49.85400 50.42700 40.50500
H  48.44700 51.74200 42.36500
H  47.46100 51.52900 40.84100
H  49.14100 52.25500 40.82600
H  43.80800 49.63500 44.03200
H  42.42800 49.05000 43.36000
H  43.61200 49.93100 42.33800
H  42.10200 44.20800 41.67700
H  41.85600 44.30300 46.93200
H  42.09300 42.66000 46.40200
H  40.60800 43.66500 45.93300
Mg -6.26500 25.03800 26.34800
C  -4.48100 26.68400 28.89200
C  -7.43500 22.86800 28.71400
C  -7.61000 23.38400 23.91000
C  -4.59000 27.12100 24.12300
N  -6.06100 24.83600 28.58600
C  -5.31700 25.69900 29.41000
C  -5.48700 25.31800 30.88300
C  -6.25200 23.94900 30.75700
C  -6.64500 23.84900 29.28300
C  -5.50800 22.67700 31.38900
C  -6.12300 26.49400 31.72300
C  -7.17600 26.23900 32.73400
H  -6.71400 25.38600 33.88600
N  -7.36700 23.32000 26.39300
C  -7.87600 22.58600 27.41800
C  -8.71400 21.54400 26.86600
C  -8.70900 21.61600 25.43800
C  -7.85800 22.78400 25.18500
C  -9.44600 20.58000 27.81000
C  -9.49300 20.75600 24.42200
O  -9.48000 21.03800 23.17700
C  -10.39700 19.61100 24.82200
N  -6.21100 25.30300 24.30500
C  -6.87200 24.52900 23.48000
C  -6.57200 24.85300 22.05700
C  -5.76400 26.17000 22.05200
C  -5.51700 26.23400 23.56400
C  -5.86100 23.69900 21.27700
C  -6.51800 27.36600 21.38500
C  -6.04600 27.69700 19.93100
N  -4.88300 26.64500 26.42300
C  -4.19400 27.30700 25.46900
C  -3.37300 28.30800 26.01000
C  -3.39400 28.08600 27.41600
C  -4.33500 27.05200 27.58300
C  -2.63600 29.33800 25.19600
C  -2.86900 28.45100 28.66400
O  -1.95900 29.21700 28.93100
C  -3.61500 27.63000 29.69400
C  -2.69700 27.02600 30.71300
O  -2.11300 25.98800 30.58000
O  -2.72400 27.69300 31.91800
C  -2.22400 27.06200 33.12300
H  -7.77600 22.14100 29.45300
H  -8.16700 22.84900 23.13900
H  -4.12400 27.71400 23.33300
H  -4.46600 25.12600 31.21300
H  -7.22900 23.96800 31.24000
H  -4.43500 22.77000 31.22000
H  -5.85700 21.74800 30.93700
H  -5.74600 22.68900 32.45200
H  -6.44300 27.38000 31.17400
H  -5.21600 26.71000 32.28700
H  -8.10700 25.85300 32.32000
H  -7.36300 27.21000 33.19300
H  -10.50900 20.50300 27.58400
H  -9.34500 20.82500 28.86700
H  -9.15900 19.55200 27.58900
H  -10.35600 18.90700 23.99000
H  -11.41000 19.95000 25.03800
H  -10.00700 19.05000 25.67100
H  -7.48000 25.14800 21.53000
H  -4.82200 26.11800 21.50500
H  -4.80800 23.89300 21.07600
H  -6.44900 23.50300 20.38000
H  -5.66000 22.81700 21.88500
H  -6.26700 28.22000 22.01500
H  -7.59900 27.24600 21.31800
H  -6.99800 27.74400 19.40100
H  -5.34600 26.98000 19.50100
H  -5.53700 28.65300 19.81400
H  -1.94900 28.74600 24.59200
H  -2.08600 29.96300 25.90000
H  -3.20900 29.92500 24.47900
H  -4.28800 28.31300 30.21200
H  -1.26500 26.54500 33.08500
H  -2.97500 26.33200 33.42700
H  -2.11400 27.77000 33.94500

