158

Mg 2.39600 -2.19200 44.18500
C  5.91400 -1.55100 43.80000
C  1.71500 0.48300 42.17400
C  -0.66900 -3.45600 43.65600
C  3.33600 -5.32200 45.61000
N  3.74800 -0.83400 43.04900
C  5.11400 -0.65800 43.11400
C  5.48200 0.55500 42.33200
C  4.04700 1.40300 42.10900
C  3.08100 0.25500 42.44200
C  3.85600 2.62400 43.13100
C  6.18500 0.09000 40.99700
C  7.50600 0.83400 40.64600
H  7.46000 1.69100 39.33900
N  0.71500 -1.44100 43.13700
C  0.63700 -0.29300 42.42700
C  -0.67600 -0.13600 41.99600
C  -1.49700 -1.23500 42.41600
C  -0.51600 -2.12600 43.10700
C  -1.12900 1.02200 41.18500
C  -2.89900 -1.50900 42.03700
O  -3.52900 -0.71000 41.37000
C  -3.69300 -2.74800 42.48100
N  1.51500 -4.08700 44.41200
C  0.22700 -4.38700 44.19000
C  -0.22500 -5.82900 44.61800
C  1.13500 -6.43600 45.07300
C  2.03400 -5.21900 45.12600
C  -1.22000 -5.94600 45.84900
C  1.70200 -7.69200 44.23400
C  1.61400 -9.09400 45.01300
N  4.23400 -3.15400 44.86400
C  4.45200 -4.43300 45.44900
C  5.83100 -4.53000 45.86900
C  6.43900 -3.45100 45.27400
C  5.40600 -2.63300 44.62000
C  6.52800 -5.65600 46.64300
C  7.70700 -2.67500 45.07100
O  8.83300 -2.90000 45.51100
C  7.37300 -1.38900 44.11700
C  7.70800 -0.12600 44.86000
O  7.07900 0.16700 45.83100
O  8.69600 0.60500 44.33100
C  9.00700 1.88900 44.94600
H  1.71300 1.49800 41.76900
H  -1.65100 -3.93000 43.59100
H  3.62600 -6.28900 46.02600
H  6.21700 1.08400 42.93900
H  4.01500 1.69700 41.06000
H  2.88400 2.71000 43.61600
H  3.99500 3.56000 42.59000
H  4.55500 2.62200 43.96600
H  5.37100 0.19800 40.28000
H  6.29500 -0.99300 41.04600
H  8.31100 0.10000 40.61300
H  7.76000 1.60100 41.37800
H  -1.66500 0.76100 40.27200
H  -0.24900 1.58300 40.87200
H  -1.64000 1.72600 41.84100
H  -4.74200 -2.64600 42.20600
H  -3.58300 -2.80300 43.56500
H  -3.29100 -3.60200 41.93500
H  -0.58000 -6.42600 43.77800
H  1.11500 -6.85100 46.08000
H  -1.37700 -5.03100 46.42100
H  -0.90100 -6.76500 46.49400
H  -2.20100 -6.30300 45.53500
H  2.73900 -7.63500 43.90300
H  1.16300 -7.84700 43.30000
H  1.01000 -8.92600 45.90500
H  2.56900 -9.43300 45.41500
H  1.16000 -9.86000 44.38500
H  7.61200 -5.54400 46.68500
H  6.38300 -6.62000 46.15600
H  6.33400 -5.72700 47.71300
H  7.94400 -1.31800 43.19200
H  8.10300 2.42500 45.23600
H  9.58300 2.43500 44.19900
H  9.64200 1.72800 45.81700
Mg 47.06700 24.70100 28.71200
C  47.64000 27.01900 31.24500
C  45.99300 22.44700 31.15500
C  46.51400 22.44000 26.38500
C  48.69600 26.69600 26.37800
N  46.84100 24.75900 31.01200
C  47.06700 25.81400 31.80700
C  46.69100 25.49300 33.28500
C  46.32600 23.98300 33.24000
C  46.38500 23.67900 31.73000
C  47.17000 23.10100 34.17200
C  45.53800 26.43100 33.71400
C  45.92800 27.27000 34.94000
H  46.55000 26.54500 36.28000
N  46.25900 22.80800 28.77900
C  45.85100 22.05600 29.86000
C  45.24500 20.77300 29.38200
C  45.43200 20.74800 27.97600
C  46.00000 22.04400 27.60600
C  44.90400 19.64300 30.26500
C  45.18900 19.55000 26.98600
O  45.41600 19.58800 25.82100
C  44.80200 18.15700 27.44400
N  47.53100 24.60900 26.59700
C  47.24200 23.46000 25.93100
C  47.61400 23.64000 24.47900
C  48.35500 25.01300 24.51800
C  48.30400 25.43600 25.91900
C  48.33900 22.48000 23.71700
C  47.77900 26.13600 23.56700
C  46.35800 26.74300 23.88700
N  47.95800 26.47000 28.73200
C  48.57400 27.24800 27.70800
C  48.98200 28.53800 28.28700
C  48.72900 28.44000 29.64600
C  48.03400 27.19800 29.87700
C  49.66700 29.64000 27.50400
C  48.85700 29.15900 30.91100
O  49.36300 30.24200 31.22600
C  48.15000 28.27500 31.92900
C  49.22700 27.88900 32.96900
O  50.00600 26.90300 32.80600
O  49.16800 28.70200 34.08600
C  49.97300 28.18300 35.25400
H  45.67900 21.75800 31.94200
H  46.31400 21.73400 25.57700
H  49.27300 27.27200 25.65100
H  47.67200 25.66300 33.72800
H  45.31500 23.60200 33.38300
H  47.69700 22.22600 33.79100
H  46.46800 22.76200 34.93400
H  47.89500 23.75600 34.65400
H  44.50100 26.09600 33.71900
H  45.46800 27.16700 32.91300
H  44.95600 27.71800 35.14600
H  46.54500 28.12900 34.67800
H  45.62000 18.85000 30.05200
H  43.84500 19.40400 30.16200
H  45.12600 19.84300 31.31300
H  44.66200 17.43400 26.64000
H  43.85400 18.18900 27.98000
H  45.59200 17.77400 28.09000
H  46.69600 23.90100 23.95200
H  49.39400 24.91800 24.20100
H  49.14500 22.88600 23.10600
H  47.64900 22.01200 23.01600
H  48.77600 21.80800 24.45600
H  47.65700 25.63500 22.60700
H  48.58400 26.86700 23.48900
H  45.87900 26.51900 24.84000
H  45.73200 26.55300 23.01500
H  46.41800 27.82800 23.80900
H  50.70200 29.76300 27.82500
H  49.14500 30.55500 27.78300
H  49.59700 29.49800 26.42500
H  47.43900 28.88100 32.49000
H  49.58100 27.21600 35.56700
H  50.13200 28.95200 36.01000
H  50.95300 27.88900 34.87700

