158

Mg -1.79500 17.59700 27.55400
C  -2.82700 15.40700 30.35900
C  -2.26300 20.26100 29.58200
C  -1.24700 19.48000 24.95900
C  -2.13600 14.69100 25.47400
N  -2.56900 17.78400 29.75900
C  -2.62700 16.77500 30.69000
C  -2.71600 17.48100 32.02500
C  -2.78700 18.97600 31.73300
C  -2.49200 19.03700 30.25700
C  -4.09600 19.44600 32.26100
C  -1.71700 17.10700 33.18700
C  -2.41400 16.56900 34.52600
H  -1.40200 16.28400 35.57300
N  -1.82600 19.64800 27.25000
C  -1.92000 20.58500 28.26800
C  -1.76700 21.91000 27.66800
C  -1.33300 21.67800 26.32000
C  -1.44300 20.25700 26.07500
C  -1.70800 23.21500 28.43800
C  -0.97400 22.67700 25.29800
O  -0.63600 22.36400 24.15600
C  -0.90700 24.16300 25.60100
N  -1.78100 17.16700 25.48400
C  -1.48000 18.14600 24.61400
C  -1.29700 17.58100 23.21600
C  -1.41700 15.98700 23.38100
C  -1.73700 15.91400 24.85800
C  -2.35200 18.10800 22.20800
C  -0.14800 15.30400 22.91400
C  1.21900 15.78700 23.58500
N  -2.39700 15.47700 27.81800
C  -2.38700 14.44400 26.88300
C  -2.93900 13.22300 27.56200
C  -3.01400 13.57000 28.90300
C  -2.73100 14.92400 29.03000
C  -3.19400 11.90800 26.92700
C  -3.35500 13.05300 30.28000
O  -3.61000 11.91200 30.67300
C  -3.10900 14.21500 31.29400
C  -1.87500 13.80500 32.05900
O  -0.73000 13.93700 31.69200
O  -2.26700 13.30800 33.28400
C  -1.19200 13.07300 34.23700
H  -2.17100 21.05400 30.32700
H  -0.98500 20.12500 24.11800
H  -2.04800 13.90000 24.72600
H  -3.68800 17.13500 32.37700
H  -2.08600 19.50200 32.38100
H  -4.81300 19.70600 31.48200
H  -3.91700 20.43600 32.68200
H  -4.53900 18.87700 33.07800
H  -0.96300 17.89200 33.24500
H  -1.03000 16.37000 32.77200
H  -2.98300 15.64400 34.43700
H  -3.01000 17.40900 34.88200
H  -2.51400 23.88200 28.13300
H  -0.77100 23.77100 28.41300
H  -1.82300 23.01800 29.50300
H  -0.17600 24.29800 26.39800
H  -1.92600 24.42700 25.88600
H  -0.57300 24.74100 24.73900
H  -0.34000 17.94400 22.84100
H  -2.27400 15.52800 22.88700
H  -2.90400 18.96800 22.58700
H  -3.01600 17.29000 21.92700
H  -1.87400 18.39400 21.27100
H  -0.15700 15.48300 21.83900
H  -0.26800 14.26400 23.21700
H  1.05900 15.95500 24.65000
H  1.61700 16.69300 23.12800
H  1.95200 14.98000 23.57100
H  -3.38500 11.10700 27.64100
H  -2.37600 11.58300 26.28500
H  -4.07200 11.99100 26.28500
H  -3.97600 14.25600 31.95400
H  -1.40100 13.53400 35.20300
H  -0.24400 13.54800 33.98200
H  -1.13300 11.98500 34.21800
Mg 25.57800 1.26200 30.06700
C  27.54200 0.85400 32.82000
C  22.86500 1.31600 32.04800
C  23.62600 0.76200 27.18700
C  28.38400 0.58700 27.97100
N  25.26100 0.99600 32.16800
C  26.21400 1.07800 33.10700
C  25.64600 1.50500 34.60500
C  24.13600 1.31100 34.28600
C  24.03800 1.17900 32.75200
C  23.54100 0.00700 34.98900
C  26.08400 2.96800 34.99400
C  27.07800 3.04900 36.11100
H  26.49500 3.61900 37.40000
N  23.51200 1.21900 29.65700
C  22.57200 1.26400 30.64200
C  21.28400 1.16600 29.98500
C  21.49200 0.89700 28.59700
C  22.94300 0.92600 28.40800
C  19.98600 1.33300 30.73700
C  20.48700 0.75200 27.46000
O  20.66300 0.59600 26.27800
C  19.08500 0.78700 27.73400
N  25.92500 0.74200 27.95300
C  24.97100 0.73500 27.03400
C  25.58100 0.98300 25.56500
C  27.10100 0.85200 25.78500
C  27.15800 0.73200 27.32700
C  25.09800 0.07000 24.42100
C  27.94200 2.09700 25.34500
C  29.23500 1.81400 24.65900
N  27.58400 0.87900 30.27300
C  28.55400 0.63900 29.41800
C  29.73700 0.21800 30.14600
C  29.44000 0.35300 31.52500
C  28.08300 0.67200 31.53000
C  30.99900 -0.23000 29.55500
C  29.88200 0.27700 32.82400
O  31.00600 -0.00900 33.20300
C  28.74300 0.74600 33.78700
C  28.58100 -0.32200 34.77400
O  28.05500 -1.44300 34.63400
O  29.17600 0.03700 35.93000
C  28.89400 -0.67500 37.15800
H  21.95100 1.33500 32.64500
H  23.12900 0.69100 26.21700
H  29.22300 0.45100 27.28500
H  25.93600 0.71200 35.29300
H  23.53400 2.11300 34.71100
H  24.03400 -0.14900 35.94800
H  23.60700 -0.84300 34.30900
H  22.46300 0.14900 35.06900
H  25.13900 3.44800 35.24900
H  26.44400 3.59200 34.17600
H  27.75900 3.85200 35.82900
H  27.54000 2.06900 36.23100
H  19.51200 0.36800 30.91600
H  19.36100 2.11000 30.29600
H  20.22300 1.69400 31.73800
H  18.55000 0.85800 26.78700
H  18.84900 1.68100 28.31200
H  18.77200 -0.15900 28.17500
H  25.34700 2.03300 25.39200
H  27.39200 -0.10300 25.34900
H  24.85400 -0.93300 24.77100
H  25.87400 -0.14500 23.68600
H  24.19500 0.61900 24.15500
H  28.11100 2.75900 26.19500
H  27.37100 2.64300 24.59400
H  29.38400 0.73600 24.60500
H  30.02500 2.41100 25.11500
H  29.23500 2.26700 23.66700
H  31.79700 -0.00900 30.26400
H  31.35200 0.27400 28.65500
H  30.78400 -1.27100 29.31200
H  29.10700 1.67800 34.22000
H  28.35000 -1.61800 37.10900
H  28.34500 -0.01900 37.83300
H  29.83500 -0.79000 37.69600

