158

Mg 46.89900 25.54900 29.08800
C  48.02200 27.70200 31.61500
C  45.82700 23.44200 31.61000
C  46.27600 23.13400 26.66000
C  48.53300 27.38300 26.63100
N  46.89300 25.62100 31.39100
C  47.39400 26.63800 32.15700
C  47.06100 26.37300 33.62600
C  46.55700 24.90300 33.64700
C  46.38000 24.61300 32.12400
C  47.47900 23.79800 34.23600
C  46.02300 27.50200 34.18700
C  46.50100 28.13800 35.51600
H  45.29500 28.19200 36.54800
N  46.08000 23.66400 29.12700
C  45.64700 23.03200 30.27200
C  45.06100 21.74500 29.88600
C  45.06600 21.73300 28.43900
C  45.86000 22.86300 27.98300
C  44.39300 20.84100 30.90600
C  44.51600 20.73000 27.53400
O  44.70000 20.80400 26.32000
C  43.57500 19.64000 28.00300
N  47.41700 25.25500 26.91400
C  46.99500 24.22600 26.16800
C  47.56500 24.26300 24.77900
C  47.89900 25.84200 24.67300
C  47.96200 26.21600 26.14300
C  48.83500 23.37700 24.63200
C  46.80000 26.75000 23.92200
C  47.42400 27.32300 22.63100
N  48.08000 27.25300 29.01500
C  48.61400 27.92400 27.98400
C  49.24400 29.08400 28.51700
C  49.02200 29.06700 29.88200
C  48.25200 27.96300 30.15800
C  49.99900 30.06700 27.72000
C  49.25600 29.73800 31.16400
O  49.98700 30.70700 31.35800
C  48.60500 28.96400 32.33900
C  49.62200 28.63500 33.39700
O  50.54200 27.91200 33.26400
O  49.28400 29.25000 34.55300
C  50.02800 29.05000 35.75000
H  45.60800 22.84100 32.49500
H  46.07800 22.46900 25.81700
H  49.03900 28.02500 25.90700
H  47.93600 26.41200 34.27500
H  45.55900 24.82100 34.07800
H  48.26400 24.26600 34.82900
H  47.90800 23.18100 33.44700
H  46.87700 23.26400 34.97200
H  45.03400 27.04600 34.22700
H  45.97000 28.35900 33.51500
H  46.77500 29.15500 35.23500
H  47.31900 27.55500 35.93800
H  43.45900 20.37300 30.59400
H  44.10200 21.36800 31.81500
H  44.95800 19.92500 31.07400
H  42.66600 20.19300 28.24000
H  43.92900 18.98700 28.80000
H  43.31600 18.99200 27.16600
H  46.81300 23.96300 24.04900
H  48.90300 25.96300 24.26700
H  48.60500 22.37000 24.28400
H  49.34800 23.39700 25.59300
H  49.50100 23.86500 23.92000
H  46.40400 27.52700 24.57600
H  45.98200 26.05000 23.74800
H  46.81800 27.07500 21.76000
H  48.44800 27.03600 22.39200
H  47.44100 28.41100 22.69000
H  49.63900 30.04900 26.69100
H  51.05100 29.79700 27.62800
H  49.89300 31.11800 27.99000
H  47.85700 29.68500 32.66900
H  49.57000 29.57700 36.58800
H  51.02200 29.48800 35.65500
H  50.23100 27.98400 35.85200
Mg 50.20700 45.10100 43.47600
C  46.76900 45.23500 42.42500
C  50.18700 41.77800 42.89900
C  53.61600 45.27100 43.56200
C  50.10900 48.58300 43.53400
N  48.71000 43.70200 42.46900
C  47.29700 43.92700 42.38100
C  46.58200 42.58400 42.17500
C  47.60600 41.47300 42.68100
C  48.92900 42.34800 42.75500
C  47.44500 40.95700 44.14700
C  46.14300 42.31400 40.69000
C  46.73300 43.34100 39.63300
H  46.74800 42.81000 38.22000
N  51.71600 43.65700 43.29000
C  51.46800 42.33100 43.03800
C  52.71500 41.68700 43.08700
C  53.76600 42.67100 43.25300
C  53.10200 43.97400 43.37400
C  52.87700 40.18800 42.95400
C  55.32400 42.44300 43.21500
O  55.73900 41.30500 43.11100
C  56.36500 43.46700 43.15900
N  51.67600 46.67500 43.55200
C  52.99800 46.52500 43.68300
C  53.77800 47.86200 43.77700
C  52.59400 48.89800 43.70800
C  51.42900 47.99400 43.56600
C  54.59600 47.95700 45.04500
C  52.67100 49.90400 42.47900
C  52.39700 51.40200 42.90700
N  48.72600 46.61500 43.25900
C  48.90900 47.97000 43.22500
C  47.72600 48.63200 42.90000
C  46.81000 47.65300 42.61800
C  47.51500 46.44400 42.73200
C  47.47800 50.14500 42.86300
C  45.50500 47.30600 42.27800
O  44.56600 48.01800 42.01300
C  45.34500 45.74400 42.12100
C  44.38500 45.25800 43.13100
O  44.62200 45.16100 44.32500
O  43.17400 44.88100 42.56000
C  42.14500 44.57600 43.51900
H  50.20500 40.68900 42.97500
H  54.69400 45.38100 43.69700
H  49.98700 49.66600 43.60800
H  45.72200 42.75400 42.82300
H  47.64600 40.69700 41.91600
H  46.42400 41.10400 44.49900
H  48.00100 41.61400 44.81600
H  47.78000 39.92500 44.25300
H  45.06200 42.43200 40.61400
H  46.37400 41.28900 40.39800
H  47.75900 43.61100 39.88400
H  46.05100 44.19000 39.58500
H  53.89700 39.90900 42.68900
H  52.13500 39.83500 42.23700
H  52.60500 39.67700 43.87700
H  56.27400 43.97800 44.11700
H  56.14900 44.22700 42.40800
H  57.35700 43.10300 42.89200
H  54.47500 48.03300 42.95700
H  52.52000 49.43000 44.65700
H  55.62600 47.84000 44.70900
H  54.48400 47.16800 45.78800
H  54.44500 48.94600 45.47900
H  51.81300 49.66600 41.85000
H  53.63600 49.73000 42.00400
H  51.66900 51.79200 42.19500
H  53.37800 51.81500 42.67100
H  52.17500 51.66300 43.94100
H  47.70700 50.70700 43.76800
H  46.50300 50.46800 42.50000
H  48.11000 50.70300 42.17200
H  44.79900 45.50200 41.21000
H  42.46800 43.90400 44.31400
H  41.28400 44.20100 42.96500
H  41.87300 45.53900 43.95100

