158

Mg 29.38100 59.38700 40.60300
C  26.35200 57.70700 40.13200
C  30.98600 56.60300 39.22000
C  32.21200 61.08600 40.66400
C  27.55000 62.30800 41.42000
N  28.67000 57.48000 39.58700
C  27.42400 56.93900 39.63900
C  27.39200 55.63700 38.80800
C  28.93300 55.18700 38.78900
C  29.58000 56.47800 39.27500
C  29.28800 53.88600 39.60200
C  26.73800 55.75900 37.42900
C  25.80500 54.60800 37.00000
H  25.81000 54.04400 35.61400
N  31.34700 58.93000 39.96300
C  31.78100 57.69200 39.55800
C  33.19700 57.70800 39.46200
C  33.61700 59.04800 39.99000
C  32.39800 59.71800 40.29000
C  34.08400 56.62400 38.84600
C  34.96300 59.53600 40.16100
O  35.88800 58.82500 39.84900
C  35.27900 60.84500 40.81600
N  29.74900 61.46900 40.82200
C  31.05000 61.87100 40.90400
C  31.06700 63.35100 41.39400
C  29.58000 63.72800 41.55000
C  28.90600 62.44400 41.30400
C  32.09900 63.67400 42.51700
C  29.18000 64.98700 40.70300
C  28.46600 66.14600 41.47800
N  27.42100 59.94700 40.81300
C  26.75900 61.15300 41.17200
C  25.33600 60.91700 41.25600
C  25.13300 59.57400 40.97000
C  26.42000 59.06800 40.61700
C  24.33900 61.93300 41.64400
C  24.07100 58.47300 40.81800
O  22.86300 58.49700 41.06600
C  24.88900 57.29600 40.22700
C  24.71200 56.23400 41.19800
O  24.66600 56.33000 42.39200
O  24.63500 54.99800 40.57400
C  24.80100 53.83000 41.45900
H  31.51700 55.78600 38.72800
H  33.08400 61.73600 40.75600
H  27.08900 63.27800 41.61800
H  26.84200 54.96200 39.46400
H  29.26000 54.94800 37.77700
H  29.76800 54.06900 40.56400
H  29.96200 53.31300 38.96400
H  28.46000 53.18600 39.71000
H  27.56100 55.82600 36.71700
H  26.25600 56.73600 37.38400
H  24.74900 54.85300 37.11600
H  25.88100 53.77000 37.69300
H  33.65600 55.78400 38.29900
H  34.60400 56.21900 39.71300
H  34.89200 57.02400 38.23400
H  35.17100 61.62800 40.06500
H  36.33700 60.69700 41.03300
H  34.77800 60.93300 41.78000
H  31.54400 63.99700 40.65700
H  29.38300 63.94000 42.60100
H  32.39000 62.67500 42.84200
H  31.62500 64.17300 43.36300
H  32.97500 64.21600 42.16200
H  28.45100 64.69800 39.94600
H  29.98800 65.44600 40.13200
H  27.39500 66.15000 41.27200
H  29.02500 67.07600 41.37600
H  28.51500 65.87700 42.53300
H  24.68600 62.88900 41.25400
H  24.23200 61.92300 42.72900
H  23.40400 61.55600 41.23000
H  24.48800 56.86700 39.30900
H  24.46100 52.95500 40.90600
H  24.16700 53.91500 42.34100
H  25.84100 53.57900 41.66500
Mg -2.47900 34.49100 26.74200
C  -3.81700 32.88700 29.50600
C  -1.02700 36.83600 28.81200
C  -1.55800 36.30700 24.04600
C  -3.92800 32.18900 24.67800
N  -2.53200 34.86000 28.95300
C  -2.94400 33.93100 29.82800
C  -2.43600 34.29300 31.25700
C  -1.61800 35.68600 31.03700
C  -1.77500 35.85200 29.48400
C  -2.01100 36.96600 31.84300
C  -1.61000 33.18500 32.09000
C  -2.25600 32.56700 33.31000
H  -1.36400 32.28700 34.47000
N  -1.45500 36.32000 26.51000
C  -0.84000 37.07500 27.44300
C  -0.17700 38.16400 26.80600
C  -0.29500 37.98400 25.36800
C  -1.16600 36.84300 25.31100
C  0.69200 39.12300 27.55100
C  0.26700 38.84600 24.21100
O  0.10400 38.65100 23.01100
C  1.13600 40.10900 24.49900
N  -2.82200 34.35300 24.63700
C  -2.32300 35.19900 23.71500
C  -2.35800 34.63400 22.26900
C  -2.99800 33.22800 22.50700
C  -3.23200 33.22100 24.03100
C  -3.08800 35.31500 21.12600
C  -2.19200 32.02800 21.91900
C  -0.77400 31.79200 22.52200
N  -3.67300 32.85200 26.96400
C  -4.19200 31.97600 26.03400
C  -4.84700 30.90700 26.69000
C  -4.78300 31.19600 28.09200
C  -4.08600 32.43000 28.17300
C  -5.50300 29.72600 26.12700
C  -5.10000 30.83000 29.46900
O  -5.77800 29.85700 29.83900
C  -4.50300 31.92100 30.44400
C  -5.66800 32.55400 31.21900
O  -6.53700 33.35200 30.83500
O  -5.53500 32.16000 32.50600
C  -6.52800 32.75400 33.44100
H  -0.36700 37.42700 29.45000
H  -0.99200 36.72400 23.21100
H  -4.22400 31.38800 23.99800
H  -3.35100 34.70900 31.67700
H  -0.61700 35.46900 31.41000
H  -2.84300 36.79100 32.52600
H  -2.26400 37.75000 31.12900
H  -1.10500 37.34200 32.31800
H  -0.64000 33.60800 32.35000
H  -1.37700 32.38100 31.39200
H  -2.74700 31.61400 33.11400
H  -3.07900 33.15800 33.71100
H  0.83200 40.09700 27.08300
H  1.66700 38.70700 27.80400
H  0.18200 39.34100 28.48900
H  0.70600 40.76300 25.25700
H  1.11700 40.77600 23.63700
H  2.08400 39.67100 24.81200
H  -1.33500 34.41000 21.96600
H  -4.02000 33.16100 22.13400
H  -3.64100 36.12900 21.59600
H  -3.79600 34.60900 20.69300
H  -2.40800 35.69500 20.36300
H  -1.98500 32.17800 20.85900
H  -2.76500 31.11600 22.08800
H  -0.33500 32.69000 22.95900
H  -0.07700 31.50300 21.73500
H  -0.83700 30.95700 23.22000
H  -4.93500 29.21300 25.35000
H  -6.39200 30.08000 25.60500
H  -5.69600 29.02200 26.93600
H  -3.90500 31.36900 31.16800
H  -6.35500 33.77600 33.77700
H  -6.68900 32.07500 34.27800
H  -7.50600 32.85700 32.97000

