158

Mg 54.49900 24.46500 44.20000
C  52.39200 27.15100 43.39000
C  52.43600 22.36400 42.57400
C  56.86000 22.05800 44.43300
C  56.86300 26.94200 44.99300
N  52.55500 24.76100 43.19800
C  51.86800 25.90700 42.90500
C  50.67100 25.59500 42.02200
C  50.62100 24.02600 42.03800
C  51.97100 23.67000 42.68100
C  49.45200 23.48200 42.92300
C  50.72500 26.02200 40.51600
C  49.47300 26.19700 39.67200
H  49.43400 25.54900 38.21600
N  54.55200 22.41900 43.73500
C  53.58300 21.76200 43.03000
C  53.96300 20.40400 42.90300
C  55.21100 20.21900 43.58700
C  55.58700 21.59100 43.96200
C  53.15200 19.31700 42.14400
C  55.87800 18.87300 43.85500
O  55.36300 17.83100 43.50200
C  57.12500 18.69800 44.81600
N  56.61200 24.54400 44.42800
C  57.35400 23.39800 44.57600
C  58.84500 23.69200 45.01600
C  58.78400 25.22300 45.18900
C  57.33300 25.64500 44.76000
C  59.31600 23.01600 46.34600
C  59.82400 26.01300 44.31700
C  60.41100 27.29900 44.80100
N  54.66600 26.66500 44.30100
C  55.61100 27.48400 44.81700
C  55.06900 28.80800 45.05300
C  53.78200 28.75300 44.52800
C  53.60500 27.44900 44.01400
C  55.74100 29.99500 45.76900
C  52.50200 29.48600 44.30100
O  52.14600 30.62800 44.52700
C  51.60000 28.47400 43.51200
C  51.34800 29.15300 42.19400
O  52.19200 29.66400 41.45800
O  49.99400 29.10600 42.01800
C  49.51600 29.47000 40.67300
H  51.75200 21.78000 41.95500
H  57.60000 21.25600 44.47500
H  57.59000 27.71500 45.25200
H  49.79700 26.11900 42.40900
H  50.58500 23.59100 41.04000
H  48.64800 23.01400 42.35500
H  49.00500 24.33400 43.43500
H  49.84300 22.82700 43.70100
H  51.36200 25.26000 40.06700
H  51.25900 26.96600 40.40900
H  49.33000 27.27700 39.63500
H  48.59300 25.74300 40.12700
H  52.44100 19.78500 41.46300
H  52.61100 18.75200 42.90200
H  53.80100 18.58800 41.65800
H  57.04000 17.67100 45.17200
H  56.95300 19.32100 45.69400
H  58.14900 18.84700 44.47500
H  59.39500 23.29700 44.16200
H  58.91600 25.58400 46.20900
H  59.11800 21.94500 46.34400
H  59.00800 23.53300 47.25500
H  60.39900 23.13500 46.31000
H  59.37200 26.15400 43.33500
H  60.72800 25.40900 44.23000
H  60.46800 28.06100 44.02400
H  61.45200 27.15300 45.08900
H  59.85100 27.75600 45.61700
H  55.08800 30.60400 46.39500
H  56.23300 30.75600 45.16300
H  56.50900 29.60800 46.43900
H  50.69700 28.39900 44.11800
H  50.21600 29.24100 39.87000
H  49.33000 30.53900 40.57000
H  48.53200 29.03900 40.48400
Mg 47.91100 16.21800 28.25300
C  46.06400 16.04700 31.24000
C  50.34500 17.94900 29.98300
C  49.38300 16.85100 25.33500
C  45.19100 14.88400 26.61800
N  48.04900 17.18900 30.38800
C  47.29300 16.76600 31.42100
C  47.86200 17.32200 32.77300
C  49.19800 18.04500 32.28400
C  49.15300 17.82300 30.76300
C  49.22300 19.56900 32.64500
C  48.07800 16.32300 33.92900
C  47.43300 16.49600 35.28700
H  47.17300 17.88100 35.87700
N  49.61500 17.20700 27.71900
C  50.53100 17.73000 28.60700
C  51.70200 18.06700 27.82000
C  51.48900 17.82400 26.48100
C  50.08900 17.34800 26.46000
C  52.97900 18.38700 28.51300
C  52.38200 18.16600 25.33800
O  51.97300 18.05000 24.15200
C  53.76600 18.82000 25.54700
N  47.29300 15.89500 26.18800
C  48.17300 16.13100 25.18600
C  47.52600 15.74500 23.84900
C  46.10600 15.26000 24.23900
C  46.22800 15.26400 25.75000
C  47.64100 16.79800 22.69400
C  45.60800 13.87400 23.75400
C  44.62900 13.77900 22.61400
N  46.15200 15.42400 28.79500
C  45.14400 14.90600 28.02600
C  43.96700 14.58100 28.86400
C  44.32900 14.99500 30.14400
C  45.59400 15.50200 30.06600
C  42.63500 14.17100 28.35100
C  43.85100 15.02000 31.43100
O  42.86500 14.48800 31.88000
C  44.96900 15.68000 32.27000
C  44.44500 16.78200 33.13000
O  44.54100 17.91100 32.76800
O  43.80100 16.32400 34.23800
C  42.92800 17.31700 34.89800
H  51.18000 18.27900 30.60400
H  50.01100 16.74200 24.44800
H  44.36600 14.39700 26.09200
H  47.22600 18.17900 32.99200
H  50.11700 17.59400 32.65800
H  48.74000 20.25100 31.94600
H  50.19100 20.03200 32.83400
H  48.68200 19.79100 33.56500
H  49.14100 16.21700 34.14600
H  47.73500 15.37200 33.52100
H  48.15400 15.97500 35.91700
H  46.49100 15.94700 35.28600
H  53.67500 17.69000 28.04500
H  52.95000 18.08100 29.55900
H  53.15200 19.45300 28.37100
H  54.16500 19.13300 24.58200
H  54.47300 18.05400 25.86700
H  53.65000 19.63700 26.25900
H  48.03200 14.82700 23.55100
H  45.51100 16.08200 23.84300
H  47.96200 16.25300 21.80600
H  48.42200 17.51500 22.94800
H  46.72700 17.38100 22.59200
H  45.18200 13.36300 24.61700
H  46.52900 13.38700 23.43200
H  45.20600 13.42100 21.76100
H  44.15100 14.74800 22.47800
H  43.92000 12.97700 22.82300
H  42.45900 13.10200 28.46700
H  42.41400 14.53800 27.34900
H  41.81300 14.68100 28.85200
H  45.31900 14.98700 33.03500
H  42.62000 18.12800 34.23800
H  43.47700 17.68200 35.76600
H  41.98300 16.82900 35.13600

