158

Mg 54.75200 23.56200 45.09700
C  52.12000 25.78200 43.87500
C  52.50900 21.11900 44.31200
C  57.31700 21.44800 45.35000
C  56.69200 26.20000 45.71600
N  52.52100 23.52200 44.08200
C  51.68600 24.51500 43.73300
C  50.34700 23.99500 43.31800
C  50.36300 22.51100 43.86800
C  51.89800 22.32700 44.05100
C  49.59300 22.27200 45.09600
C  50.18300 24.01400 41.81900
C  48.84000 24.41900 41.31100
H  48.48500 24.10800 39.85800
N  54.90500 21.52900 44.97600
C  53.86200 20.71700 44.62700
C  54.30200 19.36800 44.63500
C  55.69300 19.32100 44.94200
C  56.04900 20.80500 45.09300
C  53.41600 18.21100 44.19100
C  56.56700 18.06500 44.95700
O  56.10300 16.93800 44.81400
C  58.05200 18.14300 45.33200
N  56.72000 23.78500 45.41900
C  57.58000 22.77800 45.58500
C  58.89100 23.29700 46.13200
C  58.63800 24.81600 46.39800
C  57.24800 24.96300 45.86000
C  59.36600 22.45500 47.37300
C  59.67600 25.73200 45.67900
C  60.45100 26.67700 46.62700
N  54.58000 25.63700 44.78600
C  55.41500 26.58400 45.20800
C  54.72300 27.86800 45.16100
C  53.54500 27.57300 44.51000
C  53.41000 26.21000 44.36500
C  55.34600 29.13500 45.63200
C  52.31400 28.23300 44.08000
O  51.94100 29.38900 44.15400
C  51.32800 27.07700 43.58200
C  51.27300 27.28300 42.06500
O  52.16300 27.12400 41.27200
O  50.00100 27.74700 41.78100
C  49.83300 28.23000 40.39900
H  51.83800 20.26900 44.17800
H  58.13700 20.78500 45.63300
H  57.40600 26.99400 45.94400
H  49.59800 24.54500 43.88800
H  50.23900 21.68600 43.16700
H  49.13000 21.28500 45.07000
H  48.79700 23.00900 45.20000
H  50.24900 22.37200 45.96100
H  50.46300 23.01900 41.47300
H  50.88400 24.76000 41.44600
H  48.68700 25.49200 41.42800
H  48.17700 23.83000 41.94500
H  53.57000 18.06600 43.12200
H  52.34900 18.36100 44.35400
H  53.73100 17.24600 44.58700
H  58.77300 18.55600 44.62800
H  58.37400 17.13900 45.61100
H  58.15200 18.67800 46.27700
H  59.60000 23.17600 45.31300
H  58.55700 24.95500 47.47600
H  58.66200 21.62500 47.44400
H  59.47200 23.15000 48.20600
H  60.30200 21.97500 47.08700
H  59.22600 26.22700 44.81800
H  60.47800 25.04500 45.41000
H  60.20600 27.65900 46.22200
H  61.53800 26.59500 46.64500
H  60.18500 26.55800 47.67700
H  54.60300 29.88600 45.89700
H  56.11200 29.52500 44.96100
H  55.79400 28.93400 46.60500
H  50.38000 27.10200 44.12000
H  48.97800 28.90500 40.44100
H  49.63300 27.40000 39.72300
H  50.60600 28.83000 39.92000
Mg 9.81000 48.16100 24.96900
C  7.14100 48.45500 27.45100
C  11.77900 49.33200 27.16300
C  12.05900 48.02500 22.41600
C  7.20100 47.63400 22.63100
N  9.49600 48.74900 27.06900
C  8.44000 48.75700 27.92200
C  8.75000 49.04400 29.42000
C  10.23900 49.60700 29.17600
C  10.51000 49.39200 27.70500
C  10.47100 51.06700 29.66300
C  8.51500 47.81700 30.43400
C  9.50200 47.64600 31.60800
H  9.01700 46.88100 32.83200
N  11.71900 48.44200 24.91100
C  12.39300 48.90900 25.94600
C  13.75100 48.86800 25.67400
C  13.88600 48.53200 24.28400
C  12.51800 48.41900 23.77800
C  14.78800 49.20300 26.72500
C  15.10400 48.38400 23.45400
O  15.07600 48.15400 22.26300
C  16.40700 48.32400 24.09000
N  9.66200 48.05500 22.82600
C  10.73500 47.94400 21.97500
C  10.35400 47.55500 20.56900
C  8.86900 47.26200 20.68400
C  8.52000 47.68700 22.12000
C  10.76600 48.65700 19.61900
C  8.38000 45.81900 20.28900
C  9.20500 44.67700 20.84700
N  7.63300 47.90800 24.97700
C  6.71700 47.75900 23.90200
C  5.33900 47.82800 24.38600
C  5.51200 48.07000 25.76600
C  6.88100 48.09600 26.04400
C  4.09300 47.60100 23.59900
C  4.72900 48.43800 26.97700
O  3.54100 48.67600 27.19700
C  5.75900 48.55100 28.16300
C  5.59900 47.39900 29.05500
O  5.87600 46.24200 28.77800
O  5.09500 47.88800 30.21400
C  5.05400 46.81600 31.26900
H  12.47700 49.69100 27.92300
H  12.80400 47.88300 21.63100
H  6.38700 47.41300 21.93700
H  8.11500 49.84700 29.79400
H  10.97100 49.02000 29.73100
H  11.31000 51.11600 30.35800
H  9.58600 51.25100 30.27100
H  10.54000 51.76000 28.82400
H  8.37000 46.88700 29.88400
H  7.53000 47.97300 30.87500
H  9.85900 48.64100 31.87600
H  10.30200 47.00900 31.23200
H  15.66800 48.56600 26.63500
H  14.55700 49.14200 27.78900
H  14.98800 50.22300 26.39900
H  16.55800 49.31900 24.50900
H  17.16800 48.16100 23.32700
H  16.32900 47.56200 24.86500
H  10.88400 46.64400 20.29100
H  8.31000 47.83100 19.94000
H  11.58900 49.21300 20.06700
H  9.92300 49.30800 19.39000
H  11.11600 48.22000 18.68400
H  8.53400 45.77500 19.21100
H  7.35000 45.75000 20.64000
H  9.80400 44.93300 21.72100
H  9.69200 44.14900 20.02800
H  8.39200 44.01900 21.15500
H  3.70900 48.55500 23.23800
H  3.33900 47.25900 24.30800
H  4.22500 46.84900 22.82100
H  5.74700 49.46200 28.76200
H  6.06900 46.43000 31.36100
H  4.54400 45.88400 31.02300
H  4.69600 47.18000 32.23200

