158

Mg 48.18900 34.91000 27.81900
C  46.29700 33.28500 30.22900
C  48.34800 37.66800 30.07400
C  49.37100 36.99900 25.39700
C  47.62700 32.44800 25.60800
N  47.39800 35.35200 29.92100
C  46.79400 34.45500 30.74600
C  46.86300 35.02800 32.20600
C  47.06000 36.50600 31.93300
C  47.68100 36.50600 30.55300
C  45.80600 37.41500 32.22300
C  48.14700 34.34800 32.87600
C  48.44700 34.51700 34.36700
H  47.54100 35.48600 35.20300
N  48.84800 36.98100 27.74900
C  48.90000 37.88900 28.81400
C  49.66300 39.02000 28.43500
C  49.91000 38.93600 27.02700
C  49.28500 37.61400 26.63200
C  49.95600 40.16800 29.39200
C  50.65100 39.92300 26.02900
O  50.80500 39.62700 24.86200
C  51.12300 41.29000 26.50800
N  48.22200 34.89100 25.73700
C  48.88300 35.74900 24.94400
C  48.99300 35.21900 23.51400
C  48.63900 33.69600 23.69900
C  48.16500 33.66900 25.12900
C  48.07500 36.07100 22.54600
C  49.83900 32.82700 23.33600
C  49.39400 31.58200 22.52900
N  47.23800 33.09500 27.87700
C  47.04300 32.17500 26.94100
C  46.41100 30.96700 27.43800
C  46.08600 31.36800 28.72900
C  46.58700 32.71900 28.95900
C  45.93600 29.69800 26.76000
C  45.31600 31.07100 29.99100
O  44.61800 30.08700 30.24500
C  45.38500 32.29200 30.93200
C  45.76200 31.74800 32.33100
O  46.66700 31.00500 32.59300
O  44.82400 32.12300 33.21900
C  45.11100 31.79400 34.62700
H  48.48500 38.39600 30.87600
H  49.75300 37.54700 24.53300
H  47.49000 31.71300 24.81100
H  45.98400 34.69200 32.75600
H  47.71000 36.95500 32.68400
H  44.92100 36.87200 32.55400
H  45.40600 38.05900 31.44100
H  45.91900 38.04400 33.10600
H  49.07500 34.66700 32.40100
H  48.18100 33.26400 32.77200
H  49.44700 34.89800 34.57300
H  48.43500 33.58200 34.92800
H  50.97000 40.54500 29.25400
H  49.92700 39.87900 30.44200
H  49.27100 41.00400 29.25300
H  50.43200 41.71800 27.23400
H  51.13300 41.91000 25.61100
H  52.13900 41.23400 26.89900
H  50.04000 35.34900 23.24000
H  47.75000 33.39600 23.14400
H  47.18400 35.44600 22.50300
H  48.47400 36.42300 21.59500
H  47.98200 37.00300 23.10400
H  50.34500 32.48400 24.23800
H  50.62300 33.38200 22.82000
H  48.82100 31.83200 21.63600
H  48.71800 31.02600 23.17800
H  50.18800 30.91400 22.19600
H  44.98200 29.56600 26.25000
H  45.73300 28.92700 27.50300
H  46.71400 29.35600 26.07700
H  44.44100 32.82700 31.03800
H  46.05300 31.28400 34.82800
H  44.25700 31.14100 34.80700
H  45.14400 32.74800 35.15400
Mg -1.91700 34.97800 26.82900
C  -3.67400 33.15000 29.22900
C  -0.65200 36.95700 29.30100
C  -0.58500 36.70300 24.39900
C  -3.69900 33.03800 24.33800
N  -2.02500 34.96700 29.01400
C  -2.77300 34.11300 29.76900
C  -2.50800 34.37200 31.32400
C  -1.66500 35.67800 31.29000
C  -1.40200 35.85100 29.74100
C  -2.38500 36.93500 31.91800
C  -1.91500 33.08600 32.10300
C  -2.81200 32.54600 33.34800
H  -2.10400 32.63000 34.75400
N  -0.71800 36.51100 26.84900
C  -0.33700 37.25800 27.94600
C  0.57900 38.31200 27.53100
C  0.71600 38.16900 26.17200
C  -0.23100 37.11900 25.70400
C  1.30900 39.35100 28.44000
C  1.52000 38.98900 25.17400
O  1.47000 38.68800 23.97500
C  2.43500 40.08700 25.48600
N  -2.27500 34.92200 24.68200
C  -1.52400 35.73500 23.95800
C  -1.69500 35.55700 22.47600
C  -2.79800 34.40800 22.39200
C  -2.99700 34.14200 23.84700
C  -1.97800 36.84200 21.58000
C  -2.50300 33.11700 21.59000
C  -1.16800 32.46500 21.92000
N  -3.39700 33.41100 26.73300
C  -4.02200 32.78600 25.68100
C  -4.80900 31.66200 26.21200
C  -4.65800 31.78500 27.60300
C  -3.86100 32.87000 27.87800
C  -5.54800 30.55600 25.41800
C  -5.12000 31.25900 28.88300
O  -5.92600 30.34700 29.10800
C  -4.49300 32.17300 30.00700
C  -5.55800 32.87100 30.81400
O  -6.02200 33.99900 30.63000
O  -6.00400 32.05600 31.82300
C  -7.02300 32.66400 32.72800
H  -0.29900 37.55000 30.14700
H  -0.31800 37.40500 23.60700
H  -4.18400 32.35200 23.64000
H  -3.46100 34.48300 31.84100
H  -0.66200 35.65100 31.71600
H  -1.71600 37.26400 32.71300
H  -3.24900 36.61400 32.49900
H  -2.62900 37.68000 31.16000
H  -1.00400 33.39200 32.61600
H  -1.78600 32.25600 31.40800
H  -2.99000 31.47900 33.21200
H  -3.77200 33.06200 33.32100
H  0.83200 40.32100 28.30400
H  2.33700 39.53600 28.13100
H  1.21200 39.15000 29.50700
H  2.73800 40.53900 24.54200
H  3.34700 39.67500 25.91900
H  1.94300 40.84200 26.09800
H  -0.77600 35.08700 22.12400
H  -3.70400 34.83800 21.96600
H  -2.31300 37.70000 22.16300
H  -2.73600 36.58600 20.84100
H  -1.11600 37.11100 20.96800
H  -2.47300 33.35600 20.52700
H  -3.30600 32.38000 21.60600
H  -1.33900 31.44500 22.26600
H  -0.53100 33.03100 22.59900
H  -0.56900 32.34200 21.01800
H  -5.75000 29.87900 26.24800
H  -4.96800 30.16200 24.58300
H  -6.45800 30.89900 24.92600
H  -3.86200 31.55000 30.64100
H  -6.51300 33.17000 33.54800
H  -7.64300 31.86500 33.13600
H  -7.65200 33.28000 32.08600

