158

Mg 34.64700 2.96400 29.84900
C  32.42200 3.92800 32.37400
C  37.19300 2.78900 32.21000
C  36.72800 2.32900 27.27100
C  32.12100 3.75800 27.56400
N  34.80700 3.39300 32.03100
C  33.76700 3.69000 32.85700
C  34.22900 3.63000 34.29000
C  35.82800 3.59100 34.24200
C  35.98800 3.21600 32.77800
C  36.67500 4.94000 34.65300
C  33.69100 2.38400 35.05900
C  33.01600 2.73300 36.36000
H  33.71200 3.58700 37.39600
N  36.73600 2.66100 29.74900
C  37.51300 2.50600 30.80800
C  38.88200 2.30400 30.35900
C  38.72800 1.91100 28.98100
C  37.36300 2.29700 28.61800
C  40.09700 2.36700 31.28200
C  39.82100 1.54900 27.95900
O  39.61300 1.38000 26.79600
C  41.26400 1.26400 28.43500
N  34.40700 2.94000 27.73500
C  35.44900 2.64200 26.86700
C  35.07700 2.65300 25.37400
C  33.58800 3.17000 25.47000
C  33.33600 3.26900 27.01700
C  35.96700 3.58800 24.50500
C  32.48800 2.29200 24.82100
C  32.16600 0.93000 25.55700
N  32.59800 3.61700 29.87200
C  31.73200 3.81000 28.89800
C  30.43900 4.22700 29.43500
C  30.66200 4.30600 30.80900
C  32.01500 3.92100 31.02300
C  29.21100 4.54600 28.63200
C  30.09500 4.58400 32.13800
O  28.93800 4.86600 32.41500
C  31.18500 4.28600 33.24200
C  31.43700 5.56400 34.05500
O  31.88100 6.64500 33.68800
O  30.89200 5.42300 35.29200
C  31.06600 6.48100 36.33400
H  37.89300 2.75100 33.04600
H  37.40200 2.05700 26.45600
H  31.35500 4.16500 26.90100
H  34.05500 4.58700 34.78000
H  36.12800 2.76600 34.88800
H  37.24300 4.80300 35.57400
H  35.99200 5.76800 34.84200
H  37.42600 5.11800 33.88300
H  34.47700 1.69200 35.35800
H  32.99000 1.89500 34.38300
H  32.60500 1.90500 36.93900
H  32.12600 3.31200 36.11500
H  41.05900 2.49100 30.78500
H  40.11200 1.37600 31.73700
H  39.99200 3.13800 32.04500
H  41.43200 2.26900 28.82100
H  41.90200 0.98900 27.59500
H  41.30000 0.58000 29.28300
H  35.02400 1.63800 24.98100
H  33.41300 4.14000 25.00400
H  36.87600 3.89700 25.02100
H  35.47600 4.52100 24.22600
H  36.17900 3.06300 23.57300
H  32.73500 2.16300 23.76700
H  31.56400 2.87000 24.78200
H  32.01200 0.14500 24.81600
H  31.25100 1.17700 26.09600
H  32.84000 0.61800 26.35500
H  28.32300 4.42300 29.25200
H  29.10100 3.76600 27.87800
H  29.24500 5.54600 28.20000
H  30.79900 3.46100 33.84100
H  31.98100 6.99400 36.03900
H  31.18600 6.03200 37.32000
H  30.29500 7.23700 36.48300
Mg 40.49500 9.36400 29.67700
C  42.58100 10.62500 32.28500
C  38.40500 8.26100 32.09100
C  38.65900 8.02900 27.27000
C  42.98300 10.32500 27.36200
N  40.52100 9.45900 31.97100
C  41.39800 10.06400 32.81600
C  41.08000 9.85100 34.28600
C  39.84200 8.78900 34.15600
C  39.54700 8.74400 32.68400
C  40.03900 7.39800 34.89400
C  40.77400 11.19600 35.06000
C  39.87300 11.08800 36.31000
H  40.30200 11.98900 37.49000
N  38.64800 8.55000 29.65800
C  37.92600 8.14900 30.77400
C  36.59000 7.68500 30.39600
C  36.69900 7.57600 28.93600
C  38.00700 8.07000 28.56000
C  35.51500 7.32200 31.36600
C  35.62500 7.18600 27.92600
O  35.88100 7.11300 26.74700
C  34.30200 6.70800 28.30700
N  40.87000 8.99600 27.65900
C  39.94100 8.45300 26.88200
C  40.33500 8.50100 25.40500
C  41.80100 9.11000 25.45600
C  41.87700 9.54600 26.95500
C  40.25400 7.04300 24.73900
C  42.22400 10.09500 24.30400
C  42.26700 11.64900 24.59800
N  42.46700 10.23900 29.73800
C  43.25300 10.70000 28.68400
C  44.29900 11.49400 29.28300
C  44.09700 11.45900 30.67800
C  42.95900 10.71000 30.94600
C  45.31000 12.24100 28.44400
C  44.52700 12.03400 31.90700
O  45.46200 12.82400 32.05000
C  43.51100 11.55100 32.99900
C  44.42400 10.91700 34.04200
O  44.61400 9.70200 34.21200
O  44.74500 11.86900 34.97500
C  45.57600 11.45400 36.08500
H  37.66200 8.16300 32.88500
H  38.12400 7.46600 26.50300
H  43.69800 10.75900 26.66100
H  41.88200 9.29000 34.76500
H  38.97400 9.17500 34.69000
H  41.01200 7.34600 35.38100
H  39.98400 6.60500 34.14800
H  39.21100 7.12800 35.54900
H  40.38200 11.94500 34.37200
H  41.69900 11.55200 35.51300
H  39.88900 10.03200 36.57700
H  38.83300 11.29200 36.05200
H  34.64400 7.96600 31.24100
H  35.86900 7.49300 32.38200
H  35.20100 6.28000 31.30700
H  33.86900 7.21900 29.16800
H  34.45100 5.64700 28.50700
H  33.69500 6.83600 27.41100
H  39.58700 9.12800 24.92100
H  42.49200 8.26700 25.47800
H  40.20300 6.36500 25.59000
H  41.22900 6.81800 24.30600
H  39.57300 6.92700 23.89600
H  41.52800 10.01400 23.46900
H  43.13300 9.79900 23.77900
H  41.75400 11.86800 25.53500
H  41.77800 12.02700 23.70000
H  43.31800 11.91600 24.48400
H  44.78400 12.85500 27.71300
H  45.93100 11.56300 27.85900
H  45.92500 12.91200 29.04300
H  43.08500 12.42600 33.48900
H  45.94100 12.34500 36.59600
H  46.41900 10.92800 35.63700
H  45.11000 10.79400 36.81600

