158

Mg 24.11900 -6.27600 46.52500
C  26.54700 -3.74000 45.69200
C  21.73700 -4.47200 44.79400
C  22.04500 -8.82600 46.90700
C  26.81900 -8.17300 47.90100
N  24.20700 -4.38000 45.31800
C  25.22900 -3.45200 45.18400
C  24.79200 -2.24700 44.31700
C  23.19300 -2.49500 44.29100
C  23.03400 -3.87300 44.92400
C  22.42000 -1.36700 44.95200
C  25.46900 -2.33100 42.88800
C  26.29900 -1.08400 42.53200
H  26.45700 -0.75300 41.07600
N  22.14200 -6.71100 45.86400
C  21.33700 -5.81100 45.12500
C  20.05500 -6.37100 45.02800
C  20.08700 -7.62800 45.66400
C  21.44500 -7.79700 46.19200
C  18.98300 -5.51700 44.36600
C  18.80900 -8.59300 45.82300
O  17.76900 -8.27700 45.17100
C  18.76500 -9.92500 46.64400
N  24.33400 -8.11400 47.27000
C  23.33200 -9.06800 47.35300
C  23.83200 -10.41400 47.86400
C  25.31200 -10.13400 48.27500
C  25.51300 -8.67800 47.86300
C  22.96700 -11.22700 48.88600
C  26.34800 -11.28000 47.87000
C  27.40700 -11.56600 48.98700
N  26.27300 -6.09100 46.75200
C  27.20000 -6.86700 47.39300
C  28.46000 -6.18800 47.54000
C  28.20300 -4.93000 46.84900
C  26.87400 -4.95600 46.36400
C  29.56600 -6.50800 48.40800
C  28.77400 -3.55700 46.53900
O  29.92000 -3.15200 46.79400
C  27.73400 -2.78700 45.68600
C  27.50800 -1.46700 46.22000
O  26.79500 -1.21800 47.18200
O  28.08700 -0.41100 45.61100
C  27.41900 0.92400 45.77800
H  21.04900 -3.74200 44.36400
H  21.35600 -9.60900 47.23200
H  27.64100 -8.81100 48.23400
H  25.10000 -1.34400 44.84400
H  22.80900 -2.53300 43.27100
H  23.15000 -0.71800 45.43800
H  21.65800 -1.66800 45.67100
H  22.00700 -0.68900 44.20600
H  24.63000 -2.27400 42.19500
H  26.01100 -3.24400 42.64300
H  27.28800 -1.41200 42.85200
H  26.00900 -0.16100 43.03400
H  19.40900 -5.04100 43.48200
H  18.53400 -4.74500 44.99000
H  18.24200 -6.20500 43.95900
H  17.72200 -10.23600 46.58700
H  19.04400 -9.58500 47.64100
H  19.51600 -10.56600 46.18100
H  23.75900 -11.03600 46.97200
H  25.27000 -10.13600 49.36400
H  23.50500 -11.15400 49.83100
H  22.76000 -12.26000 48.60800
H  21.95600 -10.82400 48.95500
H  26.76100 -10.92100 46.92700
H  25.79500 -12.20300 47.69400
H  28.46000 -11.64300 48.71900
H  27.30100 -12.56400 49.41200
H  27.27500 -10.89500 49.83600
H  29.36500 -6.17900 49.42800
H  30.45700 -5.95900 48.10100
H  29.82600 -7.56600 48.43400
H  28.15300 -2.68600 44.68400
H  28.11100 1.60900 46.26800
H  26.43400 0.97800 46.24200
H  27.15400 1.30900 44.79400
Mg 25.65700 1.11600 29.58400
C  27.45100 0.71400 32.47400
C  22.84200 1.61300 31.42100
C  23.84400 1.09100 26.67500
C  28.35600 -0.25000 27.78100
N  25.27200 1.11800 31.69300
C  26.12100 1.08200 32.79800
C  25.52900 1.56200 34.13700
C  24.04100 1.71700 33.67100
C  24.01400 1.50100 32.14700
C  23.08200 0.76100 34.49500
C  26.20000 2.90700 34.57600
C  27.00700 2.77500 35.98900
H  26.59100 3.64900 37.19000
N  23.65100 1.53200 29.11500
C  22.61000 1.65000 29.99100
C  21.38400 1.60800 29.32900
C  21.66300 1.50000 27.94500
C  23.16900 1.36000 27.86900
C  20.03500 1.71100 29.94100
C  20.68700 1.49800 26.82200
O  21.06900 1.62000 25.67100
C  19.17900 1.36200 26.96100
N  26.04300 0.57400 27.53000
C  25.21100 0.79100 26.51000
C  25.83200 0.59000 25.09900
C  27.27100 0.14500 25.44700
C  27.24100 0.18100 27.03600
C  24.95800 -0.37500 24.22700
C  28.25700 1.26500 24.92100
C  29.65600 0.87900 24.57100
N  27.57600 0.41900 29.92300
C  28.58000 -0.04100 29.17400
C  29.75700 -0.24000 29.93200
C  29.37400 0.13900 31.23600
C  27.99700 0.42800 31.17900
C  31.12100 -0.72500 29.54900
C  29.78900 0.37500 32.62600
O  30.89700 0.36500 33.12600
C  28.55600 0.76300 33.43900
C  28.39800 -0.21500 34.54400
O  27.51500 -1.07700 34.56500
O  29.36800 -0.01500 35.49100
C  29.22600 -0.83800 36.71400
H  21.97100 1.81300 32.04800
H  23.31000 1.05900 25.72300
H  29.13700 -0.65900 27.13600
H  25.61100 0.77800 34.89000
H  23.77000 2.75100 33.88200
H  22.16600 1.26100 34.81000
H  23.50000 0.27900 35.37800
H  22.61400 0.05700 33.80600
H  25.44400 3.67500 34.73900
H  26.85300 3.26300 33.78000
H  28.08900 2.81000 35.85700
H  26.73000 1.78300 36.34600
H  20.18500 1.76900 31.01900
H  19.59600 0.75800 29.64500
H  19.47600 2.55300 29.53400
H  18.63700 1.18900 26.03100
H  18.81800 2.21800 27.53000
H  19.04200 0.47200 27.57500
H  25.84200 1.57900 24.64100
H  27.47200 -0.82300 24.98800
H  25.62700 -1.10200 23.76500
H  24.49900 0.20200 23.42500
H  24.25500 -0.94800 24.83100
H  28.25100 2.02800 25.69900
H  27.90000 1.68700 23.98100
H  29.87700 1.28600 23.58400
H  29.71200 -0.21000 24.55600
H  30.26700 1.21700 25.40800
H  31.21500 -1.63300 28.95300
H  31.60000 -1.02600 30.48000
H  31.52700 0.09400 28.95400
H  28.53700 1.81300 33.73100
H  28.28100 -0.73400 37.24900
H  30.08600 -0.73800 37.37500
H  29.43800 -1.86000 36.39900

