158

Mg 8.16200 3.38600 27.57100
C  9.35400 2.01800 30.70300
C  6.20200 5.50800 29.45800
C  6.80600 4.39100 24.77300
C  9.63100 0.62800 26.02500
N  7.83600 3.63000 29.79400
C  8.51900 3.09300 30.87500
C  8.06000 3.76200 32.18200
C  6.94700 4.77700 31.77500
C  6.96600 4.67600 30.29700
C  5.50500 4.62600 32.39500
C  9.21500 4.53000 32.90800
C  8.93000 4.93600 34.40600
H  9.83600 4.60100 35.61200
N  6.72900 4.84400 27.18000
C  6.02500 5.61500 28.03500
C  5.09100 6.48300 27.29600
C  5.26100 6.11700 25.90600
C  6.30400 5.08500 25.86100
C  4.22200 7.55700 27.97100
C  4.47000 6.59200 24.73500
O  4.52400 6.05600 23.61100
C  3.49200 7.68100 24.94500
N  8.20000 2.63900 25.74100
C  7.54200 3.23800 24.70200
C  7.60600 2.43000 23.41000
C  8.53900 1.25200 23.76400
C  8.86200 1.50900 25.29300
C  6.20300 1.93800 22.83200
C  9.82100 1.10900 22.88400
C  9.91900 -0.08200 21.91500
N  9.28500 1.70500 28.19800
C  9.87000 0.72900 27.39700
C  10.58300 -0.26600 28.21800
C  10.47000 0.26800 29.54300
C  9.61300 1.39800 29.45400
C  11.35800 -1.45900 27.86100
C  10.96200 0.09400 30.88200
O  11.78200 -0.73300 31.30600
C  10.25500 1.25200 31.66800
C  9.49200 0.70600 32.79700
O  8.37200 0.18900 32.70200
O  10.11900 0.96700 33.93600
C  9.39300 0.49200 35.11700
H  5.66900 6.24000 30.06800
H  6.39700 4.69900 23.80800
H  10.10000 -0.19500 25.48100
H  7.68600 3.04400 32.91200
H  7.24700 5.80700 31.97200
H  5.11900 5.43700 33.01200
H  5.52600 3.70900 32.98400
H  4.83400 4.55400 31.54000
H  9.60300 5.31900 32.26300
H  10.11100 3.91100 32.92700
H  7.90400 4.60500 34.56800
H  9.02700 6.02100 34.36100
H  3.14800 7.52000 27.78900
H  4.53100 8.54600 27.63200
H  4.37200 7.47200 29.04700
H  3.15500 8.19300 24.04400
H  4.07200 8.42100 25.49700
H  2.60900 7.32700 25.47800
H  8.13800 3.01900 22.66200
H  8.00800 0.30500 23.67000
H  5.63500 1.69200 23.72900
H  6.16700 0.99900 22.28000
H  5.61100 2.75000 22.40800
H  10.70800 1.16500 23.51500
H  10.02000 1.95000 22.21900
H  9.11300 -0.80000 22.06600
H  10.81300 -0.56500 22.30700
H  10.07700 0.17200 20.86700
H  10.68700 -2.18800 28.31400
H  12.32600 -1.46700 28.36100
H  11.45200 -1.56800 26.78000
H  11.08200 1.90600 31.94600
H  8.75100 1.29900 35.46800
H  10.11300 0.34700 35.92300
H  8.99300 -0.50600 34.93400
Mg 46.75400 25.76400 27.72300
C  47.95600 27.94800 30.34600
C  45.82400 23.40500 30.12400
C  46.04700 23.71100 25.20500
C  48.41200 27.91700 25.43300
N  46.93400 25.69500 29.90200
C  47.30600 26.69700 30.80800
C  46.89100 26.35800 32.24500
C  46.31600 24.92600 32.15200
C  46.28400 24.60900 30.63900
C  46.78300 23.82300 33.09100
C  46.05700 27.45200 33.05700
C  46.75900 27.96300 34.35800
H  45.76400 28.29200 35.54400
N  45.84600 23.86300 27.65000
C  45.74500 23.01700 28.74900
C  45.46900 21.66600 28.23300
C  45.34700 21.77900 26.81000
C  45.75300 23.17300 26.48300
C  45.18000 20.52000 29.20400
C  44.93100 20.78400 25.78800
O  44.98600 20.86600 24.55200
C  44.63300 19.36100 26.24300
N  47.08900 25.79800 25.63200
C  46.54800 24.91100 24.79500
C  46.82800 25.21300 23.29700
C  47.62100 26.54700 23.31500
C  47.62700 26.83600 24.87100
C  47.75300 24.13200 22.68200
C  46.95800 27.78600 22.60800
C  47.90100 28.60900 21.65500
N  47.82000 27.57300 27.84100
C  48.40900 28.34300 26.81900
C  49.13200 29.49700 27.37700
C  48.95100 29.37200 28.72400
C  48.13200 28.25400 28.98500
C  49.97000 30.43300 26.70000
C  49.42700 29.95500 30.03800
O  50.13500 30.86400 30.39000
C  48.67500 29.09800 31.12000
C  49.76400 28.53500 31.99500
O  50.62000 27.78300 31.66000
O  49.75500 29.22700 33.22900
C  50.86900 29.10100 34.15800
H  45.47300 22.63200 30.81200
H  45.73100 23.14200 24.32900
H  48.97100 28.62600 24.81800
H  47.88500 26.16400 32.64900
H  45.27300 25.14300 32.38400
H  45.95000 23.56400 33.74400
H  47.58900 24.09700 33.77300
H  47.00500 22.88100 32.59100
H  45.14400 26.99500 33.44100
H  45.95800 28.34000 32.43300
H  47.29600 28.87000 34.07900
H  47.52800 27.25800 34.67100
H  45.57700 19.52200 29.01500
H  44.09800 20.45200 29.31700
H  45.48300 20.76200 30.22200
H  45.53300 18.90400 26.65200
H  44.35900 18.70700 25.41500
H  43.95000 19.26400 27.08700
H  45.88000 25.18600 22.76100
H  48.68200 26.50200 23.06700
H  48.56000 23.71800 23.28600
H  48.19400 24.45600 21.73900
H  47.25600 23.17400 22.53000
H  46.53600 28.43800 23.37200
H  46.13400 27.29700 22.08900
H  47.78400 28.24500 20.63400
H  48.97800 28.51700 21.80000
H  47.63200 29.66600 21.65700
H  49.66400 30.46300 25.65400
H  51.01100 30.20600 26.92800
H  49.76800 31.41700 27.12200
H  47.89800 29.74600 31.52400
H  51.03600 30.09400 34.57500
H  51.80500 28.67200 33.80200
H  50.64700 28.55900 35.07800

