158

Mg 17.05700 -0.91200 28.68100
C  15.79000 0.99600 31.42200
C  18.73400 -2.77900 30.97000
C  18.35400 -2.43700 26.12700
C  15.32800 1.28100 26.52500
N  17.31100 -0.74500 30.96800
C  16.70800 0.06100 31.88100
C  17.06100 -0.36800 33.34000
C  18.10400 -1.49800 33.16800
C  18.08700 -1.68900 31.60400
C  19.54700 -1.18400 33.78300
C  15.75500 -0.80700 34.05000
C  15.46100 -0.16700 35.48700
H  16.61600 0.52200 36.21900
N  18.34600 -2.41600 28.57600
C  18.91500 -3.08500 29.59900
C  19.62500 -4.29200 29.03000
C  19.62900 -4.10200 27.62600
C  18.74800 -2.92600 27.39300
C  20.34200 -5.20200 29.96300
C  20.19800 -4.99400 26.59400
O  20.14100 -4.74800 25.39400
C  20.83100 -6.33000 27.00400
N  16.90600 -0.52200 26.63700
C  17.64000 -1.32900 25.74500
C  17.31600 -1.04800 24.25600
C  16.25500 0.14700 24.39000
C  16.15800 0.31700 25.92600
C  18.59000 -0.56400 23.50100
C  14.90700 -0.14100 23.68400
C  13.91900 -0.89200 24.50500
N  15.84000 0.79700 28.84400
C  15.16900 1.55300 27.88500
C  14.28600 2.47400 28.50300
C  14.52000 2.32700 29.88900
C  15.47200 1.31700 30.00300
C  13.36200 3.46300 27.77800
C  14.07400 2.76400 31.17800
O  13.32700 3.70700 31.40600
C  14.81900 1.84600 32.25400
C  15.53000 2.70700 33.34700
O  16.69200 3.08800 33.39000
O  14.54800 3.10400 34.26700
C  14.94500 4.20900 35.20500
H  19.20400 -3.40500 31.73200
H  18.72000 -2.86800 25.19300
H  14.43600 1.64500 26.00900
H  17.49600 0.48000 33.87100
H  17.75500 -2.36100 33.73600
H  19.52800 -0.39100 34.53000
H  20.26700 -0.88000 33.02300
H  20.03200 -2.03500 34.26100
H  15.79400 -1.87500 34.26500
H  14.86600 -0.67000 33.43400
H  15.17100 -1.01100 36.11300
H  14.58800 0.48200 35.40800
H  20.44100 -4.79900 30.97100
H  21.34700 -5.36300 29.57100
H  19.91100 -6.19800 30.06500
H  20.18900 -7.07600 27.47300
H  21.65400 -6.08000 27.67400
H  21.39600 -6.74700 26.17000
H  16.86100 -1.91500 23.77800
H  16.66500 1.11600 24.10600
H  18.36100 0.33900 22.93500
H  19.03000 -1.34000 22.87500
H  19.39500 -0.29900 24.18700
H  15.00100 -0.63300 22.71600
H  14.57000 0.87800 23.49300
H  14.47900 -1.21500 25.38200
H  13.49600 -1.72100 23.93700
H  13.10400 -0.20100 24.72100
H  13.88800 3.63200 26.83900
H  13.39000 4.39900 28.33500
H  12.34100 3.10100 27.65400
H  14.00300 1.32000 32.75000
H  14.07400 4.42000 35.82500
H  15.30000 5.09800 34.68500
H  15.84300 3.87700 35.72500
Mg -11.88500 16.30900 40.76500
C  -8.72000 14.83400 40.34700
C  -10.52900 19.22100 39.31900
C  -15.04300 17.64600 40.45900
C  -13.25300 13.02400 40.89100
N  -9.78200 16.92000 39.93200
C  -8.66300 16.21000 40.05100
C  -7.55600 17.04900 39.44000
C  -8.11900 18.46600 39.29500
C  -9.55500 18.20800 39.54200
C  -7.44400 19.55200 40.14300
C  -7.06500 16.45800 38.11500
C  -5.48500 16.49500 37.86800
H  -5.01700 17.07600 36.56500
N  -12.65500 18.19500 40.10400
C  -11.90100 19.20500 39.60100
C  -12.76400 20.37000 39.27700
C  -14.10500 19.96500 39.67900
C  -13.99600 18.60300 40.20600
C  -12.21100 21.69100 38.83500
C  -15.34100 20.88000 39.56700
O  -15.23600 22.04300 39.21200
C  -16.70500 20.36800 39.93400
N  -13.84200 15.41700 40.53200
C  -14.96400 16.15200 40.55600
C  -16.21700 15.26100 40.50800
C  -15.65700 13.84300 40.82800
C  -14.14200 14.12500 40.80700
C  -17.37200 15.73800 41.39600
C  -16.17900 12.73700 39.81100
C  -17.01000 11.64900 40.45900
N  -11.20500 14.31500 40.76900
C  -11.87600 13.15100 40.86200
C  -10.89000 12.04000 40.87000
C  -9.67100 12.69200 40.72200
C  -9.90000 14.05000 40.62200
C  -11.13900 10.55600 41.04900
C  -8.22400 12.40600 40.58800
O  -7.62000 11.30800 40.62000
C  -7.58500 13.77300 40.26900
C  -6.60100 13.92900 41.36900
O  -6.78900 14.10600 42.57500
O  -5.39500 14.10200 40.79400
C  -4.26600 14.44100 41.63000
H  -10.05700 20.12800 38.93500
H  -16.05100 18.06600 40.48300
H  -13.72600 12.04200 40.95800
H  -6.69400 17.17600 40.09600
H  -8.01000 18.86700 38.28700
H  -6.39200 19.30200 40.27700
H  -8.00900 19.72700 41.05900
H  -7.48900 20.49000 39.58900
H  -7.47400 17.12200 37.35300
H  -7.41700 15.44800 37.90000
H  -5.15700 15.46500 38.01000
H  -5.00400 17.10000 38.63700
H  -11.45000 21.54400 38.06800
H  -11.66100 22.21800 39.61500
H  -12.86900 22.48900 38.49300
H  -17.37600 21.22300 39.85500
H  -16.69000 20.02300 40.96800
H  -17.04600 19.66100 39.17900
H  -16.54300 15.36200 39.47300
H  -15.87100 13.61400 41.87200
H  -17.06200 16.15000 42.35600
H  -17.91000 14.83200 41.67600
H  -18.09800 16.34600 40.85600
H  -15.37700 12.24000 39.26500
H  -16.84400 13.18300 39.07200
H  -16.64300 10.68900 40.09500
H  -18.06100 11.75700 40.19000
H  -16.86400 11.58600 41.53700
H  -11.35600 10.36400 42.09900
H  -10.29700 9.92900 40.75300
H  -12.08800 10.38400 40.54200
H  -7.12200 13.83800 39.28400
H  -4.59300 14.65400 42.64800
H  -3.93100 15.41900 41.28700
H  -3.51700 13.64800 41.63500

