158

Mg 16.29800 -1.70700 27.74300
C  15.46500 0.48700 30.40300
C  18.26200 -3.44600 29.97000
C  17.66200 -3.37500 25.15000
C  14.36400 0.40200 25.59600
N  16.83400 -1.44500 29.96100
C  16.30600 -0.52700 30.84400
C  16.69100 -0.89700 32.34300
C  17.82500 -2.06700 32.14900
C  17.62500 -2.38400 30.59000
C  19.30200 -1.67600 32.42300
C  15.40000 -1.32200 33.19100
C  15.25600 -0.77500 34.58900
H  16.45700 -0.31600 35.42300
N  17.63300 -3.31200 27.62500
C  18.29300 -3.89200 28.66500
C  19.06500 -4.96100 28.16300
C  18.87800 -4.97600 26.67300
C  18.05100 -3.83100 26.43600
C  20.04600 -5.60900 28.94400
C  19.51400 -5.93800 25.65200
O  19.23100 -5.83700 24.46500
C  20.38900 -7.06900 26.15800
N  16.26900 -1.37000 25.68800
C  16.79100 -2.33300 24.85000
C  16.46400 -1.99100 23.39800
C  15.39200 -0.87400 23.56700
C  15.25800 -0.58000 25.05400
C  17.77500 -1.54200 22.61600
C  14.05300 -1.13500 22.79100
C  14.06500 -0.43300 21.43300
N  15.09900 -0.05200 27.89100
C  14.35300 0.71100 26.96000
C  13.57400 1.70400 27.59900
C  14.02900 1.66600 28.91700
C  14.94100 0.60900 29.04500
C  12.67700 2.64700 26.84000
C  13.85500 2.36100 30.18300
O  13.17300 3.32000 30.50300
C  14.64100 1.51500 31.28100
C  15.51500 2.46500 32.18800
O  16.67600 2.76800 31.99300
O  14.81100 2.94700 33.17300
C  15.45300 3.97500 34.01500
H  18.78400 -4.01000 30.74600
H  18.17700 -3.70200 24.24400
H  13.84400 1.07000 24.90500
H  17.06300 -0.07900 32.96100
H  17.58400 -2.98700 32.68100
H  19.68800 -2.32400 33.21000
H  19.16000 -0.66300 32.79700
H  19.92800 -1.68300 31.53000
H  15.24400 -2.39800 33.26800
H  14.59900 -0.82000 32.64800
H  14.75600 -1.47200 35.26200
H  14.52600 0.02500 34.46200
H  20.00300 -5.41700 30.01700
H  21.01700 -5.33700 28.53000
H  19.82500 -6.67200 28.85700
H  20.60800 -7.65500 25.26600
H  19.72500 -7.66900 26.77900
H  21.29900 -6.78300 26.68500
H  16.16600 -2.94500 22.96500
H  15.97300 -0.00600 23.25400
H  18.69400 -1.77600 23.15300
H  17.81800 -0.50100 22.29400
H  17.86300 -2.11700 21.69400
H  13.25400 -0.74900 23.42400
H  14.04700 -2.20200 22.56900
H  13.09400 0.04700 21.30300
H  14.06300 -1.19100 20.65000
H  14.86200 0.30700 21.36100
H  12.41800 3.51400 27.44700
H  11.86500 2.14600 26.31300
H  13.15600 3.06700 25.95600
H  13.95100 0.91700 31.87600
H  15.61000 4.88100 33.42900
H  16.36500 3.57400 34.45700
H  14.83400 4.19400 34.88500
Mg 16.59500 51.91900 26.23300
C  18.16200 50.23200 28.92300
C  14.21900 52.96900 28.20800
C  15.39900 53.34500 23.53200
C  19.16100 50.28300 24.21500
N  16.17600 51.44000 28.31600
C  16.92700 50.90200 29.26300
C  16.38700 51.18900 30.68100
C  14.95000 51.64900 30.35400
C  15.12300 52.14100 28.89000
C  13.91000 50.51300 30.50900
C  17.21600 52.32000 31.37300
C  17.62500 52.01500 32.81100
H  16.56900 52.43500 33.86800
N  14.94400 52.89100 25.96400
C  14.05100 53.30500 26.84800
C  13.17300 54.28100 26.33000
C  13.51300 54.44300 24.97100
C  14.64800 53.53300 24.76200
C  12.22300 55.02600 27.33300
C  13.05900 55.42700 23.91400
O  13.36600 55.50000 22.71700
C  11.99700 56.40700 24.37400
N  17.25000 51.89600 24.23200
C  16.47500 52.56300 23.28400
C  17.15300 52.50500 21.92900
C  18.42000 51.65000 22.14300
C  18.34500 51.29300 23.61400
C  16.20600 52.09900 20.77400
C  19.81400 52.20200 21.58400
C  20.69800 53.18300 22.54600
N  18.34100 50.50600 26.47300
C  19.17900 49.93400 25.60300
C  20.20100 49.17400 26.26500
C  19.82700 49.23100 27.61400
C  18.72700 50.03400 27.63100
C  21.14200 48.30500 25.60000
C  20.15600 48.75900 28.91200
O  21.01300 47.96900 29.26600
C  19.18700 49.54900 29.82700
C  18.52700 48.74600 30.80200
O  17.58500 48.06500 30.60400
O  19.15800 48.79000 31.97600
C  18.53800 48.06800 33.08700
H  13.38900 53.42600 28.75100
H  15.12400 53.91900 22.64500
H  19.83100 49.73800 23.54700
H  16.39700 50.29700 31.30600
H  14.64100 52.53200 30.91300
H  14.17900 49.84900 31.33000
H  13.78700 50.04100 29.53400
H  13.01000 51.06100 30.79000
H  16.60200 53.21900 31.41300
H  18.12900 52.65000 30.87700
H  18.58900 52.50200 32.96100
H  17.80800 50.94600 32.92400
H  11.58700 55.82000 26.94400
H  12.76100 55.38500 28.21000
H  11.63900 54.26200 27.84700
H  12.47700 57.05400 25.10800
H  11.07100 55.92500 24.68600
H  11.70700 56.99000 23.50000
H  17.57200 53.50900 21.86700
H  18.12200 50.68500 21.73400
H  16.82800 52.09900 19.87900
H  15.46000 52.87800 20.61400
H  15.70900 51.13100 20.83800
H  19.53500 52.68500 20.64800
H  20.49100 51.40600 21.27400
H  20.99200 54.13200 22.09700
H  21.58500 52.60000 22.79500
H  20.09600 53.33900 23.44100
H  20.60100 47.73500 24.84500
H  21.72300 47.79600 26.37000
H  21.94200 48.88900 25.14400
H  19.66000 50.32300 30.43200
H  17.48100 48.29400 33.23000
H  19.12700 48.32000 33.96900
H  18.62100 46.98300 33.02500

