158

Mg 47.68700 16.67600 27.53500
C  45.73900 16.69800 30.40500
C  49.99300 18.71500 28.95800
C  49.16100 17.00100 24.49400
C  44.90200 15.28400 25.85600
N  47.83200 17.57100 29.44800
C  47.01400 17.29800 30.49700
C  47.72600 17.74000 31.75900
C  48.97900 18.52300 31.25700
C  48.96500 18.26100 29.80800
C  49.03100 20.05200 31.48400
C  48.05700 16.63500 32.78000
C  48.35300 17.00600 34.23700
H  47.92000 18.35100 34.71800
N  49.38400 17.69600 26.86700
C  50.26600 18.41600 27.59900
C  51.36800 18.85300 26.81100
C  50.98900 18.50300 25.47000
C  49.81200 17.67000 25.56300
C  52.50200 19.67200 27.34800
C  51.62100 19.08700 24.12000
O  51.13000 18.92300 23.02700
C  52.85300 19.97800 24.06400
N  47.04500 16.32300 25.41100
C  47.95800 16.47100 24.42200
C  47.34900 15.96400 23.08400
C  45.95200 15.38400 23.51300
C  45.90000 15.68300 25.03200
C  47.18500 17.17200 22.11600
C  45.59200 13.95300 23.09600
C  44.33600 13.81900 22.25500
N  45.79000 16.07600 28.01900
C  44.71900 15.54600 27.24500
C  43.58800 15.16200 28.11900
C  43.98500 15.60600 29.37800
C  45.23500 16.21400 29.24100
C  42.35700 14.49500 27.70400
C  43.54900 15.63600 30.75600
O  42.60300 15.10400 31.26600
C  44.72900 16.44000 31.53900
C  44.13300 17.59400 32.21400
O  43.85800 18.68600 31.73800
O  43.96000 17.31500 33.57900
C  43.34500 18.35000 34.36800
H  50.62600 19.43800 29.47700
H  49.62400 16.99100 23.50400
H  44.04900 14.76400 25.41500
H  46.96500 18.44300 32.09800
H  49.87900 18.12800 31.72900
H  48.30000 20.39700 32.21600
H  48.84500 20.75000 30.66800
H  50.06700 20.32700 31.68600
H  48.89600 16.07600 32.36500
H  47.21700 15.94800 32.88200
H  49.39700 16.71600 34.35600
H  47.97200 16.23000 34.90100
H  52.19300 20.71300 27.44300
H  53.38300 19.68300 26.70600
H  52.70900 19.24700 28.33100
H  53.67400 19.46400 24.56300
H  52.61900 20.84700 24.67900
H  53.06300 20.22200 23.02200
H  48.01900 15.16400 22.77000
H  45.24900 16.07700 23.05100
H  47.28500 18.11700 22.65000
H  46.25000 17.16400 21.55600
H  47.94600 17.04000 21.34600
H  45.68500 13.35800 24.00400
H  46.30300 13.59400 22.35100
H  44.59200 13.32700 21.31700
H  43.78600 14.73100 22.02300
H  43.59200 13.15000 22.68800
H  42.52900 13.69000 26.99000
H  41.74300 15.21400 27.16100
H  41.80800 13.98000 28.49300
H  45.14200 15.71600 32.24100
H  42.27900 18.19400 34.53400
H  43.63800 19.33900 34.01500
H  43.82700 18.18800 35.33200
Mg 48.39200 25.59500 27.62200
C  49.15200 27.71400 30.26200
C  47.32600 23.39500 29.96300
C  48.08200 23.46300 25.09300
C  50.50700 27.73600 25.52100
N  48.32200 25.53000 29.83800
C  48.54300 26.55700 30.73900
C  48.25100 26.22800 32.21500
C  47.59500 24.82900 32.05900
C  47.82100 24.51900 30.51600
C  48.14600 23.67600 32.91100
C  47.21100 27.16800 32.93300
C  46.48400 26.76700 34.19100
H  46.50100 27.75800 35.30900
N  47.66500 23.75300 27.52600
C  47.29100 23.00900 28.57700
C  46.61400 21.81300 28.03400
C  47.01500 21.75800 26.68000
C  47.58800 23.03400 26.36800
C  45.83500 20.88100 28.90500
C  46.85400 20.58200 25.77000
O  47.41600 20.54100 24.69300
C  45.95700 19.47700 26.12100
N  49.26000 25.60600 25.51400
C  48.94300 24.54300 24.69300
C  49.31100 24.89600 23.22800
C  50.14900 26.22300 23.38200
C  49.94800 26.58900 24.85300
C  50.09000 23.73300 22.63000
C  49.65500 27.38600 22.38900
C  50.75300 27.96800 21.43100
N  49.49900 27.34900 27.75000
C  50.33800 28.05700 26.90200
C  50.77700 29.33100 27.51000
C  50.25800 29.26700 28.84900
C  49.60200 27.97700 28.97100
C  51.45700 30.43900 26.94400
C  50.26800 29.91900 30.13700
O  50.62100 30.96900 30.57000
C  49.46700 28.97600 31.08400
C  50.41500 28.66300 32.16700
O  51.47300 28.03100 32.07300
O  49.88500 29.05800 33.43100
C  50.80100 28.65000 34.51000
H  46.99600 22.73600 30.76900
H  47.96300 22.76700 24.26000
H  51.04200 28.41800 24.85600
H  49.24100 26.17900 32.66800
H  46.52200 24.88300 32.24000
H  47.33500 23.15900 33.42400
H  48.91300 23.99300 33.61800
H  48.77700 22.91600 32.45000
H  46.39300 27.37200 32.24200
H  47.69800 28.10900 33.19200
H  46.81800 25.82100 34.61700
H  45.44200 26.61200 33.90900
H  46.38100 19.94000 28.96300
H  44.94500 20.48600 28.41500
H  45.56500 21.16200 29.92400
H  46.42000 19.00800 26.98900
H  45.83400 18.73200 25.33500
H  45.01500 20.00900 26.25500
H  48.34900 24.97800 22.72200
H  51.20600 25.95800 23.36800
H  50.32800 22.99800 23.39800
H  51.05800 24.07500 22.26300
H  49.49100 23.30800 21.82500
H  49.51400 28.28500 22.98900
H  48.75400 27.06500 21.86700
H  50.77300 29.04700 21.58500
H  50.36500 27.71500 20.44400
H  51.76600 27.58600 21.55500
H  51.53000 31.21200 27.70900
H  50.81900 30.93300 26.21100
H  52.39800 30.14500 26.48000
H  48.58300 29.53100 31.40000
H  50.50400 27.64500 34.80900
H  50.57200 29.39100 35.27600
H  51.86400 28.52000 34.30700

