158

Mg -2.18500 17.38000 26.84700
C  -2.93400 15.22700 29.46000
C  -2.80300 19.99900 29.03300
C  -1.99300 19.47000 24.16000
C  -1.87500 14.64800 24.75400
N  -2.73400 17.54500 29.04100
C  -2.97500 16.57900 29.96700
C  -3.07900 17.13000 31.45000
C  -2.97200 18.66400 31.15500
C  -2.86600 18.72800 29.64300
C  -3.99800 19.60300 31.81900
C  -2.10800 16.46500 32.39200
C  -1.33500 17.25700 33.40400
H  -1.01700 16.57900 34.82500
N  -2.25100 19.43700 26.61900
C  -2.50800 20.35500 27.66000
C  -2.39200 21.63600 27.16800
C  -2.09400 21.52400 25.76300
C  -2.13800 20.07000 25.40000
C  -2.71800 22.83500 28.05600
C  -1.79200 22.59100 24.66000
O  -1.40600 22.38100 23.51800
C  -1.65500 23.97400 25.09500
N  -2.20600 17.10600 24.76200
C  -2.11400 18.10700 23.82600
C  -1.89200 17.53600 22.39300
C  -1.53600 16.07900 22.70800
C  -1.94200 15.87700 24.20400
C  -3.17600 17.76500 21.55900
C  -0.03300 15.72300 22.57600
C  0.87500 16.48100 23.59600
N  -2.33200 15.34100 26.98200
C  -2.15000 14.31900 26.06600
C  -2.37900 13.04200 26.64000
C  -2.65700 13.30700 27.95600
C  -2.58600 14.75400 28.11400
C  -2.49100 11.67800 25.95100
C  -3.03400 12.73500 29.16700
O  -3.25800 11.52900 29.44600
C  -3.18500 13.91300 30.21800
C  -2.20700 13.56300 31.24700
O  -1.05500 13.74200 31.12300
O  -2.75700 12.90200 32.36300
C  -1.85800 12.55000 33.46900
H  -2.98400 20.81500 29.73500
H  -1.68100 20.01900 23.26900
H  -1.63500 13.85000 24.04800
H  -4.12800 16.89300 31.63300
H  -1.99200 19.07300 31.39800
H  -4.72700 19.99700 31.11100
H  -3.47500 20.36200 32.40000
H  -4.46700 18.94400 32.55000
H  -1.30500 16.05100 31.78300
H  -2.59300 15.66200 32.94800
H  -1.85700 18.14200 33.76700
H  -0.41600 17.68700 33.00600
H  -3.51700 23.42600 27.61000
H  -1.90800 23.56200 28.11800
H  -2.95500 22.67900 29.10900
H  -2.70000 24.23100 25.27400
H  -1.23400 24.55500 24.27400
H  -1.14300 23.98000 26.05700
H  -0.97700 18.05900 22.11400
H  -2.09000 15.34200 22.12600
H  -3.64600 18.71200 21.82500
H  -3.96200 17.02700 21.72000
H  -2.96200 17.81600 20.49200
H  0.34000 15.91200 21.56900
H  0.10200 14.66700 22.81300
H  0.39000 17.20000 24.25600
H  1.72800 16.92300 23.08200
H  1.27600 15.76200 24.31100
H  -3.57200 11.62300 26.07700
H  -1.88300 10.89900 26.41300
H  -2.33600 11.80100 24.87900
H  -4.16800 13.77200 30.66900
H  -1.96200 13.37300 34.17600
H  -0.82600 12.44900 33.13100
H  -2.14000 11.58700 33.89700
Mg 16.45700 51.10200 26.61200
C  18.58100 49.87900 29.12700
C  14.42800 52.20100 29.24400
C  14.52800 52.63000 24.32900
C  18.58700 50.02100 24.09200
N  16.48900 50.91000 28.95000
C  17.50100 50.43000 29.72600
C  17.29800 50.57600 31.23900
C  15.76400 51.00800 31.22600
C  15.56700 51.42200 29.72900
C  14.86800 49.78000 31.55200
C  18.20100 51.63700 31.96000
C  18.90700 51.09300 33.18100
H  18.25300 51.36200 34.46200
N  14.70100 52.20200 26.79100
C  14.08100 52.63900 27.98200
C  12.96600 53.46500 27.65600
C  12.92400 53.54500 26.18500
C  14.02100 52.75400 25.70200
C  11.94400 53.95200 28.73800
C  11.91100 54.21700 25.28500
O  11.93400 54.19200 24.04700
C  10.88400 55.00500 25.92400
N  16.47800 51.19100 24.43300
C  15.57400 51.96100 23.72100
C  15.78100 51.78000 22.19800
C  17.17000 51.01100 22.15000
C  17.45800 50.77300 23.60000
C  14.50700 51.06700 21.54500
C  18.33700 51.76000 21.46900
C  19.24000 50.77900 20.60900
N  18.13200 50.07000 26.53100
C  18.92300 49.70200 25.43800
C  20.08400 49.02800 26.02900
C  19.97300 49.03900 27.43800
C  18.76500 49.75100 27.68100
C  21.13500 48.39500 25.23500
C  20.60700 48.68100 28.66600
O  21.70800 48.06400 28.81700
C  19.75700 49.16500 29.82700
C  19.33000 48.13900 30.77700
O  18.31500 47.46000 30.76200
O  20.22900 48.02800 31.86600
C  19.92400 47.01300 32.91100
H  13.87000 52.53500 30.12100
H  14.03300 53.28900 23.61200
H  19.23300 49.65400 23.29100
H  17.43500 49.56100 31.61300
H  15.62500 51.85300 31.90100
H  13.95800 50.22400 31.95700
H  15.27500 48.96200 32.14700
H  14.67700 49.35000 30.56800
H  17.60400 52.47900 32.31100
H  18.97300 52.05900 31.31700
H  19.87300 51.58200 33.30800
H  19.11900 50.03600 33.02400
H  11.11200 53.27600 28.93300
H  11.59300 54.97300 28.58800
H  12.37100 53.92800 29.74000
H  10.09200 55.15800 25.19200
H  11.28800 55.93800 26.31800
H  10.44700 54.39800 26.71800
H  15.79000 52.72800 21.66100
H  16.99900 50.00200 21.77600
H  13.76500 50.95700 22.33600
H  14.84600 50.13700 21.08600
H  14.03800 51.75300 20.84000
H  19.08200 52.17500 22.14800
H  17.96600 52.60800 20.89300
H  19.08300 50.78200 19.53100
H  19.23700 49.77200 21.02600
H  20.29000 51.04600 20.73000
H  22.02300 48.20200 25.83800
H  21.49100 48.95000 24.36700
H  20.77100 47.39400 25.00200
H  20.28100 49.82900 30.51400
H  18.86400 46.85800 33.11500
H  20.37400 47.35700 33.84300
H  20.43000 46.11400 32.56000

