158

Mg 0.82000 7.42400 25.21200
C  1.77400 9.12500 28.13900
C  0.85400 4.34300 27.01800
C  0.25500 5.88000 22.37100
C  1.41200 10.39200 23.42600
N  1.22300 6.84300 27.27700
C  1.55600 7.70700 28.32300
C  1.50300 6.87200 29.67500
C  1.43100 5.42600 29.25000
C  1.11700 5.54800 27.74700
C  2.61600 4.51400 29.59300
C  0.30600 7.42100 30.51400
C  0.57000 7.49300 32.03100
H  1.72300 6.62800 32.61400
N  0.63300 5.33600 24.75800
C  0.61900 4.26300 25.61300
C  0.33800 3.06600 24.77800
C  0.22200 3.50100 23.43700
C  0.26500 4.98200 23.46500
C  0.11100 1.72900 25.38000
C  0.10400 2.63300 22.14700
O  -0.05200 3.10300 21.04000
C  0.16600 1.13800 22.25100
N  0.86500 8.05800 23.16300
C  0.54500 7.17800 22.23000
C  0.34900 7.83200 20.86300
C  0.68500 9.34600 21.11800
C  0.95700 9.27200 22.63000
C  1.11500 7.19700 19.65800
C  -0.57000 10.31100 20.88700
C  -0.24400 11.31300 19.79000
N  1.52200 9.37300 25.58700
C  1.58800 10.47000 24.79200
C  1.75400 11.65900 25.54900
C  1.87300 11.19400 26.86600
C  1.71600 9.80300 26.86300
C  1.74400 13.09600 25.13000
C  2.05900 11.59600 28.20400
O  2.36900 12.63400 28.68100
C  1.85100 10.33000 29.11000
C  2.97800 10.07800 29.94400
O  4.03100 9.56800 29.66300
O  2.75200 10.63200 31.21300
C  3.89600 10.85400 32.07600
H  0.67600 3.45600 27.62900
H  -0.16700 5.44700 21.46200
H  1.54000 11.24500 22.75600
H  2.38700 7.06600 30.28200
H  0.63600 4.84600 29.71800
H  2.32800 3.83800 30.39800
H  3.52800 4.95400 29.99800
H  2.94800 3.96600 28.71100
H  -0.53400 6.74100 30.37300
H  -0.03700 8.36200 30.08300
H  -0.32900 7.29400 32.61400
H  0.81200 8.54800 32.15900
H  1.04000 1.16500 25.47300
H  -0.61500 1.14600 24.81400
H  -0.31900 1.75300 26.38200
H  0.42800 0.81000 21.24500
H  -0.82000 0.78200 22.55200
H  0.86000 0.76100 23.00200
H  -0.70600 7.64100 20.66600
H  1.64500 9.76300 20.81400
H  1.92900 7.86000 19.36300
H  0.38300 7.05100 18.86400
H  1.54400 6.21400 19.85500
H  -0.89200 10.91100 21.73800
H  -1.36700 9.61900 20.61500
H  -0.67000 10.88600 18.88300
H  0.81800 11.45200 19.59000
H  -0.69900 12.28200 19.99700
H  2.60300 13.31700 24.49600
H  1.76100 13.72300 26.02200
H  0.96900 13.51800 24.49200
H  0.92800 10.35800 29.68900
H  4.30300 11.79500 31.70500
H  4.74200 10.17200 31.99700
H  3.58400 10.90000 33.11900
Mg 41.70700 42.12700 26.00000
C  40.98700 44.36100 28.77100
C  42.71700 39.94100 28.38800
C  42.67300 40.22600 23.52300
C  40.90500 44.67400 23.84600
N  41.94300 42.19700 28.42400
C  41.49600 43.13200 29.27500
C  41.71000 42.68300 30.76300
C  42.06200 41.19000 30.57600
C  42.17100 41.06100 29.08100
C  43.25700 40.59500 31.44400
C  40.46900 43.15100 31.63700
C  40.13500 42.41100 32.94900
H  41.16800 42.67400 34.08300
N  42.47600 40.25100 25.94000
C  42.92100 39.58000 27.04800
C  43.52700 38.33300 26.62200
C  43.41100 38.35100 25.18900
C  42.83300 39.58200 24.77500
C  44.17500 37.23800 27.52800
C  43.82300 37.32700 24.12500
O  43.56800 37.52300 22.94300
C  44.51200 36.14300 24.56000
N  41.89100 42.50100 23.98900
C  42.07200 41.44400 23.10100
C  42.04600 41.88200 21.56200
C  41.14900 43.14100 21.81800
C  41.35500 43.48000 23.25900
C  43.38200 42.18400 20.84700
C  39.65300 43.03700 21.30300
C  38.85300 41.76700 21.50800
N  41.14200 44.11600 26.24500
C  40.81200 45.03100 25.22400
C  40.34900 46.30600 25.82400
C  40.42400 46.06400 27.20000
C  40.94400 44.73600 27.39300
C  39.98400 47.56000 25.08700
C  40.12600 46.69600 28.47800
O  39.60200 47.81300 28.70100
C  40.47200 45.56700 29.52400
C  41.35700 46.10600 30.57000
O  42.58600 46.24000 30.41800
O  40.64700 46.47700 31.64600
C  41.39300 46.68900 32.86900
H  42.93300 39.11200 29.06600
H  43.03900 39.68100 22.65000
H  40.58000 45.42600 23.12500
H  42.62400 43.22400 31.00600
H  41.13000 40.66600 30.78900
H  43.92700 40.01000 30.81500
H  42.83900 39.86400 32.13600
H  43.77400 41.43000 31.91700
H  39.56000 43.02500 31.04900
H  40.43900 44.19800 31.94100
H  40.00100 41.33000 32.91900
H  39.18000 42.87000 33.20500
H  45.16100 37.12500 27.07600
H  43.71600 36.26700 27.34100
H  44.10400 37.39000 28.60500
H  44.69000 35.53400 23.67400
H  43.88100 35.64800 25.29800
H  45.45100 36.47200 25.00700
H  41.47100 41.16500 20.97700
H  41.52900 44.06800 21.38800
H  43.73700 43.14300 21.22500
H  43.37700 42.12900 19.75900
H  44.14700 41.44700 21.09200
H  39.81400 43.13100 20.22900
H  39.20400 43.97400 21.63300
H  37.85500 42.10700 21.78500
H  39.37000 41.20500 22.28500
H  38.83700 41.28500 20.53000
H  39.31300 47.19300 24.31000
H  40.93900 47.92700 24.71200
H  39.64700 48.26100 25.85100
H  39.56600 45.29000 30.06400
H  41.14200 45.80800 33.45900
H  40.93000 47.50300 33.42700
H  42.45900 46.87500 32.73800

