158

Mg 35.45100 2.17500 29.17800
C  33.56500 3.40000 31.96400
C  38.10100 1.83100 31.28400
C  37.26700 1.20700 26.61900
C  32.85400 3.22000 27.09000
N  35.76800 2.56600 31.39200
C  34.87300 3.06500 32.30100
C  35.51100 3.03100 33.69200
C  37.05300 2.99800 33.27300
C  36.99900 2.46700 31.88200
C  37.62000 4.40400 33.34900
C  35.10600 1.79600 34.61800
C  34.66000 2.09500 36.07400
H  35.22400 3.34500 36.69900
N  37.37100 1.38300 28.96800
C  38.25900 1.34000 30.01300
C  39.52100 0.73100 29.48200
C  39.35100 0.58300 28.07900
C  37.96000 1.04500 27.78500
C  40.74700 0.42000 30.36600
C  40.28400 -0.07200 27.13000
O  39.92900 -0.31800 25.96800
C  41.62600 -0.63900 27.47000
N  35.08400 2.22800 27.14000
C  35.97600 1.66500 26.26000
C  35.54700 1.76000 24.81100
C  34.02200 2.21500 24.99000
C  33.93300 2.48800 26.51000
C  36.44300 2.51600 23.77200
C  32.90700 1.36500 24.43300
C  32.69300 -0.12700 24.88500
N  33.64500 3.05900 29.42900
C  32.69300 3.43900 28.44700
C  31.51500 3.94200 29.09400
C  31.74100 3.95000 30.45600
C  33.09000 3.44300 30.60700
C  30.20700 4.36700 28.58400
C  31.26200 4.17600 31.79600
O  30.18100 4.57800 32.19000
C  32.45800 3.92800 32.85600
C  32.78900 5.23700 33.56200
O  33.64000 5.98600 33.17900
O  31.86900 5.44000 34.59800
C  31.98200 6.74100 35.21200
H  38.91000 1.85100 32.01800
H  37.86800 0.87800 25.76900
H  32.00800 3.44200 26.43700
H  35.14200 3.88800 34.25500
H  37.57600 2.42200 34.03700
H  38.15000 4.65000 32.42900
H  38.34800 4.44400 34.15900
H  36.86000 5.14700 33.59000
H  35.86800 1.02200 34.70900
H  34.19000 1.38400 34.19700
H  35.14700 1.27200 36.59600
H  33.57300 2.10100 36.15500
H  40.81100 0.84200 31.36900
H  41.64300 0.75100 29.84100
H  40.92100 -0.65200 30.45300
H  41.61700 -1.45000 28.19800
H  42.11600 0.26800 27.82500
H  42.13000 -1.01300 26.57900
H  35.44300 0.75700 24.39500
H  33.90500 3.25100 24.67100
H  37.40300 2.82200 24.18800
H  35.95400 3.43700 23.45700
H  36.63200 1.91000 22.88600
H  32.87000 1.44300 23.34600
H  31.94500 1.76900 24.74600
H  32.46900 -0.70300 23.98700
H  31.82400 -0.18800 25.54000
H  33.64500 -0.46200 25.29600
H  29.97800 5.43000 28.51100
H  29.40100 3.83400 29.08800
H  30.13600 4.03500 27.54800
H  32.08500 3.12600 33.49400
H  31.76800 7.39200 34.36400
H  32.97200 6.85200 35.65200
H  31.17900 6.88700 35.93500
Mg 48.05600 25.57000 27.90700
C  49.03500 27.87900 30.30000
C  47.00300 23.53500 30.43400
C  47.34500 23.46500 25.53900
C  50.06500 27.47100 25.61200
N  48.05200 25.67800 30.13300
C  48.44600 26.80200 30.87500
C  47.96500 26.63300 32.36500
C  47.42700 25.15700 32.37200
C  47.47500 24.74700 30.90800
C  48.26800 24.16100 33.22600
C  46.91300 27.72100 32.82900
C  46.09500 27.41800 34.09300
H  45.88200 28.43200 35.26800
N  47.38800 23.74500 27.93300
C  46.91600 23.06800 29.09300
C  46.49000 21.73300 28.68100
C  46.44100 21.74800 27.27800
C  47.03000 23.02600 26.84700
C  46.11700 20.67700 29.67100
C  45.82700 20.72000 26.33000
O  45.96500 20.74400 25.14800
C  45.07900 19.57200 26.90800
N  48.56600 25.54500 25.83100
C  48.03600 24.62000 25.03600
C  48.37100 24.80000 23.57600
C  49.26500 26.13300 23.64500
C  49.34900 26.39300 25.13300
C  49.07200 23.58300 22.91700
C  48.64700 27.35100 22.90000
C  48.22100 27.07300 21.47300
N  49.27100 27.44300 27.85300
C  50.01700 28.03000 26.91600
C  50.64700 29.23500 27.44200
C  50.23700 29.20400 28.84300
C  49.44200 28.06400 28.98500
C  51.45700 30.17200 26.68500
C  50.36000 29.92700 30.02400
O  50.90600 30.99800 30.20100
C  49.49000 29.24300 30.99800
C  50.23500 29.08200 32.28700
O  51.23400 28.32600 32.46100
O  49.70300 29.82800 33.28200
C  50.28200 29.70800 34.59100
H  46.59700 22.75100 31.07600
H  47.10000 22.70700 24.79200
H  50.53300 28.17500 24.92000
H  48.78000 26.75900 33.07800
H  46.39900 25.20300 32.73000
H  49.07600 23.85000 32.56400
H  47.70300 23.24800 33.41300
H  48.65500 24.43600 34.20700
H  46.22100 27.80500 31.99100
H  47.45200 28.66200 32.94500
H  46.58100 26.57700 34.58700
H  45.17700 26.99500 33.68800
H  46.80200 20.82400 30.50600
H  46.24300 19.63900 29.36200
H  45.08200 20.71100 30.01100
H  44.34300 19.93200 27.62700
H  45.62400 18.82400 27.48300
H  44.61800 19.06100 26.06300
H  47.44300 24.95300 23.02500
H  50.23800 25.83900 23.25100
H  48.32200 22.84400 22.63500
H  49.76000 23.11900 23.62400
H  49.74000 23.89700 22.11500
H  49.48200 28.05200 22.91000
H  47.84700 27.78200 23.50100
H  49.07000 26.52900 21.05900
H  48.21400 28.06200 21.01500
H  47.23500 26.61100 21.43100
H  50.92100 31.05000 26.32500
H  52.00400 29.73600 25.84900
H  52.17900 30.41700 27.46400
H  48.64900 29.89000 31.25000
H  51.29400 29.31000 34.67000
H  49.62400 29.16500 35.26900
H  50.32300 30.72400 34.98300

