158

Mg 46.86500 24.47500 28.28800
C  47.43400 26.64500 31.09100
C  46.15300 22.08300 30.73200
C  47.01100 22.36100 25.94000
C  48.13200 26.98400 26.26300
N  46.94300 24.36900 30.70000
C  47.09400 25.39000 31.58600
C  46.80000 24.99600 33.06300
C  46.55800 23.40800 32.98400
C  46.53700 23.27300 31.38200
C  47.66800 22.51800 33.69800
C  45.65600 25.80800 33.69900
C  45.83600 26.06200 35.18200
H  44.57000 25.91200 36.06900
N  46.48800 22.53100 28.29600
C  46.09200 21.72300 29.36800
C  45.67900 20.49400 28.78000
C  46.01600 20.53700 27.36300
C  46.61800 21.80100 27.16700
C  45.01200 19.41700 29.59500
C  45.75900 19.39900 26.32300
O  46.09200 19.54600 25.13100
C  45.18000 18.02400 26.71300
N  47.57800 24.63100 26.39300
C  47.51100 23.60200 25.57800
C  47.92800 23.98400 24.20500
C  48.25000 25.50400 24.24000
C  47.88000 25.76000 25.69400
C  49.04000 23.08800 23.64700
C  47.33800 26.35000 23.14400
C  46.02300 26.98100 23.72500
N  47.62000 26.42300 28.62300
C  48.06000 27.33800 27.60300
C  48.39400 28.57100 28.24500
C  48.08600 28.34500 29.61900
C  47.65600 27.03200 29.78900
C  49.07100 29.83000 27.64500
C  48.26500 28.97700 30.89200
O  48.63600 30.07600 31.27800
C  47.87500 27.87700 31.87400
C  49.04300 27.52800 32.71700
O  49.97500 26.88800 32.37600
O  48.83400 28.07000 34.02300
C  49.82300 27.62400 35.05100
H  45.70100 21.34900 31.40300
H  47.00900 21.59700 25.15900
H  48.55100 27.73700 25.59200
H  47.67900 25.10300 33.70000
H  45.60400 23.14400 33.44000
H  47.19000 21.84800 34.41300
H  48.40500 23.15500 34.18700
H  48.05400 21.88300 32.90100
H  44.68700 25.31100 33.75100
H  45.50900 26.73300 33.14200
H  46.24500 27.06200 35.32900
H  46.65000 25.43900 35.55400
H  44.00900 19.07800 29.33900
H  44.91700 19.68900 30.64600
H  45.53600 18.46800 29.48000
H  45.51200 17.59500 27.65900
H  45.16400 17.20900 25.98900
H  44.22000 18.49400 26.92600
H  47.07600 23.80200 23.55000
H  49.30400 25.66200 24.01000
H  49.48400 22.38300 24.35000
H  49.88200 23.67900 23.28700
H  48.61000 22.50500 22.83200
H  47.19400 25.73400 22.25600
H  47.98500 27.19700 22.91700
H  46.10500 28.03100 24.00700
H  45.62300 26.40700 24.56100
H  45.29400 26.84100 22.92700
H  48.45400 30.69200 27.89700
H  49.00600 29.78000 26.55800
H  50.08400 29.91900 28.03700
H  47.09400 28.27400 32.52300
H  49.40000 27.15900 35.94200
H  50.28700 28.50800 35.48900
H  50.61000 27.00900 34.61500
Mg -5.82700 24.51200 27.30000
C  -3.98300 26.30900 29.66400
C  -6.85500 22.39800 29.84700
C  -7.59100 22.77500 25.05300
C  -4.66600 26.58300 24.80200
N  -5.38200 24.35500 29.48600
C  -4.71600 25.26000 30.21300
C  -5.03000 25.15400 31.69200
C  -5.71200 23.73300 31.83900
C  -6.03700 23.48000 30.30000
C  -4.86800 22.62000 32.47800
C  -5.99600 26.31600 32.11800
C  -5.54000 26.92800 33.48200
H  -6.23100 26.29900 34.78000
N  -6.98600 22.82300 27.44200
C  -7.29400 22.09600 28.56200
C  -8.18600 21.02700 28.20600
C  -8.44600 21.08000 26.83900
C  -7.70300 22.28200 26.42500
C  -8.73400 20.04100 29.24500
C  -9.34400 20.21400 25.95600
O  -9.50200 20.44500 24.76000
C  -10.01900 19.08400 26.62400
N  -6.00700 24.61400 25.20800
C  -6.91500 23.87800 24.56200
C  -6.79800 24.22800 23.05600
C  -5.87600 25.45600 23.00800
C  -5.60200 25.63900 24.48000
C  -6.28900 23.16800 22.00900
C  -6.55400 26.74200 22.34000
C  -5.75600 27.38200 21.16300
N  -4.45300 26.05100 27.23800
C  -4.11600 26.78100 26.12000
C  -3.23800 27.85900 26.59800
C  -3.09000 27.70400 27.90700
C  -3.87100 26.60300 28.29400
C  -2.61200 28.88500 25.70400
C  -2.47500 28.18000 29.14400
O  -1.76700 29.13600 29.19800
C  -3.12400 27.32900 30.36300
C  -1.87600 26.88400 31.11400
O  -1.03900 26.08700 30.70700
O  -1.89300 27.54200 32.34900
C  -0.87400 27.00000 33.28900
H  -7.23300 21.86500 30.72200
H  -8.11200 22.24900 24.25000
H  -4.33000 27.35400 24.10500
H  -4.01300 25.10900 32.08000
H  -6.64500 23.75100 32.40300
H  -5.61700 22.11600 33.09000
H  -4.10400 22.98700 33.16300
H  -4.44600 21.86800 31.81200
H  -6.97900 25.85700 32.22500
H  -6.18100 27.04900 31.33300
H  -5.76200 27.99200 33.39900
H  -4.48400 26.84000 33.73600
H  -9.82200 19.99500 29.19700
H  -8.38600 20.19100 30.26700
H  -8.33700 19.05500 29.00200
H  -10.47700 18.46600 25.85200
H  -10.76600 19.49200 27.30500
H  -9.34000 18.44900 27.19300
H  -7.82700 24.50200 22.82300
H  -4.92500 25.32200 22.49200
H  -7.03500 22.70800 21.36100
H  -5.77100 22.29600 22.40800
H  -5.53600 23.66500 21.39600
H  -6.69400 27.47900 23.13100
H  -7.61600 26.63100 22.12000
H  -5.05100 26.65600 20.75700
H  -5.33300 28.34700 21.44300
H  -6.40800 27.64900 20.33100
H  -1.92600 28.41800 24.99700
H  -1.91500 29.37300 26.38500
H  -3.43000 29.49600 25.32100
H  -3.67100 28.01500 31.01000
H  0.09800 26.63000 32.96100
H  -1.31100 26.01700 33.47000
H  -0.83100 27.37100 34.31200

