158

Mg -0.31000 7.72500 26.73600
C  0.68600 9.48900 29.74500
C  -0.31600 4.91100 28.76400
C  -0.89100 6.07600 24.05700
C  0.33400 10.57000 24.99300
N  0.14300 7.24700 29.04700
C  0.35300 8.18000 30.04500
C  0.23400 7.51500 31.42600
C  0.17300 5.99200 31.07000
C  -0.02200 6.03600 29.55200
C  1.45900 5.21400 31.43600
C  -1.02000 8.02500 32.25600
C  -0.61700 8.47700 33.63900
H  -0.69900 7.41600 34.75900
N  -0.65900 5.82500 26.47200
C  -0.61200 4.76400 27.37900
C  -0.92100 3.47200 26.71000
C  -1.11600 3.78500 25.34100
C  -0.96200 5.26000 25.22500
C  -0.96700 2.11100 27.59500
C  -1.44700 2.92300 24.17200
O  -1.58300 3.28300 23.01000
C  -1.70300 1.48700 24.52700
N  -0.36300 8.27200 24.84400
C  -0.66600 7.42000 23.86600
C  -0.93600 8.09900 22.49200
C  -0.51100 9.60700 22.84200
C  -0.22200 9.51600 24.29600
C  -0.06200 7.41100 21.30300
C  -1.61200 10.62000 22.48000
C  -1.62200 11.20800 21.01100
N  0.41900 9.65000 27.20500
C  0.62300 10.67500 26.34000
C  1.18500 11.81400 27.01500
C  1.11100 11.46700 28.37000
C  0.73200 10.12000 28.45600
C  1.40500 13.11700 26.47300
C  1.41500 11.82800 29.70100
O  1.83300 12.86100 30.13300
C  1.00500 10.64100 30.67700
C  2.14200 10.43600 31.61300
O  3.08900 9.67700 31.42500
O  2.00500 11.26800 32.72000
C  3.07500 11.42100 33.73700
H  -0.38500 4.00300 29.36700
H  -1.17300 5.52800 23.15600
H  0.46000 11.47200 24.39000
H  1.15100 7.72100 31.97900
H  -0.65700 5.47000 31.54600
H  2.18600 5.90300 31.86600
H  1.87300 4.79400 30.51900
H  1.23400 4.41100 32.13800
H  -1.55000 7.08600 32.41700
H  -1.51700 8.83700 31.72400
H  -1.31900 9.30200 33.75500
H  0.36100 8.95900 33.61000
H  -1.30700 1.18900 27.12300
H  -1.81600 2.16100 28.27600
H  -0.11200 1.91900 28.24400
H  -0.82200 0.93800 24.85900
H  -2.15800 1.01200 23.65800
H  -2.45900 1.41900 25.31000
H  -1.99400 7.90000 22.31900
H  0.46600 9.76400 22.38600
H  0.35000 8.17200 20.64000
H  -0.68900 6.66300 20.81800
H  0.75600 6.92000 21.83100
H  -1.57300 11.35200 23.28700
H  -2.62800 10.23800 22.57500
H  -0.76500 10.85700 20.43500
H  -1.46700 12.25600 21.26900
H  -2.58900 10.91700 20.60300
H  0.71300 13.26800 25.64400
H  2.43300 13.22300 26.12700
H  1.12400 13.77700 27.29400
H  0.16200 11.02100 31.25300
H  3.80600 10.61400 33.68500
H  2.76700 11.37900 34.78200
H  3.67400 12.31000 33.53900
Mg 42.68400 42.03100 26.46500
C  41.48300 44.21100 28.88700
C  43.74500 39.87200 28.88100
C  43.86500 39.99700 24.01900
C  41.92200 44.47100 24.04700
N  42.73800 42.15000 28.74800
C  42.09500 43.06700 29.50300
C  41.97900 42.59000 31.01900
C  42.98500 41.33400 30.93600
C  43.23800 41.10000 29.44000
C  44.31700 41.38300 31.80500
C  40.52500 42.27700 31.50700
C  39.85900 43.33600 32.41900
H  39.31700 42.95000 33.72500
N  43.58200 40.14600 26.49700
C  43.91900 39.43000 27.52400
C  44.47900 38.18100 27.14100
C  44.35300 38.05800 25.72300
C  43.97300 39.43800 25.36900
C  45.03500 37.12000 28.08900
C  44.56000 36.91500 24.78400
O  44.33000 37.02700 23.56600
C  44.91300 35.48300 25.25800
N  42.79300 42.14100 24.35700
C  43.34000 41.19700 23.59000
C  43.24800 41.50700 22.12000
C  42.48000 42.89300 22.06600
C  42.37100 43.21400 23.59200
C  44.64800 41.60300 21.48200
C  41.09300 42.76800 21.40200
C  40.24700 41.69900 22.07000
N  41.93000 43.96300 26.44200
C  41.69200 44.79200 25.36900
C  41.20400 46.12500 25.86600
C  41.08700 45.94400 27.26800
C  41.50100 44.60200 27.50900
C  41.03100 47.35100 25.05800
C  40.69800 46.60200 28.54000
O  40.18700 47.67600 28.73100
C  40.94600 45.50400 29.64100
C  42.00100 46.09100 30.55800
O  43.19000 46.26800 30.30800
O  41.40900 46.22900 31.79000
C  42.29200 46.82900 32.83600
H  44.03400 39.11500 29.61300
H  44.34200 39.32200 23.30600
H  41.69400 45.21300 23.27900
H  42.48300 43.33400 31.63700
H  42.39300 40.48500 31.27800
H  44.23000 42.34400 32.31200
H  45.10900 41.47100 31.06000
H  44.46200 40.69300 32.63600
H  40.38100 41.26600 31.88700
H  40.01000 42.19400 30.55000
H  39.02800 43.78200 31.87400
H  40.62100 44.08400 32.64000
H  46.02200 36.72900 27.83900
H  44.32400 36.31300 28.26900
H  45.18700 37.66500 29.02100
H  45.03100 34.93000 24.32700
H  44.09000 35.01900 25.80100
H  45.83300 35.64700 25.82100
H  42.67400 40.74500 21.59200
H  42.99300 43.70400 21.54900
H  44.86200 40.62500 21.05000
H  45.41800 41.80400 22.22700
H  44.60600 42.35000 20.69000
H  41.24300 42.50700 20.35400
H  40.50500 43.68500 21.37600
H  39.89600 41.02400 21.28900
H  39.29300 42.14800 22.34600
H  40.69500 41.23500 22.94900
H  40.88100 48.21700 25.70300
H  40.10200 47.24800 24.49900
H  41.85200 47.59800 24.38500
H  40.05500 45.28100 30.22800
H  42.15600 46.13600 33.66600
H  41.88400 47.77000 33.20700
H  43.36300 46.86800 32.63700

