158

Mg 16.12000 51.41600 24.83400
C  17.45400 50.61000 27.88700
C  13.14600 52.33400 26.66400
C  14.63500 52.44900 22.07300
C  18.70800 50.20700 23.14000
N  15.45600 51.74700 27.10300
C  16.26400 51.30800 28.12400
C  15.68700 51.83000 29.45100
C  14.24100 52.20300 29.07900
C  14.27800 52.10100 27.54000
C  13.16100 51.36500 29.79700
C  16.53700 53.02800 30.11500
C  16.71100 53.08500 31.61800
H  15.55700 52.33100 32.48100
N  14.24900 52.26600 24.39200
C  13.12700 52.56800 25.26500
C  12.05100 53.06200 24.58200
C  12.48900 53.14300 23.17300
C  13.79000 52.61200 23.15200
C  10.74100 53.42700 25.24000
C  11.72700 53.63800 21.94000
O  12.20400 53.84300 20.83800
C  10.35000 54.05900 22.10800
N  16.58000 51.15800 22.79100
C  15.79100 51.69000 21.83800
C  16.43100 51.43600 20.45200
C  17.85800 50.94000 20.87100
C  17.76800 50.81600 22.35400
C  15.83800 50.37500 19.51400
C  18.98200 52.01100 20.50300
C  18.92500 52.52400 19.09000
N  17.76300 50.59700 25.34500
C  18.77500 50.06900 24.54500
C  19.84900 49.51700 25.39700
C  19.31600 49.70000 26.65100
C  18.08700 50.29900 26.58100
C  21.08200 48.90200 24.90800
C  19.68500 49.53600 28.04600
O  20.66500 49.12300 28.61900
C  18.52400 50.11300 28.87900
C  18.07500 49.17800 29.99800
O  17.19400 48.34800 29.90400
O  18.86300 49.42600 31.11200
C  18.36700 48.89200 32.38000
H  12.21100 52.59800 27.16300
H  14.28400 52.96500 21.17800
H  19.65800 49.97900 22.65200
H  15.72700 51.05400 30.21500
H  13.94700 53.23700 29.26100
H  12.33500 52.01300 30.08900
H  13.50300 50.86600 30.70400
H  12.84100 50.56500 29.13000
H  15.94200 53.85300 29.72200
H  17.52800 53.08200 29.66500
H  16.93200 54.07200 32.02400
H  17.66800 52.57700 31.73800
H  10.31700 54.31300 24.76700
H  10.75000 53.69000 26.29800
H  10.13000 52.54200 25.06200
H  9.60800 53.41300 22.57800
H  10.01000 54.34500 21.11200
H  10.46600 54.95900 22.71100
H  16.45500 52.44000 20.03000
H  18.14700 49.97000 20.46800
H  15.24700 49.68800 20.11900
H  16.55800 49.82700 18.90600
H  15.09400 50.78600 18.83200
H  19.90700 51.44100 20.58600
H  18.93600 52.78900 21.26400
H  18.44400 51.79700 18.43600
H  19.98700 52.54600 18.84400
H  18.41900 53.47900 18.95100
H  21.88000 49.64400 24.95000
H  20.87500 48.48500 23.92300
H  21.46700 48.11900 25.56100
H  18.97600 50.95500 29.40200
H  17.59800 49.55800 32.77000
H  19.09200 48.90100 33.19400
H  18.05200 47.85100 32.30900
Mg -5.45300 25.17900 27.23600
C  -3.39300 27.12800 29.50700
C  -6.08400 23.04500 29.87700
C  -6.80100 23.07800 25.03600
C  -4.10600 27.16500 24.75000
N  -4.84800 25.19300 29.42100
C  -4.07500 26.08100 30.11500
C  -4.14000 25.72300 31.63800
C  -4.77700 24.29500 31.69700
C  -5.24700 24.15600 30.20200
C  -3.74500 23.19900 32.18500
C  -4.98100 26.83600 32.32500
C  -6.00800 26.53600 33.43500
H  -5.61600 25.91300 34.77200
N  -6.43500 23.36600 27.43900
C  -6.52000 22.60800 28.58200
C  -7.31400 21.39500 28.35700
C  -7.60100 21.45300 26.96300
C  -6.95800 22.69500 26.39700
C  -7.45100 20.30600 29.42700
C  -8.14400 20.39300 26.09000
O  -8.30600 20.50700 24.90400
C  -8.80400 19.12000 26.66100
N  -5.43100 25.12800 25.13000
C  -6.19100 24.22000 24.43600
C  -6.27100 24.56500 22.97400
C  -5.33300 25.80600 22.82400
C  -4.88200 26.04500 24.33500
C  -5.73300 23.36700 22.07100
C  -5.92700 27.05000 22.09000
C  -5.26800 27.63200 20.84900
N  -3.92800 26.76100 27.03200
C  -3.60900 27.55000 25.99600
C  -2.67400 28.52400 26.41800
C  -2.59200 28.46100 27.79400
C  -3.39700 27.34200 28.11600
C  -1.76000 29.42700 25.59300
C  -1.92100 28.93400 28.93900
O  -1.08900 29.82400 29.06300
C  -2.49100 28.11600 30.17100
C  -1.42600 27.54700 31.02700
O  -0.58300 26.78100 30.63800
O  -1.49700 28.03300 32.27400
C  -0.80500 27.31700 33.38200
H  -6.34600 22.42700 30.73900
H  -7.37100 22.45600 24.34200
H  -3.73400 27.85300 23.98800
H  -3.13100 25.75200 32.05100
H  -5.63900 24.30800 32.36400
H  -3.59700 22.47700 31.38200
H  -4.14400 22.78000 33.10900
H  -2.73300 23.55800 32.37500
H  -5.52400 27.37200 31.54700
H  -4.22000 27.48600 32.75600
H  -6.82700 25.99000 32.96700
H  -6.32800 27.52700 33.75500
H  -8.28300 19.62900 29.23000
H  -7.71900 20.69000 30.41200
H  -6.50700 19.78000 29.57200
H  -8.14900 18.41900 27.17900
H  -9.14000 18.53300 25.80600
H  -9.52900 19.38200 27.43100
H  -7.33400 24.74300 22.80900
H  -4.41400 25.50800 22.31700
H  -5.17900 23.67800 21.18500
H  -6.58200 22.86100 21.61100
H  -5.12500 22.66300 22.64000
H  -6.04300 27.97600 22.65400
H  -6.94600 26.78700 21.80600
H  -6.06000 27.60300 20.10000
H  -4.44000 27.01800 20.49500
H  -4.94100 28.66700 20.95500
H  -2.32200 29.77400 24.72600
H  -0.91000 28.82800 25.26500
H  -1.42000 30.30700 26.13800
H  -3.19200 28.66900 30.79800
H  0.26100 27.53700 33.32300
H  -0.88600 26.23300 33.30600
H  -1.16900 27.57900 34.37600

