158

Mg 35.30200 2.65900 30.35300
C  32.91800 3.92700 32.50800
C  37.56200 2.72100 32.95900
C  37.79700 2.00200 28.16400
C  33.05900 3.05300 27.75300
N  35.24300 3.37100 32.42200
C  34.16400 3.65200 33.15000
C  34.42300 3.70000 34.64000
C  35.97400 3.55900 34.66500
C  36.32600 3.15000 33.24900
C  36.73500 4.87300 35.02700
C  33.54100 2.57500 35.34300
C  33.71100 2.31200 36.83400
H  34.41400 3.32300 37.73300
N  37.34900 2.42900 30.51500
C  38.07600 2.34500 31.69800
C  39.39600 1.85400 31.38000
C  39.53300 1.81400 29.92200
C  38.14900 2.01600 29.46900
C  40.35800 1.48200 32.46300
C  40.79900 1.51200 29.08900
O  40.86200 1.57700 27.83200
C  42.11600 1.16700 29.74400
N  35.43200 2.74700 28.21600
C  36.58300 2.27500 27.55400
C  36.39200 2.08200 26.05400
C  34.77000 2.16400 25.95700
C  34.32900 2.68500 27.40000
C  37.25800 3.10600 25.17800
C  34.07300 0.87000 25.47400
C  32.84600 1.09500 24.55600
N  33.41900 3.39000 30.09400
C  32.55400 3.35600 29.03500
C  31.26600 3.73000 29.43700
C  31.35600 4.04100 30.81400
C  32.64700 3.78600 31.15300
C  29.97900 3.66700 28.61400
C  30.57300 4.53000 31.90000
O  29.43200 4.93200 31.97500
C  31.52900 4.35600 33.13400
C  31.57200 5.70400 33.80200
O  32.09600 6.72200 33.34200
O  31.14600 5.60500 35.09300
C  31.40200 6.73800 35.91600
H  38.25400 2.63000 33.79800
H  38.44100 1.48900 27.44800
H  32.31500 3.00000 26.95500
H  34.14200 4.67900 35.03000
H  36.28400 2.79100 35.37500
H  36.14900 5.51500 35.68500
H  37.04200 5.46200 34.16400
H  37.63100 4.50600 35.52900
H  33.66300 1.63400 34.80600
H  32.50000 2.88900 35.26300
H  34.14000 1.31900 36.97100
H  32.69200 2.16300 37.18900
H  41.16400 2.20600 32.33400
H  40.96500 0.64600 32.11600
H  39.91100 1.24900 33.42900
H  42.17200 0.19300 30.22900
H  42.32400 1.88200 30.54000
H  42.95100 1.15100 29.04400
H  36.43900 1.00700 25.87800
H  34.54600 2.98800 25.27900
H  38.20300 2.65300 24.87900
H  37.44100 4.01700 25.74800
H  36.83100 3.50200 24.25600
H  33.72600 0.21800 26.27600
H  34.79500 0.30900 24.88100
H  32.19100 0.30200 24.91600
H  33.34100 0.95000 23.59600
H  32.38600 2.08200 24.50200
H  29.11400 3.29400 29.16200
H  30.06400 3.10300 27.68500
H  29.74100 4.69300 28.33200
H  31.17500 3.58600 33.81900
H  32.37100 7.23100 35.83200
H  31.39600 6.33000 36.92700
H  30.64700 7.52100 35.85400
Mg 39.73500 10.23200 30.62300
C  42.25400 11.77700 32.53100
C  38.10200 9.58800 33.48600
C  37.48900 8.78200 28.56200
C  41.95500 10.65300 27.83400
N  40.26600 10.39600 32.77800
C  41.22800 11.25900 33.25400
C  40.93000 11.46400 34.75000
C  39.73200 10.56100 35.09000
C  39.30700 10.23500 33.69200
C  39.84200 9.36100 36.07100
C  40.79000 12.94300 35.20200
C  41.44500 13.36300 36.53000
H  40.56300 14.02000 37.50000
N  38.07000 9.21300 30.99700
C  37.45300 9.14000 32.22100
C  36.30000 8.30500 32.07300
C  36.02400 8.13900 30.65900
C  37.24400 8.71300 30.01100
C  35.42900 7.90500 33.22200
C  34.80200 7.56600 29.91200
O  34.70600 7.62000 28.71300
C  33.80500 6.87400 30.68900
N  39.76100 9.74900 28.49400
C  38.62800 9.20200 27.94700
C  38.73900 9.35700 26.40700
C  40.21200 9.91000 26.14000
C  40.63100 10.22500 27.51200
C  38.44300 8.03100 25.56900
C  40.41800 11.04800 25.06300
C  41.75500 10.98500 24.21500
N  41.64000 11.09600 30.18200
C  42.36700 11.17600 29.03600
C  43.58500 11.83900 29.28800
C  43.61500 12.11600 30.63400
C  42.40100 11.61200 31.12700
C  44.66800 12.29000 28.26000
C  44.37000 12.71100 31.68400
O  45.48100 13.28100 31.61100
C  43.49800 12.53700 32.94400
C  44.20800 11.88300 34.04600
O  44.35600 10.72800 34.39000
O  44.63000 12.98500 34.85600
C  45.17200 12.54400 36.12500
H  37.49800 9.42000 34.38000
H  36.72800 8.38800 27.88400
H  42.62700 10.74300 26.97800
H  41.77800 10.99900 35.25300
H  38.96600 11.19400 35.53800
H  39.35400 9.50400 37.03500
H  40.91400 9.16800 36.07300
H  39.43300 8.48000 35.57600
H  39.77000 13.28500 35.37800
H  41.04800 13.51600 34.31200
H  42.40600 13.87400 36.46200
H  41.72000 12.39100 36.94000
H  35.80800 8.16600 34.21000
H  35.19700 6.84200 33.28800
H  34.52600 8.50700 33.11600
H  33.20700 7.63300 31.19200
H  34.27600 6.16100 31.36600
H  33.13400 6.45600 29.94000
H  38.06100 10.15300 26.09900
H  40.83200 9.08100 25.80000
H  39.34600 7.75700 25.02400
H  37.69600 8.23900 24.80300
H  38.19600 7.23200 26.26800
H  40.19700 11.93000 25.66400
H  39.60400 10.89400 24.35500
H  42.42900 11.77300 24.55100
H  41.51900 10.97100 23.15100
H  42.43500 10.13400 24.27500
H  45.36700 13.02400 28.66000
H  44.09200 12.75100 27.45800
H  45.24300 11.42200 27.93500
H  43.14800 13.49300 33.33200
H  46.04700 11.89400 36.11900
H  44.38300 11.95700 36.59400
H  45.46600 13.36400 36.78100

