158

Mg 26.24700 -0.68900 29.32000
C  28.30800 -1.19300 32.25700
C  23.61300 -0.17900 31.53600
C  24.16400 -0.60700 26.69600
C  28.83100 -1.89500 27.41000
N  26.03500 -0.58200 31.66300
C  26.99600 -0.68100 32.60400
C  26.48200 -0.31500 34.01200
C  24.91200 -0.01900 33.70600
C  24.81600 -0.34300 32.19800
C  23.92000 -0.72600 34.71700
C  27.17900 0.90800 34.74600
C  27.97600 0.57500 36.01800
H  27.37600 1.25000 37.30000
N  24.14600 -0.34100 29.13100
C  23.23900 -0.10900 30.14000
C  21.91400 -0.00900 29.54800
C  22.08200 -0.07700 28.12700
C  23.48600 -0.38300 27.94300
C  20.69900 0.28400 30.47200
C  21.04800 -0.04700 27.03600
O  21.27300 -0.11000 25.83200
C  19.61800 0.16900 27.46900
N  26.41800 -1.20900 27.36700
C  25.52800 -0.88200 26.40500
C  26.11000 -0.85300 25.08000
C  27.58200 -1.41000 25.26500
C  27.62000 -1.48100 26.76900
C  25.27200 -1.61000 23.98700
C  28.72200 -0.59200 24.58500
C  29.02900 0.77500 25.19800
N  28.16500 -1.40400 29.66300
C  29.13600 -1.90600 28.82800
C  30.34000 -2.28800 29.57300
C  30.05700 -1.87500 30.86300
C  28.74600 -1.38000 30.91400
C  31.63000 -2.60600 28.90400
C  30.72700 -1.77800 32.15000
O  31.85900 -2.16900 32.51500
C  29.54100 -1.40700 33.14100
C  29.43900 -2.46100 34.12800
O  28.71600 -3.48000 34.09000
O  30.27100 -2.20400 35.16400
C  30.04500 -3.08500 36.35000
H  22.80700 0.05100 32.23600
H  23.53200 -0.51500 25.81000
H  29.66900 -2.20000 26.78100
H  26.57500 -1.20700 34.63000
H  24.79800 1.05800 33.83200
H  23.65300 -1.75600 34.48300
H  22.94600 -0.23700 34.70500
H  24.45200 -0.74900 35.66900
H  26.49600 1.73000 34.96100
H  27.91300 1.44100 34.14100
H  29.04100 0.73700 35.85300
H  27.96700 -0.49600 36.22100
H  20.01600 -0.56200 30.54500
H  20.13900 1.18300 30.21300
H  20.96200 0.53700 31.50000
H  19.36300 -0.57900 28.21900
H  18.92900 0.16400 26.62400
H  19.46600 1.16500 27.88200
H  26.12600 0.15300 24.66000
H  27.71300 -2.41200 24.85800
H  24.76700 -0.93700 23.29400
H  24.56000 -2.15100 24.61000
H  25.89900 -2.31000 23.43600
H  28.54400 -0.43800 23.52100
H  29.68300 -1.10000 24.66200
H  30.04700 0.71100 25.58100
H  28.33900 0.97300 26.01800
H  28.86100 1.51100 24.41200
H  31.94600 -1.64000 28.51000
H  31.45300 -3.19900 28.00700
H  32.45200 -2.95600 29.53000
H  29.75300 -0.46000 33.63700
H  30.88100 -2.82100 36.99700
H  30.14600 -4.09700 35.95800
H  29.14400 -2.95900 36.95000
Mg 41.03700 7.34200 29.37900
C  42.56400 8.61000 32.21600
C  38.43400 6.13600 31.51600
C  39.61900 6.00100 26.82500
C  43.88500 8.06900 27.42200
N  40.62200 7.29000 31.66400
C  41.39500 8.00900 32.56500
C  40.76200 8.04100 33.96000
C  39.46500 7.13100 33.75200
C  39.44700 6.83400 32.21000
C  39.50700 5.77000 34.59600
C  40.39300 9.56600 34.36000
C  41.04000 10.27700 35.59700
H  40.08900 10.60300 36.76900
N  39.40800 6.10800 29.20800
C  38.45800 5.70800 30.17500
C  37.44400 5.02700 29.53700
C  37.75000 4.89500 28.13400
C  38.98400 5.64500 27.98700
C  36.18900 4.48700 30.25200
C  37.04000 4.12000 27.07400
O  37.34300 4.08100 25.89400
C  35.84500 3.35500 27.35500
N  41.76900 7.02200 27.34300
C  40.84100 6.58600 26.44900
C  41.36500 6.68200 25.04000
C  42.85700 7.26700 25.25600
C  42.83000 7.51000 26.71400
C  41.38900 5.24100 24.46400
C  43.12700 8.48400 24.35200
C  42.51600 9.80000 24.80300
N  42.85800 8.27200 29.67600
C  43.91300 8.40600 28.77100
C  44.96500 8.98300 29.58400
C  44.45700 9.25300 30.86600
C  43.17600 8.66200 30.91100
C  46.28300 9.52700 28.99600
C  44.74700 9.82000 32.10700
O  45.70900 10.53400 32.44900
C  43.53900 9.46200 33.06900
C  44.12900 8.71400 34.16500
O  44.36700 7.52400 34.12700
O  44.43500 9.58000 35.18500
C  44.82100 8.92400 36.39000
H  37.52900 5.95300 32.09900
H  39.12000 5.62700 25.92900
H  44.65200 8.29700 26.68000
H  41.45500 7.50400 34.60800
H  38.62600 7.80000 33.94200
H  38.64500 5.88100 35.25400
H  40.37700 5.73900 35.25200
H  39.58000 4.88500 33.96400
H  39.31800 9.65000 34.51800
H  40.55300 10.27900 33.55100
H  41.47600 11.20500 35.22600
H  41.85100 9.59200 35.84300
H  36.27400 3.42100 30.03800
H  35.28200 4.81800 29.74600
H  36.08500 4.69100 31.31700
H  35.95300 2.52900 28.05800
H  35.41600 3.06500 26.39600
H  35.10200 4.01400 27.80600
H  40.69700 7.30700 24.44800
H  43.61400 6.48600 25.18600
H  40.90700 4.58900 25.19300
H  42.38200 4.88300 24.19100
H  40.73600 5.23700 23.59200
H  42.73200 8.34400 23.34600
H  44.21200 8.58500 24.31600
H  41.98800 9.78500 25.75700
H  41.76600 10.16400 24.10200
H  43.34900 10.49300 24.92200
H  46.60500 10.46900 29.43800
H  46.28800 9.40800 27.91200
H  46.94700 8.72200 29.31000
H  43.06500 10.40800 33.32800
H  44.27000 8.02200 36.65900
H  44.78500 9.61500 37.23200
H  45.85800 8.61800 36.25200

