158

Mg 41.52700 8.63800 29.74500
C  43.31900 9.69300 32.36500
C  39.18500 7.32400 31.97700
C  39.95500 7.17100 27.08200
C  44.19400 9.44000 27.54800
N  41.35300 8.47700 31.87200
C  42.10100 9.19500 32.75800
C  41.65800 9.05600 34.16100
C  40.50000 8.04500 34.13700
C  40.32000 7.92000 32.59200
C  40.83800 6.63300 34.71800
C  41.37100 10.47400 34.67600
C  40.96200 10.67300 36.15100
H  41.73700 9.94800 37.25700
N  39.75800 7.47000 29.53600
C  38.90800 7.08000 30.59100
C  37.83100 6.25600 30.01900
C  37.94500 6.32300 28.59600
C  39.30400 6.90000 28.33300
C  36.68000 5.48800 30.82300
C  36.84100 6.01500 27.49400
O  37.10900 6.24700 26.30300
C  35.44600 5.63100 27.89400
N  42.09500 8.28500 27.71100
C  41.18700 7.77300 26.82200
C  41.63900 7.94300 25.35700
C  42.86700 8.85000 25.53500
C  43.09200 8.86200 26.96900
C  42.06600 6.59900 24.65600
C  42.68300 10.28000 25.04400
C  43.84200 10.78500 24.24000
N  43.40300 9.39400 29.90500
C  44.37300 9.65700 28.95400
C  45.52500 10.22300 29.66300
C  45.08800 10.29000 30.98700
C  43.88000 9.76800 31.11300
C  46.85000 10.68300 29.10300
C  45.49600 10.77300 32.27300
O  46.44200 11.40700 32.70300
C  44.37600 10.33300 33.25200
C  45.02300 9.37800 34.24600
O  44.85600 8.17200 34.16100
O  45.61700 10.13100 35.23100
C  46.07100 9.36700 36.42200
H  38.56300 6.88600 32.76000
H  39.56800 6.58800 26.24400
H  44.92000 9.92500 26.89200
H  42.43100 8.61700 34.79100
H  39.60600 8.42600 34.62900
H  41.88800 6.48200 34.97000
H  40.55200 5.86800 33.99700
H  40.16500 6.67300 35.57400
H  40.37200 10.73500 34.32800
H  42.02300 11.25000 34.27500
H  39.88000 10.62200 36.27700
H  41.26900 11.69600 36.36800
H  35.78700 6.10300 30.71200
H  36.91800 5.32300 31.87400
H  36.49300 4.50400 30.39400
H  34.92100 6.35700 28.51500
H  35.52300 4.66400 28.39100
H  34.95400 5.45200 26.93800
H  40.81500 8.41200 24.81900
H  43.85500 8.47500 25.26600
H  41.80200 5.77600 25.32000
H  43.13800 6.50800 24.48000
H  41.58300 6.41500 23.69700
H  42.45900 11.00800 25.82400
H  41.86400 10.26500 24.32500
H  44.27600 11.63400 24.76900
H  43.47700 11.26100 23.33000
H  44.69600 10.12100 24.10900
H  47.17800 10.06900 28.26500
H  47.58000 10.57900 29.90600
H  46.74600 11.72100 28.78700
H  44.14600 11.27500 33.75000
H  45.36300 9.59400 37.22000
H  47.05800 9.73900 36.69900
H  46.00600 8.29600 36.23000
Mg 55.16400 23.56400 44.51900
C  52.48900 25.59100 43.41300
C  53.37000 20.81900 43.37100
C  57.95700 21.77300 44.75800
C  56.82300 26.40400 45.71600
N  53.25100 23.28700 43.36200
C  52.26400 24.26100 43.11200
C  50.98700 23.59400 42.71600
C  51.16100 22.03200 42.89500
C  52.64000 21.99300 43.27400
C  50.18100 21.34900 43.95800
C  50.58400 23.90900 41.24200
C  49.06500 23.90200 41.09500
H  48.41000 23.63400 39.72700
N  55.62300 21.57900 44.07100
C  54.76300 20.58200 43.64200
C  55.49500 19.37000 43.50400
C  56.89000 19.62700 43.70600
C  56.90200 21.00300 44.25600
C  54.90500 18.05000 43.00600
C  57.98900 18.68800 43.47700
O  57.70100 17.53300 43.23000
C  59.38200 19.01100 43.62600
N  57.14600 24.09200 45.25100
C  58.11200 23.12400 45.19300
C  59.45300 23.73800 45.63700
C  59.16200 25.22800 46.03600
C  57.65200 25.26000 45.70900
C  60.30000 22.97900 46.65100
C  60.02200 26.25600 45.25400
C  60.72000 27.36300 45.86800
N  54.78400 25.55700 44.53700
C  55.53400 26.59100 45.12700
C  54.80500 27.79100 44.95600
C  53.61700 27.39300 44.35400
C  53.66200 26.05700 44.05800
C  55.21500 29.13600 45.36500
C  52.40400 27.98400 43.89900
O  52.06600 29.16700 43.99200
C  51.61400 26.84500 43.19500
C  51.44900 27.26200 41.76000
O  52.38300 27.45600 41.00600
O  50.05300 27.20300 41.39400
C  49.77700 27.30300 39.96700
H  52.73800 19.93100 43.30400
H  58.88300 21.19500 44.76200
H  57.25900 27.37200 45.96800
H  50.10300 23.87800 43.28600
H  50.98400 21.44900 41.99100
H  50.67200 21.00500 44.86900
H  49.77700 20.44400 43.50600
H  49.51900 22.13800 44.31700
H  51.04700 23.18400 40.57300
H  50.90900 24.89500 40.90900
H  48.80900 24.92300 41.37900
H  48.58800 23.29000 41.86000
H  55.34200 17.86400 42.02500
H  53.87100 18.08300 42.66300
H  55.07100 17.21700 43.69000
H  59.75100 19.80600 42.97800
H  60.04300 18.16000 43.46200
H  59.50300 19.26400 44.67900
H  60.16100 23.60500 44.81900
H  59.28200 25.45800 47.09400
H  60.66600 23.51700 47.52500
H  61.22500 22.62500 46.19700
H  59.64900 22.21000 47.06900
H  59.34200 26.59300 44.47100
H  60.77700 25.77700 44.63200
H  61.78400 27.15700 45.75300
H  60.50400 27.40500 46.93500
H  60.48200 28.31600 45.39600
H  56.12500 29.37600 44.81600
H  55.31700 29.20800 46.44800
H  54.49700 29.93600 45.18400
H  50.61700 26.68200 43.60500
H  48.75200 26.97100 39.79800
H  50.57000 26.77900 39.43400
H  49.74300 28.36000 39.70300

