158

Mg 0.77300 43.49600 26.14700
C  2.93100 42.98500 28.86000
C  -1.78900 42.46800 28.09100
C  -1.27300 43.49200 23.40600
C  3.63500 43.88900 24.10300
N  0.61700 42.94800 28.25700
C  1.62600 42.83800 29.24100
C  1.02400 42.71100 30.60200
C  -0.47400 42.29800 30.26500
C  -0.57700 42.58100 28.74200
C  -0.76100 40.76500 30.42300
C  1.12400 44.00600 31.44200
C  1.63000 43.87700 32.88200
H  1.01000 42.86400 33.82600
N  -1.28500 43.12800 25.77500
C  -2.18400 42.76200 26.80700
C  -3.49400 42.78700 26.30000
C  -3.36400 43.15600 24.89200
C  -1.95300 43.26200 24.60900
C  -4.78900 42.49000 27.16900
C  -4.48100 43.35800 23.82100
O  -4.22600 43.55700 22.65900
C  -5.92500 43.48100 24.24500
N  1.16000 43.62300 24.08200
C  0.12600 43.71600 23.18700
C  0.69300 43.81500 21.72900
C  2.16900 44.28100 21.96900
C  2.34900 43.90300 23.48300
C  0.59400 42.43700 20.99200
C  2.51800 45.70700 21.67300
C  1.55900 46.79600 22.12600
N  2.87400 43.55700 26.42300
C  3.92100 43.76500 25.52300
C  5.12600 43.68500 26.18100
C  4.82600 43.40400 27.50600
C  3.42400 43.31600 27.60600
C  6.51300 43.78900 25.58800
C  5.43900 43.16400 28.78000
O  6.62300 43.10900 29.10800
C  4.20000 43.04100 29.73000
C  4.29500 41.77100 30.58500
O  4.06200 40.67000 30.10300
O  4.59000 42.09900 31.85800
C  4.52100 41.07200 32.83800
H  -2.60600 42.17600 28.75300
H  -1.80700 43.79400 22.50200
H  4.43900 44.05300 23.38300
H  1.47100 41.90500 31.18300
H  -1.19200 42.90100 30.82000
H  -1.09900 40.28000 29.50700
H  -1.37700 40.45900 31.26800
H  0.17300 40.28400 30.71500
H  0.20500 44.58800 31.37700
H  1.77000 44.74700 30.97300
H  1.65800 44.85100 33.36900
H  2.69900 43.67900 32.81100
H  -5.76300 42.77200 26.76700
H  -4.69800 42.72700 28.22900
H  -4.72700 41.40300 27.22600
H  -6.23000 42.44400 24.38900
H  -6.44800 43.85200 23.36400
H  -6.01300 44.18700 25.07100
H  0.15800 44.63400 21.24700
H  2.83900 43.61100 21.43100
H  0.45100 41.63900 21.72000
H  1.45300 42.28000 20.34000
H  -0.28000 42.38700 20.34200
H  2.54000 45.82600 20.59000
H  3.46800 45.99500 22.12200
H  1.20400 47.30200 21.22700
H  1.99100 47.54100 22.79400
H  0.69200 46.35700 22.61900
H  7.01300 44.72400 25.84100
H  6.38500 43.71700 24.50800
H  7.11600 42.94400 25.92000
H  4.30200 43.93000 30.35300
H  3.92800 41.50900 33.64100
H  5.52900 40.89200 33.21300
H  4.07300 40.14900 32.46900
Mg -1.98400 35.09900 26.97700
C  -3.41200 33.09000 29.34700
C  -0.29600 36.94300 29.26300
C  -0.69900 37.00800 24.38700
C  -3.98900 33.45900 24.52600
N  -1.83200 34.97500 29.07100
C  -2.53300 34.08100 29.86100
C  -2.26600 34.43300 31.35000
C  -1.33800 35.71500 31.31400
C  -1.20300 35.91800 29.77000
C  -1.83700 37.01000 32.07400
C  -1.63800 33.20100 32.03100
C  -2.28400 32.73900 33.33600
H  -1.37500 32.37900 34.54700
N  -0.66100 36.67100 26.86600
C  0.02700 37.21600 27.88500
C  0.91300 38.20500 27.44400
C  0.78000 38.27800 26.01300
C  -0.23900 37.32600 25.69500
C  1.73600 39.02400 28.45200
C  1.39700 39.29800 25.01100
O  1.21000 39.15000 23.84000
C  2.20900 40.33700 25.52500
N  -2.48900 35.34300 24.83700
C  -1.74500 36.19000 23.94800
C  -2.04800 35.90400 22.38100
C  -3.06900 34.73200 22.55900
C  -3.19700 34.52300 24.05700
C  -2.56900 37.07600 21.55400
C  -2.65100 33.36600 21.83900
C  -2.09200 32.19900 22.69300
N  -3.36200 33.55800 26.84300
C  -4.18700 33.08900 25.86300
C  -5.01500 32.05500 26.41400
C  -4.76800 32.04800 27.76100
C  -3.77200 33.00600 27.95400
C  -5.88500 31.23100 25.63800
C  -5.16500 31.31600 28.98500
O  -6.02400 30.43700 29.15200
C  -4.27400 31.98300 30.13100
C  -5.21300 32.68400 30.99600
O  -5.79800 33.73400 30.74100
O  -5.18800 31.99200 32.23000
C  -6.06900 32.53500 33.30600
H  0.11000 37.51900 30.09700
H  -0.32800 37.54400 23.51200
H  -4.52600 32.89900 23.75700
H  -3.16900 34.75700 31.86600
H  -0.40200 35.41400 31.78600
H  -2.82400 36.89700 32.52100
H  -1.82900 37.83000 31.35600
H  -1.16300 37.14600 32.92000
H  -0.60400 33.37600 32.32900
H  -1.74200 32.27800 31.46100
H  -2.73700 31.76900 33.12700
H  -2.98900 33.46800 33.73600
H  2.77000 39.09600 28.11400
H  1.75200 38.60300 29.45800
H  1.29000 40.01600 28.38800
H  2.40000 41.10800 24.77900
H  3.09000 39.99700 26.07000
H  1.70800 40.86500 26.33600
H  -1.11100 35.53400 21.96500
H  -3.99800 34.99400 22.05300
H  -2.20900 36.98100 20.52900
H  -2.31500 38.02200 22.03200
H  -3.65700 37.02400 21.50300
H  -1.96900 33.58700 21.01800
H  -3.46200 32.95900 21.23600
H  -1.73900 32.54900 23.66300
H  -1.24400 31.67300 22.25400
H  -2.90700 31.48200 22.78400
H  -5.62400 31.35500 24.58700
H  -6.91300 31.53600 25.83200
H  -5.71400 30.19200 25.91900
H  -3.60400 31.23700 30.55800
H  -5.72100 33.50300 33.66600
H  -5.96800 31.92600 34.20500
H  -7.12000 32.57300 33.02200

