158

Mg 35.55600 48.90500 24.99100
C  36.08400 47.39000 28.11300
C  33.95900 51.45300 26.71300
C  34.67600 50.04000 22.06000
C  37.08200 46.12100 23.46900
N  34.88800 49.23400 27.16600
C  35.43500 48.58800 28.26800
C  35.04000 49.27300 29.61200
C  34.13100 50.37300 28.98700
C  34.30300 50.36800 27.50100
C  32.62400 50.24600 29.39400
C  36.27800 49.85100 30.41100
C  36.31700 49.16700 31.80600
H  35.02800 48.86900 32.56300
N  34.55100 50.57400 24.46700
C  34.13800 51.57800 25.26400
C  33.58300 52.67200 24.36900
C  33.60300 52.17900 23.09500
C  34.24300 50.83400 23.17100
C  33.10500 53.97900 24.88400
C  33.21900 52.85200 21.70300
O  33.24700 52.29500 20.57400
C  32.63100 54.19900 21.71000
N  35.86500 48.26400 23.02000
C  35.36800 48.89200 21.96800
C  35.80700 48.26500 20.59800
C  36.62100 47.03100 21.13000
C  36.53300 47.09400 22.63300
C  34.65300 47.92400 19.61300
C  38.13600 47.03900 20.67400
C  38.97700 48.16900 21.33800
N  36.34200 47.08300 25.60300
C  36.95300 46.03000 24.90800
C  37.34200 44.96400 25.78900
C  37.03000 45.44400 27.02500
C  36.47200 46.77000 26.84900
C  37.86900 43.63800 25.32100
C  37.06000 45.12100 28.45400
O  37.43400 44.10300 29.02800
C  36.56300 46.41100 29.20600
C  35.37200 45.91200 29.93600
O  34.24500 45.76500 29.49000
O  35.82400 45.28800 31.13600
C  34.91600 44.70100 32.10800
H  33.48200 52.25400 27.28200
H  34.38500 50.34400 21.05300
H  37.49400 45.21400 23.02200
H  34.40300 48.52300 30.08100
H  34.42900 51.35800 29.34600
H  32.56600 49.51200 30.19700
H  31.98400 49.86900 28.59700
H  32.15600 51.17400 29.72300
H  36.12600 50.93000 30.44400
H  37.16900 49.65600 29.81400
H  37.02400 49.83900 32.29100
H  36.91900 48.26600 31.68700
H  32.03500 53.87900 24.70200
H  33.54100 54.84800 24.39200
H  33.29300 54.10600 25.95000
H  32.00600 54.42100 22.57500
H  31.91000 54.24400 20.89400
H  33.44000 54.90700 21.53000
H  36.50300 48.99400 20.18400
H  36.26700 46.03100 20.88100
H  33.72900 48.45700 19.83500
H  34.40100 46.87000 19.73300
H  35.02600 47.99300 18.59100
H  38.05300 47.32100 19.62400
H  38.56200 46.05300 20.86000
H  39.56900 47.68300 22.11400
H  38.25300 48.90200 21.69400
H  39.54500 48.66200 20.54900
H  38.90800 43.52500 25.63300
H  37.89300 43.57700 24.23300
H  37.40200 42.82100 25.87100
H  37.39300 46.82600 29.77700
H  35.04200 43.61900 32.06000
H  33.89100 44.93000 31.81700
H  35.23700 45.08000 33.07800
Mg 6.54800 53.68600 41.68900
C  5.68200 50.37400 41.12300
C  9.56100 53.21500 40.19400
C  7.00500 56.96100 41.86000
C  3.13900 54.21000 42.69900
N  7.41200 52.00900 40.59400
C  6.96200 50.75000 40.62500
C  7.86600 49.84100 39.72700
C  9.18400 50.63700 39.98400
C  8.70500 52.11100 40.30500
C  10.16300 50.20500 41.03500
C  7.47800 49.59400 38.24300
C  6.48700 50.53200 37.66400
H  6.23600 50.52100 36.14100
N  8.09100 54.94600 41.19500
C  9.26900 54.55900 40.58400
C  10.16500 55.66700 40.60800
C  9.45000 56.77600 41.13600
C  8.08000 56.27600 41.45000
C  11.61300 55.50700 40.23300
C  10.00500 58.16700 41.34900
O  11.00600 58.62200 40.77800
C  9.24800 59.05600 42.36200
N  5.23700 55.41800 41.97900
C  5.75100 56.71600 42.15200
C  4.65700 57.67700 42.84000
C  3.44300 56.66600 43.07000
C  3.98100 55.34100 42.52300
C  5.10500 58.37700 44.16400
C  2.00200 56.97900 42.51600
C  1.65700 58.47600 42.31700
N  4.74700 52.53800 41.84800
C  3.51500 52.86500 42.39900
C  2.66100 51.61500 42.51200
C  3.54900 50.62600 42.00300
C  4.73600 51.21600 41.62500
C  1.32500 51.53800 43.16300
C  3.61100 49.16700 41.69200
O  2.80700 48.28700 41.85400
C  5.10800 48.97600 41.28600
C  4.97000 48.12000 40.04300
O  4.33500 48.34900 39.08500
O  5.48900 46.89400 40.30000
C  5.24400 45.79000 39.34900
H  10.57800 52.96400 39.88300
H  7.10500 58.04700 41.91500
H  2.19200 54.36300 43.22100
H  8.00700 48.89300 40.24500
H  9.77400 50.69100 39.06900
H  9.62400 49.48700 41.65300
H  10.43200 51.10500 41.58800
H  10.98300 49.67500 40.55000
H  7.09600 48.57500 38.29400
H  8.31500 49.72300 37.55600
H  6.85700 51.50700 37.98000
H  5.53500 50.51200 38.19400
H  11.71500 55.40600 39.15300
H  12.13900 54.74400 40.80600
H  12.13600 56.43400 40.46800
H  9.87600 59.88700 42.68500
H  8.88000 58.42400 43.17000
H  8.39200 59.51400 41.86700
H  4.47900 58.56000 42.22600
H  3.39800 56.46400 44.14000
H  5.03300 59.45800 44.04800
H  6.15700 58.11900 44.28400
H  4.57100 58.12200 45.08000
H  1.25800 56.51900 43.16700
H  1.80900 56.41300 41.60400
H  0.62300 58.68700 42.58700
H  1.91600 58.83500 41.32000
H  2.37800 59.07500 42.87400
H  0.62100 52.18900 42.64600
H  1.25500 51.68400 44.24100
H  0.90800 50.54200 43.01500
H  5.65900 48.43000 42.05200
H  5.55700 44.79200 39.65700
H  5.89300 46.08300 38.52400
H  4.24700 45.73800 38.91300

