158

Mg 47.69300 45.96600 43.59800
C  44.30600 46.06800 42.75700
C  47.95200 43.04500 41.87300
C  51.06700 46.19900 44.00800
C  47.51800 49.46500 44.29100
N  46.26500 44.64300 42.57000
C  44.97200 44.93600 42.31600
C  44.23800 43.85900 41.54700
C  45.40000 42.78400 41.38600
C  46.62200 43.52500 41.90000
C  45.10100 41.43600 42.07300
C  43.71400 44.34000 40.15100
C  42.38100 43.77900 39.69300
H  42.48100 42.82800 38.51100
N  49.27300 44.78800 42.94300
C  49.13900 43.52700 42.38200
C  50.40600 42.85300 42.21500
C  51.35600 43.76700 42.79100
C  50.62000 45.00700 43.25900
C  50.72700 41.57600 41.42400
C  52.87500 43.56300 42.80400
O  53.36300 42.58000 42.26400
C  53.80400 44.46200 43.55700
N  49.08400 47.66000 43.87700
C  50.37100 47.37600 44.25400
C  50.98500 48.56400 45.06400
C  49.99900 49.74200 44.63800
C  48.81800 48.91700 44.24600
C  50.88500 48.22200 46.56800
C  50.51400 50.63600 43.54100
C  49.73400 51.95500 43.37800
N  46.19700 47.49300 43.82100
C  46.27500 48.78700 44.08200
C  44.94200 49.36300 44.02900
C  44.11400 48.36200 43.56500
C  44.94700 47.23500 43.32900
C  44.53100 50.68400 44.53700
C  42.78500 47.96000 43.35200
O  41.70900 48.60200 43.41300
C  42.80800 46.42300 42.80400
C  41.97300 45.55300 43.64900
O  41.05400 44.79700 43.25500
O  42.47200 45.44900 44.91300
C  41.92000 44.35900 45.78800
H  47.98100 42.07300 41.37700
H  52.02400 46.00700 44.49700
H  47.47700 50.53900 44.48800
H  43.46900 43.48700 42.22400
H  45.70400 42.54500 40.36600
H  45.87000 40.87800 41.53900
H  44.15100 40.99100 41.77300
H  45.41700 41.40100 43.11600
H  44.51800 44.09300 39.45800
H  43.59100 45.42300 40.16500
H  41.69400 44.61100 39.54200
H  42.01600 43.19900 40.54100
H  50.73000 41.55200 40.33400
H  49.98600 40.89100 41.83600
H  51.70600 41.20000 41.71900
H  53.62100 44.50800 44.63100
H  53.81600 45.46700 43.13600
H  54.82600 44.10400 43.43700
H  52.00300 48.77000 44.73400
H  49.64400 50.38000 45.44800
H  51.86100 47.93600 46.95900
H  50.35600 47.28000 46.71800
H  50.34800 48.95400 47.17200
H  50.54300 50.22200 42.53300
H  51.49900 50.89500 43.93000
H  50.39800 52.79500 43.58400
H  48.87400 52.08300 44.03700
H  49.25300 51.92500 42.40000
H  44.61100 51.47800 43.79500
H  45.11000 50.85500 45.44500
H  43.46700 50.66000 44.77300
H  42.40000 46.46800 41.79400
H  41.58500 43.50900 45.19400
H  41.18900 44.76300 46.48800
H  42.78700 43.93400 46.29300
Mg 26.83400 50.86500 26.05600
C  24.89500 52.21700 28.73700
C  29.27800 50.15000 28.10500
C  28.41200 49.55100 23.41300
C  24.34400 52.26600 23.81600
N  27.04700 51.13700 28.21100
C  26.12500 51.67400 29.13500
C  26.64000 51.52900 30.57500
C  28.20100 51.13200 30.33400
C  28.20500 50.84700 28.78600
C  29.22000 52.11700 30.81500
C  25.78600 50.41800 31.31900
C  25.06700 50.79800 32.63900
H  25.89500 51.31600 33.83500
N  28.68200 49.98900 25.75700
C  29.47800 49.67600 26.79500
C  30.59900 48.86500 26.30300
C  30.25000 48.51300 24.98000
C  29.09200 49.40200 24.62600
C  31.69400 48.34700 27.19800
C  30.83500 47.35900 24.09100
O  30.45100 47.17500 22.92500
C  31.94400 46.50000 24.54100
N  26.57600 51.15200 23.87300
C  27.26100 50.24300 23.05800
C  26.69000 50.15000 21.63900
C  25.31400 50.96000 21.90300
C  25.42700 51.53400 23.26700
C  27.46800 50.64000 20.40300
C  24.00500 50.05100 21.65400
C  22.95800 50.69500 20.64900
N  24.98500 52.10000 26.22900
C  24.15800 52.52400 25.17900
C  22.96000 53.12000 25.71600
C  23.16000 52.96100 27.16500
C  24.43800 52.35500 27.36000
C  21.80700 53.71300 24.97000
C  22.65400 53.23000 28.53300
O  21.61000 53.77300 28.83400
C  23.70000 52.78600 29.56000
C  24.06200 54.01700 30.38700
O  24.77200 54.96600 29.96400
O  23.43800 53.87400 31.63200
C  23.68900 55.06400 32.52600
H  30.12300 49.79900 28.70100
H  28.70500 48.82800 22.64800
H  23.58200 52.59000 23.10500
H  26.55800 52.47600 31.10700
H  28.41100 50.14400 30.74200
H  29.68700 51.64200 31.67900
H  28.70800 53.01600 31.15600
H  30.01800 52.43600 30.14500
H  26.51600 49.66600 31.61800
H  25.04000 49.89500 30.72000
H  24.39300 50.01800 32.99500
H  24.43000 51.61500 32.30100
H  31.71900 48.73000 28.21800
H  32.68300 48.60000 26.81600
H  31.60400 47.26700 27.31600
H  32.62000 47.03200 25.21000
H  32.56400 46.22100 23.68900
H  31.57800 45.59600 25.02900
H  26.56400 49.07700 21.50000
H  25.41800 51.89900 21.36000
H  26.97800 51.47200 19.89700
H  27.47600 49.86100 19.64000
H  28.44300 51.01900 20.70800
H  23.65300 49.86300 22.66800
H  24.42100 49.18800 21.13500
H  23.35700 51.69200 20.46300
H  21.96100 50.80200 21.07500
H  22.85100 50.23200 19.66800
H  22.12200 54.65800 24.52800
H  21.04700 53.93700 25.71900
H  21.47600 53.12900 24.11200
H  23.24100 51.94500 30.08000
H  24.29500 55.87600 32.12400
H  24.24500 54.53700 33.30100
H  22.71200 55.40100 32.87300

