158

Mg 24.23900 -5.64300 45.45600
C  26.61300 -3.81700 43.84200
C  21.84200 -4.39400 43.36100
C  22.25400 -8.31000 46.32800
C  26.79600 -7.03800 47.45000
N  24.32100 -4.38400 43.79100
C  25.34300 -3.57200 43.39600
C  24.93700 -2.58300 42.34300
C  23.34200 -2.58200 42.43300
C  23.14800 -3.85100 43.25600
C  22.65300 -1.33300 43.04800
C  25.51800 -3.00100 40.96000
C  26.15900 -1.86600 40.14900
H  25.89300 -1.88700 38.63500
N  22.23400 -6.11200 45.12700
C  21.43900 -5.50900 44.16300
C  20.13400 -6.17200 44.16700
C  20.24200 -7.38100 44.95200
C  21.61700 -7.36100 45.48400
C  18.97100 -5.72800 43.23200
C  19.19400 -8.37000 45.24900
O  18.07600 -8.24800 44.64400
C  19.29900 -9.57300 46.16200
N  24.55200 -7.50100 46.55200
C  23.56700 -8.39800 46.81300
C  24.04900 -9.51700 47.74000
C  25.45100 -9.03000 48.12000
C  25.67000 -7.80200 47.36200
C  23.19900 -9.79600 48.98800
C  26.54000 -10.07400 47.93000
C  27.60400 -10.46300 49.08800
N  26.27500 -5.44400 45.70800
C  27.14900 -5.98800 46.53500
C  28.38600 -5.31500 46.42500
C  28.25800 -4.42000 45.35000
C  26.91900 -4.60000 44.93600
C  29.58200 -5.48200 47.31400
C  28.94600 -3.48600 44.53400
O  30.09000 -3.06500 44.52500
C  27.89000 -3.07000 43.48400
C  27.75600 -1.60800 43.63700
O  27.32200 -1.04900 44.64900
O  28.34300 -0.93800 42.59900
C  28.46600 0.51300 42.94800
H  21.10900 -3.82100 42.78800
H  21.72000 -9.20400 46.66000
H  27.41700 -7.29400 48.31100
H  25.32800 -1.58000 42.51600
H  22.94900 -2.70700 41.42400
H  22.14400 -1.62300 43.96800
H  22.00500 -0.83000 42.33000
H  23.44000 -0.58500 43.13600
H  24.69800 -3.41800 40.37600
H  26.20200 -3.84400 41.05700
H  27.22100 -1.97300 40.37100
H  25.78400 -0.90100 40.49000
H  19.21500 -4.68000 43.05900
H  17.92000 -5.79900 43.51200
H  19.05600 -6.15300 42.23100
H  18.33700 -10.06200 46.31200
H  19.53600 -9.18000 47.15100
H  20.10000 -10.20700 45.78400
H  24.12500 -10.44600 47.17500
H  25.31700 -8.54300 49.08600
H  22.82900 -10.80500 48.80300
H  22.35100 -9.14900 49.21100
H  23.76100 -9.91200 49.91500
H  27.12600 -9.88200 47.03200
H  26.09700 -11.04100 47.69200
H  27.86600 -9.60600 49.70800
H  28.52700 -10.93500 48.75100
H  27.08800 -11.18000 49.72700
H  29.78500 -4.60500 47.92900
H  30.44600 -5.61500 46.66300
H  29.48100 -6.37100 47.93800
H  28.14000 -3.18700 42.43000
H  29.38500 0.63500 43.52200
H  27.65900 0.97700 43.51500
H  28.44300 1.02400 41.98600
Mg 41.70000 40.97200 26.86000
C  41.03300 43.43100 29.36500
C  42.84400 39.01700 29.33600
C  42.66200 38.90400 24.39300
C  40.91600 43.45700 24.45400
N  41.95000 41.23500 29.13300
C  41.47100 42.25400 29.90700
C  41.43300 41.93200 31.44400
C  42.08000 40.47400 31.42300
C  42.38400 40.20800 29.88300
C  43.40400 40.22200 32.16300
C  40.00600 41.95000 32.08100
C  39.90300 42.80800 33.34800
H  38.95400 42.52600 34.50900
N  42.59800 39.17200 26.89400
C  43.00900 38.57400 27.99500
C  43.47400 37.24600 27.65300
C  43.43000 37.10300 26.23900
C  42.95400 38.42800 25.75900
C  43.78400 36.11200 28.70200
C  43.65700 35.94000 25.35000
O  43.44100 36.03100 24.12200
C  44.17700 34.63300 25.92200
N  41.81800 41.16900 24.82200
C  42.16500 40.13600 23.98400
C  41.97600 40.49000 22.50300
C  41.20000 41.81100 22.57300
C  41.33300 42.24300 24.05400
C  43.33000 40.75800 21.77600
C  39.73800 41.75000 22.08700
C  38.70700 41.04000 23.02200
N  41.05900 42.96900 26.73600
C  40.88700 43.88800 25.76200
C  40.49700 45.16500 26.30500
C  40.51400 44.98900 27.65800
C  40.91200 43.66400 27.93400
C  39.99900 46.29700 25.59100
C  40.27000 45.68200 28.95800
O  39.99800 46.81000 29.18000
C  40.59700 44.69900 30.03100
C  41.60000 45.27500 31.06600
O  42.78600 45.22100 31.09700
O  40.89800 45.80800 32.15500
C  41.81200 46.55600 33.05700
H  43.06500 38.27000 30.10200
H  42.87500 38.21000 23.57700
H  40.54500 44.06800 23.62800
H  42.13700 42.63300 31.89400
H  41.37600 39.73200 31.80100
H  44.20000 40.02200 31.44600
H  43.21900 39.46900 32.93000
H  43.77000 41.12700 32.64700
H  39.64200 40.94700 32.30700
H  39.29200 42.30800 31.34000
H  39.61700 43.84700 33.18200
H  40.92100 42.86100 33.73600
H  42.80500 35.68500 28.91900
H  44.08000 36.61100 29.62400
H  44.50100 35.33600 28.43200
H  45.24100 34.75400 26.12600
H  44.01700 33.99500 25.05200
H  43.57300 34.28100 26.75900
H  41.40500 39.70600 22.00500
H  41.59400 42.68700 22.05700
H  44.16300 40.63400 22.46800
H  43.41700 41.79800 21.46100
H  43.50200 40.00400 21.00800
H  39.64700 41.24000 21.12800
H  39.46900 42.80400 22.02500
H  39.04200 40.85000 24.04200
H  38.34600 40.06200 22.70400
H  37.81900 41.66300 22.91200
H  39.52200 45.91500 24.68900
H  40.74900 47.06400 25.40000
H  39.31000 46.73000 26.31600
H  39.71800 44.70200 30.67500
H  42.58100 47.09500 32.50400
H  42.39300 45.91800 33.72300
H  41.22900 47.30300 33.59700

