158

Mg 1.27600 6.95100 25.87600
C  1.87500 8.95600 28.69400
C  1.35400 4.25800 27.88300
C  1.47800 5.10100 23.13600
C  1.65300 9.94800 23.86300
N  1.62500 6.70600 27.94800
C  1.67100 7.66000 28.96900
C  1.44200 7.00400 30.36400
C  1.63100 5.49800 30.02800
C  1.44900 5.50700 28.54400
C  2.92300 4.81500 30.41800
C  0.01900 7.39600 30.86300
C  -0.18200 7.53300 32.40400
H  0.87700 6.79900 33.26000
N  1.16200 4.99000 25.56400
C  1.29400 4.02400 26.51700
C  1.22400 2.71600 25.88000
C  1.16400 3.00200 24.43100
C  1.20900 4.41100 24.32100
C  1.12200 1.46900 26.67300
C  1.06900 2.07100 23.30300
O  0.77900 2.38600 22.14200
C  1.25100 0.57300 23.59700
N  1.54100 7.44500 23.78700
C  1.52700 6.47300 22.87000
C  1.62600 7.10900 21.42300
C  1.40600 8.57700 21.71800
C  1.55800 8.65000 23.19700
C  3.03900 6.77500 20.90800
C  -0.04400 9.03800 21.34700
C  -0.03800 10.38000 20.38900
N  1.66500 9.09000 26.14300
C  1.78600 10.13400 25.24700
C  2.06300 11.30900 25.96900
C  2.09300 10.90100 27.31600
C  1.88500 9.53600 27.37400
C  2.27800 12.72700 25.44700
C  2.31200 11.40200 28.64900
O  2.71100 12.51200 29.03700
C  2.01300 10.24800 29.59300
C  3.12100 10.17000 30.64100
O  4.26400 9.88700 30.37300
O  2.64400 10.51200 31.87400
C  3.63300 10.50000 32.94300
H  1.17100 3.37800 28.50300
H  1.47200 4.47600 22.24100
H  1.68200 10.76600 23.14000
H  2.24200 7.45600 30.95000
H  0.86000 4.92600 30.54300
H  3.62400 5.57300 30.76900
H  3.46700 4.47400 29.53800
H  2.81300 4.09200 31.22700
H  -0.66500 6.64000 30.47800
H  -0.12000 8.34500 30.34500
H  -1.19200 7.19500 32.63700
H  -0.18300 8.59700 32.63900
H  0.10400 1.16800 26.92000
H  1.61700 1.53100 27.64200
H  1.68000 0.78800 26.03000
H  2.20800 0.51200 24.11500
H  1.30500 0.15000 22.59300
H  0.37300 0.21600 24.13500
H  0.87500 6.64500 20.78300
H  1.98800 9.26600 21.10500
H  3.67400 6.36200 21.69200
H  3.49800 7.64700 20.44400
H  3.07000 6.07600 20.07200
H  -0.52100 9.45400 22.23500
H  -0.64700 8.28300 20.84300
H  -0.13300 10.11600 19.33600
H  0.88400 10.95000 20.50400
H  -0.96300 10.88400 20.67200
H  1.34200 13.28400 25.40600
H  2.73800 12.71000 24.45900
H  2.86400 13.27500 26.18500
H  1.07700 10.51700 30.08200
H  3.61900 11.46800 33.44300
H  4.64700 10.43500 32.54700
H  3.35000 9.74600 33.67700
Mg 6.16200 54.76500 42.18600
C  5.70900 51.36500 41.52200
C  9.20900 54.40000 40.62100
C  6.46400 58.08200 42.16600
C  2.86100 54.88500 43.00400
N  7.29400 53.03200 41.07000
C  6.93500 51.78900 40.97800
C  7.94200 50.95400 40.27800
C  9.27900 51.89800 40.43200
C  8.57000 53.21400 40.71400
C  10.43300 51.53700 41.41300
C  7.62000 50.64500 38.69900
C  7.54500 51.78900 37.71100
H  6.30800 51.77500 36.75800
N  7.59900 56.03600 41.38600
C  8.80500 55.71700 40.93200
C  9.71500 56.93800 40.89200
C  8.93600 58.01700 41.36800
C  7.56400 57.42300 41.59800
C  11.16400 56.88100 40.45000
C  9.44200 59.45700 41.51800
O  10.61300 59.79800 41.06800
C  8.53500 60.54200 42.07600
N  4.77100 56.31700 42.34000
C  5.14500 57.65000 42.41200
C  4.07300 58.41600 43.11400
C  2.78200 57.51400 42.98000
C  3.46000 56.13300 42.74900
C  4.46000 58.66100 44.65900
C  1.88400 57.84600 41.79600
C  0.38900 58.24700 42.06700
N  4.59200 53.44800 42.48600
C  3.32400 53.62100 42.90100
C  2.57100 52.38400 43.01600
C  3.55300 51.37000 42.59900
C  4.70500 52.19600 42.16400
C  1.16000 52.26000 43.55100
C  3.87200 49.98100 42.44600
O  3.16300 48.99600 42.60100
C  5.26300 49.94700 41.75000
C  5.16600 49.18600 40.46400
O  4.40200 49.40200 39.52700
O  5.81300 48.01800 40.65700
C  5.65100 46.98600 39.60600
H  10.25000 54.24600 40.32900
H  6.56100 59.14500 42.39500
H  1.80800 54.93900 43.28900
H  8.02200 50.01400 40.82500
H  9.72000 51.90300 39.43500
H  10.39100 52.28200 42.20700
H  11.27300 51.87500 40.80600
H  10.47100 50.50400 41.75900
H  6.72000 50.03300 38.64700
H  8.29400 49.96200 38.18300
H  8.42100 51.57700 37.09800
H  7.60200 52.77400 38.17500
H  11.52200 55.92600 40.06500
H  11.77900 57.08900 41.32500
H  11.34500 57.75000 39.81800
H  7.57000 60.65200 41.58200
H  8.98100 61.53600 42.06200
H  8.31700 60.27300 43.10900
H  4.08500 59.41800 42.68500
H  2.17600 57.54300 43.88500
H  3.69200 58.18800 45.27100
H  4.57600 59.70100 44.96300
H  5.40900 58.14600 44.81000
H  1.88800 57.13200 40.97200
H  2.45600 58.66900 41.36800
H  0.30200 59.04500 42.80500
H  0.03300 57.35900 42.58900
H  -0.07600 58.44300 41.10100
H  0.61500 53.18000 43.33600
H  1.17300 52.04600 44.62000
H  0.65300 51.44700 43.03300
H  5.90700 49.41300 42.44800
H  6.08300 46.01000 39.82700
H  6.17400 47.33600 38.71700
H  4.61400 46.81600 39.31700

