158

Mg 0.42000 43.29600 25.08700
C  2.85900 42.74200 27.69500
C  -1.92300 42.35000 27.32600
C  -1.53700 42.97700 22.43200
C  3.19500 43.85800 22.85800
N  0.45600 42.70300 27.29200
C  1.53800 42.47100 28.08000
C  1.00800 42.15600 29.46600
C  -0.49000 41.90800 29.33700
C  -0.66600 42.37300 27.87700
C  -0.95400 40.38300 29.62100
C  1.24900 43.38400 30.34200
C  0.92800 43.30200 31.82900
H  0.32000 41.92900 32.39600
N  -1.52500 42.75900 24.93000
C  -2.38700 42.43400 25.96300
C  -3.67800 42.03800 25.42900
C  -3.58800 42.23900 24.00500
C  -2.15500 42.66300 23.70100
C  -4.84400 41.58900 26.18000
C  -4.63700 42.02900 22.95100
O  -4.35700 42.16900 21.76800
C  -5.99900 41.55800 23.31900
N  0.76900 43.30100 23.01600
C  -0.24900 43.41300 22.12200
C  0.17700 43.82800 20.73200
C  1.64800 44.14000 20.91900
C  1.91000 43.68300 22.34300
C  -0.22700 42.87400 19.61500
C  2.10000 45.54800 20.54800
C  2.19300 46.65000 21.62100
N  2.57900 43.39600 25.20300
C  3.52000 43.66300 24.21300
C  4.83300 43.66000 24.81900
C  4.65900 43.31300 26.17000
C  3.24700 43.11400 26.36400
C  6.12300 43.84000 24.06100
C  5.36100 43.06400 27.43100
O  6.58000 43.07700 27.72100
C  4.15600 42.78200 28.47500
C  4.44800 41.63400 29.41100
O  4.53200 40.44900 29.12000
O  4.48600 42.16100 30.67700
C  4.64400 41.23900 31.72000
H  -2.70600 42.16600 28.06500
H  -2.20100 42.89500 21.56900
H  4.06200 44.25800 22.32800
H  1.46700 41.25300 29.86700
H  -1.03000 42.68500 29.87700
H  -0.22600 39.87700 30.25400
H  -1.08300 39.89200 28.65600
H  -1.80400 40.37300 30.30400
H  0.82100 44.33000 30.00900
H  2.31000 43.63500 30.35300
H  0.21400 44.07000 32.12800
H  1.83500 43.59300 32.36100
H  -5.25900 40.68600 25.73200
H  -5.55700 42.40400 26.30300
H  -4.52700 41.34200 27.19300
H  -6.48400 42.23100 24.02600
H  -5.90000 40.52100 23.63900
H  -6.61600 41.53000 22.42100
H  -0.38700 44.74700 20.57200
H  2.19800 43.36900 20.38100
H  -0.31100 41.84900 19.97500
H  0.57900 42.92800 18.88200
H  -1.15100 43.17700 19.12200
H  1.42100 45.95100 19.79600
H  3.08100 45.32900 20.12700
H  1.37200 46.42000 22.30000
H  2.22300 47.70100 21.33300
H  3.09300 46.56800 22.23000
H  6.92900 43.27300 24.52500
H  6.36000 44.89300 24.21700
H  5.96600 43.57600 23.01500
H  4.17800 43.64100 29.14600
H  4.04600 41.60700 32.55400
H  5.69100 41.19500 32.02000
H  4.28700 40.23300 31.49600
Mg -5.45500 24.86400 25.57200
C  -3.75000 26.36300 28.20800
C  -6.93500 22.80000 27.86600
C  -6.92800 23.35200 23.01500
C  -3.66800 27.09300 23.37200
N  -5.33200 24.64600 27.84000
C  -4.67600 25.49800 28.69500
C  -5.23500 25.31900 30.14600
C  -5.95400 23.89500 30.01900
C  -6.12300 23.74600 28.47700
C  -5.12600 22.76700 30.63900
C  -5.96800 26.60100 30.54400
C  -5.43300 27.32300 31.79000
H  -5.06900 26.50200 32.99500
N  -6.73200 23.26300 25.47300
C  -7.16700 22.51600 26.51800
C  -7.97000 21.47000 25.97400
C  -7.99400 21.61200 24.57300
C  -7.15600 22.78500 24.27800
C  -8.65100 20.41500 26.90000
C  -8.75700 20.77500 23.58800
O  -8.54100 20.79900 22.39200
C  -9.80600 19.72500 23.99900
N  -5.22000 25.06600 23.48900
C  -6.03200 24.40100 22.61100
C  -5.87400 24.97700 21.19200
C  -4.84100 26.07400 21.31300
C  -4.59600 26.13000 22.83400
C  -5.47100 23.99100 20.07100
C  -5.29400 27.42500 20.81400
C  -5.51300 27.51000 19.30100
N  -3.91200 26.32000 25.63800
C  -3.27200 27.09300 24.72100
C  -2.20600 27.89700 25.30500
C  -2.39700 27.64000 26.66300
C  -3.48200 26.75900 26.83300
C  -1.29300 28.78100 24.58800
C  -1.87300 27.98900 27.94800
O  -0.88700 28.66800 28.28900
C  -2.89800 27.35300 29.01400
C  -2.21200 26.64600 30.13600
O  -1.85600 25.49900 30.16500
O  -2.01600 27.53300 31.15500
C  -1.19700 27.16800 32.30600
H  -7.48100 22.20000 28.59700
H  -7.42200 22.85900 22.17500
H  -3.03800 27.64000 22.66700
H  -4.34000 25.33700 30.76700
H  -6.94200 23.91300 30.47800
H  -4.65000 23.13800 31.54600
H  -4.41600 22.36700 29.91400
H  -5.81500 21.96600 30.90500
H  -7.03900 26.52900 30.73400
H  -5.87400 27.34100 29.75000
H  -6.25300 27.95800 32.12400
H  -4.74300 28.13100 31.54600
H  -9.71900 20.63500 26.89400
H  -8.41800 20.39600 27.96500
H  -8.49100 19.46600 26.38900
H  -9.52700 18.82100 24.53900
H  -10.20100 19.26900 23.09100
H  -10.62600 20.20200 24.53500
H  -6.88400 25.25700 20.89200
H  -3.88000 25.89300 20.83200
H  -6.09400 24.28100 19.22500
H  -5.70300 22.95700 20.32500
H  -4.39500 24.14700 19.99100
H  -4.47600 28.10600 21.04900
H  -6.14600 27.69700 21.43800
H  -5.52200 26.47800 18.94900
H  -4.72300 28.08900 18.82400
H  -6.46900 28.03400 19.28500
H  -1.84600 29.10000 23.70500
H  -0.38200 28.31900 24.20600
H  -1.04000 29.58000 25.28500
H  -3.49500 28.18600 29.38600
H  -0.21600 27.07200 31.84100
H  -1.46100 26.21300 32.76000
H  -1.17200 27.91300 33.10100

