158

Mg 35.31700 0.21800 29.12800
C  33.05700 1.43500 31.36400
C  37.88400 0.31200 31.37900
C  37.45300 -0.69300 26.66700
C  32.70800 0.53700 26.70800
N  35.45600 0.88300 31.13000
C  34.39800 1.24200 31.91100
C  34.84900 1.49500 33.39400
C  36.36100 1.18200 33.33300
C  36.58100 0.69300 31.83200
C  37.24600 2.35600 33.76000
C  34.02200 0.64200 34.42100
C  34.05200 0.85700 35.89300
H  35.00500 1.94100 36.46300
N  37.41700 -0.15300 29.09200
C  38.27800 -0.13200 30.12800
C  39.57800 -0.53500 29.65600
C  39.46500 -1.00100 28.33400
C  38.06900 -0.59600 27.94200
C  40.78800 -0.56600 30.58200
C  40.47200 -1.74200 27.48000
O  40.25700 -2.13600 26.35100
C  41.84000 -2.12000 27.97900
N  35.11500 -0.01100 26.96100
C  36.21600 -0.41800 26.19100
C  35.73400 -0.60100 24.70700
C  34.17700 -0.61500 24.95900
C  33.95200 0.11000 26.21700
C  36.19600 0.49800 23.83800
C  33.59500 -1.99500 25.03400
C  32.57000 -2.24200 23.89300
N  33.28500 0.89700 28.94400
C  32.36000 0.97400 27.92800
C  31.08700 1.50800 28.37600
C  31.27700 1.68200 29.74900
C  32.64000 1.22000 30.05800
C  29.76700 1.58500 27.63700
C  30.65400 2.02400 30.98400
O  29.50200 2.41000 31.18500
C  31.76800 1.86800 32.08000
C  31.79900 3.13500 32.89400
O  32.25800 4.23300 32.59100
O  31.26000 2.88800 34.17200
C  31.15500 4.06700 35.03600
H  38.77100 0.35200 32.01500
H  38.07800 -0.93800 25.80600
H  31.85800 0.48000 26.02500
H  34.67200 2.54800 33.61100
H  36.54600 0.35200 34.01400
H  37.74100 2.16200 34.71200
H  36.72300 3.30600 33.86900
H  37.98200 2.51100 32.97200
H  34.41100 -0.36600 34.27200
H  32.98500 0.67600 34.08500
H  34.20300 -0.05900 36.46500
H  33.08900 1.24500 36.22500
H  41.07800 -1.57400 30.87700
H  40.62800 0.06800 31.45400
H  41.60100 -0.06000 30.06100
H  42.47700 -1.29300 28.29200
H  42.32400 -2.66200 27.16700
H  41.63000 -2.80400 28.80100
H  36.10100 -1.52600 24.26300
H  33.64900 -0.05300 24.18800
H  36.57900 0.03800 22.92700
H  37.03500 1.03000 24.28700
H  35.32200 1.07000 23.52500
H  33.17800 -2.18400 26.02300
H  34.37300 -2.75800 24.99800
H  31.63800 -2.60000 24.33000
H  32.91800 -3.01400 23.20600
H  32.36900 -1.37000 23.27200
H  29.09200 0.79100 27.95600
H  30.04100 1.75300 26.59500
H  29.23800 2.51100 27.86000
H  31.57200 1.03700 32.75800
H  31.99100 4.08900 35.73400
H  30.18100 4.11500 35.52200
H  31.23300 5.02800 34.52700
Mg -9.51700 17.68900 42.24100
C  -6.16300 17.27100 42.55400
C  -9.11200 20.96800 41.45200
C  -12.85500 17.89300 41.40800
C  -9.85800 14.16400 42.20800
N  -7.81400 18.92300 42.07000
C  -6.52300 18.61200 42.36600
C  -5.59300 19.87100 42.27300
C  -6.64400 20.99600 42.29400
C  -7.95700 20.26800 41.91000
C  -6.73400 21.72400 43.70700
C  -4.70000 19.84400 40.94700
C  -5.03200 18.77000 39.91000
H  -4.62000 19.15300 38.52800
N  -10.78100 19.25000 41.57400
C  -10.39200 20.46100 41.20600
C  -11.55000 21.26600 40.82000
C  -12.68600 20.46600 40.91900
C  -12.12600 19.12100 41.29700
C  -11.41500 22.73500 40.40200
C  -14.11000 20.87000 40.76700
O  -14.42800 22.04100 40.52400
C  -15.38300 19.94700 40.93800
N  -11.10100 16.26200 41.84600
C  -12.39300 16.63100 41.74800
C  -13.35400 15.45900 41.72300
C  -12.36200 14.22500 41.84100
C  -10.95900 14.88200 41.98500
C  -14.36700 15.47600 42.87700
C  -12.33400 13.39100 40.46700
C  -12.83600 11.86900 40.51200
N  -8.28100 16.03400 42.40400
C  -8.55400 14.67000 42.45100
C  -7.30600 13.97600 42.67900
C  -6.33800 14.93300 42.85300
C  -7.01100 16.17000 42.64200
C  -7.09800 12.47000 42.74100
C  -4.94600 15.28400 43.04500
O  -3.96400 14.58000 43.12200
C  -4.79500 16.85000 42.99400
C  -4.43300 17.33100 44.35000
O  -3.43600 17.99300 44.54300
O  -5.41300 16.96900 45.25200
C  -5.08100 17.28600 46.71100
H  -9.08700 22.05900 41.42800
H  -13.86500 17.81900 41.00000
H  -10.00000 13.08400 42.27700
H  -4.81900 19.90600 43.04000
H  -6.58300 21.70400 41.46700
H  -5.91100 21.58700 44.40900
H  -7.68500 21.50100 44.19000
H  -6.60800 22.78000 43.46700
H  -3.68300 19.70800 41.31400
H  -4.90200 20.82000 40.50400
H  -6.08100 18.47300 39.90500
H  -4.51000 17.83800 40.12600
H  -10.75800 22.80200 39.53500
H  -11.12800 23.32800 41.27100
H  -12.34300 23.23800 40.12700
H  -15.45700 19.02300 40.36500
H  -16.21200 20.57300 40.60800
H  -15.50000 19.72700 41.99900
H  -14.02200 15.46200 40.86200
H  -12.70400 13.61500 42.67700
H  -14.52000 14.53200 43.39900
H  -15.31600 15.85600 42.49900
H  -14.00400 16.15000 43.65300
H  -11.31700 13.34700 40.07700
H  -12.89900 13.92900 39.70500
H  -13.13400 11.61300 41.52900
H  -12.00700 11.24300 40.18000
H  -13.71100 11.93600 39.86600
H  -7.37500 12.34700 43.78800
H  -6.08800 12.14200 42.49700
H  -7.72400 11.77700 42.17900
H  -4.05500 17.12700 42.24300
H  -5.96400 17.80000 47.09200
H  -4.26100 17.99600 46.81900
H  -4.91200 16.33600 47.21700

