158

Mg 44.09200 4.19300 46.93300
C  42.10200 7.08700 46.78000
C  41.33400 2.25400 46.95800
C  46.12300 1.71000 46.67500
C  46.98500 6.47100 46.85500
N  41.95800 4.73200 46.84700
C  41.35200 5.94900 46.79400
C  39.79900 5.79900 46.88300
C  39.63300 4.25100 46.99200
C  41.08300 3.68700 46.84400
C  38.99800 3.88000 48.31000
C  38.98200 6.48100 45.80800
C  39.53200 6.30300 44.33800
H  38.52200 6.03700 43.18400
N  43.75900 2.22100 46.77000
C  42.58900 1.58900 46.82900
C  42.76600 0.19300 46.62500
C  44.17000 -0.10900 46.55800
C  44.77800 1.27400 46.72000
C  41.66600 -0.79800 46.45100
C  44.79200 -1.45800 46.41700
O  44.04600 -2.41300 46.18900
C  46.31000 -1.78300 46.44100
N  46.32000 4.15200 46.57000
C  46.80200 2.90700 46.67500
C  48.39900 2.98000 46.73700
C  48.69400 4.54300 46.75000
C  47.30800 5.11700 46.71300
C  49.15400 2.08000 47.80000
C  49.46400 5.04300 45.49100
C  51.02800 4.86400 45.48900
N  44.52800 6.36300 46.71200
C  45.69400 7.07400 46.77000
C  45.42000 8.50600 46.81800
C  43.99300 8.55300 46.85600
C  43.49000 7.24200 46.76200
C  46.40700 9.57800 46.89500
C  42.83400 9.42500 46.83200
O  42.81600 10.64100 46.67300
C  41.55800 8.54100 46.82000
C  40.77400 8.83600 48.12500
O  40.92500 8.19500 49.16600
O  39.96900 9.91900 48.06300
C  39.09400 10.00300 49.24200
H  40.40700 1.68000 46.91500
H  46.82200 0.87000 46.67600
H  47.91700 6.99100 47.08800
H  39.43800 6.16900 47.84200
H  39.01100 3.81800 46.20900
H  38.30100 4.63600 48.67000
H  39.73200 3.61100 49.07000
H  38.53700 2.91400 48.10700
H  38.69700 7.50200 46.06200
H  38.07100 5.88500 45.76700
H  40.28400 5.52400 44.21500
H  40.02400 7.25300 44.13000
H  41.85800 -1.55500 45.69000
H  40.71500 -0.26500 46.45700
H  41.63500 -1.42300 47.34300
H  46.83100 -1.21000 45.67400
H  46.51100 -2.84200 46.27400
H  46.60600 -1.65200 47.48200
H  48.63600 2.47400 45.80100
H  49.32300 4.81900 47.59700
H  48.29800 1.77400 48.40200
H  49.85600 2.72000 48.33300
H  49.55600 1.18500 47.32500
H  49.19500 6.05600 45.19100
H  49.09600 4.37300 44.71400
H  51.34500 4.19500 44.68900
H  51.31700 4.45700 46.45800
H  51.52900 5.81300 45.29800
H  47.40100 9.19300 46.66800
H  46.51800 9.88200 47.93600
H  46.16500 10.43000 46.26000
H  40.97800 8.79500 45.93300
H  39.59000 10.63100 49.98200
H  38.69200 9.18500 49.84000
H  38.20100 10.46300 48.81700
Mg 1.18200 42.62500 25.49800
C  2.09700 42.56500 29.06200
C  -1.61300 40.85200 26.46900
C  0.77100 41.77500 22.26900
C  4.27700 43.85200 24.82900
N  0.31300 41.96100 27.57900
C  0.80000 42.02600 28.82800
C  -0.19200 41.51700 29.90600
C  -1.22600 40.83200 28.94700
C  -0.77200 41.14000 27.55800
C  -1.34900 39.23600 29.13000
C  -0.76900 42.71900 30.74300
C  -0.85300 42.51700 32.25800
H  -1.42500 41.19400 32.83500
N  -0.35000 41.72500 24.45200
C  -1.45300 41.05000 25.03100
C  -2.32800 40.59700 23.97600
C  -1.65700 40.89300 22.70000
C  -0.31700 41.49800 23.06000
C  -3.68900 39.95400 24.31100
C  -2.05300 40.63300 21.26300
O  -1.35700 40.85300 20.27900
C  -3.48700 40.17300 20.98700
N  2.36500 42.69000 23.83200
C  1.98800 42.30300 22.61100
C  3.13500 42.50700 21.63300
C  4.04800 43.56200 22.33400
C  3.49900 43.46900 23.72800
C  3.82100 41.11300 21.27600
C  3.92400 45.05000 21.87200
C  2.50200 45.58400 21.77800
N  2.81100 43.26000 26.65400
C  4.06800 43.74600 26.22200
C  4.88800 44.00800 27.34200
C  4.15000 43.54200 28.45100
C  2.92000 43.08200 28.01200
C  6.28600 44.60700 27.30400
C  4.15700 43.36000 29.94500
O  5.02500 43.67400 30.76700
C  2.82400 42.70400 30.31500
C  3.03800 41.52400 31.08500
O  3.74800 40.57300 30.72800
O  2.28600 41.56800 32.22000
C  2.21700 40.38200 33.04700
H  -2.51200 40.36700 26.85500
H  0.75400 41.53000 21.20500
H  5.26800 44.16100 24.48900
H  0.26100 40.77700 30.56500
H  -2.21100 41.28500 29.06200
H  -2.39300 39.05700 29.38900
H  -0.72000 38.85100 29.93200
H  -1.14700 38.70400 28.20000
H  -1.74600 43.01200 30.35700
H  -0.15700 43.61000 30.60300
H  -1.53700 43.25900 32.67100
H  0.14800 42.74100 32.62600
H  -3.80800 39.35800 25.21600
H  -3.80600 39.22600 23.50900
H  -4.52100 40.65700 24.27100
H  -4.27400 40.60700 21.60400
H  -3.60600 39.09300 21.07400
H  -3.74200 40.39100 19.94900
H  2.79200 42.95200 20.69900
H  5.07400 43.19600 22.28800
H  3.15000 40.27200 21.44700
H  4.68800 41.01400 21.92900
H  4.11400 41.05800 20.22700
H  4.20100 44.91100 20.82700
H  4.78900 45.56500 22.28900
H  2.40700 45.78900 20.71100
H  2.42800 46.48600 22.38600
H  1.67400 44.96500 22.12200
H  6.33800 45.64800 26.98300
H  7.01300 44.01700 26.74600
H  6.69400 44.59200 28.31500
H  2.30700 43.38000 30.99600
H  2.10600 39.43000 32.52900
H  1.43800 40.47000 33.80500
H  3.14800 40.25700 33.60000

