158

Mg 49.27100 46.18300 42.07000
C  45.87400 46.31200 41.17900
C  49.46800 42.98700 40.78500
C  52.52900 46.39500 42.37500
C  49.01400 49.56600 43.07600
N  47.79600 44.76600 41.11200
C  46.46300 45.08900 40.77300
C  45.79700 43.88400 40.08300
C  46.86100 42.72200 40.27900
C  48.13000 43.49700 40.78300
C  46.44400 41.49700 41.20800
C  45.54200 44.34700 38.58400
C  44.06700 44.13500 38.00200
H  44.01100 43.20900 36.81300
N  50.85100 44.86900 41.51300
C  50.71500 43.60000 41.08100
C  52.04600 43.00000 41.05000
C  53.00500 44.01800 41.51000
C  52.12300 45.13100 41.92800
C  52.34300 41.71400 40.34100
C  54.52900 43.85400 41.57400
O  55.07400 42.77800 41.35600
C  55.40600 45.02200 41.88200
N  50.60700 47.71900 42.73100
C  51.89600 47.62500 42.66700
C  52.66100 48.96200 42.89800
C  51.45300 49.95400 42.96900
C  50.27300 48.99800 43.03800
C  53.57600 48.99000 44.17800
C  51.36300 51.04700 41.84600
C  51.22400 52.46000 42.34600
N  47.74400 47.63800 42.26800
C  47.80700 48.89300 42.72900
C  46.49500 49.58000 42.57300
C  45.69000 48.55000 41.93100
C  46.48600 47.41800 41.81100
C  46.12800 50.92900 42.99700
C  44.42500 48.31100 41.27600
O  43.45300 49.00400 41.11000
C  44.42700 46.78200 40.93900
C  43.53100 46.05600 41.84900
O  43.83000 45.75400 42.97600
O  42.27500 45.72700 41.23200
C  41.18000 45.30300 42.14700
H  49.59400 41.91000 40.66300
H  53.56700 46.72700 42.30600
H  49.05800 50.64900 43.21300
H  44.88600 43.66200 40.63800
H  47.02200 42.37000 39.26000
H  47.05200 41.60500 42.10700
H  46.62500 40.56000 40.68100
H  45.38500 41.51100 41.46400
H  46.13700 43.72500 37.91500
H  45.83400 45.38800 38.44000
H  43.71000 45.15400 37.84700
H  43.42100 43.72200 38.77600
H  51.55600 41.47100 39.62700
H  52.35100 40.92100 41.08900
H  53.25500 41.76000 39.74600
H  56.43400 44.65800 41.87300
H  55.16200 45.33600 42.89700
H  55.46100 45.84700 41.17100
H  53.23000 49.16200 41.99000
H  51.40900 50.45900 43.93300
H  54.05800 49.96700 44.21200
H  54.41000 48.30700 44.01800
H  53.05100 48.81000 45.11600
H  50.56100 50.81700 41.14500
H  52.29800 50.93800 41.29700
H  50.24100 52.73400 41.96000
H  51.93700 53.15600 41.90400
H  51.16200 52.60700 43.42400
H  46.75800 51.19400 43.84500
H  45.05400 51.10600 43.05500
H  46.56300 51.54700 42.21100
H  44.17300 46.57100 39.90100
H  40.21500 45.77500 41.95800
H  41.55700 45.67400 43.10000
H  41.15600 44.21300 42.13600
Mg -12.02700 38.08300 42.20600
C  -9.82000 35.28700 41.49500
C  -9.62500 40.10200 40.67100
C  -14.37900 40.44200 42.11300
C  -14.29100 35.74200 43.42300
N  -9.98400 37.67600 41.08500
C  -9.34300 36.49700 40.91800
C  -7.95400 36.69500 40.19000
C  -7.77500 38.33700 40.28800
C  -9.22900 38.76300 40.67400
C  -6.63300 38.94000 41.14000
C  -7.94300 36.13300 38.72800
C  -6.82400 35.06000 38.57200
H  -5.66400 35.31400 37.50300
N  -11.94800 40.03800 41.53400
C  -10.90800 40.67200 40.95900
C  -11.27200 42.07600 40.85100
C  -12.67700 42.24400 41.18100
C  -13.06600 40.84300 41.70900
C  -10.33000 43.16500 40.38600
C  -13.46600 43.57200 41.18200
O  -12.88500 44.65900 41.06800
C  -14.97000 43.61000 41.57500
N  -14.04600 38.00900 42.51700
C  -14.81700 39.15000 42.46300
C  -16.26300 38.82100 42.93200
C  -16.28800 37.27100 43.13900
C  -14.75700 36.97900 42.98900
C  -16.80500 39.65400 44.10800
C  -17.32800 36.37900 42.31100
C  -16.75300 35.78300 40.97200
N  -12.06800 35.97800 42.47100
C  -13.00500 35.24600 43.12900
C  -12.56400 33.90500 43.27800
C  -11.32200 33.85800 42.60700
C  -11.07200 35.19400 42.17800
C  -13.38300 32.83400 43.79900
C  -10.24600 33.04500 42.15300
O  -10.06700 31.83800 42.24000
C  -9.24100 33.91200 41.38800
C  -7.86000 33.74200 42.01300
O  -7.17600 32.76300 41.81100
O  -7.44200 34.82200 42.78500
C  -6.25900 34.58900 43.52900
H  -8.82800 40.79700 40.40000
H  -15.12300 41.23100 42.24500
H  -15.10300 35.02800 43.58000
H  -7.22100 36.23000 40.84900
H  -7.47300 38.63500 39.28400
H  -6.98900 39.87700 41.57000
H  -5.83200 39.10500 40.42000
H  -6.41600 38.24500 41.95000
H  -7.88500 36.95700 38.01700
H  -8.92300 35.70400 38.51700
H  -7.24500 34.06800 38.41200
H  -6.24800 35.03200 39.49700
H  -10.12200 43.85100 41.20700
H  -10.86500 43.76400 39.64900
H  -9.38500 42.80300 39.98300
H  -15.32000 43.31200 42.56400
H  -15.45700 42.87000 40.94000
H  -15.31700 44.60000 41.27800
H  -16.89500 38.97900 42.05800
H  -16.48400 37.05900 44.19000
H  -17.13800 38.98400 44.90000
H  -17.61300 40.28100 43.72900
H  -16.04700 40.35000 44.46800
H  -18.15900 37.00000 41.97700
H  -17.78000 35.62000 42.94900
H  -16.96800 34.72100 40.84700
H  -15.66900 35.77100 40.86200
H  -17.18200 36.21300 40.06700
H  -14.39100 32.88400 43.38800
H  -13.29000 32.82400 44.88500
H  -13.01700 31.86100 43.47200
H  -9.12300 33.56900 40.36000
H  -5.96200 33.54500 43.62800
H  -6.31700 34.96000 44.55300
H  -5.37900 35.09300 43.12900

