158

Mg 48.02800 35.41700 27.65000
C  46.34200 33.54000 30.13300
C  48.42200 37.95400 29.69700
C  49.72400 36.90000 25.15100
C  47.29800 32.68800 25.38900
N  47.44300 35.68800 29.66900
C  46.94700 34.76500 30.57900
C  47.03900 35.37500 32.00000
C  47.24100 36.82100 31.72800
C  47.81900 36.85400 30.32100
C  45.98000 37.74100 32.03300
C  48.14500 34.67800 32.79900
C  47.91200 34.41500 34.24600
H  46.91600 35.26700 35.05500
N  48.80400 37.21700 27.39100
C  48.87100 38.15100 28.40500
C  49.53300 39.34300 27.92000
C  50.09000 38.99000 26.62700
C  49.46800 37.69300 26.28700
C  49.78800 40.51100 28.79300
C  51.10500 39.66300 25.66400
O  51.49600 39.14000 24.64000
C  51.71800 40.98900 26.03200
N  48.17900 34.98300 25.47100
C  49.06100 35.68200 24.77800
C  49.37200 35.06800 23.37300
C  48.56900 33.65100 23.46500
C  47.97600 33.80200 24.87000
C  49.06000 35.90200 22.08900
C  49.52600 32.44000 23.33200
C  49.18300 31.43100 22.15500
N  46.93700 33.58600 27.63500
C  46.73500 32.54100 26.66600
C  45.93300 31.50800 27.25700
C  45.77100 31.85700 28.57700
C  46.40500 33.12500 28.79700
C  45.52700 30.23300 26.59300
C  45.10400 31.50000 29.83800
O  44.40900 30.56100 30.09000
C  45.21900 32.74700 30.76300
C  45.50900 32.36200 32.15000
O  46.40600 31.58600 32.48700
O  44.52200 32.81100 32.92900
C  44.49100 32.33100 34.32500
H  48.72900 38.65300 30.47800
H  50.41800 37.20400 24.36400
H  47.20200 31.80700 24.75100
H  46.05600 35.19800 32.43800
H  48.11600 37.17100 32.27500
H  45.71200 37.70400 33.08900
H  45.13400 37.28200 31.52200
H  45.96400 38.71400 31.54300
H  49.10600 35.14100 32.57700
H  48.39100 33.77100 32.24700
H  48.85100 34.44100 34.79900
H  47.57800 33.37800 34.28000
H  50.78100 40.94400 28.66700
H  49.61000 40.37800 29.86000
H  49.27000 41.39800 28.42800
H  50.90900 41.71600 25.95200
H  52.48100 41.22600 25.29100
H  52.31100 40.90500 26.94200
H  50.44300 34.87000 23.31800
H  47.78600 33.59100 22.70900
H  48.23700 35.42600 21.55800
H  49.93700 35.87900 21.44300
H  48.76900 36.87300 22.49000
H  49.59000 31.89500 24.27300
H  50.52500 32.79500 23.08000
H  48.40900 31.82700 21.49800
H  48.78600 30.53800 22.63700
H  50.08600 31.10200 21.64200
H  44.74300 29.79400 27.21100
H  46.35800 29.54900 26.42700
H  44.95900 30.57800 25.72800
H  44.29100 33.28000 30.55700
H  44.02100 31.35700 34.45600
H  43.79500 32.93900 34.90300
H  45.38400 32.34600 34.95000
Mg 10.08400 47.36900 25.94800
C  8.21600 47.14200 28.76300
C  12.68900 48.86300 27.62100
C  11.85800 47.28600 23.10600
C  7.16600 46.56200 24.10300
N  10.35100 47.95100 27.99200
C  9.51700 47.66700 29.01800
C  10.12100 48.13000 30.34700
C  11.39500 48.96700 29.84900
C  11.48100 48.62200 28.36500
C  11.23300 50.49800 30.13300
C  10.50100 47.09100 31.42300
C  9.84100 47.14200 32.86600
H  9.93100 45.95100 33.75700
N  12.16100 47.97700 25.40500
C  13.03800 48.39700 26.32700
C  14.32800 48.56700 25.62900
C  14.12500 48.15000 24.26100
C  12.66200 47.78200 24.18700
C  15.55000 49.11100 26.37200
C  15.08900 47.95900 23.13800
O  14.70600 47.47100 22.07000
C  16.55400 48.24900 23.39800
N  9.58900 47.00900 23.82500
C  10.51900 46.93300 22.82400
C  9.90700 46.62700 21.43000
C  8.41300 46.50600 21.79200
C  8.34500 46.79900 23.32600
C  10.15800 47.62100 20.34200
C  7.75400 45.20200 21.34200
C  7.23200 45.19400 19.92200
N  8.09700 46.81800 26.30900
C  7.08200 46.53500 25.47400
C  5.89200 46.32900 26.20100
C  6.31000 46.47500 27.55200
C  7.65300 46.89900 27.52300
C  4.45000 46.26400 25.68300
C  5.85400 46.55000 28.92200
O  4.77200 46.34900 29.41800
C  7.11400 46.97700 29.83400
C  7.40700 45.77900 30.70400
O  8.08300 44.81200 30.39000
O  6.62700 45.79000 31.85100
C  6.69600 44.70500 32.77500
H  13.54100 49.17100 28.23100
H  12.37400 47.02800 22.17900
H  6.24200 46.42800 23.53800
H  9.52300 48.84500 30.91300
H  12.22500 48.46700 30.34900
H  10.67400 51.09300 29.41100
H  12.22700 50.91900 30.28100
H  10.78100 50.58400 31.12100
H  11.57300 47.12400 31.62100
H  10.33400 46.07100 31.07800
H  8.84900 47.59000 32.80300
H  10.51800 47.86300 33.32300
H  16.18900 48.23900 26.51300
H  15.29500 49.51300 27.35300
H  16.10400 49.88000 25.83500
H  16.75900 47.76900 24.35400
H  16.65900 49.28800 23.71100
H  17.23900 48.01100 22.58300
H  10.20100 45.69100 20.95600
H  8.00900 47.36700 21.25900
H  10.02900 48.64500 20.69400
H  9.42700 47.32000 19.59200
H  11.15900 47.34700 20.00900
H  6.95500 44.84600 21.99300
H  8.47300 44.38900 21.43300
H  7.96700 44.79900 19.22000
H  7.06300 46.20200 19.54200
H  6.30900 44.62000 19.99800
H  4.37200 45.55900 24.85500
H  4.17500 47.25900 25.33200
H  3.75800 45.99600 26.48200
H  6.99800 47.89700 30.40600
H  7.17400 45.19400 33.62400
H  7.26000 43.83500 32.44100
H  5.69200 44.47100 33.13100

