158

Mg 24.58800 -5.02500 45.80500
C  26.84500 -2.60800 44.45700
C  22.25700 -3.78100 43.64700
C  22.83000 -7.73300 46.32600
C  27.42900 -6.38600 47.49800
N  24.59600 -3.32400 44.15400
C  25.58600 -2.47700 43.87900
C  25.06100 -1.35900 42.96600
C  23.52300 -1.49900 43.23700
C  23.43500 -2.99100 43.63200
C  22.91800 -0.53300 44.25900
C  25.63800 -1.62500 41.55700
C  25.72300 -0.36500 40.57500
H  25.08000 -0.45800 39.27900
N  22.75400 -5.61000 45.26400
C  21.95300 -4.94200 44.38200
C  20.73200 -5.71000 44.20300
C  20.73000 -6.74000 45.11400
C  22.09900 -6.74900 45.70700
C  19.60500 -5.22800 43.29900
C  19.57200 -7.63900 45.40400
O  18.48500 -7.60200 44.87300
C  19.71200 -8.59200 46.66400
N  25.01400 -6.76800 46.90300
C  24.15400 -7.78700 46.84500
C  24.74000 -9.09800 47.42600
C  26.19800 -8.65500 47.75900
C  26.20400 -7.14500 47.44700
C  23.88500 -9.84100 48.43500
C  27.35200 -9.41000 47.06100
C  28.56700 -9.58500 47.93800
N  26.76900 -4.47000 46.11400
C  27.71600 -5.18000 46.84400
C  28.89500 -4.41800 46.84900
C  28.67600 -3.35900 45.93800
C  27.32800 -3.49400 45.45900
C  30.19300 -4.72800 47.52600
C  29.21000 -2.19800 45.30000
O  30.24200 -1.60700 45.54200
C  28.14200 -1.75200 44.20000
C  27.87300 -0.28200 44.51700
O  27.14400 0.05100 45.45600
O  28.42500 0.51300 43.56400
C  28.36300 1.99600 43.84600
H  21.44400 -3.30700 43.09300
H  22.33700 -8.67800 46.56000
H  28.30600 -6.91400 47.88000
H  25.49800 -0.40300 43.25700
H  22.93300 -1.46800 42.32100
H  22.86500 -0.96400 45.25900
H  21.88300 -0.31000 44.00000
H  23.60600 0.31300 44.27400
H  25.00200 -2.32200 41.01000
H  26.61900 -2.10000 41.55500
H  26.78600 -0.12300 40.55000
H  25.29400 0.49600 41.08800
H  19.38900 -5.78600 42.38800
H  19.56300 -4.14600 43.17500
H  18.65600 -5.38300 43.81200
H  20.22300 -8.15100 47.52000
H  20.16000 -9.51900 46.30500
H  18.75200 -9.02600 46.94000
H  24.84300 -9.80300 46.60000
H  26.25500 -8.79400 48.83800
H  23.13800 -9.10600 48.73400
H  24.42500 -10.09100 49.34800
H  23.43700 -10.73400 47.99700
H  27.73400 -8.89400 46.18000
H  26.98300 -10.38700 46.75100
H  28.54400 -9.21400 48.96300
H  29.44800 -9.09400 47.52700
H  28.86500 -10.62900 48.03900
H  30.66700 -5.53200 46.96300
H  29.84000 -5.18900 48.44900
H  30.79400 -3.84500 47.74000
H  28.59000 -1.84600 43.21100
H  28.41400 2.15500 44.92300
H  27.48600 2.50900 43.45000
H  29.14500 2.41700 43.21300
Mg 54.79800 23.31800 44.44200
C  52.50900 25.71800 42.99200
C  52.74100 20.78800 43.33000
C  57.29100 21.13300 44.74300
C  56.97200 26.01200 45.06900
N  52.81700 23.36900 43.26300
C  52.11800 24.39600 42.75800
C  50.77900 23.87300 42.11500
C  50.85600 22.33700 42.37900
C  52.24000 22.10500 43.05400
C  49.67000 21.81100 43.14700
C  50.59500 24.20500 40.58900
C  49.16500 24.57000 40.16700
H  48.72000 24.17600 38.77800
N  54.88800 21.23700 44.26500
C  53.93600 20.36100 43.83700
C  54.34600 18.99800 43.90800
C  55.72600 19.06300 44.16700
C  56.05000 20.51700 44.43900
C  53.36900 17.86100 43.80300
C  56.60700 17.82700 44.34800
O  56.18100 16.72600 44.09800
C  57.93900 17.91700 44.82600
N  56.86300 23.53900 44.82200
C  57.66100 22.47900 44.86600
C  59.16400 22.90100 45.01500
C  59.02500 24.38600 45.62200
C  57.58100 24.74800 45.10700
C  60.13600 22.00900 45.85700
C  60.15100 25.38200 45.21200
C  61.24900 25.65600 46.28700
N  54.73000 25.41200 44.23900
C  55.68200 26.32300 44.56300
C  55.06200 27.69400 44.36600
C  53.86900 27.46400 43.71700
C  53.73700 26.07400 43.60400
C  55.76200 29.08800 44.83400
C  52.70100 28.10800 43.18300
O  52.39400 29.25900 43.18300
C  51.82000 27.03000 42.59300
C  51.81500 27.40100 41.10500
O  52.71100 27.09700 40.39200
O  50.61400 27.96300 40.74900
C  50.41200 28.16700 39.33800
H  52.10600 19.98300 42.95700
H  58.08700 20.38800 44.79800
H  57.57500 26.86500 45.38700
H  50.04600 24.34700 42.76700
H  50.81500 21.88300 41.38900
H  49.12600 21.22000 42.41100
H  49.01300 22.59200 43.53100
H  50.10900 21.18100 43.92000
H  50.75400 23.27700 40.04000
H  51.22400 24.99400 40.17500
H  49.00100 25.64200 40.27700
H  48.56900 24.05300 40.92000
H  53.49000 17.19000 42.95300
H  52.33900 18.20600 43.89400
H  53.62300 17.25600 44.67400
H  58.53600 18.43000 44.07100
H  58.45200 16.98900 45.07700
H  57.81300 18.56700 45.69200
H  59.49100 22.99600 43.97900
H  59.01600 24.33600 46.71100
H  60.67200 21.40400 45.12600
H  59.62300 21.30600 46.51400
H  60.81600 22.54400 46.51900
H  59.71000 26.37500 45.12600
H  60.59800 24.93000 44.32600
H  62.23100 25.76800 45.82700
H  61.39400 24.87800 47.03600
H  61.05600 26.60300 46.79200
H  55.40600 29.88800 44.18400
H  56.81900 29.15400 44.57600
H  55.53100 29.24100 45.88800
H  50.87200 27.06300 43.12900
H  50.73900 29.17200 39.07000
H  49.35600 28.00700 39.12100
H  50.83900 27.32300 38.79600

