158

Mg 55.38600 23.49300 45.35000
C  52.94500 25.71800 44.49200
C  53.39300 20.94200 44.04200
C  58.04900 21.43000 45.14200
C  57.40400 26.10200 46.39700
N  53.29400 23.39700 44.49300
C  52.49800 24.42500 44.14200
C  51.26600 23.88600 43.37000
C  51.33000 22.33900 43.57500
C  52.81400 22.22700 44.08000
C  50.26700 21.67800 44.57100
C  51.22700 24.38300 41.88000
C  49.86000 24.84000 41.34600
H  49.30200 24.33600 39.99100
N  55.65200 21.45900 44.77300
C  54.69300 20.52900 44.29300
C  55.24500 19.26600 44.13600
C  56.59000 19.32400 44.42700
C  56.84300 20.76600 44.79900
C  54.35700 18.11600 43.74500
C  57.64600 18.20500 44.37100
O  57.32400 17.05100 44.14600
C  59.16100 18.37000 44.55000
N  57.48500 23.73600 45.57200
C  58.36300 22.71400 45.57000
C  59.68600 23.09600 46.09600
C  59.48100 24.53000 46.54800
C  58.02000 24.85300 46.19700
C  60.22300 22.09400 47.15500
C  60.37700 25.65700 45.89700
C  61.61700 26.10900 46.66300
N  55.14600 25.45000 45.61200
C  56.07600 26.42900 46.01100
C  55.45000 27.73600 46.01000
C  54.23100 27.48100 45.41600
C  54.10200 26.12700 45.16400
C  56.13500 29.04700 46.39500
C  52.98700 28.09300 45.00100
O  52.66700 29.23900 45.05100
C  52.13500 26.99500 44.41600
C  51.67100 27.55800 43.10300
O  52.34300 27.66300 42.08200
O  50.44000 28.12800 43.24200
C  49.90900 29.03300 42.24300
H  52.73800 20.13100 43.71600
H  58.96600 20.83800 45.09600
H  57.96200 26.90500 46.88300
H  50.46200 24.39000 43.90600
H  51.27700 21.91300 42.57300
H  50.83300 21.13400 45.32600
H  49.65800 21.03200 43.93900
H  49.60300 22.38200 45.07300
H  51.63400 23.52300 41.34800
H  52.05400 25.08300 41.76500
H  49.94900 25.92600 41.32000
H  49.22100 24.50600 42.16400
H  54.07800 18.29900 42.70700
H  53.41300 18.04100 44.28600
H  54.91600 17.18000 43.73500
H  59.39100 19.11800 43.79200
H  59.54400 17.37000 44.34600
H  59.31900 18.76700 45.55300
H  60.38600 22.96000 45.27200
H  59.53400 24.56400 47.63700
H  61.17300 21.68600 46.80900
H  59.51900 21.27700 47.31100
H  60.41200 22.65600 48.07000
H  59.84300 26.56100 45.60500
H  60.74100 25.14000 45.00800
H  61.59300 27.16500 46.93000
H  62.58500 25.78500 46.28200
H  61.60200 25.71100 47.67800
H  57.07000 29.14100 45.84400
H  56.37500 28.98500 47.45700
H  55.49900 29.91300 46.20900
H  51.15300 26.91700 44.88100
H  48.87600 29.29500 42.47400
H  49.94300 28.62100 41.23500
H  50.42100 29.99400 42.27200
Mg -12.02600 37.97400 42.37500
C  -9.46600 35.61000 41.76300
C  -10.32600 40.18000 40.58100
C  -14.78800 39.88400 42.21200
C  -13.77700 35.40100 43.92400
N  -10.16200 37.79000 41.26100
C  -9.29500 36.75900 41.09100
C  -8.21400 37.07600 40.05700
C  -8.33300 38.64900 39.94600
C  -9.68900 38.90700 40.63600
C  -7.19600 39.56400 40.59600
C  -8.26000 36.21800 38.76600
C  -6.85600 35.54100 38.46600
H  -5.99000 36.30400 37.47300
N  -12.44800 39.81300 41.61100
C  -11.59700 40.60900 41.03000
C  -12.08800 41.94700 40.97300
C  -13.38000 41.86300 41.43800
C  -13.64500 40.48500 41.73200
C  -11.27800 43.18700 40.58900
C  -14.26700 43.09800 41.75300
O  -13.72100 44.18600 41.59200
C  -15.78800 43.03900 42.11700
N  -14.01700 37.74000 42.93400
C  -14.97000 38.66300 42.82000
C  -16.27200 38.24300 43.38500
C  -15.98000 36.79200 43.97600
C  -14.48300 36.63600 43.61100
C  -16.90600 39.05900 44.51300
C  -16.92100 35.70000 43.45100
C  -17.34700 34.63900 44.46300
N  -11.65800 35.96400 42.96600
C  -12.47500 35.00300 43.54900
C  -11.73200 33.73000 43.76000
C  -10.50400 33.98400 43.06300
C  -10.59400 35.26100 42.53300
C  -12.08400 32.60000 44.65100
C  -9.30000 33.33100 42.69000
O  -8.98400 32.18000 42.89400
C  -8.54100 34.42900 41.80500
C  -7.27600 34.68700 42.60300
O  -6.42500 33.78600 42.71400
O  -7.06800 35.99300 43.00400
C  -5.66100 36.20100 43.49200
H  -9.71900 40.85000 39.96900
H  -15.72000 40.45200 42.24700
H  -14.34900 34.62300 44.43200
H  -7.30300 36.85100 40.61200
H  -8.42000 39.03900 38.93200
H  -6.88500 40.31400 39.86800
H  -6.31000 38.96900 40.81400
H  -7.48100 39.94800 41.57500
H  -8.59200 36.77800 37.89200
H  -9.02100 35.46600 38.97400
H  -7.06000 34.58700 37.98000
H  -6.26400 35.33600 39.35800
H  -11.23500 43.84700 41.45500
H  -11.81700 43.74000 39.81900
H  -10.22500 42.99000 40.39000
H  -16.27700 42.59000 41.25200
H  -16.15800 44.05000 42.28700
H  -16.01700 42.54100 43.06000
H  -16.87500 38.19400 42.47800
H  -15.84300 36.77500 45.05700
H  -17.65800 39.63200 43.97200
H  -16.21900 39.73300 45.02600
H  -17.40300 38.49700 45.30400
H  -16.42700 35.17200 42.63500
H  -17.83600 36.19100 43.11700
H  -17.34900 33.64700 44.00900
H  -18.38700 34.92300 44.62200
H  -16.68300 34.68400 45.32600
H  -13.03700 32.84200 45.12100
H  -11.32500 32.42700 45.41300
H  -12.30800 31.71400 44.05700
H  -8.28800 33.84000 40.92300
H  -5.13900 36.30600 42.54100
H  -5.22100 35.48100 44.18200
H  -5.71000 37.17800 43.97400

