158

Mg 30.35100 57.59300 41.16400
C  27.34200 55.89800 40.21200
C  32.07200 54.81900 40.16800
C  32.95500 59.53100 41.42600
C  28.23500 60.50700 41.64100
N  29.74200 55.57800 40.27800
C  28.48500 55.16200 39.92500
C  28.58800 53.95100 39.15200
C  30.01600 53.35500 39.46900
C  30.68100 54.61000 40.08200
C  30.07500 52.21200 40.53200
C  28.26300 54.18700 37.61700
C  27.00800 53.50200 36.96400
H  26.47700 54.22200 35.65700
N  32.29000 57.24500 40.84200
C  32.83700 56.02300 40.45900
C  34.24400 56.16400 40.60900
C  34.52400 57.49700 41.14600
C  33.25600 58.13800 41.20100
C  35.33200 55.18500 40.06100
C  35.89700 58.04900 41.51000
O  36.87400 57.37800 41.30900
C  36.16100 59.40400 42.09400
N  30.53000 59.77000 41.54500
C  31.79500 60.27200 41.57300
C  31.76700 61.87300 41.60500
C  30.20500 62.16500 41.80600
C  29.62800 60.75000 41.66400
C  32.78100 62.58300 42.61500
C  29.50800 63.23000 40.87000
C  28.81600 64.43600 41.56100
N  28.24600 58.09300 41.15500
C  27.57000 59.26300 41.42200
C  26.12600 59.06700 41.48700
C  26.00200 57.72300 40.99000
C  27.33300 57.23700 40.78300
C  25.07200 60.09400 41.90000
C  25.04200 56.62400 40.60200
O  23.82900 56.55400 40.65400
C  25.82500 55.49500 39.98000
C  25.49100 54.16000 40.54600
O  25.96400 53.78400 41.64900
O  24.43800 53.49300 39.91300
C  24.21000 52.15800 40.44900
H  32.72500 53.96100 39.99200
H  33.79900 60.22200 41.47500
H  27.70700 61.43400 41.87500
H  27.90700 53.15000 39.43900
H  30.66500 53.00600 38.66600
H  30.94300 51.56600 40.40500
H  29.21200 51.55200 40.43700
H  30.16600 52.61100 41.54200
H  29.12900 53.71900 37.14700
H  28.31100 55.27400 37.56300
H  26.24900 53.50900 37.74600
H  27.28900 52.46600 36.77700
H  34.88500 54.45000 39.39300
H  35.95900 54.64300 40.76900
H  36.05300 55.71800 39.44100
H  35.41000 59.63000 42.85100
H  36.10100 60.18000 41.33100
H  37.17200 59.52700 42.48000
H  32.07100 62.13800 40.59300
H  29.99700 62.42100 42.84500
H  32.57000 62.36000 43.66100
H  32.65900 63.66600 42.59300
H  33.78100 62.23400 42.35700
H  28.77900 62.69000 40.26500
H  30.32100 63.61600 40.25600
H  27.74700 64.23000 41.50400
H  28.95500 65.39400 41.06000
H  29.12700 64.53200 42.60200
H  24.53000 60.51700 41.05400
H  25.55900 60.99200 42.28000
H  24.37200 59.63700 42.60000
H  25.67100 55.34800 38.91100
H  23.14000 52.11800 40.24600
H  24.23000 52.02000 41.53000
H  24.71900 51.40600 39.84700
Mg 16.64600 52.16000 26.39200
C  18.52300 50.78100 28.91600
C  14.23000 53.07400 28.88100
C  14.65300 53.47500 23.94900
C  18.76400 50.66300 24.05300
N  16.40100 51.92700 28.61300
C  17.35700 51.29500 29.39100
C  17.10200 51.57800 30.87400
C  15.55700 52.07100 30.87800
C  15.44300 52.49500 29.37600
C  14.52400 51.09700 31.44800
C  17.96400 52.68300 31.44700
C  18.10400 52.68900 33.00500
H  17.25800 51.75600 33.86800
N  14.62000 53.19100 26.41600
C  13.88200 53.48000 27.53200
C  12.77700 54.30900 27.11600
C  12.93900 54.45500 25.65800
C  14.12000 53.72600 25.26000
C  11.64500 54.71400 28.09900
C  11.99800 55.15800 24.58100
O  12.34800 55.35900 23.41500
C  10.58700 55.57900 25.02100
N  16.68600 52.02900 24.28300
C  15.81600 52.72200 23.54100
C  16.13700 52.52700 22.04800
C  17.46500 51.71700 22.10400
C  17.71400 51.47100 23.56200
C  15.00200 52.04900 21.11500
C  18.71400 52.43300 21.40600
C  19.35900 51.65800 20.22400
N  18.29300 51.06700 26.42500
C  19.10300 50.46100 25.42700
C  20.15100 49.61500 26.03100
C  20.00900 49.79900 27.42300
C  18.89100 50.73900 27.58300
C  21.15500 48.82000 25.33300
C  20.55600 49.51500 28.74200
O  21.50600 48.87100 29.01600
C  19.57000 50.01000 29.71300
C  18.97600 48.89700 30.48000
O  18.06800 48.25500 30.02600
O  19.53500 48.80900 31.70100
C  18.90500 47.79800 32.58100
H  13.56900 53.42400 29.67600
H  14.18900 53.88600 23.05100
H  19.38300 50.15400 23.31100
H  17.19000 50.69400 31.50500
H  15.39100 52.98400 31.44900
H  15.06400 50.25400 31.88000
H  13.84400 50.79500 30.65100
H  13.96500 51.59100 32.24200
H  17.63200 53.66300 31.10400
H  18.99900 52.48300 31.17000
H  18.08200 53.73400 33.31300
H  19.07900 52.22500 33.15600
H  11.40900 55.77400 28.00300
H  11.91300 54.58400 29.14700
H  10.72600 54.17900 27.86100
H  9.87600 55.26100 24.25900
H  10.54100 56.65000 25.22000
H  10.38500 54.99200 25.91600
H  16.29900 53.56200 21.74900
H  17.31100 50.70900 21.72000
H  15.22800 51.13800 20.56100
H  14.67800 52.83300 20.43100
H  14.16500 51.72200 21.73200
H  19.38100 52.59400 22.25300
H  18.52300 53.46600 21.11500
H  19.18600 52.16600 19.27600
H  18.96900 50.64500 20.12800
H  20.43400 51.59500 20.39200
H  21.84900 49.43100 24.75600
H  20.54700 48.26000 24.62300
H  21.81200 48.17900 25.92100
H  20.07200 50.60700 30.47400
H  18.92500 46.86600 32.01600
H  17.90000 48.01700 32.93900
H  19.55700 47.53600 33.41400

