158

Mg 1.74600 -2.84000 44.17700
C  5.06500 -1.83200 43.42400
C  0.67700 -0.42100 42.11300
C  -1.27600 -4.15700 44.58200
C  3.17600 -5.69500 45.76900
N  2.85300 -1.40700 42.77900
C  4.15500 -1.13800 42.63800
C  4.42200 0.00600 41.65400
C  3.02400 0.71400 41.72500
C  2.09500 -0.40800 42.23500
C  2.99900 1.98300 42.64800
C  4.76300 -0.52800 40.23000
C  6.04500 0.02300 39.56900
H  5.71500 0.83700 38.28800
N  -0.12600 -2.37700 43.51800
C  -0.37100 -1.29900 42.64000
C  -1.78800 -1.09000 42.45500
C  -2.36000 -2.20800 43.13400
C  -1.22800 -2.96200 43.84400
C  -2.42900 0.06900 41.68400
C  -3.84900 -2.54800 42.99500
O  -4.57600 -1.75400 42.39000
C  -4.41100 -3.73200 43.72700
N  1.03800 -4.62000 45.12900
C  -0.31600 -4.92800 45.18300
C  -0.55000 -6.29200 45.86400
C  0.87400 -6.77200 46.18300
C  1.79200 -5.68000 45.62800
C  -1.50200 -6.16800 47.06700
C  1.27000 -8.16000 45.55500
C  0.90600 -9.34800 46.45600
N  3.62500 -3.56400 44.71200
C  4.07100 -4.74700 45.35500
C  5.56600 -4.79200 45.36000
C  5.94300 -3.62700 44.67400
C  4.75600 -2.92000 44.31200
C  6.47200 -5.82100 45.94000
C  7.11900 -2.92400 44.22000
O  8.30200 -3.08500 44.45500
C  6.57400 -1.76700 43.28600
C  7.11400 -0.44500 43.77900
O  7.64500 0.41100 43.14500
O  6.90500 -0.44900 45.15300
C  7.46400 0.78500 45.80500
H  0.29000 0.40000 41.50600
H  -2.26200 -4.59700 44.73900
H  3.74800 -6.52900 46.18000
H  5.30300 0.54400 42.00400
H  2.74400 0.99000 40.70800
H  4.00700 2.04000 43.05900
H  2.25300 1.78600 43.41800
H  2.77800 2.82500 41.99300
H  3.97400 -0.28500 39.51700
H  4.74900 -1.60800 40.37200
H  6.59500 -0.83500 39.18300
H  6.75100 0.45700 40.27700
H  -2.21400 -0.07700 40.62500
H  -1.85200 0.94900 41.96700
H  -3.47900 0.28300 41.87900
H  -4.20100 -3.58100 44.78600
H  -3.88000 -4.65700 43.50100
H  -5.49800 -3.78000 43.66000
H  -0.98600 -7.01700 45.17600
H  0.98400 -6.87900 47.26200
H  -2.11300 -5.27500 46.93500
H  -0.92900 -6.14400 47.99500
H  -2.07900 -7.08900 46.98700
H  2.34500 -8.28400 45.43000
H  0.78700 -8.22800 44.58000
H  1.82700 -9.91100 46.60200
H  0.18400 -9.97500 45.93200
H  0.46100 -8.94000 47.36400
H  5.95100 -6.52100 46.59300
H  7.31000 -5.36400 46.46500
H  6.85000 -6.39900 45.09600
H  6.90100 -1.89600 42.25400
H  7.85800 0.44800 46.76400
H  6.74200 1.54800 46.09400
H  8.20400 1.31400 45.20500
Mg 10.25200 47.31000 25.85700
C  8.25100 47.50700 28.57500
C  12.81300 48.75500 27.88900
C  12.23900 47.69500 23.16700
C  7.49000 46.98100 23.80000
N  10.51200 48.06300 28.08500
C  9.54500 47.94400 29.00500
C  10.05800 48.27500 30.41700
C  11.34800 49.16100 30.05100
C  11.64900 48.44100 28.66600
C  11.09000 50.70400 30.10200
C  10.45600 46.97500 31.19500
C  10.03200 47.04000 32.64700
H  10.48000 45.96200 33.67700
N  12.31300 47.85400 25.59300
C  13.22400 48.31500 26.56200
C  14.52300 48.60500 25.94400
C  14.40200 48.14100 24.57000
C  12.95800 47.87700 24.36900
C  15.79700 49.10100 26.70800
C  15.46900 47.89900 23.49700
O  15.19600 47.49700 22.38600
C  16.94000 48.28700 23.73100
N  9.93500 47.49600 23.80400
C  10.88800 47.57200 22.91300
C  10.41800 47.29800 21.44500
C  8.89300 47.14800 21.64300
C  8.75800 47.11900 23.18200
C  10.73700 48.40100 20.43400
C  8.23800 45.93000 20.84800
C  7.07500 46.33600 19.93000
N  8.31500 47.19800 26.12100
C  7.24600 47.07500 25.19900
C  6.08300 46.78300 25.95700
C  6.39600 47.02700 27.28600
C  7.78300 47.27000 27.29500
C  4.81400 46.42100 25.37400
C  5.86700 46.96700 28.57900
O  4.72100 46.84800 28.89600
C  6.98900 47.29400 29.51400
C  7.14700 46.17900 30.49300
O  7.82700 45.19200 30.30300
O  6.18600 46.38900 31.45000
C  6.12900 45.30900 32.46300
H  13.61100 49.35500 28.33200
H  12.90000 47.66200 22.29800
H  6.59400 46.87400 23.18500
H  9.35900 48.82400 31.04700
H  12.24900 49.05600 30.65500
H  10.08800 51.03600 30.37300
H  11.42300 51.10400 29.14400
H  11.74600 51.17400 30.83400
H  11.53500 46.84100 31.27100
H  10.10000 46.14700 30.58200
H  8.97100 46.79100 32.64300
H  10.16700 48.01100 33.12300
H  15.68100 49.31900 27.77000
H  16.07300 50.06500 26.28000
H  16.51100 48.27900 26.65800
H  17.23700 47.65900 24.57100
H  17.02000 49.36300 23.88600
H  17.56800 48.09900 22.86000
H  10.94100 46.43100 21.04100
H  8.36700 48.02700 21.26900
H  10.48300 49.38300 20.83500
H  10.12300 48.14200 19.57200
H  11.80800 48.31700 20.25000
H  7.89500 45.23700 21.61600
H  9.00700 45.50600 20.20300
H  6.23800 45.68000 20.17000
H  7.29000 46.19800 18.87000
H  6.85700 47.40500 19.93400
H  4.20200 47.32200 25.36500
H  4.23100 45.87400 26.11500
H  4.79600 46.03300 24.35600
H  6.72900 48.21700 30.03100
H  5.88800 44.39100 31.92800
H  5.27900 45.57100 33.09400
H  7.01400 45.20700 33.09100

