158

Mg 23.90000 -5.58400 45.66500
C  26.49300 -3.57100 44.42100
C  21.67100 -3.89400 43.60500
C  21.83800 -8.25800 45.86600
C  26.43700 -7.50000 47.35500
N  24.09300 -3.88000 44.36400
C  25.21800 -3.16600 43.96900
C  24.86100 -2.07200 42.90400
C  23.37900 -1.88600 43.20300
C  23.01400 -3.29300 43.77100
C  23.03500 -0.76400 44.23700
C  25.12900 -2.56800 41.44600
C  25.45900 -1.41000 40.52300
H  24.73600 -1.26400 39.17300
N  21.95500 -5.96000 44.88400
C  21.22800 -5.15400 44.05600
C  19.99000 -5.79600 43.66600
C  20.00800 -7.08400 44.32700
C  21.26600 -7.16300 45.10800
C  19.02500 -5.20000 42.68500
C  18.89300 -8.05100 44.36400
O  17.87000 -7.78800 43.67300
C  18.81300 -9.18900 45.35900
N  24.09400 -7.53500 46.64000
C  23.08500 -8.46900 46.50900
C  23.46200 -9.72900 47.31300
C  24.96200 -9.48200 47.75400
C  25.17600 -8.07700 47.23100
C  22.52500 -10.17200 48.52100
C  25.97700 -10.46400 47.11600
C  25.66600 -11.93100 47.33900
N  25.95700 -5.46200 46.03200
C  26.84700 -6.32700 46.67300
C  28.19900 -5.82300 46.52700
C  28.09900 -4.73300 45.69700
C  26.75000 -4.59100 45.35900
C  29.35900 -6.46600 47.13600
C  28.83500 -3.78000 44.95700
O  30.04900 -3.52500 45.02600
C  27.78300 -2.91300 44.10200
C  27.82400 -1.45400 44.45300
O  27.33600 -0.92300 45.42000
O  28.41300 -0.82200 43.41400
C  28.20600 0.66800 43.43500
H  21.05000 -3.32800 42.90700
H  21.22300 -9.15800 45.93800
H  27.14400 -8.11000 47.92200
H  25.42700 -1.16200 43.10500
H  22.74700 -1.58100 42.37000
H  22.67200 -1.24700 45.14400
H  22.27000 -0.13900 43.77600
H  23.94600 -0.22100 44.48900
H  24.25700 -3.02100 40.97500
H  25.93700 -3.29900 41.43100
H  26.52300 -1.57400 40.34800
H  25.34000 -0.50800 41.12400
H  19.52600 -4.49700 42.01900
H  18.30500 -4.63100 43.27300
H  18.46500 -5.92600 42.09700
H  17.73700 -9.36200 45.36800
H  19.09000 -8.83100 46.35100
H  19.36100 -10.06400 45.01000
H  23.39000 -10.53200 46.58000
H  25.07900 -9.48100 48.83700
H  21.59500 -9.60300 48.52100
H  23.03100 -10.04100 49.47700
H  22.35300 -11.24800 48.55200
H  26.91700 -10.16700 47.58200
H  25.97100 -10.15300 46.07200
H  26.47500 -12.34800 47.93900
H  25.38100 -12.47800 46.44000
H  24.80300 -11.98200 48.00300
H  29.17300 -6.91600 48.11100
H  30.22100 -5.80200 47.21000
H  29.77900 -7.29800 46.56900
H  27.87300 -3.05700 43.02600
H  28.83800 1.05400 44.23500
H  27.14000 0.76100 43.64700
H  28.40800 1.19300 42.50100
Mg 45.15600 4.82700 46.90400
C  42.57900 7.46300 46.55400
C  42.46900 2.57100 46.56600
C  47.37000 2.43300 46.34300
C  47.55900 7.31500 46.75400
N  42.78100 4.98700 46.41300
C  41.98100 6.16800 46.44300
C  40.52500 5.74100 46.15200
C  40.54200 4.31100 46.70300
C  42.04200 3.88900 46.51200
C  40.04800 4.05900 48.13900
C  40.03400 5.77700 44.67700
C  41.03800 5.87100 43.54600
H  40.65100 6.43400 42.12300
N  45.00100 2.76600 46.61500
C  43.79000 2.06400 46.56300
C  44.10100 0.63700 46.36900
C  45.51200 0.57900 46.14600
C  46.04100 1.92200 46.43600
C  43.19700 -0.50000 46.34400
C  46.35900 -0.63600 45.67800
O  45.81400 -1.69700 45.32900
C  47.85200 -0.60700 45.59100
N  47.10700 4.83900 46.70800
C  47.87600 3.72100 46.56400
C  49.36000 4.02400 46.72200
C  49.35100 5.60300 46.64700
C  47.93500 5.97500 46.63300
C  49.91800 3.44100 48.08500
C  50.20200 6.07600 45.40100
C  49.63500 5.83700 44.01800
N  45.12000 6.90500 46.72700
C  46.18000 7.79700 46.68800
C  45.65900 9.18100 46.73200
C  44.29200 9.03500 46.71200
C  43.98600 7.65400 46.69500
C  46.55800 10.39100 46.48000
C  43.08800 9.78300 46.78400
O  42.97100 11.02500 46.78500
C  41.80400 8.76200 46.72200
C  41.06300 8.72100 48.01900
O  41.06600 7.82400 48.83600
O  40.41800 9.93700 48.25800
C  39.47800 10.01800 49.35900
H  41.71800 1.77800 46.55900
H  48.16000 1.67900 46.33300
H  48.35900 8.02400 46.97300
H  39.89600 6.37700 46.77500
H  39.97900 3.69800 46.00000
H  40.82300 3.48700 48.65000
H  39.10400 3.53300 47.99600
H  39.84200 4.98600 48.67500
H  39.46500 6.70600 44.71300
H  39.29400 5.02900 44.39300
H  41.35800 4.86200 43.28500
H  41.86400 6.47700 43.92000
H  43.53800 -1.30100 46.99900
H  43.21400 -0.96700 45.35900
H  42.15200 -0.18900 46.32500
H  48.19900 -1.59500 45.28900
H  48.07000 -0.39900 46.63800
H  48.32200 0.15800 44.97300
H  49.86900 3.54700 45.88500
H  49.92600 5.94900 47.50600
H  49.22300 2.69800 48.47700
H  50.04000 4.23700 48.81900
H  50.90500 3.02900 47.87500
H  51.17100 5.58800 45.50400
H  50.32000 7.15200 45.52900
H  50.28300 5.12400 43.51000
H  49.71400 6.82500 43.56600
H  48.60200 5.51700 44.15900
H  46.27900 11.01900 47.32600
H  46.20900 10.87700 45.56900
H  47.59600 10.06100 46.44900
H  41.15300 8.96600 45.87100
H  39.96500 10.13300 50.32800
H  38.95500 9.09900 49.62900
H  38.85800 10.89300 49.16800

