158

Mg 55.94100 23.89000 44.78800
C  53.76100 26.52500 44.27400
C  53.53000 21.71600 43.85600
C  58.34900 21.51400 44.70500
C  58.49000 26.38800 45.46400
N  53.91600 24.09400 44.12100
C  53.16300 25.24100 43.97400
C  51.78500 24.97200 43.43900
C  51.56800 23.46000 43.81600
C  53.09100 23.04700 43.83400
C  50.92300 23.27500 45.22400
C  51.76200 25.19400 41.90700
C  50.36200 25.28600 41.34900
H  49.94800 24.47000 40.05800
N  55.92300 21.83500 44.28000
C  54.78400 21.10800 44.04100
C  55.16800 19.70000 43.76700
C  56.56400 19.59400 43.99700
C  57.01700 21.03100 44.34700
C  54.24100 18.66000 43.43500
C  57.36200 18.26700 44.01900
O  56.81400 17.19100 43.78000
C  58.79500 18.27000 44.38100
N  58.09700 23.98700 45.16300
C  58.84800 22.81300 44.98100
C  60.32000 23.06100 45.32600
C  60.44900 24.61400 45.32500
C  58.97000 25.07900 45.36900
C  60.86800 22.34200 46.66100
C  61.19600 25.21300 44.10800
C  62.35700 26.14200 44.43900
N  56.05700 26.04100 45.06200
C  57.15000 26.82800 45.33500
C  56.65200 28.23200 45.33100
C  55.32100 28.11300 45.00200
C  55.01400 26.75900 44.78600
C  57.54100 29.52400 45.49700
C  54.08800 28.87200 44.79400
O  53.78300 30.06400 44.84500
C  53.13300 27.92300 44.17200
C  52.86300 28.30600 42.80500
O  53.66900 28.31600 41.87300
O  51.49500 28.41000 42.62500
C  50.99700 28.87900 41.34100
H  52.69900 21.03500 43.66000
H  59.20600 20.83800 44.66300
H  59.19800 27.21900 45.44600
H  51.14500 25.67800 43.96900
H  50.98600 22.94500 43.05200
H  50.08300 22.60300 45.05000
H  50.55000 24.24600 45.55000
H  51.54600 22.79900 45.98100
H  52.20900 24.35000 41.38200
H  52.33500 26.05900 41.57200
H  50.25900 26.34600 41.11600
H  49.63400 24.99800 42.10700
H  54.62900 18.27500 42.49200
H  53.20600 18.99600 43.38000
H  54.14100 17.84100 44.14800
H  59.39200 18.90100 43.72200
H  59.30900 17.31300 44.47300
H  58.93000 18.68100 45.38200
H  60.88200 22.61300 44.50700
H  60.99000 24.95000 46.21000
H  60.38300 21.38600 46.85700
H  60.70500 22.92300 47.56800
H  61.88300 22.03500 46.40900
H  60.50800 25.86600 43.57100
H  61.61000 24.44200 43.45800
H  62.44000 26.96000 43.72300
H  63.33600 25.67600 44.32500
H  62.25100 26.66400 45.39000
H  57.04400 30.40700 45.09500
H  58.52100 29.44400 45.02700
H  57.63700 29.64300 46.57700
H  52.15500 27.98800 44.65000
H  51.43000 29.86800 41.19700
H  49.94100 29.14000 41.41500
H  51.22300 28.26400 40.47000
Mg -10.23400 16.51200 40.95900
C  -6.63600 16.61000 40.92000
C  -10.16200 19.69800 40.00800
C  -13.53700 16.31400 40.43400
C  -10.14900 13.09500 41.32500
N  -8.55100 17.94100 40.64600
C  -7.22400 17.82500 40.68300
C  -6.58200 19.09200 40.16200
C  -7.65400 20.15400 40.34100
C  -8.92100 19.22400 40.33500
C  -7.55500 20.95900 41.65500
C  -5.97500 18.83400 38.71400
C  -4.49000 19.11800 38.45000
H  -3.81100 18.27500 37.38000
N  -11.66500 17.89500 40.47600
C  -11.41600 19.17000 40.10700
C  -12.65400 19.82300 39.75900
C  -13.67600 18.89900 39.91100
C  -12.99600 17.62800 40.27800
C  -12.79300 21.32900 39.42100
C  -15.14800 19.22800 39.77800
O  -15.61800 20.35600 39.49700
C  -16.16900 18.14800 39.92200
N  -11.64600 14.88800 40.75000
C  -13.00500 15.10800 40.58500
C  -13.78600 13.81300 40.81200
C  -12.72400 12.76500 41.11200
C  -11.41400 13.60500 41.12600
C  -14.89600 13.78300 41.90600
C  -12.70200 11.41600 40.27400
C  -12.36600 11.59700 38.80000
N  -8.77700 15.10600 41.11000
C  -8.85400 13.76300 41.36300
C  -7.51200 13.23500 41.65600
C  -6.63900 14.34100 41.43000
C  -7.41900 15.46600 41.12800
C  -7.12700 11.76200 41.90800
C  -5.25800 14.60500 41.26500
O  -4.26900 13.88400 41.35700
C  -5.17400 16.15400 40.92000
C  -4.35700 16.97400 41.88100
O  -3.28400 17.53800 41.65800
O  -5.10400 16.94900 43.10500
C  -4.54600 17.72400 44.20600
H  -10.17400 20.76500 39.77700
H  -14.55900 16.21600 40.06400
H  -10.02800 12.02300 41.49400
H  -5.78300 19.51500 40.77100
H  -7.63700 20.97000 39.61900
H  -7.27400 20.24700 42.43100
H  -8.52200 21.29500 42.02700
H  -6.79200 21.73100 41.55600
H  -6.47800 19.59000 38.11300
H  -6.18400 17.85600 38.28000
H  -3.92500 18.76800 39.31400
H  -4.29900 20.17500 38.27100
H  -13.14300 21.38900 38.39100
H  -11.79600 21.76400 39.50100
H  -13.59600 21.81400 39.97700
H  -17.18000 18.55100 39.97100
H  -16.00000 17.63300 40.86800
H  -16.05600 17.52400 39.03500
H  -14.30100 13.51900 39.89700
H  -12.82200 12.41600 42.14000
H  -14.91500 12.80000 42.37800
H  -15.87400 13.90100 41.43900
H  -14.70600 14.60500 42.59500
H  -13.68300 10.94300 40.31800
H  -12.03500 10.73400 40.80100
H  -13.26800 11.60600 38.18800
H  -11.68000 10.86900 38.36700
H  -11.88100 12.52600 38.49900
H  -7.38700 11.17900 41.02400
H  -7.52600 11.34500 42.83200
H  -6.03700 11.77800 41.89900
H  -4.70900 16.24400 39.93800
H  -4.51200 17.09700 45.09700
H  -5.30900 18.48200 44.38600
H  -3.60100 18.18000 43.90800

