158

Mg 51.51500 46.28600 42.30200
C  48.40500 47.43500 40.60400
C  51.14800 43.52900 40.51400
C  54.77400 45.67200 43.16300
C  51.90100 49.71500 43.24600
N  49.95400 45.65300 40.66200
C  48.78800 46.16200 40.32200
C  47.92500 45.14100 39.54200
C  48.84300 43.85600 39.48200
C  50.11900 44.38600 40.23500
C  48.12600 42.53900 39.93200
C  47.32800 45.57700 38.12200
C  45.77800 45.33500 38.00100
H  45.48800 44.20600 37.02200
N  52.75300 44.76500 41.95300
C  52.33300 43.62600 41.21200
C  53.37200 42.65500 41.34500
C  54.48800 43.26700 42.08400
C  54.05800 44.61300 42.46400
C  53.28800 41.27900 40.75800
C  55.77000 42.57100 42.44000
O  56.00600 41.47900 41.89600
C  56.72500 43.03800 43.46300
N  53.04900 47.53700 43.11100
C  54.24300 46.96300 43.49500
C  55.09300 48.01500 44.27800
C  54.12500 49.20200 44.36700
C  52.98400 48.89200 43.42500
C  55.59000 47.53500 45.73100
C  54.79700 50.54900 44.09400
C  55.13500 51.39500 45.42100
N  50.40500 48.24100 42.11000
C  50.66800 49.52000 42.65200
C  49.53500 50.33600 42.44500
C  48.69200 49.61700 41.57300
C  49.19600 48.31400 41.44000
C  49.39200 51.76900 43.01300
C  47.35100 49.67100 40.96900
O  46.47100 50.50400 41.04200
C  47.12300 48.26700 40.26400
C  45.92900 47.77400 40.89900
O  45.80600 47.32100 42.01400
O  44.86300 47.89100 40.03900
C  43.48300 47.74600 40.54300
H  50.93900 42.52500 40.14000
H  55.83500 45.56000 43.39700
H  52.10100 50.73300 43.58600
H  47.12200 45.04600 40.27200
H  49.21300 43.75200 38.46200
H  48.17500 41.81100 39.12300
H  47.14100 42.74500 40.34900
H  48.59100 42.15900 40.84200
H  47.86400 45.00700 37.36300
H  47.54400 46.63100 37.94900
H  45.46600 46.33500 37.70100
H  45.20200 45.07500 38.88900
H  53.00200 41.24000 39.70700
H  52.42200 40.82000 41.23500
H  54.07700 40.55500 40.96500
H  56.21400 43.31500 44.38500
H  57.25000 43.85800 42.97400
H  57.42200 42.21000 43.60100
H  55.90600 48.29400 43.60700
H  53.69900 49.18800 45.37000
H  54.89800 47.74500 46.54800
H  56.50400 48.06200 46.00400
H  55.69100 46.46400 45.55800
H  54.24600 51.18200 43.39900
H  55.69100 50.43500 43.48100
H  55.84200 50.87800 46.07000
H  54.26500 51.62600 46.03600
H  55.64600 52.31900 45.15400
H  48.53000 52.20000 42.50400
H  50.30900 52.35800 43.01500
H  49.05700 51.49500 44.01400
H  47.09600 48.55100 39.21200
H  43.31100 46.90000 41.20800
H  42.78800 47.88500 39.71400
H  43.29600 48.61300 41.17600
Mg 30.34700 57.85100 40.08600
C  27.77900 55.69800 38.69000
C  32.60300 55.58900 38.91300
C  32.62800 60.14000 40.45300
C  27.78900 60.31600 40.41100
N  30.18300 55.84000 38.96700
C  29.08900 55.19500 38.48300
C  29.51600 53.82100 38.01100
C  31.02800 53.75200 38.24400
C  31.32200 55.17800 38.68200
C  31.39100 52.64800 39.21600
C  29.03700 53.56100 36.50200
C  29.58800 54.60900 35.49500
H  28.75700 55.41600 34.39000
N  32.37600 57.83200 39.91400
C  33.16900 56.85200 39.38700
C  34.52000 57.23700 39.39500
C  34.57100 58.55900 39.89600
C  33.17400 58.91900 40.07800
C  35.63500 56.20700 39.08000
C  35.86400 59.36400 40.16900
O  36.88000 58.89800 39.80100
C  35.90900 60.72500 40.82900
N  30.22000 59.96000 40.19400
C  31.36100 60.65000 40.56400
C  31.06900 62.18400 40.68900
C  29.49900 62.21500 40.86600
C  29.13500 60.75900 40.45500
C  31.84400 62.96400 41.72900
C  28.79600 63.27200 39.98900
C  28.32200 64.53500 40.68600
N  28.24300 57.93100 39.81100
C  27.31100 58.99100 40.07100
C  25.92600 58.51300 39.81300
C  26.12800 57.27700 39.28500
C  27.49600 56.98900 39.20900
C  24.61900 59.20500 40.12500
C  25.38900 56.11900 38.81400
O  24.20400 56.03100 38.68200
C  26.39500 54.97100 38.57800
C  26.20800 53.87300 39.55700
O  27.05000 53.23100 40.17400
O  24.90700 53.55400 39.60100
C  24.59100 52.43000 40.52000
H  33.41000 54.88000 38.71600
H  33.37400 60.93100 40.55800
H  26.92600 60.97300 40.53500
H  29.02200 53.04800 38.60000
H  31.51300 53.50000 37.30100
H  31.50200 52.97100 40.25100
H  32.36500 52.24100 38.94400
H  30.72500 51.79500 39.08700
H  27.95200 53.47000 36.46300
H  29.45900 52.61200 36.17100
H  30.35700 54.09700 34.91600
H  30.10200 55.36400 36.09000
H  36.02300 56.33000 38.06900
H  35.29500 55.17900 39.20000
H  36.44900 56.28000 39.80200
H  36.91300 61.07200 41.07300
H  35.33200 60.61300 41.74700
H  35.49800 61.42300 40.10000
H  31.23000 62.60500 39.69700
H  29.30300 62.35900 41.92800
H  32.49500 62.25600 42.24200
H  31.13000 63.46800 42.38100
H  32.46500 63.68200 41.19500
H  27.97300 62.76700 39.48200
H  29.43200 63.56000 39.15200
H  28.25200 64.31800 41.75200
H  27.38200 64.98600 40.36600
H  29.13700 65.25500 40.60600
H  23.93800 58.46400 40.54400
H  24.03000 59.58200 39.28900
H  24.83600 59.86800 40.96200
H  26.27600 54.69500 37.53100
H  23.60700 51.98400 40.37800
H  24.62300 52.88400 41.51000
H  25.32700 51.62800 40.57800

