158

Mg 40.84800 41.33500 26.90500
C  39.82200 43.80000 29.14100
C  41.21600 39.14000 29.71100
C  42.01500 39.05400 24.76400
C  40.83700 43.69100 24.36200
N  40.61400 41.47500 29.20800
C  40.19300 42.61400 29.84800
C  39.97300 42.34100 31.35700
C  40.63100 40.88100 31.55600
C  40.83400 40.42600 30.09600
C  41.96300 40.85700 32.36200
C  38.50400 42.57700 31.80200
C  38.14500 41.93000 33.19300
H  37.49900 42.79800 34.28000
N  41.51100 39.39600 27.17500
C  41.58300 38.66500 28.42500
C  42.05300 37.36100 28.11700
C  42.26400 37.29800 26.67800
C  41.90400 38.59700 26.14400
C  42.21100 36.22500 29.13300
C  42.74300 36.11300 25.90500
O  42.72000 36.00700 24.71400
C  43.22500 34.87400 26.51400
N  41.49200 41.41700 24.89900
C  41.85800 40.27400 24.18400
C  41.89300 40.57200 22.69900
C  41.61500 42.07600 22.60400
C  41.23800 42.40500 24.03300
C  43.15800 39.97900 21.97600
C  40.51100 42.43700 21.56200
C  39.02200 42.26700 22.00900
N  40.37400 43.30900 26.71000
C  40.52600 44.11900 25.68100
C  40.09100 45.49000 26.10300
C  39.83700 45.39600 27.45900
C  40.01300 44.06200 27.80400
C  39.89400 46.71700 25.18400
C  39.37000 46.16900 28.60200
O  39.15100 47.41600 28.74500
C  39.41300 45.16000 29.78300
C  40.36300 45.58200 30.84900
O  41.61100 45.36700 30.80800
O  39.68300 46.01700 31.97500
C  40.41900 45.85000 33.31100
H  41.05900 38.40200 30.49900
H  42.47000 38.33400 24.08100
H  40.77600 44.49400 23.62500
H  40.56400 43.09000 31.88300
H  39.86200 40.19900 31.91900
H  42.06700 41.88500 32.70800
H  42.83500 40.58000 31.77000
H  41.99300 40.21400 33.24100
H  37.90100 42.08300 31.04100
H  38.41500 43.62800 32.07900
H  38.99700 41.45500 33.68000
H  37.63400 40.99400 32.96900
H  41.49400 35.42400 28.95500
H  42.05400 36.58700 30.14900
H  43.24900 35.90200 29.20600
H  44.14000 35.06200 27.07600
H  43.46600 34.15400 25.73200
H  42.51200 34.46400 27.22900
H  41.05100 39.99800 22.31300
H  42.52800 42.57500 22.28100
H  43.90700 39.48900 22.59900
H  43.62200 40.82500 21.47000
H  42.71700 39.33700 21.21400
H  40.59200 41.75300 20.71800
H  40.68900 43.44300 21.18300
H  38.80200 42.40700 23.06700
H  38.54100 41.34900 21.67300
H  38.53100 43.05600 21.43800
H  39.30700 46.43500 24.31000
H  40.90200 47.03100 24.91400
H  39.39000 47.45800 25.80400
H  38.47000 45.16500 30.33000
H  39.84000 45.27800 34.03500
H  40.49700 46.87900 33.66500
H  41.47100 45.56400 33.33100
Mg -9.48400 40.65600 43.62400
C  -8.04700 37.49400 42.90200
C  -6.94000 42.19300 41.86100
C  -11.17300 43.49800 43.77700
C  -12.23700 38.85500 45.03400
N  -7.88400 39.92100 42.28300
C  -7.44800 38.58300 42.19200
C  -6.31600 38.55300 41.25000
C  -5.62100 39.96200 41.58100
C  -6.91300 40.77400 41.95400
C  -4.55600 39.98000 42.64000
C  -6.71900 38.38400 39.76200
C  -6.32400 37.04300 39.16000
H  -5.24500 37.09400 38.12400
N  -9.14100 42.50300 42.81900
C  -8.02400 42.97000 42.18700
C  -8.12500 44.39800 41.93400
C  -9.37000 44.83500 42.41600
C  -9.94400 43.63400 43.07800
C  -7.14200 45.24300 41.22400
C  -9.85600 46.37400 42.38100
O  -9.24500 47.26200 41.81800
C  -11.23200 46.68100 42.92600
N  -11.37200 41.10900 44.26600
C  -11.78900 42.34300 44.30600
C  -13.10900 42.47400 45.13200
C  -13.52700 40.99400 45.42900
C  -12.31400 40.24900 44.87700
C  -12.92600 43.43200 46.33900
C  -14.77400 40.50700 44.64900
C  -15.82600 39.64400 45.37200
N  -10.00800 38.62100 44.07900
C  -11.06500 38.04400 44.73500
C  -10.96200 36.63900 44.68400
C  -9.69400 36.36500 44.19800
C  -9.23500 37.59900 43.66100
C  -12.02200 35.71400 45.14800
C  -8.80000 35.31700 43.84100
O  -8.84900 34.05600 43.99300
C  -7.70300 36.03000 42.87200
C  -6.27700 35.77400 43.35300
O  -5.66500 36.36000 44.23500
O  -5.72200 34.82400 42.56800
C  -4.31500 34.50200 42.68900
H  -6.01300 42.67900 41.55000
H  -11.69700 44.45600 43.80600
H  -13.02200 38.27900 45.52900
H  -5.62000 37.75500 41.50600
H  -5.10400 40.42500 40.74100
H  -4.76400 40.83400 43.28500
H  -3.56600 40.10400 42.20400
H  -4.52800 39.15800 43.35600
H  -6.33000 39.18700 39.13600
H  -7.80900 38.37300 39.75400
H  -7.24200 36.77500 38.63600
H  -6.07700 36.29300 39.91200
H  -6.35600 44.67300 40.72800
H  -6.74100 45.95200 41.94800
H  -7.65600 45.78100 40.42700
H  -11.39500 46.61400 44.00100
H  -12.00500 46.12700 42.39300
H  -11.36300 47.71700 42.61200
H  -13.88300 42.90400 44.49700
H  -13.57000 40.91600 46.51600
H  -13.57100 44.29700 46.18200
H  -11.88900 43.76000 46.41100
H  -13.23000 43.02500 47.30300
H  -14.52200 39.88400 43.79100
H  -15.34400 41.30900 44.17800
H  -16.15000 38.83700 44.71500
H  -16.67500 40.28600 45.60700
H  -15.44800 39.13700 46.25900
H  -12.88000 35.85500 44.49100
H  -12.27500 35.86000 46.19800
H  -11.67400 34.68800 45.02300
H  -7.85100 35.64400 41.86300
H  -4.11000 33.73500 41.94200
H  -4.07800 34.10000 43.67400
H  -3.61900 35.33500 42.59300

