158

Mg 24.77000 -5.06700 45.66500
C  26.87800 -2.42200 44.35300
C  22.33900 -3.90400 43.51100
C  23.14900 -7.89800 46.03700
C  27.59800 -6.41800 47.20500
N  24.68100 -3.38600 44.04500
C  25.58100 -2.40200 43.88900
C  24.99000 -1.28100 42.94300
C  23.52800 -1.78900 42.62500
C  23.46800 -3.07500 43.44400
C  22.33100 -0.72700 42.80100
C  25.83700 -1.03000 41.62900
C  26.41300 -2.20400 40.84400
H  26.06200 -2.44900 39.38300
N  22.96300 -5.74200 44.96600
C  22.07400 -5.12300 44.17700
C  20.89200 -5.91700 44.12400
C  21.09700 -7.11000 44.89700
C  22.45300 -6.96200 45.36500
C  19.72100 -5.41100 43.40300
C  20.07200 -8.25300 45.14000
O  19.04200 -8.28800 44.49500
C  20.35400 -9.41400 46.09800
N  25.30200 -6.89700 46.45300
C  24.43100 -7.91600 46.63800
C  24.99600 -9.18600 47.32200
C  26.36800 -8.55000 47.93100
C  26.45400 -7.23300 47.16600
C  24.09000 -9.83800 48.43100
C  27.58800 -9.54300 47.88400
C  28.13900 -10.11300 49.16200
N  26.77300 -4.56100 45.84800
C  27.80400 -5.17500 46.55400
C  29.02500 -4.40200 46.45900
C  28.60600 -3.28700 45.68900
C  27.27600 -3.45400 45.27300
C  30.39300 -4.91400 46.90800
C  29.12100 -2.03600 45.11000
O  30.13900 -1.48300 45.39400
C  28.03000 -1.49100 44.15100
C  27.67100 -0.07000 44.51300
O  26.97200 0.31600 45.45700
O  28.11400 0.80200 43.56900
C  27.81200 2.25400 43.70000
H  21.42900 -3.59800 42.99000
H  22.70700 -8.86500 46.28500
H  28.46200 -6.86100 47.70500
H  24.89800 -0.45200 43.64500
H  23.50500 -2.21700 41.62300
H  22.09100 -0.53700 43.84800
H  21.39300 -1.11900 42.40700
H  22.44700 0.24100 42.31400
H  26.61900 -0.30400 41.85200
H  25.18000 -0.52900 40.91800
H  26.31300 -3.20200 41.27100
H  27.46400 -1.91700 40.88300
H  19.97900 -5.02600 42.41600
H  19.17100 -4.72500 44.04700
H  18.97900 -6.20100 43.28900
H  19.51800 -10.11100 46.16200
H  20.55100 -8.94300 47.06100
H  21.19300 -9.96500 45.67400
H  25.17000 -9.83400 46.46400
H  26.12000 -8.31100 48.96600
H  23.64400 -10.77400 48.09600
H  23.15800 -9.29900 48.59900
H  24.66200 -9.84800 49.35900
H  28.35000 -9.00800 47.31700
H  27.36500 -10.42400 47.28100
H  28.06500 -11.19500 49.27200
H  27.65600 -9.52600 49.94300
H  29.19100 -9.85100 49.27400
H  30.76300 -5.45400 46.03700
H  30.52400 -5.56700 47.77100
H  30.96500 -4.00600 47.09900
H  28.33800 -1.53000 43.10600
H  27.59300 2.48700 44.74300
H  26.98200 2.59800 43.08200
H  28.58100 2.95700 43.38100
Mg 17.32400 51.42600 26.62700
C  19.01000 50.02200 29.35500
C  14.82100 52.26900 28.79300
C  15.50600 52.31000 23.87200
C  19.82300 50.30900 24.53400
N  16.98900 51.31000 28.87700
C  17.84000 50.71300 29.78700
C  17.48000 51.08900 31.21500
C  15.99700 51.52400 31.02100
C  15.95500 51.76200 29.46700
C  14.97200 50.45500 31.48500
C  18.36300 52.30600 31.68700
C  18.41100 52.59400 33.23700
H  17.58700 51.78600 34.24700
N  15.44200 52.22300 26.33500
C  14.57700 52.50700 27.34800
C  13.30400 53.01100 26.77400
C  13.44500 52.97500 25.34300
C  14.87300 52.51800 25.11100
C  12.20800 53.48100 27.61700
C  12.40900 53.15300 24.32000
O  12.68800 52.89100 23.14300
C  11.07000 53.75900 24.72600
N  17.62300 51.40800 24.59600
C  16.79900 51.84400 23.63700
C  17.40500 51.76000 22.20900
C  18.86400 51.33400 22.43200
C  18.82700 51.05500 23.95000
C  16.60500 50.80000 21.29700
C  19.91400 52.43600 22.00600
C  21.32400 51.93500 21.63900
N  19.06300 50.40300 26.84300
C  20.02400 50.06500 25.87000
C  21.13200 49.38700 26.51500
C  20.73900 49.29800 27.86000
C  19.49200 49.94600 27.97600
C  22.38100 48.85900 25.87100
C  21.07400 48.84700 29.16600
O  22.06600 48.18300 29.49600
C  19.98600 49.30700 30.20900
C  19.49400 48.18800 31.13000
O  18.48900 47.52800 30.92600
O  20.26600 48.21300 32.29200
C  19.84700 47.17700 33.24700
H  14.03800 52.41800 29.53900
H  14.96900 52.58200 22.96100
H  20.65600 49.95300 23.92500
H  17.66800 50.23900 31.87000
H  15.73300 52.43500 31.55700
H  15.29500 49.80100 32.29500
H  14.55200 49.90100 30.64500
H  14.17600 51.10200 31.85200
H  17.96900 53.06400 31.00900
H  19.36400 52.00600 31.37600
H  18.26200 53.67200 33.28300
H  19.44200 52.48700 33.57400
H  11.90500 54.50900 27.41600
H  12.27600 53.31400 28.69200
H  11.31500 52.90400 27.37500
H  10.36900 53.06200 25.18500
H  10.59200 54.13500 23.82200
H  11.15700 54.61800 25.39300
H  17.32000 52.73800 21.73500
H  19.15200 50.42500 21.90400
H  16.56000 51.36300 20.36500
H  15.62900 50.62500 21.75100
H  17.20500 49.91700 21.07900
H  20.00200 53.18900 22.78900
H  19.48300 52.98300 21.16800
H  22.04000 52.25500 22.39600
H  21.76200 52.25700 20.69500
H  21.31500 50.85300 21.50800
H  22.40300 49.00200 24.79100
H  22.38900 47.80800 26.15900
H  23.29100 49.31500 26.26000
H  20.33800 50.04700 30.92800
H  20.77300 46.97600 33.78500
H  19.53400 46.26100 32.74600
H  19.03500 47.61300 33.82900

