158

Mg 36.90000 48.87600 24.13200
C  37.22900 47.18700 27.26300
C  35.57600 51.48600 25.61300
C  36.13100 49.88300 21.06100
C  38.23400 45.90500 22.61000
N  36.43100 49.23100 26.20800
C  36.71000 48.45000 27.34600
C  36.36900 49.30300 28.61200
C  35.75000 50.67200 28.07500
C  35.90500 50.47600 26.57600
C  34.28200 50.91500 28.57400
C  37.57200 49.47800 29.55400
C  37.36000 49.20100 31.06000
H  35.92200 49.05400 31.68900
N  35.93900 50.41100 23.47200
C  35.54000 51.43000 24.19500
C  35.10000 52.49300 23.27200
C  35.24600 52.10300 21.93800
C  35.77700 50.76800 22.13100
C  34.66500 53.87100 23.71500
C  34.80300 52.73000 20.62100
O  34.74900 52.13900 19.59000
C  34.33400 54.24300 20.56400
N  36.82000 47.86700 22.04900
C  36.66000 48.62400 21.02400
C  36.87700 47.77800 19.70200
C  37.89000 46.70500 20.22600
C  37.61100 46.76200 21.69800
C  35.54200 47.13800 19.17200
C  39.36700 47.01300 19.84700
C  40.13500 45.83000 19.24400
N  37.63300 46.96100 24.77600
C  38.02800 45.83500 24.02400
C  38.39900 44.71300 24.95100
C  38.08200 45.24800 26.18600
C  37.64400 46.58200 26.06500
C  39.04900 43.37700 24.48700
C  38.06800 44.86000 27.56200
O  38.42000 43.80700 28.01300
C  37.48800 46.13900 28.35200
C  36.24800 45.71500 29.05500
O  35.09100 45.88600 28.64400
O  36.55700 44.97800 30.15000
C  35.46000 44.46000 30.93300
H  35.35400 52.44300 26.08900
H  35.84600 50.20600 20.05800
H  38.62600 44.98000 22.18300
H  35.55900 48.77000 29.11000
H  36.35600 51.45800 28.52500
H  33.58400 50.82000 27.74200
H  34.34000 51.90800 29.01900
H  34.02100 50.29500 29.43200
H  37.95200 50.49900 29.52800
H  38.33800 48.74600 29.29500
H  37.89500 50.04500 31.49500
H  37.81200 48.26500 31.38700
H  34.99000 54.61300 22.98700
H  35.18700 54.23000 24.60200
H  33.57600 53.89300 23.76500
H  33.63900 54.46500 21.37400
H  33.80800 54.37200 19.61800
H  35.22000 54.87500 20.61900
H  37.11400 48.46700 18.89200
H  37.60000 45.76100 19.76400
H  35.32600 46.20100 19.68500
H  35.80700 46.86800 18.15000
H  34.67500 47.79300 19.08300
H  39.76300 47.39100 20.79000
H  39.35200 47.86400 19.16600
H  41.11100 45.69700 19.71000
H  40.40200 46.01700 18.20400
H  39.63700 44.87200 19.39300
H  39.55900 43.48900 23.53000
H  38.34500 42.55400 24.36300
H  39.75600 43.14100 25.28300
H  38.17800 46.52300 29.10400
H  35.06600 45.30900 31.49200
H  35.84800 43.64100 31.53900
H  34.61400 44.04300 30.38800
Mg 10.48700 47.25900 26.25900
C  8.45000 47.79400 29.04800
C  13.06800 48.83700 27.95500
C  12.38400 46.89600 23.49700
C  7.55100 46.62300 24.30600
N  10.69400 48.28000 28.24700
C  9.79800 48.07700 29.28000
C  10.46200 48.56800 30.60200
C  11.57000 49.46600 30.04600
C  11.85600 48.85000 28.67000
C  11.28700 50.97500 29.96600
C  10.91600 47.45600 31.49600
C  11.09900 47.70500 33.02900
H  10.77000 46.50300 33.98900
N  12.49900 47.65700 25.85900
C  13.38000 48.29900 26.70300
C  14.74800 48.28500 26.04100
C  14.53700 47.65200 24.77500
C  13.09300 47.37700 24.61400
C  15.92600 48.84100 26.68800
C  15.51900 47.16400 23.79400
O  15.28600 46.41900 22.81100
C  16.88300 47.64400 23.93500
N  9.98500 46.94600 24.11900
C  11.01200 46.63600 23.26000
C  10.40400 46.11000 21.95100
C  8.96200 45.82300 22.34000
C  8.79800 46.52900 23.65300
C  10.54000 47.03600 20.70100
C  8.53800 44.35100 22.37300
C  9.26800 43.51700 23.36100
N  8.34800 47.18300 26.59600
C  7.32600 46.95000 25.75200
C  6.08300 47.16400 26.45500
C  6.47800 47.41800 27.84300
C  7.88900 47.47600 27.78500
C  4.59300 47.12600 25.95100
C  6.07500 47.61000 29.19200
O  4.93800 47.68400 29.62800
C  7.35100 47.77600 30.07000
C  7.45400 46.56700 30.92900
O  7.94400 45.47600 30.60000
O  6.94200 46.82200 32.14700
C  6.85400 45.71200 33.13200
H  13.85900 49.31000 28.54000
H  12.96600 46.59700 22.62300
H  6.67000 46.29300 23.75100
H  9.81900 49.29600 31.09700
H  12.54700 49.32600 30.50900
H  10.23100 51.22000 30.07900
H  11.51500 51.46800 29.02100
H  11.69100 51.49800 30.83300
H  11.84700 47.11300 31.04300
H  10.22300 46.62700 31.34900
H  10.39700 48.49800 33.28700
H  12.12300 47.94000 33.32200
H  15.77200 49.28500 27.67100
H  16.33000 49.61600 26.03600
H  16.69100 48.07900 26.83700
H  16.78500 48.72800 23.98400
H  17.52400 47.26600 23.13800
H  17.21800 47.25600 24.89700
H  10.96600 45.19200 21.78300
H  8.18200 46.25100 21.71100
H  10.35700 48.10000 20.84600
H  9.86100 46.70700 19.91400
H  11.55400 47.05200 20.30100
H  8.54900 43.91900 21.37200
H  7.46100 44.33300 22.54000
H  8.75600 43.30300 24.29800
H  10.24300 43.91200 23.64700
H  9.59000 42.62400 22.82500
H  4.42200 48.07000 25.43400
H  3.94900 46.97800 26.81800
H  4.47100 46.23600 25.33300
H  7.27500 48.61100 30.76600
H  7.57100 44.91800 32.92300
H  5.84000 45.32400 33.23300
H  7.12400 45.98300 34.15200

