158

Mg 47.45600 16.31600 27.93100
C  45.27000 15.69800 30.68900
C  49.54400 17.77800 30.34300
C  49.09700 17.80700 25.51300
C  45.12300 15.09300 25.87300
N  47.35400 16.76700 30.26000
C  46.46100 16.30700 31.13200
C  46.80900 16.56800 32.61500
C  48.02500 17.57300 32.41100
C  48.38100 17.33900 30.95500
C  47.73100 19.06000 32.73400
C  47.02800 15.23100 33.44000
C  46.69800 15.30600 34.91500
H  46.27600 16.62900 35.62600
N  49.19700 17.41700 27.92800
C  49.96800 17.81100 29.00000
C  51.22100 18.29900 28.48600
C  51.02800 18.47700 27.04600
C  49.69000 17.87600 26.78400
C  52.39200 18.69400 29.34000
C  51.97000 18.99700 25.91700
O  51.68200 19.10200 24.70600
C  53.34300 19.29600 26.31800
N  47.13500 16.51700 26.02700
C  47.90800 17.26700 25.14300
C  47.44900 17.17300 23.63100
C  46.41600 15.98600 23.80000
C  46.15800 15.87000 25.34000
C  46.73700 18.48600 23.14100
C  46.97000 14.62700 23.19600
C  45.94400 13.71600 22.61300
N  45.58300 15.53600 28.14500
C  44.76100 14.96400 27.21800
C  43.58900 14.39800 27.80600
C  43.74100 14.64900 29.19200
C  44.99200 15.35400 29.35000
C  42.43100 13.70800 27.14400
C  43.11500 14.50600 30.48000
O  42.09100 13.91200 30.78500
C  44.05500 15.19900 31.48000
C  43.32200 16.24100 32.29100
O  42.75200 17.19400 31.86500
O  43.31200 15.77700 33.59700
C  42.65200 16.72200 34.55100
H  50.31700 18.32900 30.88300
H  49.49700 18.29300 24.62100
H  44.47700 14.60800 25.13800
H  45.93600 17.07300 33.02900
H  48.90400 17.20800 32.94200
H  46.70900 19.29500 33.03000
H  48.05300 19.64800 31.87500
H  48.33200 19.48500 33.53800
H  48.09900 15.05700 33.33600
H  46.43400 14.42500 33.00800
H  47.63600 15.03400 35.39900
H  46.02600 14.52400 35.26800
H  53.21700 18.04700 29.04200
H  52.20700 18.49400 30.39600
H  52.70800 19.73700 29.33000
H  53.75200 18.37200 26.72900
H  53.46900 20.06000 27.08500
H  53.84900 19.67100 25.42800
H  48.27800 16.86600 22.99300
H  45.42700 16.19100 23.39100
H  47.09500 19.34000 23.71600
H  45.64900 18.42600 23.16800
H  47.00700 18.67800 22.10300
H  47.59100 14.14600 23.95200
H  47.59200 14.96200 22.36500
H  46.19500 13.36500 21.61200
H  45.02300 14.30000 22.60000
H  45.89400 12.84400 23.26500
H  42.22200 14.09200 26.14500
H  41.52300 13.86300 27.72700
H  42.66200 12.64200 27.13400
H  44.41300 14.48400 32.22100
H  42.94200 17.73700 34.28000
H  42.89700 16.47500 35.58400
H  41.58200 16.54800 34.43500
Mg 42.22400 41.43200 26.51500
C  41.37900 43.82400 29.06000
C  43.02300 39.21900 29.00900
C  43.33200 39.45000 24.17900
C  41.77000 44.04400 24.12100
N  42.11600 41.51000 28.74700
C  41.76300 42.55000 29.58600
C  41.92200 42.15000 31.06900
C  42.41000 40.70100 30.97800
C  42.62500 40.48700 29.45100
C  43.67000 40.19100 31.75900
C  40.65300 42.37900 31.97000
C  40.87400 41.95400 33.44100
H  40.40800 43.00500 34.52200
N  43.09800 39.56800 26.60600
C  43.24600 38.77700 27.67900
C  43.55000 37.44500 27.33200
C  43.70900 37.43300 25.87600
C  43.39400 38.88400 25.51100
C  43.73200 36.27300 28.36800
C  43.90800 36.27600 24.83900
O  44.07500 36.49300 23.70600
C  43.97000 34.84500 25.36200
N  42.40500 41.66600 24.38200
C  42.90900 40.64800 23.63100
C  42.77400 40.98300 22.11500
C  42.17500 42.42900 22.16600
C  42.16800 42.80700 23.65100
C  44.08700 40.86500 21.32100
C  40.74200 42.52600 21.66900
C  39.62900 41.62600 22.24200
N  41.74100 43.44400 26.52800
C  41.57400 44.36100 25.46000
C  41.19600 45.67700 26.03100
C  41.10900 45.48800 27.38700
C  41.44400 44.13800 27.67000
C  40.94500 46.95900 25.31100
C  40.84000 46.18800 28.64000
O  40.53500 47.29700 28.91000
C  41.00100 45.11400 29.76900
C  42.04300 45.66200 30.61800
O  43.21500 45.88300 30.28000
O  41.54100 45.72900 31.89100
C  42.49500 46.33900 32.78300
H  43.30200 38.50300 29.78500
H  43.61000 38.69800 23.43700
H  41.51400 44.78000 23.35700
H  42.66200 42.79100 31.55000
H  41.65300 39.93200 31.13200
H  43.29300 39.44600 32.45800
H  44.03800 41.03100 32.34800
H  44.49400 39.81400 31.15300
H  39.83700 41.75200 31.61000
H  40.35700 43.42600 31.91300
H  41.93600 41.75000 33.57900
H  40.39000 40.99300 33.61800
H  44.25400 35.42300 27.92700
H  42.78000 35.85800 28.69800
H  44.34800 36.62200 29.19600
H  43.17500 34.62000 26.07400
H  44.98100 34.71000 25.74500
H  43.99600 34.09500 24.57200
H  42.17000 40.18800 21.67800
H  42.84200 42.97100 21.49500
H  44.90000 40.54100 21.97000
H  44.27700 41.67700 20.61800
H  43.87900 40.02500 20.65800
H  40.82900 42.29200 20.60800
H  40.42500 43.56600 21.75600
H  39.99000 41.16600 23.16200
H  39.24100 40.87900 21.54900
H  38.90800 42.38100 22.55300
H  40.01300 47.40200 25.66000
H  40.94000 46.69700 24.25300
H  41.80100 47.59700 25.53100
H  40.05000 45.02000 30.29300
H  42.59000 47.39500 32.53000
H  43.50900 45.95400 32.67400
H  42.14300 46.21600 33.80700

