158

Mg 23.90700 -5.31400 45.61900
C  26.12900 -3.07600 44.06000
C  21.54700 -4.16400 43.61900
C  22.25900 -8.19800 46.17600
C  26.83100 -6.70800 47.18400
N  23.97600 -3.97800 43.83400
C  24.83700 -3.03600 43.54900
C  24.29100 -1.99000 42.58300
C  22.73100 -2.03800 42.87700
C  22.73500 -3.47200 43.52200
C  22.17000 -0.90800 43.81700
C  24.59400 -2.23800 41.12300
C  25.58400 -1.29800 40.44400
H  25.46000 -1.31000 38.94300
N  22.01200 -6.03200 45.11000
C  21.13700 -5.43000 44.23500
C  19.93600 -6.19700 44.19000
C  20.09500 -7.28700 45.04300
C  21.46900 -7.25100 45.49900
C  18.72700 -5.67700 43.48900
C  18.91900 -8.25400 45.40700
O  17.79200 -8.15100 44.93000
C  19.05000 -9.40600 46.32900
N  24.48500 -7.17600 46.49000
C  23.63300 -8.23200 46.63500
C  24.17800 -9.32900 47.46800
C  25.59000 -8.77600 47.90000
C  25.66500 -7.45900 47.14000
C  23.22100 -9.77600 48.59400
C  26.74900 -9.83300 47.73700
C  27.42800 -10.39100 49.10700
N  26.02700 -4.89100 45.82500
C  27.06500 -5.50600 46.50000
C  28.34800 -4.75100 46.31500
C  28.03100 -3.81400 45.34500
C  26.62600 -3.89000 45.16900
C  29.69600 -5.01100 46.90100
C  28.47200 -2.77300 44.48400
O  29.60600 -2.40200 44.33500
C  27.28700 -2.25900 43.66600
C  27.09500 -0.83700 43.86800
O  26.49200 -0.28000 44.77800
O  27.73600 -0.13000 42.94900
C  27.71300 1.37600 42.85400
H  20.70000 -3.78800 43.04200
H  21.68500 -9.12200 46.27600
H  27.69000 -7.16800 47.67700
H  24.58900 -0.96800 42.81800
H  22.16800 -2.02400 41.94400
H  23.06100 -0.55000 44.33200
H  21.43000 -1.38700 44.45700
H  21.67400 -0.14900 43.21100
H  23.71100 -2.27800 40.48500
H  25.12000 -3.19200 41.12700
H  26.64400 -1.48100 40.61700
H  25.43900 -0.34000 40.94400
H  18.18600 -6.49400 43.01200
H  18.85900 -4.98300 42.65900
H  18.10400 -5.23200 44.26500
H  18.02800 -9.68800 46.58200
H  19.61800 -9.19400 47.23400
H  19.51100 -10.18000 45.71400
H  24.32900 -10.11800 46.73100
H  25.47700 -8.34700 48.89600
H  22.68800 -8.93600 49.04000
H  23.74700 -10.29900 49.39300
H  22.53000 -10.44900 48.08800
H  27.42600 -9.36200 47.02500
H  26.30100 -10.67900 47.21600
H  26.85100 -10.02600 49.95700
H  28.51100 -10.28900 49.18600
H  27.22000 -11.45600 49.20700
H  29.76600 -4.61900 47.91600
H  30.40500 -4.36900 46.38000
H  29.89200 -6.07900 46.80700
H  27.59400 -2.33000 42.62200
H  28.23100 1.81800 43.70500
H  26.65200 1.62300 42.83200
H  28.22300 1.65700 41.93200
Mg 40.48200 9.47900 29.55200
C  42.32400 11.06500 32.12000
C  38.12700 8.41400 31.71000
C  39.06300 7.93200 26.90300
C  43.34800 10.16100 27.53700
N  40.33100 9.64300 31.61500
C  41.14500 10.41200 32.53900
C  40.41600 10.49200 33.81800
C  39.35000 9.38200 33.72200
C  39.27400 9.09200 32.24900
C  39.39400 8.07800 34.56100
C  39.88800 11.92900 34.12000
C  39.44400 12.10700 35.60000
H  40.39600 12.89000 36.53600
N  38.65200 8.52700 29.24900
C  37.83400 8.11800 30.34200
C  36.70300 7.45700 29.76100
C  36.94900 7.40200 28.38200
C  38.21900 7.93700 28.07500
C  35.59300 6.90700 30.66400
C  36.11800 6.71300 27.31100
O  36.51300 6.71100 26.14900
C  34.74800 6.10900 27.71500
N  41.19400 9.07600 27.53200
C  40.36900 8.46200 26.60500
C  40.93400 8.39000 25.17700
C  42.29600 9.24700 25.42800
C  42.29600 9.59100 26.92700
C  41.11600 6.99200 24.64500
C  42.56700 10.46900 24.42500
C  42.00700 11.92000 24.66000
N  42.54200 10.43800 29.70300
C  43.52000 10.60300 28.85600
C  44.51200 11.47000 29.31100
C  44.13900 11.63900 30.69500
C  42.91000 10.93900 30.83800
C  45.60300 12.07100 28.57100
C  44.48700 12.28400 31.94800
O  45.38000 13.06900 32.13500
C  43.28300 11.88800 32.96400
C  43.94300 11.05200 34.05700
O  44.78200 10.18300 33.82300
O  43.64100 11.59400 35.31900
C  44.04000 10.73000 36.46200
H  37.41600 8.10000 32.47700
H  38.64300 7.56600 25.96400
H  44.15800 10.47000 26.87300
H  41.06600 10.21400 34.64800
H  38.42900 9.86900 34.04100
H  40.26800 7.51200 34.24000
H  38.52800 7.44900 34.35700
H  39.36400 8.34600 35.61700
H  38.99200 12.12700 33.53100
H  40.63000 12.68900 33.87600
H  39.32900 11.13500 36.08100
H  38.45000 12.55400 35.60300
H  34.58000 7.03200 30.28100
H  35.54700 7.25700 31.69500
H  35.82100 5.84200 30.62200
H  34.09900 6.94100 27.99100
H  34.85400 5.36300 28.50200
H  34.37400 5.67300 26.78900
H  40.23500 8.99000 24.59500
H  43.15100 8.61200 25.19900
H  42.06800 6.83700 24.13500
H  40.30100 6.78000 23.95300
H  41.06000 6.23200 25.42400
H  42.29000 10.13400 23.42600
H  43.65600 10.42900 24.38500
H  41.12900 11.80800 25.29600
H  41.61400 12.36200 23.74500
H  42.77900 12.57000 25.07100
H  45.35500 12.40700 27.56500
H  46.31700 11.26100 28.42100
H  46.02700 12.97100 29.01700
H  42.78400 12.76900 33.36800
H  44.01200 9.70900 36.08300
H  43.25200 10.77000 37.21400
H  45.06200 10.93300 36.78000

