158

Mg 47.72800 25.17900 28.70400
C  48.59000 27.48400 31.21000
C  47.21400 22.76800 31.16700
C  47.36600 22.78900 26.30700
C  49.02800 27.36900 26.37100
N  47.94100 25.16900 30.95400
C  48.13700 26.26500 31.74400
C  47.82800 25.96200 33.18400
C  47.49900 24.48200 33.15200
C  47.61300 24.00400 31.65400
C  48.40400 23.62800 34.11100
C  46.78300 26.93800 33.80200
C  47.25200 27.79300 35.02300
H  46.18800 28.05500 36.06900
N  47.17800 23.11800 28.74500
C  47.02400 22.36100 29.85800
C  46.48500 21.09200 29.38800
C  46.60700 21.01400 27.98400
C  47.05100 22.34500 27.62000
C  45.97200 20.12700 30.40800
C  46.33600 19.85800 27.04700
O  46.57000 19.89100 25.85100
C  45.73400 18.63400 27.61000
N  48.06700 25.08800 26.60000
C  47.86200 23.99500 25.82100
C  48.26100 24.24900 24.38100
C  48.69900 25.80900 24.40100
C  48.60700 26.13000 25.84200
C  49.37900 23.33400 23.84300
C  47.74100 26.77700 23.64400
C  48.36400 28.11700 23.03900
N  48.55000 27.08900 28.72700
C  49.05500 27.86100 27.68100
C  49.54300 29.08900 28.18800
C  49.42500 28.94400 29.58400
C  48.79900 27.73800 29.87300
C  50.23900 30.16500 27.43000
C  49.67800 29.71800 30.81600
O  50.26800 30.79100 31.07700
C  49.17400 28.70900 31.93300
C  50.28600 28.38500 32.85500
O  51.10700 27.47600 32.76500
O  50.16900 29.15300 33.93700
C  51.16400 28.80200 35.02900
H  46.97100 22.03900 31.94200
H  47.20200 22.09000 25.48400
H  49.37200 28.05900 25.59800
H  48.83800 26.12500 33.56200
H  46.45300 24.31800 33.41300
H  47.83200 23.49800 35.03000
H  49.34500 24.13700 34.32200
H  48.57900 22.62400 33.72600
H  45.86300 26.45700 34.13500
H  46.56300 27.62400 32.98400
H  47.58100 28.78600 34.71400
H  48.08800 27.30000 35.51900
H  44.94900 19.88900 30.11500
H  45.91500 20.36900 31.46900
H  46.57400 19.22400 30.50500
H  46.42100 17.86500 27.96200
H  45.36700 18.04500 26.77000
H  44.92000 18.83900 28.30500
H  47.37600 24.24200 23.74500
H  49.73100 26.01200 24.11500
H  49.51600 22.39900 24.38700
H  50.34300 23.82800 23.72400
H  49.23400 23.08100 22.79200
H  47.01000 27.08200 24.39300
H  47.17000 26.24400 22.88500
H  47.75000 28.38500 22.17900
H  49.43200 27.98000 22.87300
H  48.23800 28.87100 23.81600
H  49.53600 30.99700 27.44900
H  50.42200 29.87500 26.39600
H  51.09600 30.55500 27.97900
H  48.38300 29.26700 32.43400
H  52.20400 28.66800 34.73200
H  50.98500 27.85100 35.53100
H  51.19200 29.64200 35.72300
Mg 17.03400 51.42500 26.28700
C  19.11400 49.93200 28.84200
C  14.77500 52.14600 28.69300
C  15.17600 52.33100 23.78300
C  19.40900 50.07000 24.07200
N  16.97600 51.07400 28.43900
C  17.95400 50.51200 29.35400
C  17.58200 50.71000 30.81300
C  16.09900 51.10500 30.65600
C  15.95500 51.52400 29.15400
C  15.04800 50.05400 31.09000
C  18.52600 51.81800 31.51500
C  18.69500 51.64000 33.05800
H  17.77000 50.62300 33.78200
N  15.29300 52.44700 26.27000
C  14.46700 52.58700 27.36500
C  13.21100 53.15700 26.89100
C  13.31800 53.20500 25.47300
C  14.63500 52.64500 25.12900
C  12.11000 53.76300 27.83800
C  12.38900 53.76100 24.38700
O  12.74600 53.84900 23.23800
C  10.99400 54.22700 24.80800
N  17.23000 51.18300 24.23400
C  16.35300 51.70800 23.41500
C  16.73700 51.49900 21.93600
C  18.21500 50.90700 22.06700
C  18.34100 50.79200 23.54600
C  15.69100 50.66500 21.11200
C  19.32500 51.69100 21.33400
C  20.34800 50.75600 20.52300
N  18.85300 50.14200 26.35900
C  19.66400 49.68400 25.40800
C  20.84900 49.00700 25.96000
C  20.73900 49.10300 27.31900
C  19.48000 49.76700 27.52900
C  21.92700 48.40600 25.15300
C  21.26600 48.74300 28.62400
O  22.24800 48.13400 28.93700
C  20.25200 49.34800 29.69500
C  19.86800 48.34300 30.66300
O  18.90200 47.59500 30.58100
O  20.61500 48.37200 31.80900
C  20.41900 47.25600 32.76000
H  13.96900 52.26400 29.42100
H  14.45800 52.55500 22.99100
H  20.21200 49.78600 23.38800
H  17.60700 49.77000 31.36500
H  15.91400 52.06300 31.14400
H  15.56200 49.27000 31.64700
H  14.55300 49.55000 30.25900
H  14.20300 50.43800 31.66100
H  18.00900 52.77100 31.40100
H  19.52300 51.75200 31.08100
H  18.65500 52.55700 33.64600
H  19.66500 51.14900 33.14400
H  12.53800 53.82100 28.83900
H  11.31500 53.01700 27.85500
H  11.68500 54.70200 27.48500
H  11.02400 55.13900 25.40500
H  10.59200 53.35200 25.31900
H  10.42800 54.40200 23.89300
H  16.75000 52.48300 21.46800
H  18.21800 49.85800 21.77100
H  16.06800 49.77000 20.61600
H  15.39200 51.30100 20.27800
H  14.82000 50.33600 21.67800
H  19.72100 52.48200 21.97100
H  18.84000 52.34100 20.60600
H  21.31500 51.07500 20.91300
H  20.25100 50.92800 19.45200
H  20.21800 49.68600 20.68600
H  22.81100 49.03700 25.05000
H  21.48400 48.33900 24.16000
H  22.19800 47.38800 25.43100
H  20.88300 50.10100 30.16800
H  21.24800 47.16000 33.46100
H  20.15000 46.29300 32.32500
H  19.64500 47.63300 33.42700

