158

Mg 8.78300 3.67600 27.32900
C  9.75000 2.06000 30.08400
C  6.42100 5.57300 29.07000
C  7.80100 5.26200 24.36400
C  10.26500 1.21500 25.29700
N  7.97600 3.53700 29.31700
C  8.65700 2.98600 30.34800
C  8.02800 3.41200 31.71100
C  6.81700 4.31000 31.25700
C  7.01700 4.51600 29.72700
C  5.37100 3.80700 31.50000
C  9.10400 4.12100 32.56800
C  8.99400 3.80100 34.12300
H  10.18800 4.00200 35.05500
N  7.55400 5.23600 26.87300
C  6.61100 5.83500 27.67700
C  5.83800 6.88400 27.01700
C  6.39300 6.87100 25.64700
C  7.39200 5.77600 25.60800
C  4.78300 7.78800 27.67300
C  5.99500 7.81300 24.53000
O  6.44100 7.89000 23.35800
C  4.92400 8.90800 24.77100
N  8.97600 3.32800 25.14300
C  8.50500 4.10100 24.14400
C  8.94100 3.59800 22.73500
C  9.84100 2.37800 23.08800
C  9.74900 2.31600 24.61600
C  7.71900 3.18500 21.83800
C  11.35600 2.45900 22.57300
C  11.64900 1.47900 21.42000
N  9.91200 2.08300 27.58600
C  10.44100 1.09700 26.74400
C  11.20600 0.19100 27.54900
C  11.01800 0.51700 28.88900
C  10.23200 1.68400 28.85100
C  12.13800 -0.81600 27.03100
C  11.38400 0.29100 30.26100
O  12.13700 -0.56200 30.72600
C  10.67500 1.31700 31.10900
C  9.92800 0.61500 32.23500
O  8.93400 -0.09000 32.11600
O  10.57000 0.85400 33.41300
C  10.07900 0.18000 34.66100
H  5.78700 6.17000 29.72900
H  7.45800 5.84000 23.50300
H  10.73300 0.38800 24.75900
H  7.54700 2.60100 32.25700
H  6.90400 5.24700 31.80700
H  4.90500 4.41200 32.27800
H  5.24500 2.72500 31.50400
H  4.83500 4.06200 30.58500
H  8.94900 5.19100 32.43400
H  10.07800 3.90000 32.13100
H  8.83900 2.72800 34.23600
H  8.19000 4.43600 34.49400
H  4.69900 7.59900 28.74300
H  3.82200 7.63200 27.18300
H  5.20000 8.79500 27.70300
H  4.02800 8.34600 25.03100
H  4.79200 9.39600 23.80500
H  5.25100 9.65300 25.49700
H  9.42700 4.42000 22.21000
H  9.30700 1.47400 22.79500
H  7.59000 3.99800 21.12400
H  6.77400 3.06900 22.36900
H  7.89100 2.20500 21.39200
H  11.95100 2.24400 23.46000
H  11.65900 3.43500 22.19500
H  12.13200 1.92000 20.54800
H  10.73200 1.01300 21.05700
H  12.14900 0.60400 21.83500
H  12.67700 -1.24500 27.87500
H  12.86600 -0.27700 26.42400
H  11.62400 -1.59000 26.46000
H  11.47500 1.97200 31.45600
H  9.21500 -0.48300 34.63100
H  9.87700 0.87000 35.48000
H  10.84700 -0.35900 35.21500
Mg 54.69600 24.55100 44.63700
C  51.95900 26.69000 43.71300
C  53.07700 22.00500 43.04800
C  57.66300 22.91900 44.41300
C  56.24800 27.39900 45.99500
N  52.77200 24.46400 43.53800
C  51.88400 25.41300 43.11600
C  50.84700 24.93400 42.17600
C  50.98500 23.33400 42.37300
C  52.38000 23.22600 43.04000
C  49.81300 22.68700 43.27400
C  51.14800 25.28000 40.62100
C  50.08200 25.97200 39.60900
H  49.70000 25.29000 38.26400
N  55.26100 22.54700 44.08800
C  54.40900 21.65500 43.42100
C  55.24200 20.41400 43.19200
C  56.61100 20.73600 43.55500
C  56.56000 22.12700 44.05600
C  54.62300 19.15800 42.63000
C  57.78300 19.81200 43.45300
O  57.65400 18.73500 42.88000
C  59.13200 20.10500 43.99200
N  56.71400 25.11600 45.15500
C  57.74200 24.25900 44.92600
C  59.06000 24.90600 45.35100
C  58.62300 26.33600 45.79800
C  57.11600 26.28000 45.71400
C  59.87600 24.08500 46.38400
C  59.25700 27.46400 44.94400
C  59.63900 28.61700 45.85100
N  54.22000 26.61500 44.90000
C  54.92900 27.57300 45.58200
C  54.12600 28.78600 45.65200
C  52.97000 28.52900 44.89700
C  53.02700 27.16100 44.50400
C  54.41000 30.02400 46.42900
C  51.78100 29.04200 44.26400
O  51.36100 30.22000 44.14200
C  51.13500 27.86500 43.55800
C  50.76800 28.22900 42.18700
O  51.44400 28.80100 41.32200
O  49.43600 28.14600 42.11700
C  48.68900 28.78500 41.01100
H  52.48100 21.18900 42.63500
H  58.71600 22.63200 44.43300
H  56.72900 28.34000 46.27100
H  49.84400 25.30400 42.38600
H  51.07100 22.79700 41.42800
H  50.14600 22.39300 44.27000
H  49.45800 21.74400 42.85700
H  48.99300 23.40200 43.34200
H  51.44200 24.38900 40.06600
H  52.00800 25.94300 40.71600
H  50.52900 26.95700 39.47700
H  49.17600 26.08000 40.20400
H  53.69600 19.45600 42.14000
H  54.50200 18.40700 43.41100
H  55.28300 18.73500 41.87300
H  59.76200 19.22600 43.85100
H  59.10300 20.48100 45.01400
H  59.46100 20.96400 43.40600
H  59.66900 25.13100 44.47600
H  58.83500 26.49800 46.85500
H  59.27400 23.22900 46.69100
H  60.05700 24.68700 47.27500
H  60.76500 23.65700 45.92000
H  58.58300 27.91600 44.21700
H  60.12400 27.04400 44.43400
H  59.12100 29.53900 45.58600
H  60.70500 28.73300 45.65800
H  59.30700 28.54700 46.88700
H  55.11800 30.61300 45.84700
H  54.85100 29.84000 47.40900
H  53.46700 30.56800 46.47400
H  50.23800 27.92800 44.17400
H  47.94400 28.09100 40.62200
H  49.28900 29.06200 40.14500
H  48.28200 29.69400 41.45500

