158

Mg 47.94900 15.38700 28.51000
C  45.71500 14.99000 31.01400
C  50.05300 17.13200 30.56800
C  49.88800 15.94700 25.76600
C  45.44000 14.09600 26.26100
N  47.92800 15.97300 30.47000
C  46.96400 15.54600 31.40400
C  47.28700 16.16500 32.78500
C  48.59000 17.00000 32.58300
C  48.87000 16.68900 31.14400
C  48.48400 18.54100 32.96800
C  47.27900 15.03900 33.90400
C  46.46900 15.42200 35.21800
H  46.50500 16.89800 35.68100
N  49.82400 16.30000 28.27800
C  50.59000 16.92100 29.24900
C  51.83800 17.34600 28.67200
C  51.75900 17.06500 27.26100
C  50.41800 16.43600 27.03400
C  52.98400 17.92500 29.49200
C  52.75400 17.17400 26.05400
O  52.54000 16.78300 24.94300
C  54.03400 17.88900 26.41300
N  47.67700 15.03200 26.30800
C  48.67700 15.38400 25.39800
C  48.32700 15.09000 23.92600
C  46.97100 14.40400 24.11000
C  46.62500 14.51500 25.62800
C  48.29300 16.32600 22.94200
C  46.77900 12.90200 23.76100
C  47.21500 11.82800 24.76800
N  45.97200 14.63300 28.58600
C  45.05600 14.17700 27.65500
C  43.84600 13.75700 28.30800
C  43.98800 14.05000 29.63800
C  45.28500 14.63200 29.76400
C  42.66500 13.21400 27.60100
C  43.37800 14.22200 30.94900
O  42.26600 13.90400 31.27500
C  44.43800 14.81600 31.86400
C  43.91400 16.08500 32.58300
O  43.87500 17.19400 32.08000
O  43.28800 15.62700 33.76900
C  42.31500 16.57700 34.36900
H  50.80400 17.50300 31.26900
H  50.44600 16.15000 24.84900
H  44.67500 13.66100 25.61400
H  46.48600 16.82900 33.11200
H  49.51400 16.50800 32.88800
H  47.44800 18.87600 32.93200
H  49.10600 18.96700 32.18100
H  48.90100 18.73800 33.95600
H  48.30300 14.91600 34.25500
H  46.92500 14.07700 33.53400
H  46.82600 14.80000 36.03900
H  45.42900 15.17800 35.00500
H  53.80900 17.22300 29.36900
H  52.83500 17.94400 30.57100
H  53.36000 18.89000 29.15000
H  54.55000 17.21900 27.10100
H  53.80400 18.83300 26.90600
H  54.73500 18.00800 25.58700
H  49.10600 14.42200 23.56000
H  46.27800 15.04100 23.56000
H  47.26500 16.53700 22.64700
H  48.88600 16.22000 22.03400
H  48.60700 17.16700 23.56000
H  47.31100 12.79700 22.81500
H  45.74100 12.69200 23.50300
H  47.90400 11.12000 24.30800
H  46.41600 11.21600 25.18500
H  47.84300 12.21800 25.56900
H  42.74300 13.45500 26.54100
H  41.78100 13.73900 27.96100
H  42.61300 12.14700 27.81600
H  44.62100 14.17000 32.72300
H  41.36100 16.60400 33.84400
H  42.67500 17.60200 34.46300
H  41.92800 16.15900 35.29800
Mg -9.39300 40.12600 39.79700
C  -8.53900 36.76900 39.23500
C  -6.20600 41.01400 39.06300
C  -10.52300 43.19600 38.95600
C  -12.70100 39.11800 40.17400
N  -7.63100 39.04800 39.26700
C  -7.42300 37.69400 39.20800
C  -5.98200 37.31200 38.90400
C  -5.19000 38.61100 39.09100
C  -6.37800 39.64800 39.17400
C  -4.13700 38.65500 40.19300
C  -5.77400 36.54600 37.59400
C  -6.35000 37.24500 36.35600
H  -7.10400 36.40000 35.35800
N  -8.46400 41.87800 39.28000
C  -7.16500 42.01700 38.98800
C  -6.92400 43.35600 38.59000
C  -8.15400 44.03400 38.50700
C  -9.14100 43.05100 38.86600
C  -5.57200 44.01300 38.43700
C  -8.45300 45.52200 38.13200
O  -7.46700 46.19800 37.94500
C  -9.80900 46.16700 38.02900
N  -11.27500 40.98500 39.60500
C  -11.47300 42.28900 39.29800
C  -12.98100 42.61800 39.30200
C  -13.62700 41.44700 40.04100
C  -12.51800 40.43000 39.91700
C  -13.45900 44.08100 39.72100
C  -15.05600 41.09700 39.43600
C  -16.00700 40.31200 40.30400
N  -10.50800 38.37000 39.83100
C  -11.82500 38.09300 39.96400
C  -12.01300 36.64000 39.89500
C  -10.77300 36.07700 39.59000
C  -9.86000 37.19000 39.60700
C  -13.32700 35.88300 40.11700
C  -10.04100 34.82000 39.36700
O  -10.44300 33.67100 39.30000
C  -8.59600 35.26200 39.02800
C  -7.61800 34.45300 39.88100
O  -7.27600 34.75200 41.00800
O  -7.05000 33.44800 39.21000
C  -5.86000 32.89000 39.87100
H  -5.20900 41.43900 38.93000
H  -10.92400 44.20900 38.89300
H  -13.71800 38.76200 40.35100
H  -5.81900 36.57200 39.68700
H  -4.68000 38.93300 38.18300
H  -4.15300 39.60300 40.73000
H  -3.13700 38.53600 39.77600
H  -4.40900 37.90700 40.93800
H  -6.01000 35.49200 37.73600
H  -4.70300 36.56600 37.39700
H  -5.51900 37.69400 35.81100
H  -6.98300 38.09300 36.61800
H  -5.57500 44.47100 37.44800
H  -4.78300 43.26100 38.44800
H  -5.45000 44.75400 39.22700
H  -10.27600 46.40200 38.98500
H  -10.56800 45.61100 37.48000
H  -9.55200 47.09400 37.51600
H  -13.34100 42.62300 38.27300
H  -13.79400 41.53200 41.11500
H  -12.71000 44.86800 39.81100
H  -14.07900 44.12100 40.61700
H  -14.07400 44.49000 38.91900
H  -14.79900 40.44000 38.60600
H  -15.58900 41.95700 39.03000
H  -16.72600 41.00900 40.73600
H  -15.50400 39.91300 41.18500
H  -16.42800 39.52900 39.67400
H  -13.89800 35.85100 39.18900
H  -13.90400 36.19900 40.98500
H  -13.04300 34.85600 40.34800
H  -8.53700 34.97500 37.97800
H  -5.21500 33.74700 40.06300
H  -5.36700 32.15600 39.23400
H  -6.20900 32.37400 40.76500

