158

Mg 0.63200 8.10500 26.61100
C  1.28600 9.95800 29.50400
C  0.48100 5.27000 28.70700
C  0.22800 6.30700 23.95100
C  1.28700 10.98700 24.67700
N  0.74600 7.72900 28.88100
C  0.94200 8.63200 29.82900
C  0.83200 8.03500 31.25400
C  0.69900 6.54000 30.98400
C  0.60100 6.46300 29.42300
C  1.83800 5.74400 31.67400
C  -0.28200 8.69500 32.14300
C  0.17100 9.04800 33.61700
H  -0.37200 8.32900 34.85700
N  0.35400 6.00500 26.39500
C  0.37000 5.03600 27.30500
C  0.15400 3.74800 26.58000
C  -0.02600 4.00700 25.16300
C  0.22300 5.49900 25.15500
C  -0.14600 2.41800 27.29700
C  -0.23800 3.08700 24.05900
O  -0.14900 3.45900 22.90000
C  -0.55500 1.64200 24.29600
N  0.61400 8.62900 24.58900
C  0.45200 7.67700 23.69400
C  0.48000 8.24500 22.27900
C  0.59500 9.82700 22.51300
C  0.81100 9.86900 23.98900
C  1.50400 7.57200 21.30900
C  -0.61200 10.85100 22.09300
C  -2.08000 10.37500 22.36700
N  1.22200 10.05500 26.93500
C  1.41600 11.13300 26.08000
C  1.79200 12.30600 26.77800
C  1.77900 11.87900 28.12400
C  1.37800 10.53300 28.16600
C  2.10900 13.62200 26.25100
C  2.03900 12.26800 29.48100
O  2.32500 13.35400 30.01800
C  1.49300 11.13200 30.40700
C  2.49800 10.91900 31.47600
O  3.50000 10.20500 31.37100
O  2.22000 11.70200 32.63500
C  3.04400 11.64800 33.85900
H  0.36000 4.41600 29.37700
H  0.02800 5.67500 23.08400
H  1.38100 11.81500 23.97000
H  1.79300 8.08600 31.76600
H  -0.16900 6.11100 31.48500
H  1.57700 4.71100 31.90400
H  1.92800 6.16100 32.67600
H  2.76400 5.66500 31.10300
H  -1.12000 8.00700 32.26000
H  -0.59100 9.64100 31.69900
H  -0.06200 10.09300 33.82000
H  1.25600 8.96600 33.68700
H  -1.06700 2.00000 26.88800
H  -0.27600 2.57000 28.36800
H  0.68700 1.72200 27.19800
H  0.21900 1.21600 24.93400
H  -0.59400 1.07400 23.36600
H  -1.55800 1.53300 24.70800
H  -0.52300 8.00400 21.92800
H  1.45700 10.16400 21.93800
H  2.42600 7.32900 21.83600
H  1.58300 8.12700 20.37400
H  1.04700 6.62100 21.03500
H  -0.44300 10.94600 21.02100
H  -0.42800 11.79100 22.61400
H  -2.62100 10.31800 21.42300
H  -2.60600 11.03300 23.05900
H  -2.06500 9.37100 22.79300
H  1.25700 14.27700 26.43000
H  2.39900 13.62000 25.20100
H  2.87800 13.90600 26.97000
H  0.61100 11.44100 30.96900
H  3.22400 12.70100 34.07700
H  3.96100 11.08400 33.68700
H  2.38900 11.15900 34.58000
Mg -12.14900 37.69600 42.75400
C  -9.94000 35.15700 41.82300
C  -10.01700 39.88600 41.05100
C  -14.43600 40.12900 43.32200
C  -14.38200 35.22700 43.98100
N  -10.28100 37.51700 41.51900
C  -9.53600 36.35000 41.23000
C  -8.31300 36.58600 40.43100
C  -8.18600 38.16300 40.53000
C  -9.62300 38.57200 40.95700
C  -7.11900 38.61900 41.53800
C  -8.44100 36.09800 38.93300
C  -7.36600 35.01000 38.47500
H  -6.03400 35.35600 37.80200
N  -12.27600 39.68000 42.15600
C  -11.26500 40.43200 41.55400
C  -11.66200 41.85100 41.61400
C  -12.91300 41.93800 42.25000
C  -13.24200 40.57800 42.64000
C  -10.73700 42.87100 41.13200
C  -13.68800 43.19400 42.37100
O  -13.25800 44.23800 41.89400
C  -15.00600 43.27800 43.05000
N  -14.29600 37.59100 43.35200
C  -14.93700 38.82200 43.63000
C  -16.18700 38.59900 44.42400
C  -16.20700 37.04100 44.48100
C  -14.87900 36.55300 43.89600
C  -16.23100 39.36800 45.79600
C  -17.45600 36.38500 43.91300
C  -17.76500 34.94800 44.38600
N  -12.12500 35.64500 43.03300
C  -13.09700 34.80000 43.57200
C  -12.51600 33.49600 43.64100
C  -11.30600 33.53800 42.90700
C  -11.09100 34.90600 42.58100
C  -13.25100 32.23800 44.32000
C  -10.15300 32.85200 42.41700
O  -9.90900 31.63900 42.63400
C  -9.26700 33.78000 41.58100
C  -7.86700 33.65200 42.13400
O  -7.13800 32.80400 41.67000
O  -7.61000 34.72300 43.03200
C  -6.31900 34.58000 43.75400
H  -9.29700 40.56700 40.59500
H  -15.12700 40.81100 43.82200
H  -15.20500 34.57200 44.27700
H  -7.48700 36.12600 40.97300
H  -8.02700 38.55900 39.52700
H  -6.30600 37.89600 41.59900
H  -7.41000 38.77100 42.57800
H  -6.69900 39.50900 41.06900
H  -8.51200 36.91600 38.21600
H  -9.38300 35.55000 38.93900
H  -7.85900 34.26100 37.85400
H  -6.98800 34.52400 39.37400
H  -9.67700 42.67100 41.28500
H  -10.89800 43.74300 41.76700
H  -10.98600 42.94200 40.07300
H  -15.80400 42.79500 42.48800
H  -15.24700 44.30900 43.30700
H  -14.81200 42.78100 44.00100
H  -16.86800 38.97900 43.66200
H  -16.16700 36.74000 45.52800
H  -15.22500 39.51500 46.18800
H  -16.84200 38.85500 46.53900
H  -16.73600 40.32800 45.68900
H  -17.21900 36.44900 42.85200
H  -18.22900 37.08700 44.22800
H  -18.80900 34.83500 44.67800
H  -17.06500 34.80700 45.21100
H  -17.44100 34.37900 43.51500
H  -13.26100 31.34100 43.70100
H  -14.23000 32.48300 44.73200
H  -12.61200 31.86800 45.12200
H  -9.20600 33.44500 40.54600
H  -5.64300 35.43300 43.71200
H  -5.80500 33.67400 43.43300
H  -6.54400 34.38500 44.80300

