158

Mg 7.77700 2.67600 27.22000
C  9.31400 1.54600 30.21200
C  5.86700 4.85800 29.07400
C  6.79000 4.14600 24.31800
C  9.81500 0.50500 25.50300
N  7.66100 3.14600 29.35000
C  8.37300 2.57600 30.41300
C  8.15800 3.37400 31.70200
C  6.79700 4.14100 31.38800
C  6.73700 4.03400 29.79700
C  5.48400 3.67100 32.16100
C  9.39400 4.17500 32.16100
C  9.22200 4.75700 33.58700
H  10.12700 4.26700 34.76700
N  6.33100 4.19100 26.70200
C  5.68800 4.93000 27.65900
C  4.75600 5.81800 27.03100
C  5.09100 5.77400 25.58900
C  6.06900 4.65500 25.45000
C  3.84400 6.74200 27.75300
C  4.66700 6.68500 24.40400
O  5.10200 6.60500 23.27200
C  3.65600 7.72900 24.80500
N  8.17300 2.30000 25.23900
C  7.72100 3.12900 24.24500
C  8.11200 2.57900 22.85800
C  9.07900 1.42200 23.22400
C  8.98000 1.39100 24.71000
C  6.97100 2.19000 21.84000
C  10.49700 1.75900 22.80700
C  11.30900 2.66100 23.74400
N  9.19700 1.21600 27.69200
C  9.97500 0.42200 26.88800
C  10.84900 -0.39900 27.71200
C  10.60300 0.03400 29.00300
C  9.55500 0.92400 29.02700
C  11.79400 -1.44100 27.20700
C  11.00400 -0.17600 30.34900
O  11.90600 -0.96000 30.70900
C  10.32800 0.85600 31.19100
C  9.68300 0.17300 32.30000
O  8.59300 -0.37600 32.29200
O  10.44900 0.37700 33.42100
C  9.81700 0.04400 34.68000
H  5.26100 5.42300 29.78500
H  6.67300 4.53600 23.30500
H  10.41300 -0.22600 24.95500
H  7.92900 2.61700 32.45200
H  6.82500 5.17600 31.72700
H  5.75800 2.74200 32.66000
H  4.73600 3.47000 31.39400
H  5.11300 4.44800 32.83000
H  9.42700 5.05500 31.52000
H  10.36800 3.68500 32.13700
H  8.18600 4.51100 33.81900
H  9.30300 5.82600 33.38600
H  4.13200 7.79300 27.76800
H  3.67000 6.32500 28.74500
H  2.85200 6.57500 27.33500
H  2.81300 7.14300 25.17100
H  3.42600 8.41500 23.99000
H  4.07800 8.28400 25.64200
H  8.68200 3.32000 22.29800
H  8.88800 0.43500 22.80300
H  5.95100 2.35800 22.18500
H  7.18500 1.14400 21.62100
H  7.12700 2.74200 20.91300
H  10.40000 2.17300 21.80300
H  10.99700 0.79000 22.79100
H  10.73700 3.06300 24.58000
H  11.51900 3.57100 23.18300
H  12.19500 2.13300 24.09700
H  11.97000 -1.30600 26.14000
H  11.50300 -2.48300 27.33900
H  12.70300 -1.32700 27.79700
H  11.08000 1.59400 31.47200
H  8.79000 -0.32000 34.65500
H  9.71400 0.93800 35.29400
H  10.46500 -0.74300 35.06600
Mg 16.96200 -1.42500 27.47900
C  15.93100 0.64800 30.14100
C  19.31100 -2.79100 29.70200
C  18.42700 -2.89800 24.95700
C  14.68200 0.13700 25.48300
N  17.55600 -1.10700 29.75500
C  16.93200 -0.23000 30.61200
C  17.45500 -0.46700 32.04300
C  18.72200 -1.29100 31.76400
C  18.57800 -1.78200 30.31200
C  20.14900 -0.76000 32.09700
C  16.35900 -1.03900 32.98000
C  16.39500 -0.71900 34.45800
H  17.60500 -0.00600 34.99800
N  18.49900 -2.84900 27.36600
C  19.30100 -3.28300 28.40400
C  20.09300 -4.40100 27.89500
C  19.91400 -4.40900 26.46600
C  18.95500 -3.34200 26.16500
C  20.86800 -5.29900 28.86500
C  20.49300 -5.33000 25.46600
O  20.15400 -5.17900 24.32300
C  21.58000 -6.26500 25.78700
N  16.55000 -1.50200 25.50000
C  17.32700 -2.10600 24.61300
C  16.83100 -1.94500 23.12600
C  15.53800 -1.03600 23.33400
C  15.54600 -0.79300 24.86400
C  17.95100 -1.47600 22.16300
C  14.24500 -1.76300 22.89600
C  13.43900 -1.11500 21.80500
N  15.61700 0.12500 27.73600
C  14.73000 0.65200 26.80300
C  13.90200 1.61000 27.40600
C  14.23400 1.55800 28.78400
C  15.34200 0.70900 28.90800
C  12.91800 2.49400 26.70800
C  13.92300 2.13400 30.10400
O  13.02700 2.89600 30.56300
C  15.08600 1.51100 30.96900
C  15.78200 2.59100 31.66300
O  16.66700 3.29300 31.31100
O  15.11100 2.64700 32.81900
C  15.32200 3.91000 33.56100
H  19.97300 -3.35200 30.36500
H  18.92600 -3.33000 24.08800
H  14.07800 0.68700 24.75800
H  17.73400 0.49500 32.47200
H  18.57600 -2.22500 32.30500
H  20.76000 -0.53300 31.22300
H  20.73800 -1.56300 32.54100
H  20.09200 0.15800 32.68300
H  16.52000 -2.11000 32.85000
H  15.41000 -0.71200 32.55500
H  16.12600 -1.58600 35.06100
H  15.57100 -0.01800 34.59100
H  21.87300 -4.97700 29.13800
H  20.95200 -6.29200 28.42200
H  20.34000 -5.41500 29.81100
H  21.27400 -7.12700 26.38000
H  22.22500 -5.61200 26.37500
H  22.01000 -6.43700 24.80100
H  16.54000 -2.97300 22.90900
H  15.61200 -0.05300 22.87000
H  18.91000 -1.19900 22.60000
H  17.48800 -0.56300 21.78900
H  18.12600 -2.08700 21.27800
H  13.62000 -1.79200 23.78800
H  14.51900 -2.79400 22.67200
H  14.09500 -0.33400 21.42000
H  12.51900 -0.71600 22.23200
H  13.25600 -1.89900 21.07100
H  12.58200 3.38000 27.24800
H  12.01500 1.95000 26.43200
H  13.39200 2.83200 25.78600
H  14.41000 0.97000 31.63100
H  14.37700 4.25600 33.98000
H  15.63600 4.77000 32.96900
H  16.05900 3.75200 34.34900

