158

Mg 25.34700 2.07900 30.08400
C  27.50600 1.91900 32.85500
C  22.65200 1.98500 32.27900
C  23.37500 1.63500 27.56700
C  28.10600 1.64900 28.03100
N  25.08400 1.86300 32.28000
C  26.12200 2.02600 33.22600
C  25.65100 2.24300 34.64900
C  24.08600 2.26000 34.39600
C  23.91300 2.07200 32.92300
C  23.26900 1.26000 35.20700
C  26.18600 3.68900 35.14700
C  26.45000 3.68700 36.70300
H  25.92600 4.79100 37.60900
N  23.29600 2.08300 29.95400
C  22.34100 1.94100 30.93000
C  21.07700 1.78300 30.27900
C  21.19600 1.72700 28.87500
C  22.71300 1.78100 28.75100
C  19.78900 1.77600 31.10100
C  20.12500 1.58900 27.76200
O  20.42400 1.51700 26.58400
C  18.61400 1.54600 28.18700
N  25.66400 1.72400 28.02900
C  24.69300 1.45500 27.19300
C  25.15300 1.51000 25.67300
C  26.68300 1.66700 25.91800
C  26.85500 1.65000 27.42900
C  24.69800 0.27700 24.86800
C  27.30500 2.99400 25.32600
C  26.59600 4.34600 25.65800
N  27.39600 1.71300 30.35000
C  28.36300 1.59400 29.37100
C  29.66300 1.33600 29.96900
C  29.42400 1.49000 31.36800
C  27.99800 1.69200 31.51200
C  30.90100 1.09600 29.28500
C  29.93700 1.52200 32.72200
O  31.10300 1.34900 33.07000
C  28.78700 1.93300 33.68000
C  28.73000 1.07500 34.90100
O  28.33800 -0.06700 34.96500
O  29.11800 1.86900 36.02100
C  29.10100 1.18500 37.30000
H  21.80100 2.13000 32.94800
H  22.73400 1.46000 26.70100
H  28.92300 1.39200 27.35400
H  26.00500 1.35200 35.16700
H  23.80400 3.28100 34.65400
H  22.34500 1.74000 35.52900
H  23.94000 1.02500 36.03300
H  23.05700 0.34700 34.65100
H  25.49300 4.48000 34.86300
H  27.05900 3.89100 34.52600
H  27.51200 3.90500 36.81100
H  26.24400 2.71100 37.14400
H  18.99000 2.41700 30.72800
H  19.97100 1.75300 32.17500
H  19.42900 0.74900 31.04000
H  17.94800 1.33500 27.35100
H  18.40500 2.46800 28.73000
H  18.46800 0.78900 28.95800
H  24.74500 2.41300 25.21900
H  27.31300 0.87500 25.51200
H  25.51700 -0.43500 24.96200
H  24.52100 0.54300 23.82600
H  23.74100 -0.09900 25.22900
H  27.47600 2.86000 24.25800
H  28.29900 3.05800 25.76800
H  26.04600 4.28300 26.59700
H  25.90200 4.68000 24.88700
H  27.40300 5.07500 25.72200
H  31.05700 1.82000 28.48600
H  30.96700 0.06600 28.93300
H  31.74700 1.28800 29.94600
H  29.03800 2.98400 33.82600
H  28.34600 1.56200 37.99000
H  30.03100 1.43800 37.80900
H  29.10600 0.10000 37.19500
Mg 30.26100 57.35700 39.52100
C  27.77300 55.13700 38.74300
C  32.67400 54.94200 38.82000
C  32.70400 59.67100 39.55500
C  27.82900 59.85100 40.29900
N  30.19100 55.27500 38.78500
C  29.07800 54.56900 38.54700
C  29.48600 53.16900 37.99700
C  31.02800 53.05800 38.18300
C  31.32200 54.50500 38.66500
C  31.48300 52.11300 39.23700
C  29.04000 52.98800 36.49900
C  29.33400 54.00000 35.49200
H  28.24000 54.52600 34.68300
N  32.44800 57.28400 39.20400
C  33.20200 56.23500 38.99000
C  34.53200 56.61900 38.86300
C  34.59800 57.99800 39.16100
C  33.26300 58.36600 39.36400
C  35.60000 55.63200 38.62900
C  35.83900 58.80500 39.30300
O  36.97100 58.33800 39.09600
C  35.91800 60.15200 39.73100
N  30.20100 59.46400 39.66800
C  31.35700 60.15600 39.78400
C  31.07800 61.60200 40.24300
C  29.66000 61.57200 40.64000
C  29.11000 60.25800 39.97200
C  32.08500 62.17700 41.26800
C  28.89600 62.87600 40.20300
C  28.15800 63.63400 41.31300
N  28.16500 57.49700 39.67400
C  27.34100 58.53200 40.02000
C  25.98300 58.06600 39.87200
C  26.13600 56.74400 39.32500
C  27.52300 56.45600 39.21600
C  24.87600 58.92200 40.08900
C  25.33100 55.60200 38.91800
O  24.17600 55.40000 38.93700
C  26.39000 54.55800 38.42900
C  26.21100 53.23600 39.11300
O  26.65800 52.98900 40.23300
O  25.29700 52.52300 38.35100
C  24.97500 51.17300 38.86600
H  33.33800 54.09300 38.64900
H  33.42900 60.48600 39.62400
H  27.08300 60.58700 40.60900
H  28.86100 52.43700 38.50800
H  31.57000 52.92400 37.24700
H  30.57600 51.68500 39.66500
H  32.12800 52.52800 40.01200
H  31.95500 51.27100 38.73100
H  27.98000 52.74100 36.56400
H  29.45700 52.04700 36.14200
H  30.01400 53.48200 34.81500
H  29.89600 54.85500 35.86800
H  36.10500 55.99100 37.73200
H  35.26900 54.60600 38.46900
H  36.28900 55.67000 39.47300
H  36.94700 60.40700 39.98300
H  35.22800 60.41000 40.53500
H  35.54000 60.84100 38.97500
H  31.12400 62.15600 39.30500
H  29.56800 61.39600 41.71200
H  32.90900 62.77900 40.88600
H  32.50300 61.28800 41.74100
H  31.60600 62.73400 42.07400
H  28.21500 62.50000 39.43900
H  29.62300 63.53400 39.72800
H  28.75100 64.51000 41.57700
H  27.99700 63.09300 42.24600
H  27.28200 64.08900 40.85200
H  24.53600 59.33400 39.13900
H  25.18800 59.74400 40.73400
H  24.03500 58.40900 40.55500
H  26.34900 54.39500 37.35100
H  24.76400 50.40000 38.12600
H  24.05000 51.40100 39.39500
H  25.65400 50.79600 39.63200

