158

Mg 40.84100 7.84200 29.79600
C  42.56300 9.08100 32.58400
C  38.38500 6.63500 31.86600
C  39.38200 6.39600 27.16500
C  43.73900 8.45200 27.83700
N  40.44400 7.83500 32.04600
C  41.19800 8.57400 32.93000
C  40.42100 8.71100 34.26700
C  39.15300 7.71000 34.07900
C  39.30700 7.36000 32.62500
C  39.01000 6.46500 35.06400
C  40.17200 10.18600 34.50200
C  39.83400 10.50300 36.01000
H  40.88000 11.32100 36.80700
N  39.07800 6.81200 29.54100
C  38.18000 6.43700 30.47300
C  37.00500 5.74900 29.91900
C  37.32900 5.59500 28.54500
C  38.64800 6.26200 28.36200
C  35.84100 5.12000 30.69000
C  36.61100 4.79700 27.50400
O  37.12900 4.53100 26.40800
C  35.21800 4.14100 27.74900
N  41.45700 7.41600 27.79600
C  40.69700 6.74300 26.90000
C  41.44600 6.70300 25.55200
C  42.79600 7.27700 25.80300
C  42.67800 7.75600 27.24600
C  41.59000 5.20000 24.91800
C  43.14800 8.44000 24.80100
C  42.29900 9.69300 24.99300
N  42.76300 8.51600 30.10200
C  43.82200 8.81000 29.25600
C  44.95800 9.41000 29.92300
C  44.50200 9.58800 31.18600
C  43.16500 8.94400 31.32200
C  46.26400 9.85200 29.27800
C  44.77700 10.14400 32.51600
O  45.76500 10.68900 32.95100
C  43.59500 9.75100 33.50300
C  44.09300 8.90500 34.66900
O  45.12700 8.25000 34.65400
O  43.20200 8.90200 35.69100
C  43.52500 8.05100 36.84500
H  37.51000 6.38600 32.47000
H  38.91400 6.04800 26.24200
H  44.59100 8.74500 27.22000
H  40.95800 8.24700 35.09500
H  38.19600 8.23000 34.03800
H  38.18100 6.63600 35.75000
H  39.88700 6.26900 35.68200
H  38.83900 5.58700 34.44200
H  39.30500 10.49000 33.91600
H  41.06200 10.74500 34.21500
H  39.72700 9.59800 36.61000
H  38.94900 11.12000 36.16400
H  34.85800 5.13600 30.21900
H  35.65900 5.55100 31.67400
H  36.14700 4.08800 30.86000
H  34.55800 4.90100 28.16800
H  35.37500 3.15300 28.18400
H  34.65300 3.97300 26.83200
H  40.82400 7.27100 24.86000
H  43.63000 6.57800 25.85100
H  41.29500 4.52700 25.72300
H  42.62800 4.96100 24.68800
H  41.06400 5.06200 23.97300
H  42.99800 8.08100 23.78300
H  44.22500 8.59700 24.85900
H  41.71900 9.80600 24.07700
H  42.93400 10.56900 25.12600
H  41.55900 9.59800 25.78800
H  46.49900 9.26500 28.39000
H  46.96300 9.44500 30.00900
H  46.29500 10.93900 29.20400
H  43.24100 10.66800 33.97400
H  43.37100 6.98700 36.67000
H  42.93700 8.39500 37.69600
H  44.55300 8.09600 37.20500
Mg 47.75500 44.37600 42.59400
C  44.32000 43.99200 42.73500
C  48.16200 40.91200 42.38700
C  50.86100 44.88200 41.20300
C  47.08800 47.83100 41.81000
N  46.38200 42.63400 42.60300
C  44.98600 42.79300 42.78900
C  44.34400 41.32100 42.92000
C  45.60400 40.37400 42.96900
C  46.77500 41.29500 42.67400
C  45.72200 39.63400 44.30900
C  43.32900 40.85300 41.79000
C  43.71000 41.33200 40.39900
H  43.44000 40.36600 39.24700
N  49.36000 43.06500 41.92700
C  49.32100 41.69900 42.05600
C  50.60600 41.14000 41.71700
C  51.43200 42.28200 41.22900
C  50.55500 43.49100 41.43600
C  50.95900 39.69800 41.64500
C  52.78100 42.11400 40.56200
O  53.33800 41.02500 40.55800
C  53.47200 43.37800 40.07200
N  48.92700 46.16500 41.75200
C  50.18100 46.05800 41.44900
C  50.78500 47.49300 41.28100
C  49.56400 48.40300 41.22400
C  48.47500 47.47400 41.59200
C  51.85400 48.00800 42.29100
C  49.33600 49.08600 39.86900
C  48.89900 50.60500 39.90800
N  46.14700 45.74600 42.57200
C  46.01800 47.06600 42.17700
C  44.64100 47.49400 42.32500
C  43.90600 46.34800 42.57200
C  44.89700 45.31300 42.53800
C  44.07300 48.83600 41.94200
C  42.52800 45.74600 42.75900
O  41.42900 46.31500 42.78200
C  42.82100 44.18800 43.01600
C  42.55500 43.84600 44.42300
O  42.80400 44.49400 45.39200
O  42.04900 42.52100 44.55100
C  42.02600 41.85500 45.80600
H  48.26900 39.83000 42.49400
H  51.90200 45.18300 41.06900
H  46.86000 48.89700 41.74900
H  43.85000 41.32300 43.89200
H  45.58000 39.67700 42.13100
H  44.89600 39.92100 44.96000
H  46.62300 39.87400 44.87300
H  45.77600 38.58000 44.03600
H  42.29200 41.08600 42.03400
H  43.44700 39.77100 41.73700
H  44.77300 41.56800 40.35400
H  43.11200 42.19600 40.10700
H  51.11500 39.43900 40.59800
H  50.12900 39.09600 42.01400
H  51.84300 39.42000 42.21900
H  52.82800 43.91300 39.37300
H  54.29600 43.11100 39.41000
H  53.84600 43.98500 40.89600
H  51.29400 47.42900 40.31900
H  49.63000 49.12900 42.03500
H  51.51500 47.58800 43.23800
H  51.96600 49.09000 42.36800
H  52.88900 47.74700 42.07500
H  48.48200 48.56900 39.43100
H  50.18700 48.86800 39.22300
H  49.46700 51.19500 39.18900
H  49.22700 50.97000 40.88100
H  47.82100 50.69100 39.77200
H  43.16400 49.06100 42.49900
H  43.70900 48.76500 40.91800
H  44.85000 49.56800 42.16800
H  42.21800 43.50000 42.42200
H  41.61900 42.35300 46.68600
H  43.08800 41.67000 45.96600
H  41.61400 40.84800 45.74600

