158

Mg 43.55100 4.12500 46.76900
C  41.80000 6.93500 46.67900
C  40.67500 2.25800 46.51200
C  45.48600 1.36000 46.39700
C  46.56500 6.08500 46.55000
N  41.49900 4.55700 46.47900
C  40.98400 5.80400 46.68500
C  39.47200 5.78600 46.43500
C  39.11300 4.31500 46.77900
C  40.53500 3.66800 46.61900
C  38.42400 3.93900 48.11200
C  39.08700 6.25800 45.00500
C  40.18000 6.26700 43.91900
H  39.68300 6.16700 42.48200
N  43.09200 2.05800 46.40500
C  41.88100 1.49900 46.42900
C  41.95800 0.07700 46.12000
C  43.33800 -0.24600 46.18300
C  44.05600 1.05700 46.36800
C  40.77900 -0.83300 46.10200
C  43.93100 -1.58400 46.08000
O  43.21300 -2.51100 45.68900
C  45.40000 -1.80100 46.32900
N  45.72100 3.79100 46.56700
C  46.26000 2.51500 46.49300
C  47.80300 2.58200 46.36900
C  48.10700 4.09100 46.44200
C  46.68500 4.73000 46.48300
C  48.63100 1.62800 47.37600
C  48.98100 4.71900 45.32000
C  50.11000 5.73700 45.74800
N  44.16700 6.12100 46.66500
C  45.35500 6.79100 46.54400
C  45.14300 8.24600 46.73100
C  43.75100 8.40400 46.71500
C  43.20700 7.02400 46.66000
C  46.23300 9.27200 46.79000
C  42.65100 9.33300 46.78400
O  42.56300 10.53800 46.82000
C  41.37500 8.40000 46.61700
C  40.49600 8.68300 47.75900
O  40.72800 8.37000 48.89900
O  39.30000 9.34200 47.36400
C  38.28800 9.42900 48.44700
H  39.79100 1.62100 46.43700
H  46.20500 0.58900 46.11400
H  47.42500 6.75300 46.47500
H  39.05100 6.48800 47.15500
H  38.39900 3.88000 46.08000
H  38.11300 4.70100 48.82700
H  39.30600 3.44200 48.51600
H  37.58900 3.26100 47.94000
H  38.83100 7.30900 45.13700
H  38.16800 5.70200 44.82100
H  40.87200 5.43200 44.03200
H  40.72100 7.21100 43.97500
H  39.86500 -0.48700 46.58500
H  40.90100 -1.81800 46.55300
H  40.53200 -0.88100 45.04200
H  45.65700 -1.27000 47.24600
H  45.82300 -1.44900 45.38800
H  45.62000 -2.84700 46.54200
H  47.99900 2.24000 45.35300
H  48.62200 4.33900 47.37100
H  49.26800 0.97600 46.77700
H  47.88200 0.99600 47.85100
H  49.23300 2.19000 48.09100
H  48.35000 5.39700 44.74600
H  49.41600 3.98500 44.64100
H  49.56700 6.22200 46.55900
H  50.34300 6.42100 44.93200
H  51.01500 5.18600 46.00600
H  47.01100 8.99800 46.07700
H  46.64000 9.13800 47.79200
H  45.81400 10.27600 46.72200
H  40.79500 8.65500 45.73000
H  37.33800 9.15700 47.98700
H  38.22400 10.45200 48.81700
H  38.17300 8.70400 49.25200
Mg 40.56700 9.37500 29.40100
C  42.53800 10.78600 31.90700
C  38.64700 7.99700 31.99000
C  38.78600 7.53300 27.08600
C  42.75500 10.40800 27.02100
N  40.62300 9.44600 31.65500
C  41.50100 10.18400 32.42700
C  40.97900 10.23600 33.95900
C  39.65200 9.37400 33.85600
C  39.60000 8.94300 32.40700
C  39.63700 8.18100 34.87500
C  40.59500 11.57900 34.64700
C  39.75400 11.59700 35.99200
H  40.19900 12.60300 37.11500
N  38.90000 7.92800 29.57300
C  38.25100 7.48400 30.70300
C  37.13500 6.56100 30.36200
C  37.22400 6.39200 28.95400
C  38.34300 7.30800 28.48100
C  36.09100 6.00800 31.35500
C  36.38100 5.48100 28.06900
O  36.33500 5.60000 26.85900
C  35.55500 4.40000 28.65800
N  40.78400 8.96900 27.33400
C  39.85400 8.27900 26.59300
C  40.18200 8.36900 25.08100
C  41.42700 9.39200 25.09300
C  41.68300 9.61200 26.57000
C  40.33900 7.05200 24.33100
C  41.21200 10.72800 24.31400
C  40.34400 11.80300 25.03300
N  42.28000 10.33600 29.42800
C  43.13300 10.63700 28.33700
C  44.32300 11.35100 28.92500
C  44.09000 11.37000 30.33400
C  42.83500 10.84300 30.56500
C  45.52300 11.79000 28.06400
C  44.69000 11.81100 31.62600
O  45.73800 12.29800 31.87500
C  43.55200 11.55700 32.67300
C  44.17700 10.77700 33.74800
O  44.64000 9.61300 33.59400
O  44.22700 11.48200 34.94400
C  44.68800 10.67100 36.04200
H  37.87600 7.75400 32.72500
H  38.21900 7.05000 26.28800
H  43.42600 10.65600 26.19500
H  41.66300 9.78300 34.67600
H  38.76400 9.98900 34.00500
H  40.64200 7.78400 35.01700
H  39.03500 7.32300 34.57600
H  39.16300 8.44800 35.82000
H  39.92400 12.05800 33.93400
H  41.47100 12.18000 34.89000
H  39.58100 10.60600 36.41200
H  38.77400 12.02800 35.78800
H  36.10200 4.91800 31.37900
H  35.04200 6.21500 31.14800
H  36.39600 6.36900 32.33700
H  35.02500 3.83500 27.89100
H  34.90700 4.98000 29.31500
H  36.28300 3.82100 29.22500
H  39.23200 8.84200 24.83000
H  42.30400 8.86800 24.71400
H  41.34900 6.64100 24.34200
H  40.11200 7.29900 23.29400
H  39.65300 6.24800 24.59900
H  40.67300 10.38900 23.42900
H  42.12500 11.24200 24.01300
H  39.33000 11.79200 24.63300
H  40.61400 12.82900 24.78300
H  40.29100 11.70000 26.11700
H  46.24900 10.97700 28.04900
H  45.95200 12.59100 28.66600
H  45.20500 12.11200 27.07200
H  43.25900 12.50200 33.12900
H  45.76200 10.79100 36.18500
H  44.30400 9.65600 35.94200
H  44.22000 11.20200 36.87100

