158

Mg 47.89500 25.03300 27.73200
C  48.75100 27.42600 30.22200
C  46.93200 22.93000 30.01900
C  47.29300 22.91200 25.29400
C  49.03800 27.35700 25.44200
N  47.74100 25.26300 29.89300
C  48.15800 26.25400 30.74800
C  47.90900 25.85800 32.20200
C  47.53200 24.31800 32.04800
C  47.34500 24.17800 30.52500
C  48.64300 23.39700 32.57000
C  46.86500 26.72000 32.94100
C  46.47500 26.31500 34.35400
H  46.51400 27.38700 35.38100
N  47.17300 23.13400 27.66100
C  46.80100 22.43800 28.76600
C  46.45000 21.09300 28.33300
C  46.37900 21.10000 26.92000
C  47.02500 22.39100 26.53000
C  45.98100 20.01100 29.21200
C  45.93200 20.00900 25.98400
O  46.14000 20.08900 24.81900
C  45.13700 18.88100 26.41500
N  48.33300 25.01500 25.70800
C  47.83400 24.09700 24.88500
C  47.79600 24.49000 23.41200
C  48.22700 25.97300 23.43900
C  48.51000 26.14100 24.96700
C  48.73700 23.60700 22.64900
C  47.20300 27.01600 22.91900
C  47.32900 27.52800 21.46400
N  48.86300 26.92600 27.76900
C  49.37200 27.70500 26.74000
C  49.93900 28.88600 27.21200
C  49.74300 28.82500 28.62000
C  49.06900 27.66400 28.87300
C  50.68800 29.90800 26.40400
C  49.95800 29.54200 29.93800
O  50.47400 30.58300 30.24100
C  49.13600 28.65700 30.98400
C  49.93700 28.50500 32.21600
O  50.77300 27.61000 32.47700
O  49.59200 29.42100 33.20000
C  50.06300 29.07600 34.50300
H  46.60800 22.25000 30.80900
H  47.00300 22.17000 24.54700
H  49.30100 28.18200 24.77600
H  48.84300 25.99700 32.74600
H  46.58700 24.06500 32.53000
H  49.29400 23.82600 33.33200
H  49.14400 22.88400 31.75000
H  48.11800 22.64600 33.16000
H  45.99400 26.96300 32.33300
H  47.36200 27.68400 33.05100
H  47.09900 25.50500 34.73300
H  45.43800 25.98500 34.42500
H  46.58800 19.14300 28.95600
H  44.89200 19.97100 29.18900
H  46.20300 20.26600 30.24800
H  44.34900 19.13500 27.12400
H  45.67100 18.22900 27.10600
H  44.67100 18.24800 25.66000
H  46.79500 24.34400 23.00700
H  49.14800 26.10100 22.86900
H  49.57300 23.35100 23.30000
H  49.09400 24.09700 21.74300
H  48.26500 22.66500 22.36700
H  47.09800 27.90900 23.53500
H  46.25000 26.49000 22.96300
H  46.35800 27.84900 21.08800
H  47.76300 26.66700 20.95700
H  48.01900 28.36600 21.57000
H  51.14400 29.25800 25.65700
H  51.41400 30.46200 26.99900
H  50.05700 30.65400 25.92100
H  48.26100 29.21900 31.30900
H  51.15000 29.03800 34.58100
H  49.68400 28.12200 34.87000
H  49.81600 29.89100 35.18400
Mg 49.26900 44.76600 43.07800
C  45.92900 45.57000 42.11700
C  48.89200 41.64000 41.75100
C  52.61500 44.43700 43.37800
C  49.52400 48.19500 44.03000
N  47.62700 43.86900 41.92300
C  46.38500 44.36400 41.64100
C  45.51400 43.36900 40.79500
C  46.45000 42.05900 40.77100
C  47.73800 42.49000 41.60400
C  45.85800 40.77400 41.43100
C  45.17000 44.03800 39.41200
C  43.71600 43.73100 39.01000
H  43.55700 42.69700 37.85200
N  50.61100 43.19800 42.65700
C  50.21300 41.98000 42.14500
C  51.40400 41.16400 42.00900
C  52.50800 41.96000 42.39500
C  51.96800 43.26900 42.85800
C  51.40500 39.66000 41.69000
C  53.99900 41.65300 42.33500
O  54.37700 40.57900 41.83000
C  55.15000 42.54300 42.92300
N  50.79900 46.04300 43.75300
C  52.14700 45.69600 43.71200
C  53.11700 46.84000 44.15700
C  52.11900 47.89200 44.55500
C  50.71800 47.37500 44.05500
C  54.27900 46.41700 45.05000
C  52.34800 49.35700 44.09800
C  52.11300 50.54200 45.03700
N  48.06400 46.51000 43.23600
C  48.26200 47.82900 43.61200
C  47.11300 48.64600 43.45200
C  46.14700 47.78100 42.95300
C  46.75200 46.49700 42.83200
C  46.85900 50.06300 43.92000
C  44.77800 47.71700 42.55500
O  43.92500 48.55200 42.70600
C  44.58200 46.26100 42.01900
C  43.40400 45.56100 42.64400
O  43.41400 44.87900 43.66800
O  42.33600 45.92700 41.90500
C  41.10400 45.32600 42.39700
H  48.70000 40.64800 41.33700
H  53.70700 44.40800 43.40800
H  49.59400 49.26400 44.24600
H  44.59300 43.10300 41.31400
H  46.62400 41.83800 39.71800
H  45.46500 40.04800 40.71900
H  45.05800 41.11700 42.08700
H  46.45300 40.27400 42.19500
H  45.81900 43.52100 38.70500
H  45.48900 45.08000 39.40400
H  43.24400 44.64300 38.64500
H  43.05600 43.50100 39.84700
H  51.72000 39.40100 40.67900
H  50.34100 39.42700 41.64800
H  51.93000 39.12700 42.48200
H  54.95900 42.90700 43.93300
H  55.46700 43.35000 42.26300
H  56.03100 41.93000 43.11300
H  53.51400 47.14900 43.19000
H  52.23900 47.96600 45.63600
H  54.35400 45.33000 45.07900
H  54.16500 46.72000 46.09100
H  55.18900 46.79900 44.58700
H  51.74300 49.49500 43.20200
H  53.41500 49.29500 43.88100
H  51.79900 50.17700 46.01400
H  51.23900 51.10100 44.70300
H  52.96900 51.17100 45.28000
H  47.34500 50.19000 44.88700
H  45.77300 50.11000 43.99800
H  47.24900 50.78800 43.20600
H  44.24300 46.45500 41.00200
H  40.72800 45.99500 43.17000
H  41.32300 44.32800 42.77400
H  40.38400 45.12300 41.60500

