158

Mg 24.84200 -7.32600 47.65700
C  27.50900 -5.10600 46.68700
C  23.03400 -5.94500 44.98200
C  22.74100 -9.77500 48.01100
C  27.20900 -9.00300 49.74200
N  25.25500 -5.69500 46.12500
C  26.35300 -4.94200 45.88000
C  26.04300 -3.92700 44.74800
C  24.49900 -3.89900 44.74700
C  24.22600 -5.34100 45.26400
C  23.94100 -2.84200 45.72600
C  26.68000 -4.42400 43.36300
C  27.41300 -3.31700 42.53400
H  26.86300 -3.12800 41.10000
N  23.13800 -7.74700 46.75900
C  22.57000 -7.11300 45.60500
C  21.34900 -7.82100 45.15100
C  21.15600 -8.84900 46.12900
C  22.35100 -8.83900 47.05400
C  20.49500 -7.47800 43.88900
C  19.94600 -9.81200 46.08900
O  18.98600 -9.73800 45.26000
C  19.86200 -11.01500 47.06300
N  24.93400 -9.14500 48.76600
C  23.82400 -9.93400 48.85100
C  24.10800 -11.11700 49.77600
C  25.42500 -10.70400 50.47700
C  26.01300 -9.67900 49.53000
C  22.99100 -11.70100 50.59600
C  26.41700 -11.78100 50.80500
C  27.03300 -11.74100 52.23100
N  26.90500 -7.09100 48.25800
C  27.73000 -7.83200 49.06100
C  29.00500 -7.12500 49.21000
C  28.94700 -6.03100 48.31500
C  27.66500 -6.08700 47.72500
C  30.22900 -7.52800 49.99800
C  29.65600 -4.90200 47.74500
O  30.71800 -4.37600 47.97300
C  28.76800 -4.27000 46.61600
C  28.54000 -2.82000 46.80800
O  28.15900 -2.33500 47.84500
O  28.77300 -2.27200 45.58300
C  28.38400 -0.89800 45.51800
H  22.34900 -5.50900 44.25200
H  21.97600 -10.54200 48.14300
H  27.87600 -9.28700 50.55900
H  26.39600 -2.92000 44.96900
H  24.05100 -3.73600 43.76700
H  23.32700 -2.18900 45.10600
H  24.62800 -2.18500 46.26000
H  23.21300 -3.36200 46.34800
H  25.97700 -4.96100 42.72600
H  27.39800 -5.18000 43.68300
H  28.48400 -3.48200 42.41300
H  27.18800 -2.36500 43.01300
H  19.85400 -8.25800 43.47800
H  21.26300 -7.10800 43.21000
H  19.95400 -6.55700 44.10600
H  19.96200 -10.67600 48.09400
H  20.66300 -11.69300 46.77100
H  18.85300 -11.42400 47.01200
H  24.45700 -11.91300 49.11600
H  25.14600 -10.17200 51.38600
H  22.56100 -12.46200 49.94600
H  22.23100 -10.92700 50.70800
H  23.37300 -12.06200 51.55100
H  27.13700 -11.81400 49.98700
H  25.94500 -12.76400 50.81100
H  27.87100 -11.04300 52.25000
H  27.26300 -12.73800 52.60600
H  26.32600 -11.31100 52.94000
H  30.03000 -7.34900 51.05500
H  31.12300 -7.01500 49.64100
H  30.30000 -8.60100 49.82100
H  29.29100 -4.51100 45.69000
H  27.66200 -0.74500 44.71700
H  29.24700 -0.28500 45.25800
H  27.93600 -0.50200 46.42900
Mg 35.18600 2.36500 29.91900
C  32.64200 2.94700 32.10500
C  37.44100 2.24900 32.54800
C  37.52400 1.50000 27.67400
C  32.69500 2.07600 27.29500
N  35.08300 2.65800 32.10500
C  33.88900 2.86400 32.73400
C  34.17500 3.18400 34.24800
C  35.75700 2.90600 34.41700
C  36.11000 2.56700 32.97400
C  36.70200 4.11500 34.90900
C  33.25900 2.29000 35.14900
C  33.70800 2.03900 36.62200
H  33.94800 3.25100 37.55500
N  37.16700 2.07800 30.00600
C  37.92200 1.99200 31.18100
C  39.23900 1.61100 30.91200
C  39.30300 1.24700 29.48800
C  37.95300 1.55700 28.97900
C  40.33300 1.56800 31.93000
C  40.45100 0.76100 28.67700
O  40.30500 0.35700 27.51100
C  41.82900 0.74300 29.27200
N  35.05000 1.71700 27.80600
C  36.21400 1.59600 27.10300
C  36.04800 1.50800 25.60300
C  34.48300 1.35100 25.53000
C  33.98700 1.62200 26.98300
C  36.69900 2.64800 24.67400
C  33.84300 -0.00800 25.01800
C  32.46900 0.15400 24.36200
N  33.15400 2.50400 29.71100
C  32.26700 2.39800 28.62600
C  30.87900 2.71700 29.03800
C  30.99500 2.91900 30.41100
C  32.39000 2.76600 30.73300
C  29.68500 2.75200 28.05800
C  30.27000 3.34200 31.58900
O  29.07800 3.63000 31.74800
C  31.31600 3.19800 32.77900
C  31.29500 4.55800 33.48000
O  31.79500 5.58200 33.03900
O  30.57200 4.45100 34.63500
C  30.57200 5.63800 35.46600
H  38.22200 2.20700 33.31100
H  38.23300 1.29800 26.86900
H  31.97500 1.96600 26.48200
H  33.93600 4.23500 34.41200
H  35.93500 1.89000 34.77000
H  37.30600 4.60900 34.14700
H  37.38400 3.74100 35.67300
H  36.07000 4.93400 35.25100
H  33.19900 1.36600 34.57400
H  32.26900 2.73200 35.25900
H  34.47300 1.26700 36.70000
H  32.84000 1.60900 37.12200
H  40.67100 0.54100 32.06400
H  40.14900 1.93400 32.94000
H  41.29200 1.95800 31.59000
H  42.53800 0.27500 28.58900
H  41.90900 0.15200 30.18400
H  42.10100 1.78900 29.41000
H  36.54000 0.56300 25.37200
H  34.10200 2.11200 24.85000
H  35.91500 3.35100 24.39200
H  37.18100 2.15000 23.83300
H  37.46900 3.21700 25.19400
H  33.70100 -0.73300 25.81900
H  34.48700 -0.56400 24.33700
H  31.66700 -0.28100 24.95900
H  32.47600 -0.27800 23.36200
H  32.23700 1.21500 24.26600
H  29.11100 3.67600 28.11600
H  28.92000 1.98800 28.19400
H  30.07700 2.66300 27.04400
H  30.94000 2.50600 33.53300
H  31.51400 5.66600 36.01400
H  29.78600 5.53400 36.21500
H  30.35400 6.56500 34.93700

