158

Mg 8.00500 2.98700 26.99100
C  8.94400 1.57800 29.94500
C  5.76400 5.05300 28.78100
C  6.49500 4.25900 24.10100
C  9.26000 0.29900 25.31100
N  7.37400 3.27900 29.17600
C  8.04900 2.64400 30.17500
C  7.56500 3.29300 31.57900
C  6.41200 4.31400 31.17000
C  6.43100 4.18700 29.61300
C  5.08100 4.10200 31.85800
C  8.85000 3.90500 32.24700
C  8.49000 4.79200 33.51600
H  9.28300 4.41800 34.77400
N  6.45400 4.50500 26.55500
C  5.72300 5.22500 27.42400
C  4.86000 6.19000 26.70800
C  5.10400 6.00700 25.32700
C  6.05000 4.91400 25.27100
C  3.98400 7.20500 27.35900
C  4.64200 6.84800 24.10700
O  4.62400 6.44900 22.97500
C  4.09300 8.17600 24.38100
N  8.02000 2.47800 24.97400
C  7.40700 3.18100 23.96700
C  7.59600 2.49900 22.66400
C  8.52000 1.24500 23.07400
C  8.58700 1.30600 24.57300
C  6.23200 2.14000 21.95800
C  9.94400 1.14800 22.30800
C  10.21700 -0.17700 21.62000
N  9.04100 1.35900 27.44100
C  9.70100 0.45700 26.67300
C  10.42600 -0.53800 27.46900
C  10.30800 0.01000 28.78900
C  9.38400 1.05800 28.68800
C  11.31100 -1.61500 26.95600
C  10.59500 -0.23000 30.14600
O  11.31100 -1.07900 30.75000
C  9.71000 0.76300 30.95100
C  8.74100 -0.04400 31.81400
O  7.64300 -0.56900 31.47600
O  9.31300 -0.17300 33.06100
C  8.62900 -1.01500 34.08900
H  5.08900 5.70700 29.33700
H  6.11400 4.76100 23.21000
H  9.56300 -0.54300 24.68600
H  7.22700 2.50100 32.24600
H  6.68100 5.35500 31.35100
H  4.80500 5.04500 32.33000
H  5.20700 3.41000 32.69000
H  4.27100 3.77900 31.20400
H  9.49300 4.36800 31.49800
H  9.40200 3.11100 32.75000
H  7.44000 4.68500 33.78500
H  8.61700 5.85700 33.32100
H  2.95300 7.03900 27.04600
H  4.36900 8.18600 27.08100
H  4.03600 7.27500 28.44500
H  3.15500 8.06200 24.92300
H  3.77600 8.69400 23.47600
H  4.91400 8.71900 24.85000
H  8.15200 3.15100 21.99100
H  7.90700 0.36700 22.87000
H  6.19400 2.76600 21.06600
H  5.47500 2.27300 22.73000
H  6.16200 1.07300 21.74400
H  10.77600 1.28100 23.00000
H  10.15100 2.04300 21.72000
H  11.13800 -0.48400 22.11600
H  10.50100 -0.02500 20.57900
H  9.42200 -0.90600 21.77700
H  11.91700 -1.16800 26.16800
H  10.64400 -2.41700 26.64000
H  11.94300 -1.70900 27.83900
H  10.44200 1.31400 31.54100
H  9.44700 -1.58000 34.53600
H  7.87300 -1.69100 33.69000
H  8.22700 -0.34300 34.84700
Mg 27.16100 50.48200 26.07600
C  25.07900 51.51400 28.68600
C  29.50600 49.71700 28.40600
C  29.28300 49.98300 23.47200
C  24.69200 51.47300 23.82900
N  27.14900 50.42200 28.34500
C  26.27500 51.00400 29.17500
C  26.64700 50.76300 30.66200
C  28.24300 50.39900 30.48600
C  28.33600 50.19500 29.01100
C  29.09700 51.59900 30.99800
C  25.80300 49.64800 31.34800
C  25.22600 50.05800 32.71600
H  25.47800 49.17900 33.95300
N  29.07600 49.86600 25.93900
C  29.89000 49.60300 27.04300
C  31.20900 49.15800 26.57400
C  31.22000 49.23100 25.14500
C  29.80900 49.73700 24.81000
C  32.38100 48.83300 27.50200
C  32.27700 48.81700 24.14800
O  32.14000 49.00200 22.92600
C  33.61500 48.25800 24.55100
N  27.06600 50.77900 23.88500
C  28.01800 50.40600 23.06100
C  27.50200 50.19600 21.60900
C  25.99500 50.55800 21.81100
C  25.92800 51.00100 23.23800
C  28.22600 50.99200 20.51400
C  24.88800 49.60300 21.27200
C  23.99800 50.15200 20.13200
N  25.37400 51.41400 26.16900
C  24.39300 51.72700 25.20400
C  23.20900 52.32700 25.76000
C  23.40300 52.19800 27.09800
C  24.72500 51.62300 27.30900
C  22.00300 52.87700 25.05000
C  22.78600 52.48700 28.43100
O  21.69300 52.86100 28.85000
C  23.86100 52.02600 29.48700
C  24.26800 53.21200 30.37600
O  25.15900 53.95300 30.11500
O  23.69200 53.13800 31.60900
C  23.88000 54.29600 32.54500
H  30.36600 49.49200 29.04000
H  29.98200 49.72800 22.67400
H  23.86600 51.62800 23.13100
H  26.34600 51.62400 31.26000
H  28.43000 49.50400 31.07900
H  29.92400 51.76000 30.30700
H  29.40900 51.35900 32.01500
H  28.45000 52.46900 30.88700
H  26.44000 48.78000 31.51700
H  24.97100 49.30700 30.73200
H  24.14700 50.02900 32.56300
H  25.45300 51.07800 33.02500
H  33.13100 48.11900 27.16000
H  31.99000 48.63800 28.50000
H  32.94100 49.76700 27.54000
H  34.23300 48.80700 25.26100
H  34.14400 48.06500 23.61800
H  33.51300 47.27900 25.02100
H  27.56700 49.12000 21.44500
H  25.84000 51.49400 21.27500
H  29.06800 51.57400 20.89000
H  27.51700 51.49300 19.85400
H  28.62200 50.17200 19.91500
H  24.14700 49.45400 22.05700
H  25.36700 48.69700 20.89900
H  24.26800 51.10900 19.68600
H  22.93100 50.25000 20.32900
H  24.06800 49.51500 19.25000
H  22.34500 52.98600 24.02100
H  21.85000 53.87800 25.45200
H  21.12400 52.24300 24.94000
H  23.59900 51.24600 30.20100
H  24.12700 55.22600 32.03200
H  24.63600 54.15200 33.31700
H  22.95900 54.50900 33.08700

