158

Mg -2.54000 17.61200 26.36500
C  -2.81200 14.92600 28.89800
C  -2.85200 19.83100 28.92400
C  -2.30700 19.92400 24.03800
C  -2.94400 15.03900 23.96000
N  -2.82400 17.34400 28.62600
C  -2.91400 16.22400 29.42700
C  -2.94800 16.61300 30.95300
C  -3.23600 18.18100 30.85000
C  -2.94300 18.47400 29.41900
C  -4.72000 18.56900 31.28600
C  -1.67100 16.14000 31.78100
C  -1.10100 16.94200 32.97500
H  -0.69100 16.23200 34.27600
N  -2.61500 19.62700 26.44800
C  -2.74300 20.37000 27.61600
C  -2.67700 21.73400 27.22900
C  -2.40700 21.82100 25.79400
C  -2.39000 20.41900 25.37300
C  -2.69800 22.85300 28.19200
C  -2.24900 23.02700 24.88200
O  -2.15600 22.90100 23.64600
C  -2.00500 24.32300 25.49200
N  -2.58700 17.43200 24.25300
C  -2.47300 18.57000 23.48200
C  -2.32100 18.20700 21.95100
C  -2.68700 16.65300 21.98500
C  -2.73400 16.32500 23.49900
C  -3.08700 19.06100 20.93900
C  -1.97400 15.64800 21.04800
C  -2.82500 14.72700 20.15400
N  -2.84500 15.44000 26.38100
C  -2.97000 14.56500 25.30300
C  -2.97900 13.22000 25.77800
C  -3.01600 13.36200 27.18400
C  -2.84200 14.65900 27.48400
C  -3.00000 11.93700 24.99500
C  -3.09800 12.56200 28.38800
O  -3.19300 11.36300 28.50400
C  -3.01100 13.60500 29.54600
C  -1.92000 13.11800 30.35300
O  -0.74600 13.48700 30.33900
O  -2.44100 12.22900 31.25300
C  -1.40400 11.61900 32.20300
H  -2.85100 20.56700 29.73100
H  -2.30400 20.70900 23.27900
H  -3.07300 14.30200 23.16500
H  -3.75100 16.04300 31.41900
H  -2.51100 18.60800 31.54300
H  -4.71700 18.83400 32.34300
H  -5.43300 17.76500 31.10400
H  -5.11200 19.40700 30.70900
H  -0.85500 15.93300 31.08900
H  -1.98200 15.22200 32.27900
H  -1.80300 17.64400 33.42600
H  -0.27400 17.57700 32.65700
H  -2.99300 22.59000 29.20800
H  -3.43300 23.57100 27.82800
H  -1.74400 23.37800 28.14800
H  -1.68900 25.04800 24.74200
H  -1.13500 24.09000 26.10600
H  -2.85800 24.56800 26.12600
H  -1.24100 18.25100 21.81100
H  -3.72000 16.63200 21.63600
H  -3.75600 19.63200 21.58300
H  -3.75000 18.48400 20.29400
H  -2.45800 19.70500 20.32400
H  -1.37900 15.06600 21.75300
H  -1.32500 16.17200 20.34700
H  -2.46800 14.64900 19.12700
H  -3.88000 14.99600 20.20900
H  -2.76000 13.74600 20.62500
H  -2.19200 11.93200 24.26300
H  -4.01800 11.86300 24.61300
H  -2.81300 11.14400 25.72000
H  -3.97200 13.54800 30.05800
H  -1.83700 10.85300 32.84600
H  -1.10900 12.45500 32.83800
H  -0.50700 11.21200 31.73600
Mg 36.45100 49.51000 25.16700
C  36.47800 47.68100 28.29200
C  35.22600 52.12500 26.75700
C  36.25700 51.08400 21.98000
C  37.40200 46.53400 23.49700
N  35.82000 49.74500 27.30100
C  36.00100 49.01400 28.43500
C  35.59900 49.75100 29.70400
C  35.14500 51.11800 29.05400
C  35.44200 50.99300 27.58800
C  33.69100 51.36800 29.43100
C  36.63400 49.89300 30.77200
C  36.25700 49.50200 32.23100
H  34.80500 49.74800 32.63300
N  35.80400 51.34400 24.42000
C  35.39200 52.34100 25.33500
C  34.99900 53.53800 24.58800
C  35.23600 53.23100 23.21300
C  35.84800 51.84300 23.13400
C  34.55600 54.76500 25.35500
C  35.05200 54.11700 22.01700
O  35.29400 53.81100 20.84200
C  34.63200 55.48700 22.36000
N  36.77500 48.88500 23.03900
C  36.57500 49.70200 21.93200
C  36.87400 48.95500 20.60500
C  37.35600 47.60000 21.11100
C  37.21000 47.66600 22.71200
C  35.74500 48.97500 19.57800
C  38.84500 47.28900 20.67400
C  39.04600 45.87600 20.03300
N  36.82300 47.50300 25.70300
C  37.22800 46.45100 24.94500
C  37.55200 45.34700 25.83400
C  37.18700 45.75600 27.09900
C  36.78200 47.13000 26.98600
C  37.95400 43.94900 25.40600
C  37.08400 45.37300 28.45300
O  37.38300 44.30300 29.00300
C  36.62800 46.66200 29.30100
C  35.39000 46.30500 30.04500
O  34.29400 46.11200 29.51900
O  35.63300 46.29600 31.38100
C  34.60200 45.83600 32.36700
H  34.82500 52.97900 27.30900
H  36.31600 51.65200 21.04900
H  37.89500 45.70500 22.98500
H  34.76500 49.16100 30.08300
H  35.74400 51.92500 29.47700
H  33.22000 50.54400 29.96600
H  33.04300 51.63500 28.59700
H  33.73000 52.25000 30.07000
H  37.15500 50.84500 30.67700
H  37.38100 49.13200 30.54500
H  36.85000 50.16700 32.85800
H  36.47000 48.45000 32.41900
H  35.36400 55.46900 25.15400
H  34.60600 54.67400 26.44000
H  33.61400 55.18200 24.99900
H  33.59000 55.37100 22.65900
H  34.62200 56.03200 21.41600
H  35.31300 56.03000 23.01600
H  37.69000 49.48600 20.11500
H  36.73800 46.83800 20.63600
H  35.80300 49.81700 18.88700
H  34.79400 48.75000 20.06000
H  35.78100 48.02500 19.04500
H  39.48000 47.24700 21.55900
H  39.26000 48.06700 20.03300
H  38.12500 45.32900 19.83100
H  39.65800 45.22400 20.65700
H  39.48000 46.11100 19.06100
H  37.11900 43.46600 24.89800
H  37.90200 43.32900 26.30100
H  38.85500 43.87500 24.79700
H  37.35700 46.86200 30.08700
H  33.59600 46.15000 32.09100
H  34.85700 46.32100 33.31000
H  34.67200 44.75400 32.47800

