158

Mg 41.22200 8.82700 29.94200
C  43.35700 10.16600 32.50600
C  39.00700 8.02000 32.47600
C  39.27600 7.47400 27.68200
C  43.95200 8.97500 27.74600
N  41.29100 9.07100 32.24900
C  42.12800 9.81200 33.05100
C  41.51600 10.06600 34.41000
C  40.24600 9.13200 34.39400
C  40.11600 8.76600 32.93700
C  40.41000 7.90900 35.30800
C  41.39800 11.55900 34.86500
C  42.48000 12.08600 35.84700
H  42.00900 12.88700 37.09600
N  39.45100 7.89900 30.07700
C  38.62100 7.71000 31.15000
C  37.33900 7.10300 30.70900
C  37.38500 6.98300 29.32500
C  38.73200 7.48100 28.93500
C  36.31900 6.46700 31.62000
C  36.29500 6.46000 28.36000
O  36.59200 6.25100 27.21700
C  34.90400 6.21100 28.90700
N  41.59400 8.17800 28.08200
C  40.59700 7.71000 27.25400
C  40.96600 7.69600 25.77700
C  42.36200 8.40700 25.86000
C  42.65400 8.60900 27.30900
C  40.96600 6.28100 25.07300
C  42.53700 9.70100 25.03400
C  41.59400 10.81900 25.43400
N  43.18700 9.48600 30.02200
C  44.21600 9.46000 29.09400
C  45.38300 10.14300 29.62300
C  45.07100 10.52000 30.90800
C  43.74100 9.97600 31.13500
C  46.69000 10.25400 29.04900
C  45.58900 11.19800 32.11300
O  46.60800 11.81600 32.34400
C  44.43100 11.06600 33.18400
C  45.01200 10.42200 34.34200
O  45.08300 9.26300 34.57500
O  45.50400 11.41700 35.16900
C  46.75000 10.97800 35.87400
H  38.33100 7.81500 33.30800
H  38.58100 7.23100 26.87600
H  44.79600 9.17700 27.08300
H  42.25400 9.63400 35.08500
H  39.35600 9.68600 34.69400
H  40.49700 7.04100 34.65500
H  39.43800 7.77100 35.78000
H  41.19800 8.18600 36.00800
H  40.38700 11.62200 35.26800
H  41.49700 12.18500 33.97800
H  43.05400 12.71400 35.16500
H  43.14100 11.24300 36.04900
H  36.50100 6.79300 32.64400
H  36.36000 5.37800 31.57700
H  35.34100 6.89000 31.39200
H  34.38700 7.10600 29.25400
H  34.99300 5.41900 29.65000
H  34.30500 5.74600 28.12400
H  40.16800 8.34400 25.41300
H  43.17300 7.73800 25.57100
H  40.36800 6.42300 24.17200
H  40.59200 5.49800 25.73200
H  41.97800 6.01900 24.76500
H  42.34900 9.47000 23.98500
H  43.56000 10.06000 25.14600
H  42.11200 11.73300 25.72500
H  40.87700 10.57800 26.21900
H  41.04700 11.11700 24.54000
H  46.77700 9.68700 28.12300
H  47.43500 9.87500 29.74900
H  46.91200 11.30800 28.88400
H  44.09400 12.07800 33.41100
H  47.36000 10.40900 35.17300
H  46.59200 10.42400 36.79900
H  47.31500 11.86400 36.16500
Mg 47.85300 24.47900 27.90000
C  48.62600 26.80300 30.40100
C  47.30700 22.22200 30.45500
C  47.27000 22.27200 25.57600
C  48.81400 26.83400 25.54700
N  48.12200 24.50900 30.19200
C  48.26600 25.61900 30.96500
C  48.05000 25.29600 32.46900
C  47.57500 23.77200 32.44400
C  47.77600 23.41400 30.99500
C  48.33700 22.87300 33.47100
C  47.01100 26.29200 33.12300
C  46.41700 25.91400 34.45600
H  46.53100 27.09300 35.41900
N  47.25400 22.59000 28.04400
C  47.09900 21.78600 29.14000
C  46.80900 20.40000 28.68300
C  46.61700 20.42500 27.27000
C  47.05900 21.82500 26.90200
C  46.59500 19.27200 29.66000
C  46.06600 19.30400 26.27000
O  45.91800 19.53400 25.12400
C  45.79900 17.98700 26.81400
N  48.04500 24.60400 25.76800
C  47.63300 23.49400 25.04100
C  47.82400 23.81300 23.46200
C  48.04300 25.34000 23.55000
C  48.31800 25.65800 25.00800
C  48.84000 22.88000 22.80300
C  47.01100 26.27200 22.81300
C  45.61000 26.47900 23.35300
N  48.68100 26.46500 27.92300
C  48.93700 27.29300 26.85900
C  49.46100 28.55300 27.43900
C  49.39400 28.39900 28.84100
C  48.82700 27.10600 29.09800
C  49.87100 29.82400 26.73100
C  49.69900 29.00100 30.08200
O  50.28200 29.98200 30.33100
C  49.11000 28.06100 31.18600
C  50.15400 27.73800 32.19700
O  51.04400 26.89100 32.04400
O  49.99800 28.53300 33.34900
C  50.66000 28.08200 34.59300
H  47.11300 21.61900 31.34400
H  47.17700 21.51200 24.79700
H  49.22800 27.51700 24.80300
H  48.99300 25.42900 32.99900
H  46.52400 23.67900 32.71400
H  49.30500 22.52100 33.11400
H  47.65600 22.06500 33.73800
H  48.50100 23.47300 34.36600
H  46.20800 26.43400 32.40000
H  47.54300 27.23100 33.27600
H  46.75300 24.94300 34.81900
H  45.35200 25.90500 34.22100
H  47.00900 19.61300 30.60900
H  46.95500 18.35900 29.18600
H  45.54600 19.18000 29.94200
H  46.55400 17.61300 27.50400
H  45.70900 17.42100 25.88700
H  44.77200 17.95800 27.18000
H  46.94600 23.80800 22.81600
H  48.92400 25.58000 22.95500
H  48.90700 21.95000 23.36800
H  49.70600 23.54200 22.77900
H  48.59600 22.57800 21.78500
H  46.81800 25.89200 21.81000
H  47.53800 27.22600 22.79500
H  45.71100 26.57800 24.43400
H  44.89300 25.71300 23.05800
H  45.34400 27.48200 23.01900
H  48.93200 30.37400 26.67600
H  50.16700 29.64100 25.69800
H  50.64000 30.41500 27.22900
H  48.33900 28.65400 31.67900
H  50.31700 27.06500 34.78500
H  50.37200 28.71200 35.43500
H  51.74600 28.11900 34.51500

