158

Mg -1.31700 17.35000 26.76900
C  -1.99800 15.15000 29.41400
C  -2.03900 19.94400 29.02000
C  -1.23100 19.55000 24.18200
C  -1.33400 14.63700 24.65000
N  -2.00100 17.50300 28.98400
C  -2.18700 16.49800 29.79700
C  -2.51000 16.92000 31.27100
C  -2.66500 18.46400 31.06500
C  -2.20700 18.66600 29.56600
C  -4.01200 19.13700 31.47000
C  -1.53200 16.53500 32.44200
C  -1.50900 17.26200 33.77200
H  -0.27800 17.04500 34.60700
N  -1.52000 19.42900 26.60600
C  -1.79600 20.34900 27.64300
C  -1.77500 21.66500 27.14000
C  -1.64900 21.57300 25.74200
C  -1.43200 20.15300 25.44800
C  -2.05600 22.82800 28.03900
C  -1.75600 22.65300 24.67200
O  -1.74900 22.48400 23.47200
C  -1.91000 24.07200 25.09500
N  -1.39900 17.17700 24.79100
C  -1.22600 18.16800 23.87500
C  -0.88800 17.65400 22.42900
C  -0.73700 16.16900 22.75800
C  -1.17900 15.97400 24.18600
C  -1.98700 18.05600 21.44100
C  0.60200 15.55600 22.46100
C  1.76500 16.19700 23.26400
N  -1.54900 15.30900 26.97700
C  -1.54400 14.33700 26.03700
C  -1.81700 13.06500 26.53300
C  -1.88000 13.29200 27.93900
C  -1.73200 14.70900 28.11200
C  -1.96200 11.75700 25.71300
C  -2.14200 12.65100 29.18000
O  -2.26900 11.47100 29.51700
C  -2.24000 13.83600 30.20200
C  -1.19000 13.53400 31.16400
O  -0.08900 13.93300 31.10100
O  -1.85100 12.95600 32.21200
C  -0.99300 12.66500 33.37200
H  -2.23500 20.72100 29.76200
H  -1.14400 20.16200 23.28100
H  -1.35900 13.87400 23.87000
H  -3.42400 16.36000 31.46900
H  -1.84700 19.01100 31.53400
H  -4.70000 18.30300 31.60900
H  -4.34300 19.73700 30.62200
H  -3.92100 19.86300 32.27800
H  -0.55900 16.42800 31.96300
H  -1.76500 15.51100 32.73600
H  -2.36300 16.94100 34.36900
H  -1.58200 18.34800 33.72000
H  -3.11900 22.99900 27.87300
H  -1.48000 23.71500 27.77400
H  -1.93500 22.67800 29.11200
H  -1.09100 24.36300 25.75200
H  -2.89900 24.17100 25.54300
H  -1.72600 24.73500 24.25000
H  0.04000 18.10900 22.08300
H  -1.45200 15.65700 22.11400
H  -2.72100 18.79300 21.76500
H  -2.49000 17.12100 21.19200
H  -1.45300 18.59000 20.65500
H  0.71300 15.67700 21.38300
H  0.60000 14.48400 22.65900
H  1.43500 16.79700 24.11200
H  2.22200 16.77400 22.46100
H  2.47500 15.41900 23.54500
H  -0.94900 11.53100 25.37700
H  -2.60300 11.79000 24.83200
H  -2.36200 11.03200 26.42100
H  -3.20900 13.91400 30.69500
H  -0.55800 11.66700 33.33100
H  -1.64100 12.75100 34.24400
H  -0.18900 13.39000 33.49600
Mg 30.30600 58.21800 40.12900
C  27.69200 55.98800 39.18800
C  32.50000 55.84200 39.18700
C  32.67000 60.52700 40.74400
C  27.83200 60.82700 40.36100
N  29.98800 56.08200 39.31400
C  28.90400 55.35200 39.07600
C  29.27100 53.95200 38.55100
C  30.84900 54.01400 38.47600
C  31.16100 55.40800 39.03500
C  31.53600 52.80800 39.09500
C  28.72800 53.60800 37.15500
C  29.00100 54.63200 36.08100
H  28.03000 54.82300 34.92900
N  32.35900 58.13500 40.10900
C  33.00200 57.04700 39.70500
C  34.44800 57.28000 39.85300
C  34.58600 58.60800 40.29000
C  33.21600 59.17200 40.36700
C  35.45900 56.15400 39.53800
C  35.92900 59.31800 40.53000
O  36.98300 58.66000 40.51800
C  35.99100 60.72800 40.81900
N  30.20000 60.36800 40.55100
C  31.36300 61.01400 40.84400
C  31.08800 62.54500 41.00100
C  29.54600 62.54600 41.28700
C  29.13900 61.18100 40.71200
C  31.95700 63.44900 41.94200
C  28.72600 63.71400 40.72800
C  27.94000 64.52800 41.82800
N  28.24000 58.39400 39.92200
C  27.38000 59.49700 40.10100
C  25.99600 59.11600 39.88200
C  26.10900 57.73000 39.53500
C  27.47700 57.36100 39.57700
C  24.79600 60.00000 39.94200
C  25.28000 56.58900 39.16800
O  24.07300 56.46800 39.12900
C  26.29500 55.41700 38.88100
C  25.96700 54.26500 39.78300
O  26.36200 54.16400 40.89700
O  25.33900 53.26000 39.05100
C  25.05300 51.96700 39.63400
H  33.12700 55.06500 38.74400
H  33.50000 61.21800 40.90800
H  27.07900 61.58300 40.59400
H  29.02700 53.27300 39.36800
H  31.17600 54.11300 37.44100
H  32.41400 53.12400 39.65800
H  31.83800 52.06400 38.35800
H  30.87800 52.37700 39.84900
H  27.67600 53.32800 37.09800
H  29.50100 52.89400 36.87000
H  29.91800 54.46400 35.51600
H  29.10700 55.65900 36.43300
H  36.48100 56.45600 39.76400
H  35.58600 55.82500 38.50700
H  35.23900 55.30600 40.18800
H  35.67200 60.98700 41.82800
H  35.41700 61.30100 40.09100
H  37.02500 61.06900 40.75800
H  31.20700 62.99000 40.01300
H  29.41400 62.41800 42.36200
H  32.84600 62.92500 42.29300
H  31.29600 63.48900 42.80800
H  32.14100 64.42800 41.50000
H  27.97400 63.48200 39.97400
H  29.38200 64.40600 40.19900
H  28.14100 65.56000 41.54100
H  28.34000 64.30500 42.81700
H  26.87500 64.38700 41.64700
H  24.55200 60.24800 40.97500
H  23.93200 59.53600 39.46600
H  25.00700 60.95600 39.46200
H  26.20000 54.98400 37.88500
H  25.03100 51.80300 40.71200
H  25.73900 51.19400 39.28800
H  24.16900 51.69300 39.05800

