158

Mg 6.58800 54.32700 41.41200
C  6.23200 50.81700 41.14600
C  9.72100 53.84900 39.84400
C  6.66600 57.50100 40.89800
C  3.19200 54.51200 42.15800
N  7.72500 52.50000 40.39300
C  7.40200 51.19800 40.48200
C  8.62100 50.37100 40.01800
C  9.81300 51.38500 39.97300
C  9.04800 52.64600 40.07200
C  10.95900 51.13400 40.96300
C  8.34200 49.49300 38.74900
C  7.15700 49.85700 37.80000
H  6.40700 48.79600 37.05900
N  7.98700 55.51900 40.51200
C  9.15500 55.17300 39.99900
C  9.98800 56.37800 39.87900
C  9.15700 57.50000 40.12000
C  7.88400 56.86000 40.55500
C  11.44200 56.42800 39.49100
C  9.57700 58.95900 40.05500
O  10.71700 59.31800 39.77100
C  8.60100 60.11400 40.30900
N  5.09500 55.73000 41.27400
C  5.41800 56.97900 41.26000
C  4.28100 57.92600 41.63600
C  3.09200 56.97300 41.63800
C  3.84800 55.63100 41.72000
C  4.54700 58.66200 42.99900
C  2.37000 57.02800 40.24700
C  0.80200 57.15300 40.36700
N  5.08600 53.00900 41.89500
C  3.84000 53.24100 42.34400
C  3.29300 52.01200 42.82200
C  4.21200 51.01100 42.43100
C  5.30000 51.70100 41.80700
C  2.01500 51.79300 43.54500
C  4.53600 49.61700 42.45100
O  3.88900 48.70900 42.97700
C  5.72500 49.40500 41.58700
C  5.29200 48.50800 40.45500
O  4.50200 48.79500 39.54600
O  5.92000 47.27900 40.61200
C  5.44100 46.12800 39.84000
H  10.69400 53.74100 39.36000
H  6.58700 58.57400 41.08200
H  2.16200 54.58700 42.51200
H  8.81800 49.72500 40.87300
H  10.28300 51.42700 38.99000
H  10.67600 50.32100 41.63100
H  11.12600 52.01000 41.59000
H  11.90200 50.88200 40.47900
H  8.20600 48.44000 38.99500
H  9.23600 49.66200 38.14800
H  7.65800 50.52200 37.09700
H  6.52800 50.57200 38.33000
H  11.90100 57.21400 38.89300
H  11.72100 55.45300 39.09000
H  12.06000 56.36800 40.38700
H  8.44000 60.12300 41.38700
H  7.70900 60.00400 39.69200
H  9.11400 61.01000 39.95800
H  4.12400 58.75900 40.95000
H  2.42500 56.99800 42.49900
H  5.62200 58.76900 43.14400
H  3.92500 58.32300 43.82800
H  4.23100 59.67200 42.73900
H  2.41100 55.99800 39.89300
H  2.75500 57.75200 39.52800
H  0.57700 58.21900 40.34300
H  0.48700 56.75500 41.33100
H  0.33500 56.71300 39.48600
H  1.43000 51.02300 43.04100
H  1.37600 52.67400 43.48800
H  2.37400 51.42200 44.50500
H  6.48300 48.97000 42.23800
H  6.07200 45.26800 40.06400
H  5.39100 46.21800 38.75500
H  4.48900 45.85700 40.29500
Mg 15.85900 52.44700 24.95600
C  17.65200 51.11000 27.79000
C  13.23700 53.23000 26.94000
C  14.16600 53.12200 22.29800
C  18.49600 50.99500 23.06500
N  15.57100 52.17200 27.05500
C  16.41800 51.72200 28.08500
C  15.77200 52.02200 29.43600
C  14.33400 52.39200 29.03400
C  14.33000 52.63200 27.57000
C  13.12400 51.61100 29.64500
C  16.57200 53.06800 30.24000
C  16.86700 52.81400 31.67400
H  16.11000 51.77300 32.53600
N  14.00500 53.22500 24.65400
C  13.05400 53.50800 25.60200
C  11.89800 54.12900 25.00800
C  12.10500 53.95700 23.56200
C  13.45200 53.41400 23.43500
C  10.79900 54.58900 25.83400
C  11.06200 54.21500 22.40600
O  11.37900 54.01500 21.25200
C  9.80800 54.95600 22.75400
N  16.20300 52.03300 22.95000
C  15.37500 52.38100 22.06600
C  15.81000 51.93500 20.62100
C  17.26200 51.43200 20.86600
C  17.32700 51.49900 22.42000
C  14.83400 50.91600 20.01100
C  18.35100 52.30200 20.20500
C  18.15500 52.22900 18.65100
N  17.72200 51.25900 25.27700
C  18.65200 50.78300 24.43200
C  19.65200 50.03300 25.09200
C  19.28800 50.15500 26.43800
C  18.10800 50.90600 26.47500
C  20.76700 49.38900 24.43700
C  19.67500 49.77200 27.79700
O  20.69600 49.18800 28.19400
C  18.72400 50.37800 28.70800
C  18.11500 49.26700 29.54500
O  17.40300 48.34800 29.14400
O  18.61700 49.26400 30.83900
C  18.16900 48.12700 31.65100
H  12.41400 53.48700 27.61000
H  13.63000 53.34100 21.37100
H  19.31400 50.59300 22.46300
H  15.72100 51.14000 30.07400
H  14.16400 53.42600 29.33400
H  12.42600 51.27300 28.87800
H  12.42800 52.17100 30.26900
H  13.50500 50.69000 30.08600
H  16.09000 54.04400 30.18400
H  17.53100 53.11500 29.72600
H  16.85400 53.70800 32.29700
H  17.92500 52.58500 31.80800
H  9.94900 53.94100 25.61900
H  10.51200 55.58800 25.50700
H  10.98200 54.72400 26.90000
H  9.16800 55.02800 21.87500
H  10.11300 55.89700 23.21200
H  9.19300 54.36600 23.43300
H  15.63500 52.82900 20.02300
H  17.44300 50.36500 20.73200
H  14.04200 51.39400 19.43400
H  14.30200 50.25600 20.69600
H  15.33000 50.17900 19.38000
H  19.32900 51.86300 20.40300
H  18.34000 53.32300 20.58900
H  17.41600 51.46300 18.41300
H  19.11600 52.02700 18.17800
H  17.74900 53.15700 18.25000
H  20.94000 48.47400 25.00300
H  21.69200 49.96300 24.50200
H  20.47000 49.37400 23.38900
H  19.24500 51.05600 29.38400
H  18.99900 47.42700 31.74800
H  17.44200 47.38000 31.33200
H  17.93000 48.33100 32.69500

