158

Mg 3.52100 0.63200 44.16300
C  6.39900 2.69200 43.79000
C  1.65900 3.11900 42.75000
C  1.14100 -1.67700 43.60300
C  5.79300 -2.05400 44.82600
N  4.02700 2.52100 43.12800
C  5.27000 3.22000 43.11500
C  5.18900 4.56600 42.52300
C  3.57800 4.81500 42.60700
C  3.00300 3.36500 42.77800
C  3.22500 5.74600 43.78700
C  5.70100 4.66000 41.09800
C  6.34500 3.49100 40.38900
H  6.80900 3.82400 38.98700
N  1.66400 0.69600 43.40200
C  1.05400 1.84500 42.88100
C  -0.27400 1.51000 42.55800
C  -0.50600 0.18500 43.02300
C  0.75300 -0.36400 43.36200
C  -1.29600 2.41600 41.95100
C  -1.86900 -0.51100 42.83800
O  -2.90200 0.07200 42.48800
C  -1.92600 -1.99400 43.04400
N  3.41500 -1.63900 44.40600
C  2.33000 -2.30200 43.98700
C  2.53200 -3.83300 44.02700
C  4.09100 -3.92900 44.51900
C  4.51200 -2.46900 44.57200
C  1.54500 -4.74100 44.70800
C  4.99000 -4.81600 43.61300
C  6.15100 -5.72100 44.21500
N  5.63200 0.29600 44.38000
C  6.40700 -0.81600 44.72300
C  7.77000 -0.42000 44.95000
C  7.79700 0.94500 44.72700
C  6.48100 1.37100 44.35500
C  8.93100 -1.30000 45.41400
C  8.66700 2.10800 44.72600
O  9.85100 2.27600 45.06600
C  7.76700 3.32300 44.16500
C  7.57000 4.31300 45.31800
O  8.55800 4.84900 45.77800
O  6.27800 4.65100 45.65700
C  6.26600 5.66500 46.76700
H  1.02600 3.92300 42.36900
H  0.44500 -2.48400 43.36600
H  6.46500 -2.87400 45.08700
H  5.75500 5.31800 43.07400
H  3.20900 5.19700 41.65500
H  4.02500 5.87500 44.51600
H  2.30300 5.43500 44.27900
H  2.85000 6.66800 43.34400
H  6.60200 5.27200 41.07500
H  5.02300 5.04400 40.33500
H  5.87200 2.51400 40.48800
H  7.25200 3.34100 40.97400
H  -1.62700 2.08000 40.96900
H  -0.90000 3.42000 41.79800
H  -2.23300 2.43100 42.50700
H  -1.47000 -2.32400 43.97800
H  -1.48100 -2.46800 42.16900
H  -2.96700 -2.30600 43.12700
H  2.44700 -4.09000 42.97100
H  4.07300 -4.14300 45.58700
H  0.88100 -4.21800 45.39600
H  2.04500 -5.52700 45.27400
H  0.89200 -5.13500 43.92900
H  5.25200 -4.08200 42.85100
H  4.40000 -5.56600 43.08700
H  6.27300 -6.57700 43.55100
H  5.70200 -6.05400 45.15100
H  7.04200 -5.10400 44.32700
H  8.59800 -2.18100 45.96300
H  9.64500 -0.78600 46.05900
H  9.49500 -1.71800 44.58000
H  8.25000 3.81800 43.32300
H  6.65500 6.52800 46.22600
H  6.92300 5.28300 47.54800
H  5.32000 5.77800 47.29700
Mg 34.29500 49.36600 25.46100
C  34.83700 47.76000 28.53300
C  32.56400 51.86800 27.19500
C  33.76300 50.93100 22.48400
C  35.86700 46.62600 23.84600
N  33.72700 49.73100 27.58700
C  34.11200 48.95900 28.69400
C  33.72300 49.67400 29.98300
C  32.79400 50.87400 29.53100
C  33.04700 50.82600 28.00300
C  31.33300 50.76700 29.94000
C  34.93000 50.15200 30.85300
C  34.57100 51.19700 31.90100
H  33.29000 50.99800 32.71400
N  33.29500 51.15000 24.89200
C  32.80500 52.09300 25.82000
C  32.24200 53.21300 25.02700
C  32.47400 52.92500 23.66500
C  33.24600 51.65200 23.62900
C  31.54100 54.32600 25.65600
C  31.99600 53.77100 22.50500
O  32.36600 53.51000 21.39400
C  31.15500 54.97200 22.65800
N  34.69300 48.82400 23.42500
C  34.40400 49.69400 22.38800
C  34.89700 49.04400 21.01000
C  35.69300 47.74500 21.51100
C  35.36800 47.66600 22.97500
C  33.78300 48.75000 19.87200
C  37.19900 47.67800 21.11800
C  38.20100 48.56400 21.92900
N  35.18800 47.54500 26.00600
C  35.75200 46.51800 25.19500
C  36.18300 45.48700 26.01800
C  35.83600 45.91200 27.36600
C  35.24100 47.18000 27.29600
C  36.76700 44.20100 25.66400
C  35.77100 45.47000 28.73800
O  36.13100 44.39900 29.25600
C  35.26200 46.72400 29.51600
C  34.18600 46.42600 30.42500
O  32.95300 46.48200 30.20300
O  34.65300 45.81200 31.56700
C  33.71400 45.42300 32.66500
H  32.04600 52.66600 27.73000
H  33.62100 51.36000 21.49000
H  36.39800 45.81400 23.34500
H  33.26100 48.85900 30.54100
H  33.10900 51.83200 29.94500
H  31.09400 49.91200 30.57200
H  30.66500 50.81700 29.08000
H  31.04800 51.62500 30.54900
H  35.79500 50.48000 30.27500
H  35.23500 49.24900 31.38200
H  34.59800 52.20900 31.49900
H  35.41600 51.11200 32.58400
H  32.02100 55.27800 25.42800
H  31.46100 54.30800 26.74300
H  30.48900 54.28400 25.37100
H  31.68300 55.76100 23.19300
H  30.26200 54.82300 23.26500
H  31.03700 55.39800 21.66200
H  35.53200 49.73600 20.45600
H  35.20100 46.86500 21.09700
H  32.88300 48.94600 20.45500
H  33.81600 47.73000 19.49100
H  33.90700 49.51000 19.10100
H  37.39600 48.02100 20.10300
H  37.52000 46.63600 21.10800
H  38.91100 47.88700 22.40400
H  37.54000 49.09000 22.61800
H  38.74700 49.34800 21.40500
H  37.42800 43.79700 26.43000
H  37.33900 44.23600 24.73600
H  35.95500 43.49100 25.50600
H  36.15300 46.90400 30.11800
H  33.60400 44.34200 32.74100
H  32.65800 45.60700 32.46800
H  34.09900 45.88300 33.57600

