158

Mg 16.70700 52.73600 26.80000
C  18.82500 50.87700 28.76500
C  14.58200 53.06300 29.48000
C  14.57700 54.22000 24.76800
C  18.49400 51.59100 23.93200
N  16.74600 52.13000 29.00400
C  17.78400 51.39300 29.57400
C  17.60300 51.30500 31.08200
C  16.08000 51.66400 31.18600
C  15.69000 52.28400 29.84500
C  15.10600 50.51200 31.59200
C  18.55300 52.29100 31.79900
C  18.96500 52.01100 33.24900
H  17.96000 51.43800 34.18900
N  14.96700 53.75000 27.11900
C  14.23500 53.73800 28.28600
C  12.96700 54.45500 28.09100
C  12.88400 54.70000 26.65100
C  14.17300 54.31300 26.14300
C  12.09800 54.66700 29.12400
C  11.70400 55.17900 25.80800
O  11.87400 55.48000 24.58900
C  10.27600 55.48500 26.38400
N  16.49900 52.79000 24.63500
C  15.56900 53.59900 24.12700
C  15.73200 53.78200 22.61700
C  17.03700 53.00600 22.30700
C  17.42400 52.47500 23.72300
C  14.47800 53.48500 21.79600
C  18.15400 53.86200 21.62600
C  18.58100 55.08000 22.45000
N  18.27600 51.47200 26.37600
C  18.97400 51.20300 25.19500
C  20.07700 50.26900 25.50700
C  20.11600 50.17700 26.93600
C  18.95600 50.90000 27.38100
C  20.95200 49.77500 24.43200
C  20.78300 49.62500 28.10600
O  21.90800 49.07800 28.12800
C  20.03200 50.15700 29.38500
C  19.65900 49.06000 30.27000
O  18.88500 48.17500 29.93100
O  20.18100 49.27000 31.51300
C  19.84700 48.34600 32.62500
H  13.79100 53.11100 30.23200
H  13.99800 54.77600 24.02800
H  19.06900 51.30800 23.04800
H  17.72900 50.26300 31.37600
H  15.88800 52.47100 31.89200
H  14.19700 50.66800 31.01200
H  14.90900 50.47700 32.66400
H  15.58100 49.55300 31.38700
H  18.01100 53.23700 31.80900
H  19.38000 52.35400 31.09100
H  19.40500 52.92300 33.65300
H  19.73100 51.25200 33.09300
H  12.71700 54.96600 29.97000
H  11.65700 53.70800 29.39600
H  11.33100 55.42700 28.97400
H  9.88300 54.51400 26.68200
H  9.65100 55.89600 25.59100
H  10.36200 56.12400 27.26300
H  15.97000 54.83300 22.45600
H  16.86300 52.08200 21.75500
H  14.61400 52.87300 20.90400
H  14.03100 54.43800 21.51500
H  13.86200 52.91700 22.49400
H  17.69800 54.21500 20.70200
H  19.11100 53.43400 21.32700
H  19.59800 55.03500 22.84000
H  18.05800 55.18800 23.40000
H  18.45500 55.99500 21.87100
H  21.73300 49.14200 24.85300
H  21.45700 50.64800 24.02000
H  20.36600 49.33400 23.62500
H  20.64000 50.77100 30.04800
H  19.41900 47.41200 32.26000
H  19.14000 48.88100 33.25800
H  20.73300 48.09500 33.20800
Mg -12.42600 16.48900 42.15000
C  -9.29800 14.99500 41.88000
C  -11.29700 19.36100 40.81600
C  -15.69600 17.55600 42.02800
C  -13.72400 13.22300 42.76100
N  -10.50100 17.02200 41.25900
C  -9.28800 16.30700 41.29100
C  -8.09200 17.14700 40.79000
C  -8.72500 18.54400 40.68900
C  -10.27100 18.32600 40.92500
C  -8.04500 19.60600 41.63800
C  -7.50800 16.64000 39.53000
C  -6.03200 16.17900 39.72300
H  -5.51700 15.04400 38.83000
N  -13.34000 18.22900 41.49800
C  -12.67700 19.26400 40.97900
C  -13.55700 20.40700 40.90200
C  -14.83900 19.98400 41.25400
C  -14.70000 18.52300 41.65500
C  -13.15800 21.76600 40.36100
C  -16.05800 20.81100 41.16100
O  -16.08100 21.98600 40.81700
C  -17.38000 20.19000 41.53400
N  -14.44700 15.51500 42.37400
C  -15.60100 16.19400 42.26100
C  -16.80400 15.36700 42.44400
C  -16.19100 13.92600 42.52100
C  -14.72100 14.17200 42.40900
C  -17.63100 15.66300 43.67000
C  -16.66900 12.79400 41.43000
C  -17.01500 11.45600 42.13200
N  -11.74100 14.54500 42.43300
C  -12.35700 13.33300 42.71200
C  -11.36300 12.26500 42.76100
C  -10.15800 12.89000 42.51500
C  -10.44900 14.31500 42.29900
C  -11.59300 10.84600 43.09300
C  -8.65500 12.69000 42.38400
O  -7.96400 11.68300 42.50500
C  -8.12700 14.01900 41.97400
C  -7.16100 14.44900 42.96400
O  -7.35800 15.26200 43.84500
O  -5.94100 13.90000 42.69900
C  -4.79800 14.37500 43.48100
H  -10.83800 20.26700 40.41500
H  -16.72900 17.87000 41.86300
H  -14.21100 12.25300 42.88500
H  -7.31200 17.03100 41.54200
H  -8.59900 19.06400 39.74000
H  -8.56900 20.56100 41.60400
H  -7.05200 19.80400 41.23400
H  -8.21800 19.29700 42.66900
H  -7.39700 17.43400 38.79200
H  -8.15300 15.91600 39.03300
H  -5.78800 15.87200 40.74000
H  -5.37300 17.03400 39.57300
H  -13.75100 21.99100 39.47600
H  -12.17400 21.67100 39.90200
H  -13.11300 22.62200 41.03400
H  -17.60300 19.36100 40.86300
H  -18.17900 20.92100 41.41400
H  -17.48100 19.93300 42.58900
H  -17.31100 15.38400 41.47900
H  -16.44000 13.55700 43.51600
H  -17.50300 16.67900 44.04400
H  -17.40100 15.05500 44.54400
H  -18.67600 15.70400 43.36200
H  -15.82500 12.55000 40.78400
H  -17.46400 13.22700 40.82300
H  -16.65000 11.49300 43.15900
H  -16.48400 10.61600 41.68500
H  -18.09800 11.34400 42.08700
H  -10.71600 10.20100 43.13600
H  -12.28500 10.35400 42.41000
H  -11.92300 10.83100 44.13100
H  -7.58400 13.88800 41.03700
H  -4.25900 15.20000 43.01700
H  -4.17400 13.48200 43.45100
H  -5.07400 14.66800 44.49400

