158

Mg 35.45000 1.34400 29.49200
C  33.13300 2.53700 31.74400
C  37.87900 1.83300 32.01700
C  37.82100 0.25700 27.44800
C  33.19500 1.52100 26.95100
N  35.52900 2.31400 31.59000
C  34.38000 2.38400 32.34000
C  34.74800 2.50000 33.82600
C  36.19100 2.78400 33.75600
C  36.60800 2.17500 32.36300
C  36.63600 4.23400 34.01500
C  34.22200 1.21100 34.69600
C  34.32300 1.26600 36.27700
H  34.91900 2.53100 36.89900
N  37.67400 1.17400 29.66900
C  38.42200 1.37300 30.81700
C  39.77400 0.98000 30.51300
C  39.74500 0.36500 29.22300
C  38.37200 0.57200 28.68200
C  40.82200 1.05200 31.62000
C  40.81400 -0.25100 28.43200
O  40.74800 -0.54300 27.25900
C  42.11600 -0.42900 29.16900
N  35.48500 0.94200 27.54000
C  36.59300 0.51900 26.82700
C  36.32600 0.32100 25.34300
C  34.79000 0.62600 25.23900
C  34.40300 1.03400 26.65600
C  37.10800 1.36100 24.45400
C  33.81900 -0.62800 24.76900
C  33.82800 -1.86500 25.59100
N  33.54900 1.84600 29.28200
C  32.74200 1.94400 28.21500
C  31.44300 2.48900 28.59200
C  31.54700 2.72300 30.06500
C  32.84500 2.33000 30.36900
C  30.32200 2.62000 27.65400
C  30.92100 3.18800 31.22600
O  29.77700 3.62400 31.42200
C  31.89700 2.95500 32.36700
C  32.11000 4.29600 33.06000
O  32.63500 5.25400 32.54900
O  31.60000 4.25500 34.29300
C  31.98900 5.46400 35.04500
H  38.57000 2.06300 32.83000
H  38.56400 -0.11500 26.73900
H  32.46300 1.59900 26.14400
H  34.33800 3.40100 34.28100
H  36.73600 2.20800 34.50300
H  35.81100 4.94400 33.95900
H  37.37200 4.53300 33.26900
H  37.17700 4.32500 34.95700
H  34.87100 0.40700 34.35000
H  33.24300 1.05300 34.24400
H  34.87800 0.33600 36.39600
H  33.33600 1.08100 36.70100
H  41.12900 0.01200 31.72600
H  40.43600 1.34400 32.59700
H  41.66500 1.68600 31.34400
H  41.90500 -1.22400 29.88500
H  42.55500 0.50300 29.52300
H  42.82000 -0.86600 28.46100
H  36.52600 -0.69300 24.99700
H  34.54800 1.41900 24.53200
H  37.83900 1.97900 24.97500
H  36.44700 1.87200 23.75500
H  37.81300 0.73600 23.90500
H  34.06100 -0.99300 23.77100
H  32.80800 -0.25000 24.61200
H  34.87100 -1.95000 25.89800
H  33.59000 -2.75400 25.00700
H  33.14500 -1.75400 26.43300
H  30.54500 2.10700 26.71900
H  29.99400 3.63200 27.41700
H  29.49200 2.12800 28.16200
H  31.49100 2.27000 33.11100
H  32.96800 5.93000 34.93000
H  31.93200 5.26400 36.11500
H  31.31500 6.29800 34.85100
Mg -0.35700 43.10900 25.77000
C  2.22300 42.52500 28.27000
C  -2.63800 41.96000 28.11000
C  -2.66500 43.45800 23.41300
C  2.25000 43.66200 23.51700
N  -0.15100 42.34400 27.93400
C  0.94400 42.29200 28.74600
C  0.58000 41.95200 30.20500
C  -0.89200 41.47900 29.97500
C  -1.27300 41.91400 28.55600
C  -1.23500 39.93600 30.16200
C  0.77100 43.14700 31.17300
C  1.18700 42.72300 32.59100
H  0.57600 41.44500 33.13900
N  -2.42000 42.85200 25.80400
C  -3.23000 42.35700 26.84700
C  -4.62600 42.60700 26.49800
C  -4.65100 43.00600 25.11300
C  -3.20900 43.12100 24.68400
C  -5.73200 42.56600 27.55200
C  -5.79400 43.43400 24.29800
O  -5.63000 43.86700 23.17400
C  -7.18900 43.36300 24.79800
N  -0.22900 43.53000 23.83800
C  -1.30100 43.50000 22.99300
C  -0.93100 43.97400 21.52100
C  0.59100 44.36800 21.71700
C  0.90500 43.86700 23.09000
C  -1.33400 42.99800 20.39100
C  1.06800 45.83500 21.53500
C  2.30800 46.09200 20.63500
N  1.78900 43.24000 25.83100
C  2.67100 43.44900 24.81700
C  4.09800 43.44500 25.32300
C  3.92400 43.10700 26.69900
C  2.57800 42.90800 26.94500
C  5.33100 43.64300 24.64100
C  4.57400 42.92000 27.91700
O  5.78900 42.92600 28.22400
C  3.50600 42.55000 28.97700
C  3.84000 41.36400 29.77200
O  3.77000 40.18700 29.40500
O  4.37800 41.69300 31.00300
C  4.58900 40.57400 31.92900
H  -3.31400 41.56200 28.87000
H  -3.42000 43.63300 22.64300
H  3.01100 43.83900 22.75400
H  1.22100 41.12900 30.51900
H  -1.57000 41.95600 30.68300
H  -0.35100 39.40300 30.51500
H  -1.40200 39.57100 29.14900
H  -2.05100 39.74000 30.85700
H  -0.23700 43.53200 31.32500
H  1.38200 43.95600 30.77100
H  0.95400 43.58000 33.22300
H  2.25700 42.54200 32.48200
H  -6.70800 42.20200 27.23000
H  -5.91000 43.54600 27.99500
H  -5.48900 41.85600 28.34200
H  -7.43500 43.62600 25.82700
H  -7.52300 42.33500 24.65600
H  -7.86200 43.85400 24.09500
H  -1.45900 44.90800 21.32700
H  1.15800 43.82700 20.95900
H  -2.14100 42.30800 20.63600
H  -0.51700 42.28600 20.27400
H  -1.68800 43.46100 19.47000
H  1.24400 46.22600 22.53700
H  0.21300 46.43900 21.23300
H  3.19700 45.79000 21.18900
H  2.43200 47.11800 20.28800
H  2.19200 45.37800 19.82000
H  5.33200 44.39500 23.85100
H  5.57500 42.66600 24.22400
H  6.10100 43.89100 25.37200
H  3.46100 43.32100 29.74600
H  5.18100 39.77500 31.48500
H  3.57800 40.38000 32.28800
H  5.05200 40.92400 32.85300

