158

Mg 1.89300 -1.80500 44.05200
C  5.38600 -1.48000 43.73800
C  1.46200 1.01200 42.42800
C  -1.31700 -2.73700 43.50900
C  2.54900 -5.03300 45.31200
N  3.24900 -0.47800 43.13600
C  4.62300 -0.45000 43.15100
C  5.17600 0.77100 42.34400
C  3.92900 1.75400 42.29400
C  2.77500 0.71900 42.66300
C  4.06700 2.93300 43.30000
C  5.71800 0.33800 40.92300
C  7.14100 0.86400 40.54700
H  7.41200 0.86800 39.05900
N  0.18400 -0.93900 43.09200
C  0.26400 0.27600 42.58100
C  -1.05100 0.58800 42.07800
C  -1.81800 -0.65900 42.13600
C  -0.98000 -1.47300 42.95300
C  -1.39200 1.99800 41.53000
C  -3.19000 -0.91800 41.64300
O  -3.70100 -0.08700 40.84200
C  -3.97400 -2.16600 41.75600
N  0.82200 -3.66600 44.32000
C  -0.50400 -3.73200 44.14900
C  -1.15700 -4.93400 44.92600
C  0.11700 -5.66700 45.45500
C  1.30300 -4.74300 44.97600
C  -2.17800 -4.47700 45.98200
C  0.29100 -7.15400 44.94400
C  0.63800 -8.11300 46.01500
N  3.56000 -3.00900 44.56700
C  3.64800 -4.27600 45.12600
C  4.98000 -4.59900 45.48300
C  5.73000 -3.51900 44.94200
C  4.80200 -2.66700 44.36000
C  5.52800 -5.87700 45.96900
C  7.07400 -2.94100 44.70600
O  8.20600 -3.30900 45.02700
C  6.90400 -1.66300 43.89500
C  7.56200 -0.50400 44.56200
O  7.45200 -0.27200 45.76500
O  8.27600 0.23000 43.67800
C  8.64800 1.64000 44.08400
H  1.44100 2.04700 42.08100
H  -2.32900 -3.09600 43.31000
H  2.77600 -5.96900 45.82700
H  6.06500 1.08100 42.89500
H  3.79500 2.14900 41.28700
H  4.42800 3.83700 42.81000
H  4.71700 2.74600 44.15500
H  3.11200 3.09300 43.80100
H  4.95800 0.65400 40.20800
H  5.82900 -0.73400 40.75900
H  7.83200 0.16700 41.02100
H  7.18300 1.88600 40.92400
H  -0.73700 2.30200 40.71400
H  -1.07900 2.67900 42.32200
H  -2.42900 2.31900 41.43000
H  -4.94700 -2.01700 41.28700
H  -4.23300 -2.25700 42.81100
H  -3.51900 -3.11000 41.45700
H  -1.60100 -5.54500 44.14000
H  0.14200 -5.67700 46.54500
H  -3.17100 -4.63100 45.56000
H  -1.95200 -3.42100 46.12800
H  -2.06200 -5.00100 46.93100
H  1.09200 -7.15500 44.20500
H  -0.64500 -7.47000 44.48300
H  -0.21600 -8.22800 46.68300
H  1.50300 -7.76800 46.58100
H  1.04000 -9.07900 45.71100
H  6.51900 -5.71700 46.39600
H  5.74200 -6.66500 45.24600
H  5.06900 -6.27300 46.87500
H  7.40000 -1.84900 42.94300
H  9.46600 1.55600 44.80000
H  7.87800 2.21900 44.59400
H  9.01800 2.31000 43.30800
Mg 25.91600 50.55100 26.24400
C  24.26100 52.20400 28.64000
C  28.27800 49.50700 28.66800
C  28.13700 49.34800 23.74400
C  24.01600 52.00100 23.76800
N  26.25800 50.90300 28.31000
C  25.32300 51.43300 29.14100
C  25.61600 51.02500 30.61200
C  27.06500 50.53400 30.57500
C  27.23400 50.19600 29.09400
C  28.11400 51.56100 31.02700
C  24.59200 50.09900 31.25700
C  24.43800 50.26400 32.78900
H  25.51100 50.77000 33.72300
N  27.87900 49.49900 26.18400
C  28.58600 49.21800 27.26600
C  29.75800 48.45900 26.83100
C  29.73400 48.42000 25.44800
C  28.55200 49.14600 25.04200
C  30.82000 47.94400 27.78800
C  30.68700 47.61000 24.52200
O  30.62100 47.65400 23.28500
C  31.70900 46.63000 24.99900
N  26.06400 50.55900 24.13900
C  26.93700 49.88500 23.31300
C  26.71100 50.23600 21.79400
C  25.18800 50.74600 21.94500
C  25.05900 51.11500 23.43100
C  27.77700 51.19100 21.27700
C  24.05000 49.81900 21.46300
C  23.31900 48.87900 22.48800
N  24.40900 51.90500 26.16600
C  23.73600 52.51500 25.09000
C  22.73300 53.41700 25.60100
C  22.88300 53.37900 27.03100
C  23.89000 52.42400 27.29500
C  21.77300 54.25800 24.88400
C  22.43800 53.88500 28.26500
O  21.56800 54.72500 28.52800
C  23.21200 53.07300 29.35200
C  23.74900 54.02900 30.27100
O  24.54200 54.89400 29.96300
O  23.32800 53.79100 31.52000
C  24.00900 54.44700 32.59300
H  28.86400 48.93600 29.39100
H  28.78100 48.91700 22.97500
H  23.39900 52.45600 22.99100
H  25.54500 51.93300 31.20900
H  27.29900 49.61700 31.11700
H  28.95400 51.64400 30.33700
H  28.43800 51.44700 32.06200
H  27.70700 52.55600 31.20300
H  25.02100 49.09900 31.20400
H  23.61300 49.99700 30.78800
H  24.05500 49.28100 33.06600
H  23.61600 50.97700 32.84700
H  30.83500 48.67300 28.59800
H  31.78700 48.12800 27.32100
H  30.71900 46.87400 27.97100
H  31.94700 45.84900 24.27800
H  31.20000 46.17600 25.84900
H  32.54000 47.30300 25.21000
H  26.67200 49.43100 21.06100
H  25.11300 51.67500 21.37900
H  28.67000 51.17400 21.90100
H  27.43200 52.17100 20.94600
H  28.21300 50.69300 20.41100
H  24.37600 49.17400 20.64700
H  23.28800 50.45700 21.01500
H  23.77000 48.83700 23.47900
H  23.43400 47.89100 22.04100
H  22.28900 49.17600 22.68800
H  22.22100 54.55400 23.93500
H  21.45900 55.06100 25.55200
H  20.82100 53.77300 24.66900
H  22.36900 52.55300 29.80700
H  23.84900 55.51500 32.44800
H  25.03000 54.08300 32.47500
H  23.60500 54.25600 33.58700

