158

Mg 9.12200 47.92500 26.25300
C  7.14700 48.01300 29.26300
C  11.72500 49.20200 28.01800
C  10.66900 47.97700 23.40100
C  5.95100 47.30600 24.49800
N  9.35100 48.68300 28.43200
C  8.49100 48.43100 29.51300
C  9.13300 49.02000 30.86700
C  10.60500 49.39900 30.34700
C  10.59900 49.15100 28.84500
C  11.19900 50.74100 30.90500
C  9.20000 48.00000 32.02200
C  8.53300 48.46000 33.41300
H  8.39200 47.39600 34.49400
N  10.94700 48.38700 25.82700
C  11.92700 49.00200 26.65500
C  13.16500 48.98800 25.92100
C  12.99500 48.55400 24.64600
C  11.47300 48.32300 24.55700
C  14.49700 49.31800 26.60800
C  13.96800 48.30600 23.48100
O  13.63800 47.71900 22.43800
C  15.42700 48.79400 23.66300
N  8.34200 47.88400 24.08900
C  9.28400 47.75200 23.18500
C  8.61300 47.38200 21.82400
C  7.16300 47.05200 22.21700
C  7.05900 47.47700 23.69300
C  8.74700 48.52800 20.81400
C  6.76500 45.63900 21.85400
C  7.60500 44.47800 22.49300
N  6.99600 47.71600 26.65700
C  5.83400 47.47300 25.86300
C  4.69100 47.38300 26.72200
C  5.13100 47.50300 27.99100
C  6.59100 47.75800 27.95400
C  3.33800 47.06200 26.20600
C  4.70300 47.60600 29.38100
O  3.58600 47.48400 29.83400
C  6.01900 47.76700 30.22300
C  6.34400 46.65000 31.07400
O  6.99500 45.68700 30.73400
O  5.61200 46.61700 32.25900
C  5.55000 45.31800 32.99900
H  12.58600 49.41200 28.65600
H  11.22600 47.99600 22.46200
H  5.03400 47.01300 23.98200
H  8.55800 49.86800 31.23800
H  11.23800 48.56200 30.63900
H  11.42200 51.32200 30.01000
H  12.14900 50.63100 31.43000
H  10.44400 51.29800 31.46000
H  10.21400 47.68100 32.26300
H  8.73100 47.06400 31.71900
H  7.53700 48.87300 33.24700
H  9.22400 49.16100 33.88100
H  14.92700 50.15800 26.06200
H  15.03500 48.37100 26.60700
H  14.39300 49.66400 27.63700
H  16.00900 48.71100 22.74500
H  15.83900 48.31300 24.55000
H  15.62800 49.82900 23.93800
H  9.26300 46.56700 21.50700
H  6.51700 47.75200 21.68800
H  8.33100 49.41400 21.29500
H  8.15900 48.35200 19.91300
H  9.80100 48.63800 20.56200
H  6.79100 45.58700 20.76500
H  5.71900 45.40600 22.05300
H  8.23400 44.89900 23.27700
H  8.14100 43.94100 21.71000
H  6.97400 43.70600 22.93300
H  2.79000 47.95800 25.91600
H  2.70300 46.61600 26.97100
H  3.41600 46.28400 25.44700
H  6.11500 48.72800 30.72900
H  5.73700 45.60800 34.03300
H  6.32300 44.59000 32.75400
H  4.57500 44.87600 32.79100
Mg -12.68000 16.01900 42.10600
C  -9.61600 14.15700 41.84200
C  -11.08200 18.56100 40.36100
C  -15.65700 17.20100 41.35500
C  -14.05800 13.10100 43.60900
N  -10.51200 16.30900 41.28100
C  -9.45800 15.43800 41.28900
C  -8.25600 16.00100 40.46300
C  -8.72300 17.55400 40.28100
C  -10.18700 17.55700 40.78400
C  -7.85900 18.64300 41.12500
C  -8.08600 15.21300 39.10200
C  -6.66100 15.07500 38.49500
H  -6.02000 16.03900 37.50800
N  -13.29100 17.70600 41.06600
C  -12.49700 18.70600 40.49700
C  -13.30600 19.81900 40.08400
C  -14.67900 19.50600 40.37300
C  -14.63800 18.11900 41.07600
C  -12.82200 21.12800 39.47300
C  -15.89100 20.39200 40.12800
O  -15.72600 21.47000 39.60900
C  -17.25000 20.18900 40.67200
N  -14.52400 15.20400 42.42200
C  -15.62900 15.95500 42.00200
C  -16.93000 15.22500 42.38100
C  -16.42300 13.99700 43.19400
C  -14.88100 14.08800 43.07400
C  -18.01300 16.07700 43.09800
C  -16.99700 12.62000 42.78300
C  -17.22900 11.65100 43.93300
N  -12.05800 13.96000 42.56700
C  -12.70400 12.93300 43.28000
C  -11.80800 11.84400 43.58500
C  -10.57400 12.25700 42.94400
C  -10.80700 13.51000 42.36200
C  -12.14800 10.55800 44.32100
C  -9.19400 11.86300 42.66000
O  -8.51500 10.90400 42.87900
C  -8.56500 13.00600 41.91200
C  -7.36900 13.50000 42.62900
O  -7.30400 13.68800 43.85600
O  -6.38600 13.76700 41.73900
C  -5.22800 14.44100 42.27800
H  -10.58300 19.41400 39.89600
H  -16.65600 17.54000 41.07400
H  -14.54400 12.27300 44.13000
H  -7.40800 16.01100 41.14700
H  -8.84400 17.77700 39.22100
H  -7.22700 19.21300 40.44400
H  -7.12500 18.05900 41.68000
H  -8.46200 19.28000 41.77300
H  -8.60500 15.75300 38.31000
H  -8.57900 14.24700 39.20600
H  -6.62700 14.03400 38.17500
H  -5.97800 15.14100 39.34200
H  -12.66600 21.81200 40.30700
H  -13.42800 21.42900 38.61800
H  -11.81100 21.01200 39.08400
H  -17.73500 19.54900 39.93600
H  -17.67000 21.18500 40.81400
H  -17.06800 19.57100 41.55100
H  -17.37700 14.78500 41.49000
H  -16.68700 14.12100 44.24500
H  -17.61500 17.06400 43.33000
H  -18.26600 15.70300 44.09000
H  -18.89600 16.03900 42.45900
H  -16.26700 12.16500 42.11300
H  -17.95300 12.78400 42.28500
H  -18.19000 11.14400 43.85100
H  -17.18300 12.15600 44.89800
H  -16.38700 10.97500 44.08300
H  -11.22400 9.98800 44.42300
H  -12.80300 9.89400 43.75700
H  -12.48600 10.82500 45.32200
H  -8.21600 12.73100 40.91700
H  -4.74500 15.06700 41.52800
H  -4.58900 13.62700 42.62000
H  -5.43400 14.99600 43.19300

