158

Mg 17.51100 50.69800 26.57500
C  19.65600 49.42300 29.07600
C  15.23300 51.52900 28.93700
C  15.81800 51.98000 24.09500
C  19.99700 49.59100 24.19800
N  17.35600 50.20500 28.71000
C  18.35700 49.87500 29.56300
C  18.04600 50.16700 31.07400
C  16.53800 50.55500 30.90800
C  16.39500 50.85400 29.40200
C  15.50600 49.54400 31.50500
C  18.87200 51.39300 31.65600
C  19.04600 51.49700 33.18600
H  18.11800 50.77200 34.10500
N  15.70800 51.53700 26.53800
C  14.95200 51.85600 27.59400
C  13.88600 52.64000 27.09600
C  14.09700 52.93800 25.76800
C  15.31000 52.13700 25.41800
C  12.79000 53.08800 27.96600
C  13.35800 53.85300 24.83100
O  13.72300 54.02300 23.67700
C  12.14200 54.53900 25.29800
N  17.92400 50.72400 24.39200
C  16.93400 51.27100 23.61100
C  17.28000 51.08500 22.14300
C  18.59700 50.27800 22.14200
C  18.84900 50.16600 23.67700
C  16.14500 50.50100 21.25700
C  19.82900 50.92600 21.44900
C  20.51600 50.15800 20.26200
N  19.35200 49.60100 26.59900
C  20.28500 49.31500 25.58500
C  21.55800 48.87400 26.13200
C  21.31600 48.88200 27.53400
C  20.01400 49.34600 27.75600
C  22.74000 48.62700 25.34800
C  21.90700 48.46100 28.80500
O  23.00600 47.93100 28.99200
C  20.87500 48.88400 29.94700
C  20.55300 47.62100 30.60100
O  19.85500 46.72100 30.09500
O  21.02300 47.62100 31.89800
C  20.23600 46.79200 32.80200
H  14.59600 51.90100 29.74300
H  15.21200 52.34100 23.26100
H  20.69000 49.29300 23.40800
H  18.20600 49.29100 31.70300
H  16.31200 51.47600 31.44500
H  15.97000 48.82000 32.17400
H  14.97200 49.12200 30.65300
H  14.77700 50.08200 32.11100
H  18.37500 52.30800 31.33700
H  19.88600 51.31700 31.26400
H  19.06400 52.50900 33.58900
H  19.98600 51.03500 33.49000
H  11.82400 52.72200 27.61900
H  12.99700 54.15000 28.09300
H  12.84200 52.61100 28.94500
H  11.51700 53.75900 25.73200
H  11.63500 55.01600 24.45900
H  12.28700 55.29500 26.07000
H  17.45000 52.09400 21.76900
H  18.47700 49.32200 21.63200
H  16.00200 51.18500 20.42000
H  15.17100 50.54400 21.74400
H  16.44200 49.52800 20.86500
H  20.58500 51.20200 22.18500
H  19.52200 51.89200 21.04800
H  20.83800 49.14400 20.49900
H  21.37800 50.72500 19.91100
H  19.85900 50.24200 19.39600
H  22.69000 49.35400 24.53700
H  22.62400 47.66300 24.85200
H  23.66100 48.66900 25.93000
H  21.33500 49.61200 30.61500
H  20.72400 45.84900 33.04800
H  19.28300 46.47500 32.37800
H  20.11900 47.43200 33.67600
Mg -13.15600 16.04800 41.70400
C  -10.23000 14.34400 41.07400
C  -11.74400 18.84800 40.16900
C  -16.10400 17.70800 41.96000
C  -14.77700 13.05300 42.47300
N  -11.13600 16.52000 40.82800
C  -10.12000 15.68600 40.64000
C  -8.97900 16.27100 39.85400
C  -9.44600 17.76700 39.86700
C  -10.89200 17.74700 40.35700
C  -8.61400 18.77400 40.67400
C  -8.63200 15.57100 38.46700
C  -7.11000 15.23800 38.16700
H  -6.48200 15.90100 36.91600
N  -13.82300 17.99100 41.21800
C  -13.12400 18.95100 40.52600
C  -13.98200 20.04400 40.28500
C  -15.19700 19.89800 40.92000
C  -15.12300 18.54200 41.42900
C  -13.48300 21.34100 39.57200
C  -16.29400 20.92700 40.95300
O  -16.10200 21.99600 40.42900
C  -17.58100 20.71700 41.73000
N  -15.18100 15.46700 42.05300
C  -16.17000 16.35700 42.34400
C  -17.41700 15.68700 42.92300
C  -16.88100 14.22300 43.23800
C  -15.48100 14.22900 42.60900
C  -18.24500 16.45300 43.99900
C  -17.88100 13.05300 42.86300
C  -18.43500 12.18400 43.99100
N  -12.65800 14.05900 41.84100
C  -13.40100 12.93600 42.08900
C  -12.55900 11.77000 42.02200
C  -11.23400 12.27100 41.67500
C  -11.39500 13.64100 41.49400
C  -12.96600 10.28800 41.99900
C  -9.85100 11.91500 41.46200
O  -9.29100 10.81700 41.57300
C  -9.14000 13.22000 40.92800
C  -7.92900 13.47600 41.66800
O  -7.84900 14.03200 42.71300
O  -6.81700 12.89500 41.12500
C  -5.59600 13.04400 41.97600
H  -11.22600 19.71000 39.74400
H  -17.04300 18.24900 42.09000
H  -15.26200 12.18600 42.92700
H  -8.06800 16.17100 40.44400
H  -9.62700 18.11100 38.84900
H  -9.25800 19.36500 41.32400
H  -8.05700 19.40100 39.97800
H  -7.89400 18.17900 41.23500
H  -8.92500 16.08900 37.55400
H  -9.23700 14.66400 38.47700
H  -7.18300 14.15000 38.15500
H  -6.59000 15.49600 39.09000
H  -13.54700 22.18000 40.26500
H  -14.02900 21.36200 38.62900
H  -12.47000 21.28200 39.17400
H  -18.16500 21.61600 41.53100
H  -17.37500 20.39600 42.75100
H  -18.02200 19.90200 41.15500
H  -18.05900 15.65300 42.04300
H  -16.68100 14.14300 44.30700
H  -17.71600 17.39600 44.14000
H  -18.21000 16.01200 44.99600
H  -19.29100 16.57800 43.72100
H  -17.34700 12.43600 42.14000
H  -18.80500 13.48600 42.48000
H  -19.46600 11.86100 43.84500
H  -18.27000 12.50500 45.02000
H  -17.80300 11.29700 43.95400
H  -12.19700 9.68800 42.48600
H  -13.07700 9.97900 40.96000
H  -13.93900 10.07700 42.44100
H  -8.75500 13.10900 39.91400
H  -5.29300 14.08900 41.90600
H  -4.76100 12.40500 41.69000
H  -5.77300 12.85700 43.03500

