158

Mg -2.46500 17.08100 27.19900
C  -2.75400 14.90600 29.92900
C  -2.97000 19.74300 29.25800
C  -2.28100 19.09300 24.41200
C  -2.14200 14.44400 25.11500
N  -2.88100 17.31400 29.37000
C  -2.97400 16.26300 30.30800
C  -3.03600 16.85600 31.72200
C  -3.31400 18.39400 31.38000
C  -3.14900 18.52600 29.86300
C  -4.69400 18.95200 31.97500
C  -1.74800 16.60900 32.55200
C  -1.50200 17.41800 33.87100
H  -1.25800 16.66100 35.26200
N  -2.51800 19.16800 26.85600
C  -2.71900 20.11700 27.89300
C  -2.72600 21.45500 27.30800
C  -2.48500 21.26100 25.86500
C  -2.37700 19.78500 25.64500
C  -3.04200 22.74300 27.97700
C  -2.19600 22.30500 24.78500
O  -2.02500 21.99800 23.60400
C  -2.24900 23.79200 25.12100
N  -2.34200 16.73900 25.09900
C  -2.26000 17.74400 24.18000
C  -2.23300 17.15700 22.70700
C  -1.91800 15.72100 22.97000
C  -2.18400 15.59500 24.47800
C  -3.60000 17.36100 21.96000
C  -0.47200 15.33200 22.65600
C  0.65700 15.92000 23.52500
N  -2.52800 15.12800 27.40700
C  -2.33700 14.14000 26.47200
C  -2.44700 12.82600 27.07300
C  -2.59800 13.07000 28.44700
C  -2.61100 14.51800 28.61000
C  -2.47500 11.45300 26.36500
C  -2.70800 12.43600 29.72100
O  -2.84200 11.28200 30.06900
C  -2.83300 13.58200 30.71800
C  -1.64300 13.36000 31.57400
O  -0.48500 13.58600 31.22100
O  -1.97100 12.87500 32.84900
C  -0.86700 12.58700 33.72300
H  -2.93100 20.61900 29.90900
H  -2.24600 19.63100 23.46300
H  -1.91400 13.58100 24.48600
H  -3.79700 16.23800 32.19900
H  -2.50500 19.04000 31.71900
H  -5.09000 18.08400 32.50200
H  -5.47800 19.34200 31.32600
H  -4.48200 19.70300 32.73600
H  -0.84000 16.48300 31.96200
H  -1.64100 15.60500 32.96500
H  -2.31000 18.14000 33.97900
H  -0.55100 17.94900 33.82900
H  -2.09000 23.25400 27.83200
H  -3.23900 22.67000 29.04600
H  -3.80500 23.28800 27.42200
H  -3.17400 24.23400 25.49300
H  -1.97700 24.28400 24.18800
H  -1.49000 24.05600 25.85800
H  -1.37500 17.53900 22.15500
H  -2.65400 15.07000 22.49700
H  -4.30000 17.99000 22.51100
H  -4.13100 16.42800 21.77200
H  -3.45800 17.77900 20.96400
H  -0.14200 15.59600 21.65200
H  -0.44600 14.24300 22.61600
H  1.07700 16.64500 22.82700
H  1.35500 15.15000 23.85500
H  0.41000 16.49400 24.41800
H  -1.75000 11.50700 25.55300
H  -3.48500 11.33500 25.97400
H  -2.18700 10.67500 27.07200
H  -3.78800 13.41100 31.21400
H  -1.17700 11.74400 34.33900
H  -0.57000 13.44600 34.32500
H  -0.01000 12.24700 33.14100
Mg 48.93500 35.30100 27.21500
C  47.01500 33.87400 29.94600
C  49.20800 38.10000 29.23800
C  49.87300 37.07600 24.50000
C  48.13800 32.51500 25.27700
N  48.23700 35.86100 29.39800
C  47.59600 35.06500 30.27800
C  47.86100 35.63300 31.64800
C  48.14700 37.14900 31.35700
C  48.60100 37.03000 29.89100
C  46.98300 38.08300 31.58100
C  49.11300 34.93600 32.35500
C  48.93200 34.68500 33.86000
H  49.75200 35.48700 34.81000
N  49.61900 37.23400 26.94300
C  49.64400 38.26700 27.94700
C  50.25200 39.45100 27.35300
C  50.56600 39.17300 25.91600
C  50.03300 37.78000 25.77000
C  50.57900 40.75600 28.17300
C  51.19200 40.03200 24.93600
O  51.31300 39.64000 23.79900
C  51.76400 41.47600 25.25600
N  49.00900 34.82100 25.24400
C  49.46300 35.79100 24.30000
C  49.65100 35.06800 22.89600
C  49.25200 33.57500 23.28800
C  48.71300 33.65700 24.71800
C  48.95500 35.61900 21.65100
C  50.57300 32.67300 23.27000
C  50.37400 31.30500 22.54900
N  47.86900 33.44200 27.55700
C  47.62900 32.41700 26.64400
C  46.99700 31.34500 27.38400
C  46.60100 31.88100 28.59500
C  47.25100 33.17100 28.69800
C  46.70100 29.91800 26.88400
C  45.87200 31.63200 29.79000
O  45.11600 30.71300 30.11300
C  45.98000 32.99700 30.68500
C  46.43900 32.53000 32.02300
O  47.46800 31.86500 32.23900
O  45.51500 32.89900 32.98500
C  45.89800 32.51300 34.39600
H  49.37500 38.95900 29.89100
H  50.39100 37.42400 23.60300
H  48.03200 31.58400 24.71500
H  46.91100 35.49600 32.16400
H  49.01900 37.45500 31.93500
H  47.18700 39.12800 31.81300
H  46.45100 37.66600 32.43700
H  46.37400 38.08100 30.67700
H  50.02000 35.52400 32.21800
H  49.33100 34.00800 31.82700
H  49.02900 33.61600 34.05200
H  47.90600 34.99300 34.06100
H  50.15400 41.62900 27.67800
H  51.63100 41.00300 28.31600
H  50.03100 40.90500 29.10400
H  52.12100 41.95000 24.34200
H  52.52400 41.46500 26.03800
H  50.90300 42.12600 25.41200
H  50.72800 35.18700 22.77300
H  48.47300 33.15000 22.65500
H  49.53200 36.41400 21.17900
H  48.07400 36.13900 22.02900
H  48.66300 34.95900 20.83400
H  50.96700 32.39600 24.24800
H  51.36200 33.15200 22.69000
H  50.93700 31.30400 21.61600
H  49.32500 31.07300 22.36300
H  50.72100 30.42300 23.08600
H  45.85100 29.93900 26.20100
H  46.45700 29.31200 27.75600
H  47.59800 29.60000 26.35200
H  44.99700 33.42300 30.88500
H  46.35800 33.36400 34.89800
H  46.60200 31.68200 34.44100
H  44.98600 32.26400 34.93700

