158

Mg 41.40700 8.15400 29.17900
C  43.32600 9.66500 31.67800
C  39.38700 6.80700 31.64300
C  39.58300 6.61800 26.73800
C  43.94200 8.99600 26.81900
N  41.40600 8.07500 31.36900
C  42.12300 8.95600 32.14600
C  41.63700 9.01300 33.57600
C  40.62900 7.89600 33.57700
C  40.41900 7.58800 32.08000
C  40.88300 6.67600 34.38200
C  41.13000 10.37200 34.06000
C  40.38800 10.31800 35.46900
H  41.00300 10.99000 36.66200
N  39.68100 7.06400 29.16900
C  38.99200 6.55400 30.28100
C  37.69000 6.02300 29.84500
C  37.67400 6.09300 28.45100
C  39.01700 6.65300 28.00900
C  36.70700 5.43400 30.80000
C  36.51600 5.77700 27.44600
O  36.62200 5.71300 26.22800
C  35.14500 5.60000 28.04900
N  41.83600 7.56400 27.14100
C  40.86100 7.05700 26.31700
C  41.43500 6.84500 24.89500
C  42.54700 7.94900 24.89400
C  42.84000 8.22100 26.40100
C  41.92900 5.40100 24.64200
C  42.11100 9.24600 24.11000
C  41.28400 10.35800 24.84400
N  43.24700 9.16300 29.16800
C  44.17400 9.46500 28.13400
C  45.13900 10.29500 28.66700
C  44.84100 10.42500 30.02800
C  43.69400 9.72300 30.31200
C  46.31000 10.87000 27.86900
C  45.31300 11.02200 31.25700
O  46.18600 11.82300 31.51000
C  44.31900 10.47200 32.38900
C  45.00200 9.76200 33.47300
O  45.40300 8.60300 33.46800
O  45.12100 10.62700 34.46300
C  45.41500 9.93800 35.73300
H  38.72700 6.54200 32.47200
H  39.00000 6.07200 25.99300
H  44.54100 9.32800 25.96900
H  42.45500 8.79700 34.26400
H  39.67800 8.27900 33.94800
H  40.59300 5.75400 33.87700
H  40.23300 6.70000 35.25600
H  41.86200 6.55100 34.84500
H  40.52100 10.84500 33.29000
H  41.97800 11.01000 34.30900
H  39.94700 9.35700 35.73500
H  39.55700 11.00900 35.32800
H  35.96600 6.09100 31.25700
H  37.37300 5.04600 31.57100
H  36.22400 4.53800 30.41100
H  35.13100 4.59600 28.47400
H  34.43900 5.49500 27.22500
H  34.73400 6.37400 28.69700
H  40.73000 7.21900 24.15300
H  43.47800 7.57200 24.47200
H  41.98300 5.30400 23.55800
H  41.23300 4.62600 24.96500
H  42.92200 5.21100 25.04900
H  41.64000 9.00200 23.15800
H  43.05600 9.74000 23.88500
H  40.46200 10.66600 24.19800
H  41.93900 11.21100 25.02200
H  40.97700 9.89800 25.78300
H  46.41400 11.94800 27.99700
H  46.15900 10.65300 26.81200
H  47.19300 10.32600 28.20500
H  43.71500 11.26600 32.82900
H  46.12300 9.11100 35.69200
H  44.46400 9.64100 36.17600
H  45.75300 10.65300 36.48200
Mg 35.39000 49.33800 25.00900
C  35.00800 47.55000 28.08400
C  33.78200 52.03100 26.65300
C  35.19600 50.89700 22.14600
C  36.39600 46.40100 23.45700
N  34.57900 49.76100 27.18700
C  34.60700 48.92700 28.21600
C  34.03600 49.46600 29.50800
C  33.55300 50.92400 29.03200
C  34.04200 50.98200 27.54800
C  32.08100 51.22700 29.18600
C  35.07000 49.47300 30.69800
C  34.55100 49.09900 32.10400
H  33.00800 48.81800 32.27700
N  34.74300 51.22900 24.53300
C  34.11000 52.18400 25.33700
C  33.93300 53.41600 24.58700
C  34.33600 53.10800 23.22300
C  34.72600 51.66800 23.27100
C  33.13900 54.59200 25.12100
C  34.26500 54.09500 21.99700
O  34.30100 53.64600 20.82800
C  33.96200 55.57000 22.20400
N  35.62300 48.67800 23.05700
C  35.50200 49.56100 21.99500
C  35.93900 48.90000 20.66200
C  36.45200 47.46500 21.15600
C  36.21100 47.50700 22.64600
C  34.84500 48.98600 19.57800
C  37.83500 47.05700 20.71600
C  39.07800 47.39100 21.58500
N  35.72400 47.37200 25.58500
C  36.18900 46.24300 24.90000
C  36.32100 45.13100 25.75700
C  35.89100 45.57100 26.99500
C  35.44000 46.92800 26.87200
C  36.96900 43.76200 25.53400
C  35.80000 45.24000 28.38200
O  36.20500 44.25000 28.99900
C  35.12000 46.41100 29.09800
C  33.76000 45.92400 29.63700
O  32.68400 46.39300 29.26700
O  33.96700 45.26400 30.86100
C  32.77700 44.84800 31.60000
H  33.41300 52.85500 27.26600
H  35.23100 51.49200 21.23100
H  36.79500 45.48100 23.02500
H  33.18100 48.88300 29.85100
H  34.12800 51.64200 29.61600
H  31.90700 51.91100 30.01700
H  31.65700 50.26900 29.48800
H  31.61300 51.73600 28.34300
H  35.65100 50.39100 30.60500
H  35.84800 48.71000 30.73700
H  34.86400 49.91700 32.75400
H  35.13900 48.30900 32.57000
H  33.76700 55.47000 24.97300
H  32.98500 54.58600 26.20000
H  32.22800 54.65700 24.52600
H  32.90400 55.49400 22.45300
H  34.06300 55.97600 21.19800
H  34.44600 56.17700 22.96900
H  36.73400 49.61000 20.43200
H  35.95500 46.65500 20.62300
H  33.94500 49.23300 20.14100
H  34.71300 48.07800 18.98800
H  34.99300 49.81900 18.89000
H  38.11800 47.58400 19.80500
H  37.81800 46.00500 20.43200
H  39.54400 48.24700 21.09700
H  39.77400 46.55200 21.58500
H  38.85600 47.67200 22.61400
H  37.78300 43.76100 24.80900
H  36.14700 43.06900 25.35600
H  37.47800 43.50700 26.46400
H  35.67600 46.63200 30.00800
H  32.68900 43.76200 31.57900
H  31.78700 45.23500 31.35800
H  33.06300 45.12200 32.61600

