158

Mg 26.26300 0.78400 28.73700
C  28.09200 -0.05400 31.69800
C  23.52900 1.22600 30.66200
C  24.47300 0.84100 25.85600
C  29.11500 -0.30900 26.89700
N  25.93500 0.61900 30.92000
C  26.82400 0.41700 31.96500
C  26.22100 0.82900 33.32600
C  24.71800 1.01000 32.95300
C  24.71000 0.95300 31.42700
C  23.77000 -0.00800 33.71200
C  27.03400 1.98200 33.93200
C  27.55100 1.71000 35.31000
H  27.49500 2.81800 36.27600
N  24.24500 1.00500 28.33900
C  23.29200 1.23900 29.22200
C  22.03100 1.43300 28.50000
C  22.29400 1.23300 27.14300
C  23.70000 1.09700 27.06100
C  20.73500 1.71800 29.25000
C  21.36200 1.24500 25.93800
O  21.71100 1.11500 24.77300
C  19.89000 1.49800 26.24600
N  26.76900 0.30800 26.70500
C  25.85800 0.75300 25.69200
C  26.53700 0.58700 24.29900
C  28.06200 0.51500 24.69300
C  27.99000 0.09400 26.15800
C  26.02700 -0.65700 23.45400
C  28.90400 1.79800 24.34600
C  29.28500 1.90400 22.85400
N  28.14300 -0.00800 29.11300
C  29.18900 -0.47300 28.29200
C  30.28100 -0.95500 29.11800
C  29.90500 -0.72900 30.38700
C  28.63300 -0.21100 30.38800
C  31.58400 -1.35300 28.59400
C  30.37900 -0.86100 31.72500
O  31.41600 -1.24700 32.18000
C  29.22700 -0.44200 32.71600
C  28.83600 -1.42600 33.78300
O  27.95100 -2.22500 33.78600
O  29.62400 -1.21800 34.91100
C  29.39200 -2.11500 35.99100
H  22.85000 1.75200 31.33600
H  23.96400 1.02300 24.90700
H  30.07400 -0.52700 26.42200
H  26.43800 -0.04800 33.93700
H  24.41000 2.03700 33.14700
H  24.42400 -0.72100 34.21500
H  23.15700 -0.50200 32.95900
H  23.18100 0.53900 34.44800
H  26.47100 2.91400 33.88800
H  27.93400 2.10900 33.33000
H  28.60000 1.44700 35.17400
H  27.13100 0.80800 35.75600
H  19.98900 0.92500 29.21900
H  20.41100 2.74400 29.07400
H  21.11600 1.81600 30.26700
H  19.48700 0.94100 27.09200
H  19.38700 1.18200 25.33300
H  19.76300 2.54500 26.52100
H  26.25600 1.50500 23.78300
H  28.63400 -0.27900 24.21300
H  26.71000 -1.47600 23.23100
H  25.46900 -0.26900 22.60100
H  25.17200 -0.99400 24.03900
H  29.74700 1.93200 25.02300
H  28.29000 2.66200 24.59700
H  28.88800 1.14600 22.17900
H  30.36000 1.77200 22.73300
H  28.88300 2.83900 22.46500
H  32.34900 -1.10000 29.32800
H  31.91200 -0.77700 27.72900
H  31.55400 -2.42500 28.39900
H  29.67200 0.35900 33.30500
H  28.44500 -1.82000 36.44200
H  30.24400 -2.10900 36.67200
H  29.32400 -3.16100 35.69300
Mg 46.76600 24.39000 28.47800
C  47.43600 26.55600 31.17000
C  45.87600 22.00100 30.81600
C  46.33800 22.17800 25.97600
C  48.30700 26.64000 26.35900
N  46.64900 24.34000 30.69600
C  46.80100 25.36000 31.59500
C  46.42400 24.99700 33.02300
C  46.25900 23.47300 32.88500
C  46.26500 23.22300 31.37100
C  47.34200 22.56500 33.61700
C  45.22700 25.87500 33.55400
C  45.63700 26.63100 34.85400
H  46.12500 25.80000 36.02600
N  46.06900 22.43600 28.38200
C  45.81700 21.57400 29.45700
C  45.55000 20.18500 29.04900
C  45.49800 20.24500 27.60100
C  46.05800 21.63100 27.24200
C  45.19500 19.04500 29.94300
C  45.20000 19.19700 26.53900
O  45.21300 19.45400 25.36400
C  44.67200 17.97400 26.94800
N  47.25600 24.38700 26.45600
C  46.83300 23.44600 25.54500
C  47.28000 23.77500 24.12500
C  47.84900 25.19500 24.31600
C  47.79500 25.42600 25.82700
C  48.30300 22.78200 23.38600
C  47.16800 26.33700 23.40600
C  45.76200 26.81000 23.84800
N  47.72200 26.18000 28.66800
C  48.30900 26.99200 27.71500
C  48.84200 28.12900 28.34200
C  48.60500 28.00900 29.70100
C  47.82400 26.85400 29.84000
C  49.57500 29.13100 27.59100
C  48.87500 28.59400 31.00700
O  49.54200 29.55500 31.32600
C  48.06500 27.70900 31.99000
C  49.04100 27.39500 33.14200
O  49.77900 26.44600 33.20700
O  48.90200 28.31800 34.14300
C  49.46700 27.91800 35.47900
H  45.63900 21.23900 31.56100
H  46.18200 21.66500 25.02500
H  48.70300 27.30400 25.58900
H  47.28500 25.16000 33.67100
H  45.29100 23.17400 33.28700
H  47.57400 23.00200 34.58900
H  48.28600 22.34400 33.12100
H  46.97600 21.54100 33.68500
H  44.26900 25.37400 33.69000
H  45.05600 26.65400 32.81100
H  44.73100 27.10800 35.22900
H  46.34300 27.41500 34.57900
H  46.02600 19.06100 30.64900
H  44.95200 18.10800 29.44100
H  44.27000 19.38900 30.40500
H  45.36900 17.32700 27.48000
H  44.26000 17.28300 26.21200
H  43.85500 18.12900 27.65200
H  46.31800 23.81400 23.61400
H  48.90700 25.31700 24.08200
H  49.16300 23.38000 23.08200
H  47.76500 22.43300 22.50500
H  48.55200 21.96500 24.06400
H  47.08200 26.23100 22.32500
H  47.74300 27.25400 23.53700
H  45.05400 27.00100 23.04200
H  45.81200 27.80000 24.30100
H  45.24100 26.21300 24.59700
H  48.79700 29.55800 26.95800
H  50.25400 28.63800 26.89500
H  50.02600 29.92500 28.18700
H  47.29900 28.36400 32.40500
H  49.83200 28.86600 35.87500
H  50.26000 27.19500 35.29200
H  48.63400 27.42700 35.98200

