158

Mg 46.93900 34.74800 27.73200
C  45.47200 33.11000 30.48600
C  46.94500 37.50400 29.72400
C  47.83300 36.34100 25.12000
C  46.31200 31.79900 25.81100
N  46.28800 35.21400 29.94500
C  45.86300 34.36900 30.89200
C  45.97700 34.96800 32.27500
C  46.03000 36.46000 31.90700
C  46.41800 36.44300 30.41600
C  44.78900 37.35600 32.16600
C  47.22000 34.52600 33.04300
C  46.98600 34.39800 34.61300
H  45.87800 35.11900 35.36600
N  47.50600 36.57100 27.50100
C  47.54000 37.59200 28.44200
C  48.23700 38.74900 27.86400
C  48.41000 38.42200 26.48000
C  47.91200 37.09200 26.30300
C  48.61600 40.05300 28.63900
C  49.03400 39.33100 25.45900
O  49.15300 39.00300 24.28600
C  49.55900 40.74500 25.83600
N  47.09800 34.11400 25.75200
C  47.49900 35.01000 24.81700
C  47.58900 34.33600 23.44300
C  47.31400 32.83000 23.76300
C  46.92200 32.87000 25.19500
C  46.78800 35.06300 22.35300
C  48.36900 31.64400 23.55300
C  47.78000 30.35000 23.00300
N  46.14600 32.78100 28.02100
C  45.92900 31.70500 27.17600
C  45.31000 30.59000 27.85500
C  45.06300 31.12600 29.14900
C  45.66400 32.41100 29.22700
C  45.14200 29.18100 27.31700
C  44.48900 30.90300 30.47500
O  43.81100 29.98500 30.81200
C  44.55400 32.17100 31.30300
C  44.92200 31.71700 32.75800
O  46.00000 31.25500 33.10100
O  43.67200 31.54200 33.42300
C  43.87900 30.88400 34.69800
H  46.85800 38.43400 30.29000
H  48.08600 36.88200 24.20500
H  46.05600 30.94700 25.17900
H  45.08100 34.76300 32.86100
H  46.82400 36.89900 32.51100
H  44.68000 38.08500 31.36400
H  44.86600 37.85100 33.13400
H  43.86300 36.78200 32.21000
H  48.06400 35.18700 32.84700
H  47.44800 33.50500 32.74000
H  47.88200 34.53900 35.21700
H  46.84600 33.32400 34.73300
H  47.94000 40.89600 28.49800
H  49.62300 40.42200 28.44400
H  48.52300 39.90200 29.71500
H  50.35600 40.79400 26.57800
H  48.72600 41.40400 26.08400
H  49.97400 41.23200 24.95400
H  48.62100 34.44400 23.10900
H  46.44100 32.45200 23.23000
H  46.21000 35.87200 22.79800
H  46.17600 34.40900 21.73200
H  47.40400 35.53700 21.58900
H  48.86500 31.30100 24.46100
H  49.13600 32.08000 22.91300
H  48.36400 30.18900 22.09700
H  46.70100 30.26000 22.88500
H  47.92600 29.57300 23.75400
H  45.30000 28.40000 28.06000
H  45.88400 29.01400 26.53600
H  44.16100 28.95300 26.90000
H  43.52700 32.53500 31.31500
H  42.89800 30.82900 35.16800
H  44.51500 31.50500 35.32900
H  44.37800 29.92500 34.83500
Mg 40.91200 41.56600 26.93500
C  40.19000 43.89700 29.44400
C  41.96000 39.28100 29.48200
C  42.09800 39.61500 24.57700
C  40.20300 43.92800 24.51700
N  40.95500 41.59100 29.12800
C  40.64300 42.67900 29.95300
C  40.70500 42.23600 31.39500
C  41.57700 40.92300 31.44500
C  41.43200 40.52300 29.91100
C  43.07900 41.14400 31.84200
C  39.25500 42.17400 31.98000
C  39.09800 43.09500 33.22300
H  38.05100 42.71600 34.35400
N  41.82300 39.66900 27.02800
C  42.10000 38.87600 28.12200
C  42.66500 37.62700 27.64900
C  42.67200 37.65500 26.23100
C  42.18000 39.02300 25.84700
C  43.06500 36.43800 28.57000
C  43.05400 36.65600 25.27400
O  42.99000 36.83000 24.04900
C  43.66100 35.25900 25.69800
N  40.86500 41.61300 24.89300
C  41.54200 40.79400 24.11100
C  41.74500 41.14300 22.69400
C  40.81700 42.43200 22.59400
C  40.63300 42.72400 24.05500
C  43.16000 41.23600 22.08400
C  39.52000 42.13200 21.78300
C  38.33400 41.19600 22.14900
N  40.35000 43.49400 26.87800
C  40.05200 44.34200 25.84200
C  39.59900 45.59800 26.33900
C  39.71100 45.46200 27.74300
C  40.13700 44.14500 28.04400
C  39.11700 46.82500 25.60700
C  39.52100 46.16700 28.95600
O  39.27200 47.33800 29.19700
C  39.78300 45.13300 30.14200
C  40.91600 45.67100 30.92300
O  42.14600 45.57500 30.74900
O  40.44100 46.48400 31.85600
C  41.46900 46.94200 32.78400
H  42.36800 38.76500 30.35400
H  42.59400 39.05800 23.78000
H  39.95100 44.62400 23.71400
H  41.33600 42.95500 31.91800
H  41.08900 40.21700 32.11700
H  43.26600 42.12900 32.26900
H  43.64300 41.12500 30.91000
H  43.48700 40.41800 32.54500
H  39.02600 41.14700 32.26500
H  38.52900 42.39900 31.19900
H  38.75800 44.07100 32.87700
H  39.96800 43.20400 33.87100
H  44.13800 36.46900 28.38100
H  42.51600 35.54900 28.26100
H  42.89600 36.67800 29.62000
H  43.92000 34.75700 24.76600
H  42.94000 34.69500 26.29100
H  44.56400 35.46100 26.27400
H  41.21500 40.35800 22.15500
H  41.29700 43.23900 22.03900
H  43.21300 40.96300 21.03000
H  43.80300 40.54800 22.63200
H  43.47500 42.27700 22.15500
H  39.88800 41.95600 20.77200
H  39.01800 43.08100 21.59900
H  38.62500 40.64100 23.04200
H  38.32400 40.43400 21.37000
H  37.41800 41.78000 22.23600
H  38.66700 46.55900 24.65000
H  39.93900 47.48700 25.33200
H  38.47100 47.50500 26.16200
H  38.86100 44.94800 30.69300
H  42.17100 46.15000 33.04400
H  41.03500 47.32900 33.70600
H  42.02700 47.73200 32.28200

