158

Mg 8.94800 3.63100 27.16900
C  9.98700 2.29600 30.35400
C  6.69300 5.54200 28.88700
C  8.44400 5.12800 24.35700
C  10.93500 1.30900 25.59400
N  8.34000 3.81300 29.39300
C  8.97000 3.25900 30.46100
C  8.41100 3.69600 31.70900
C  7.17900 4.58200 31.24000
C  7.41800 4.64600 29.74300
C  5.82000 4.00100 31.66500
C  9.47500 4.43900 32.55600
C  9.54400 3.79100 34.02100
H  10.77000 4.11400 34.95200
N  7.70800 5.05600 26.64900
C  6.76800 5.69300 27.45400
C  6.09700 6.71400 26.71300
C  6.77600 6.72900 25.41000
C  7.77700 5.63300 25.43500
C  4.86400 7.47500 27.29900
C  6.55400 7.66600 24.23300
O  7.09500 7.53800 23.18100
C  5.70000 8.83300 24.42500
N  9.57200 3.31500 25.26100
C  9.15100 3.97900 24.27900
C  9.61500 3.48100 22.88400
C  10.47900 2.25400 23.25700
C  10.39900 2.34500 24.74600
C  8.40100 3.22200 21.93900
C  11.88100 2.30600 22.61000
C  12.17300 1.01800 21.76300
N  10.18000 2.11800 27.80100
C  10.96300 1.24600 27.01400
C  11.69100 0.33700 27.84700
C  11.45300 0.80400 29.16000
C  10.44200 1.82600 29.07800
C  12.66000 -0.54700 27.38300
C  11.80800 0.60800 30.57500
O  12.50800 -0.21600 31.12700
C  10.89300 1.58900 31.37100
C  10.17900 0.74600 32.36500
O  9.08600 0.21800 32.19400
O  10.96600 0.71300 33.55600
C  10.32500 0.04800 34.70000
H  5.96900 6.16200 29.42000
H  8.32200 5.61600 23.38800
H  11.39400 0.52200 24.99200
H  8.07600 2.76600 32.16800
H  7.29200 5.57100 31.68400
H  5.20000 4.88600 31.81200
H  5.88300 3.29300 32.49100
H  5.26700 3.42200 30.92500
H  9.04200 5.43600 32.64200
H  10.46100 4.48000 32.09300
H  9.47100 2.70400 33.99900
H  8.58400 4.09500 34.43800
H  4.48200 6.94500 28.17200
H  4.16900 7.74700 26.50400
H  5.25000 8.41300 27.69800
H  4.69700 8.54000 24.11600
H  6.06100 9.67700 23.83800
H  5.75600 8.96700 25.50500
H  10.19200 4.24600 22.36600
H  9.99100 1.31300 23.00200
H  7.44500 3.55800 22.34000
H  8.44400 2.18700 21.60000
H  8.47400 3.87900 21.07200
H  12.59700 2.18300 23.42200
H  12.15100 3.15200 21.97900
H  13.17300 1.26500 21.40700
H  11.47900 0.86100 20.93700
H  12.09400 0.10000 22.34700
H  12.11500 -1.43100 27.05100
H  13.45300 -0.78300 28.09200
H  13.12700 -0.11200 26.50000
H  11.55600 2.29100 31.87600
H  9.97300 0.69200 35.50600
H  11.02900 -0.66700 35.12500
H  9.47600 -0.58800 34.44800
Mg 35.46500 48.83100 25.13000
C  36.06700 46.94800 28.12300
C  34.46000 51.40200 27.26900
C  34.66000 50.67900 22.30400
C  36.34500 46.13600 23.23900
N  35.41900 49.13400 27.46900
C  35.67500 48.23200 28.48000
C  35.52000 48.89100 29.82100
C  34.66500 50.19200 29.44800
C  34.86800 50.30000 27.96100
C  33.18100 50.03200 29.80500
C  36.85500 49.09300 30.47600
C  36.87000 49.00900 32.06600
H  35.49100 48.83100 32.78500
N  34.71000 50.72500 24.78400
C  34.42600 51.60600 25.79200
C  34.04900 52.82100 25.17500
C  33.93900 52.63800 23.77000
C  34.51900 51.31300 23.57600
C  33.82700 54.10300 25.90200
C  33.30100 53.61500 22.76300
O  33.29000 53.40000 21.58500
C  32.76900 54.91000 23.15800
N  35.25700 48.44300 23.17200
C  35.03600 49.33000 22.16000
C  35.08200 48.72700 20.75900
C  35.75000 47.33000 21.01900
C  35.75600 47.26100 22.60000
C  33.69600 48.65300 20.08300
C  37.26800 47.19200 20.37100
C  38.44900 47.88800 21.15300
N  35.98700 46.91000 25.47300
C  36.40400 45.91900 24.62900
C  36.90300 44.79700 25.34700
C  36.71300 45.10700 26.72600
C  36.20200 46.42000 26.79200
C  37.31000 43.49400 24.80900
C  37.03600 44.70300 28.09500
O  37.70500 43.74600 28.55300
C  36.46200 45.83100 29.01400
C  35.25900 45.34300 29.72500
O  34.17300 45.05200 29.22700
O  35.60600 45.33400 31.09100
C  34.54900 44.93600 32.00300
H  34.09600 52.25400 27.84700
H  34.46200 51.32200 21.44400
H  36.74500 45.31400 22.64100
H  34.91600 48.15100 30.34600
H  35.03800 51.11900 29.88300
H  32.52000 50.09200 28.94100
H  32.87500 50.91100 30.37200
H  33.05500 49.09700 30.35100
H  37.12800 50.11300 30.20800
H  37.61200 48.41700 30.08000
H  37.33800 49.89400 32.49800
H  37.50900 48.18700 32.38900
H  34.27000 54.95500 25.38500
H  34.22500 54.11700 26.91600
H  32.75700 54.24200 26.05700
H  32.11900 54.91000 24.03300
H  32.14300 55.24300 22.33000
H  33.58600 55.60900 23.34100
H  35.67800 49.43100 20.17900
H  35.10300 46.58400 20.55700
H  33.47600 49.47700 19.40400
H  32.91600 48.45400 20.81700
H  33.63000 47.76700 19.45100
H  37.27500 47.53500 19.33600
H  37.46000 46.12400 20.47600
H  38.88900 48.53800 20.39600
H  39.20200 47.10600 21.24500
H  38.23600 48.30700 22.13700
H  36.74000 42.80500 25.43200
H  38.39900 43.47500 24.84600
H  36.89300 43.43900 23.80300
H  37.18300 46.14300 29.77000
H  34.99800 44.92900 32.99600
H  34.15000 43.95600 31.74300
H  33.85700 45.77400 31.91100

