158

Mg 24.04700 -6.80300 46.26000
C  26.29500 -4.68900 44.64400
C  21.60500 -5.93100 44.03300
C  22.05700 -9.33600 47.49100
C  26.81600 -8.14800 48.00200
N  23.92700 -5.39100 44.56500
C  24.98500 -4.56200 44.13100
C  24.53900 -3.87600 42.91400
C  23.01200 -4.23500 42.85600
C  22.81100 -5.23300 43.91100
C  22.02200 -3.07000 42.94300
C  25.31600 -4.25400 41.64200
C  25.80700 -3.05200 40.77900
H  25.40400 -3.22400 39.26800
N  22.00500 -7.43700 45.92500
C  21.18000 -6.94600 44.99100
C  19.88900 -7.62300 44.99000
C  19.96300 -8.57000 46.08500
C  21.42600 -8.56600 46.54200
C  18.65800 -7.24700 44.12900
C  18.82200 -9.46500 46.60700
O  17.74800 -9.59200 46.06200
C  18.93200 -10.31700 47.88600
N  24.42000 -8.63700 47.46100
C  23.41800 -9.51100 47.82200
C  23.95800 -10.56700 48.83300
C  25.52100 -10.26800 48.82700
C  25.60800 -8.90400 48.13800
C  23.33700 -10.46600 50.26400
C  26.38600 -11.28500 48.02300
C  27.31400 -12.26300 48.80300
N  26.07000 -6.50800 46.36400
C  27.06700 -7.06100 47.20600
C  28.32500 -6.38900 47.05500
C  28.00000 -5.42100 46.04200
C  26.64000 -5.55900 45.65500
C  29.62400 -6.74600 47.74600
C  28.68400 -4.34600 45.31100
O  29.80900 -3.84100 45.35800
C  27.59700 -3.86700 44.27500
C  27.32000 -2.36500 44.58800
O  26.68500 -1.95000 45.53000
O  27.83800 -1.58200 43.58300
C  27.48600 -0.13200 43.69300
H  20.76600 -5.68000 43.38000
H  21.41900 -10.05000 48.01600
H  27.72200 -8.53200 48.47400
H  24.67800 -2.80500 43.06000
H  22.79100 -4.64300 41.87000
H  21.06300 -3.24900 42.45600
H  22.38300 -2.16300 42.45900
H  21.84700 -2.77400 43.97700
H  24.72300 -4.96500 41.06700
H  26.20300 -4.80700 41.95200
H  26.86600 -2.86800 40.96000
H  25.37700 -2.08000 41.02100
H  17.99000 -6.68700 44.78300
H  17.92100 -8.00500 43.86300
H  18.98800 -6.67500 43.26200
H  19.52000 -9.83200 48.66500
H  19.47300 -11.22500 47.62200
H  18.00200 -10.53200 48.41300
H  23.87500 -11.56000 48.39300
H  25.77700 -10.13900 49.87800
H  22.82800 -9.50500 50.33700
H  24.09000 -10.69300 51.01900
H  22.58300 -11.25300 50.28400
H  27.02500 -10.70700 47.35500
H  25.80900 -11.93400 47.36400
H  27.39600 -11.95500 49.84600
H  28.30300 -12.06200 48.39200
H  27.12200 -13.32900 48.68500
H  29.75500 -7.76700 47.38500
H  29.39000 -6.74000 48.81100
H  30.50300 -6.15600 47.49000
H  28.01900 -4.09900 43.29700
H  26.45200 0.04900 43.98700
H  27.68900 0.41000 42.77000
H  28.19700 0.22200 44.44000
Mg 8.29100 47.28600 28.42000
C  6.89100 46.89800 31.71200
C  11.28100 47.81700 29.94000
C  9.53300 48.16900 25.44700
C  5.02200 47.89900 27.25100
N  8.90100 47.41900 30.54300
C  8.23900 47.14500 31.76200
C  9.15500 47.45800 32.95500
C  10.45100 48.10900 32.38400
C  10.19300 47.75400 30.82200
C  10.63600 49.63600 32.57800
C  9.47500 46.19100 33.82200
C  9.23200 46.34800 35.29000
H  9.84700 45.23900 36.19200
N  10.22900 47.82500 27.80300
C  11.36300 47.72200 28.54800
C  12.52700 47.91100 27.64900
C  11.99400 48.02900 26.30500
C  10.50700 48.00800 26.46600
C  14.01600 47.74700 28.06500
C  12.75700 48.16700 24.99400
O  12.18700 48.21900 23.93400
C  14.28000 48.24100 24.95900
N  7.45600 48.02100 26.74300
C  8.12400 48.08500 25.54600
C  7.23600 48.03700 24.31200
C  5.84400 48.25500 24.96500
C  6.14600 48.08800 26.43500
C  7.40900 48.99000 23.13000
C  4.75500 47.26500 24.37600
C  3.43500 47.92000 24.07800
N  6.26900 47.19100 29.23500
C  5.08000 47.40500 28.57200
C  3.99600 47.14300 29.48100
C  4.67000 46.90000 30.71200
C  6.07800 47.03200 30.55100
C  2.54300 47.13000 29.24000
C  4.52700 46.51300 32.11400
O  3.53600 46.23700 32.73600
C  5.93300 46.48700 32.83700
C  6.24500 45.07600 33.18100
O  6.72100 44.20300 32.44900
O  5.71300 44.75700 34.42700
C  6.08700 43.40200 34.88300
H  12.28000 47.94800 30.36200
H  9.92400 48.37800 24.45000
H  4.04800 47.92800 26.75900
H  8.64600 48.19900 33.57200
H  11.37700 47.62400 32.69300
H  10.13300 50.03000 33.46100
H  10.28300 50.20300 31.71600
H  11.71600 49.76600 32.63900
H  10.49300 45.82000 33.70700
H  8.91500 45.37000 33.37200
H  8.17200 46.32400 35.54400
H  9.55100 47.34500 35.59500
H  14.53600 48.67300 27.82000
H  14.47000 46.82600 27.70100
H  14.20800 47.76800 29.13800
H  14.72500 48.91300 25.69300
H  14.45600 48.53500 23.92400
H  14.48800 47.19200 25.16900
H  7.37300 47.03000 23.91900
H  5.52900 49.29800 24.96500
H  6.53000 49.63200 23.06700
H  7.43600 48.51800 22.14800
H  8.38100 49.47700 23.21600
H  4.54100 46.42100 25.03100
H  4.98300 46.85400 23.39200
H  3.18400 47.91800 23.01700
H  3.44900 49.00500 24.17800
H  2.63300 47.54300 24.71200
H  2.25000 48.13400 28.93100
H  2.00900 46.75300 30.11200
H  2.25100 46.54000 28.37100
H  5.95500 47.13100 33.71700
H  5.91200 43.32400 35.95600
H  7.14000 43.23300 34.65600
H  5.37700 42.70900 34.43200

