158

Mg 25.14800 1.44600 30.40800
C  27.27900 1.57500 33.42400
C  22.46800 1.55900 32.50600
C  23.27500 1.53500 27.70400
C  28.07000 1.18300 28.57700
N  24.97900 1.68800 32.73000
C  25.93500 1.75400 33.70100
C  25.27100 1.99900 35.03600
C  23.69100 1.92400 34.75100
C  23.69500 1.73100 33.24600
C  22.81900 1.00500 35.52900
C  25.82500 3.35300 35.72900
C  26.37100 3.12800 37.20000
H  25.90500 4.05900 38.30100
N  23.08900 1.57000 30.07100
C  22.12500 1.55900 31.09600
C  20.86900 1.72100 30.47900
C  21.05200 1.74700 29.06400
C  22.52800 1.65200 28.88100
C  19.54200 1.89500 31.16100
C  20.09000 1.81200 27.87800
O  20.48000 1.83300 26.70000
C  18.61100 1.72700 28.22200
N  25.63200 1.25100 28.48900
C  24.63600 1.49700 27.51700
C  25.25200 1.72100 26.10900
C  26.79400 1.43800 26.34700
C  26.88400 1.28400 27.87600
C  24.51600 0.84200 24.94100
C  27.73500 2.53400 25.71500
C  28.90200 1.95900 24.88700
N  27.29200 1.26900 30.84600
C  28.36700 1.15200 29.97300
C  29.53400 1.13000 30.73200
C  29.14900 1.28600 32.09300
C  27.77600 1.36200 32.09600
C  30.91600 1.08700 30.20200
C  29.72600 1.47800 33.46400
O  30.85700 1.61400 33.84700
C  28.47700 1.65300 34.40400
C  28.43000 0.53200 35.37000
O  27.98400 -0.56600 35.12200
O  28.93900 0.93100 36.54800
C  28.90700 0.17100 37.78700
H  21.66900 1.77500 33.21800
H  22.79400 1.47800 26.72500
H  28.93200 1.15000 27.90700
H  25.50700 1.10400 35.61200
H  23.26900 2.86300 35.10900
H  22.19300 0.35700 34.91600
H  22.14100 1.61400 36.12700
H  23.43700 0.38600 36.18100
H  25.04900 4.11800 35.69700
H  26.70500 3.82900 35.29800
H  27.39600 3.48100 37.08700
H  26.27900 2.05500 37.36800
H  19.04000 2.82900 30.90500
H  19.67100 2.08600 32.22600
H  18.83100 1.07200 31.08200
H  18.45700 0.81700 28.80200
H  17.96000 1.79200 27.35000
H  18.35200 2.58600 28.84000
H  25.09200 2.76300 25.83400
H  27.01500 0.46900 25.89900
H  23.88900 0.06300 25.37600
H  25.28600 0.32200 24.37100
H  23.94400 1.44600 24.23700
H  28.21400 3.15500 26.47200
H  27.11200 3.21500 25.13500
H  28.98500 0.87300 24.90200
H  29.85800 2.38200 25.19600
H  28.79800 2.20100 23.83000
H  31.48800 1.55700 31.00200
H  31.09500 1.59000 29.25100
H  31.13200 0.02200 30.12000
H  28.53800 2.62700 34.88900
H  28.05200 0.47300 38.39100
H  29.78500 0.21400 38.43100
H  28.90000 -0.88200 37.50500
Mg 54.52400 24.10300 45.33900
C  52.21700 26.37100 43.96300
C  52.94800 21.68400 43.32300
C  57.24500 22.23600 45.52300
C  56.20200 26.87600 46.67100
N  52.87800 24.10300 43.62800
C  52.03300 25.10000 43.34200
C  50.86000 24.62100 42.43400
C  50.93200 23.10400 42.64100
C  52.36500 22.93800 43.29900
C  49.84900 22.52100 43.61400
C  51.24100 25.04300 40.95700
C  50.12300 24.83600 39.95400
H  50.35000 25.21300 38.47600
N  54.99900 22.13600 44.61100
C  54.17200 21.28700 43.93200
C  54.82900 19.99200 43.75600
C  56.12600 20.12500 44.39500
C  56.14600 21.54600 44.92300
C  54.18800 18.88000 42.97300
C  57.19700 19.09800 44.48500
O  57.06800 18.07700 43.78500
C  58.38000 19.14400 45.29200
N  56.52900 24.52500 45.82400
C  57.45400 23.56000 45.91100
C  58.79800 24.17400 46.40900
C  58.39200 25.63000 46.81700
C  56.93400 25.76300 46.44500
C  59.33700 23.34600 47.60400
C  59.29900 26.84600 46.40500
C  60.70200 26.61600 45.91600
N  54.20500 26.17600 45.50200
C  54.94900 27.16200 46.16100
C  54.17500 28.33800 46.29600
C  53.11600 28.04900 45.41600
C  53.18700 26.76600 44.90200
C  54.63500 29.52700 47.00500
C  51.95800 28.60700 44.95300
O  51.37600 29.64400 45.30000
C  51.28100 27.54900 43.93200
C  50.83400 28.13300 42.70300
O  51.60400 28.62200 41.84500
O  49.49600 27.93100 42.56600
C  48.89200 28.42800 41.32400
H  52.35900 20.85500 42.92400
H  58.07900 21.53100 45.53400
H  56.61400 27.62800 47.34700
H  49.88700 25.06200 42.65400
H  50.86300 22.54400 41.70800
H  50.36900 21.93700 44.37400
H  49.15400 21.96600 42.98400
H  49.25600 23.27900 44.12700
H  52.16000 24.51900 40.69400
H  51.50600 26.10000 40.94400
H  49.21600 25.32500 40.30900
H  49.93800 23.76200 39.93700
H  54.49800 18.92100 41.92800
H  53.13500 19.12900 43.10900
H  54.36600 17.91700 43.45100
H  58.85100 18.16300 45.36300
H  58.00700 19.41400 46.28000
H  59.00500 19.92600 44.86100
H  59.51400 24.13500 45.58800
H  58.36100 25.64000 47.90700
H  59.70300 23.97700 48.41400
H  60.16600 22.73100 47.25400
H  58.51600 22.74300 47.99100
H  59.30200 27.66100 47.12900
H  58.80100 27.25800 45.52700
H  61.25500 27.36000 46.48900
H  60.81500 26.80300 44.84800
H  61.05800 25.62100 46.18300
H  55.17100 30.26600 46.40900
H  55.20400 29.27700 47.90000
H  53.76400 30.08200 47.35200
H  50.38400 27.19400 44.44100
H  48.79600 29.51200 41.37600
H  47.90800 27.96900 41.22800
H  49.59900 28.16400 40.53700

