158

Mg 54.09400 24.68100 44.14900
C  51.26500 26.59100 43.25900
C  52.54000 21.96000 42.68000
C  57.10100 22.98400 44.15300
C  55.66700 27.57600 45.09700
N  52.22400 24.34200 42.99800
C  51.13300 25.25100 42.86600
C  49.89000 24.52300 42.40900
C  50.20400 23.03400 42.58200
C  51.75600 23.08500 42.74900
C  49.48900 22.25000 43.78800
C  49.44000 24.95700 40.95000
C  47.96900 25.09200 40.49300
H  47.64000 24.94100 38.98500
N  54.73300 22.68000 43.56400
C  53.88200 21.74500 43.14200
C  54.59100 20.48200 43.04700
C  55.94800 20.71700 43.47200
C  55.96400 22.14700 43.77900
C  53.97300 19.20500 42.51300
C  57.06100 19.69400 43.49700
O  56.77300 18.49000 43.31500
C  58.36700 20.04700 43.95800
N  56.21600 25.16400 44.39600
C  57.22900 24.33500 44.52200
C  58.50300 25.00900 45.10500
C  58.03800 26.51800 45.21900
C  56.51100 26.45100 44.89400
C  59.03600 24.34800 46.45500
C  58.65900 27.45700 44.14300
C  59.82300 28.34800 44.76100
N  53.63500 26.68400 44.24300
C  54.36900 27.72300 44.62000
C  53.52000 28.95300 44.69400
C  52.31400 28.52100 44.19200
C  52.43500 27.16400 43.88200
C  53.97000 30.33600 45.20500
C  50.96300 28.95000 43.90900
O  50.37100 30.02800 44.07600
C  50.20800 27.82700 43.13900
C  50.06400 28.49300 41.81400
O  50.99500 28.98900 41.17800
O  48.72900 28.35500 41.39200
C  48.58400 28.67000 40.00100
H  51.93100 21.07100 42.49800
H  58.06200 22.52100 44.38900
H  56.22800 28.46900 45.38200
H  49.21900 24.81300 43.21800
H  50.06400 22.49900 41.64200
H  48.78200 22.89100 44.31600
H  50.21900 21.81300 44.46900
H  48.95300 21.42400 43.32100
H  49.77900 24.22500 40.21500
H  50.00300 25.84400 40.66000
H  47.62500 26.09400 40.75000
H  47.43600 24.37300 41.11500
H  54.11700 18.47600 43.31100
H  54.52000 18.76900 41.67600
H  52.91800 19.25200 42.24300
H  58.84500 20.74100 43.26700
H  58.97100 19.14100 43.91300
H  58.17700 20.40600 44.96900
H  59.24500 25.09300 44.31100
H  58.12800 26.93000 46.22400
H  60.07300 24.04000 46.31700
H  58.40000 23.50000 46.70700
H  58.96200 24.98600 47.33500
H  57.93900 28.23200 43.88200
H  59.01400 26.89100 43.28200
H  60.82700 27.96400 44.57800
H  59.74600 28.33300 45.84800
H  59.76300 29.42300 44.59200
H  53.12600 30.91800 45.57400
H  54.47400 30.80600 44.36100
H  54.69600 30.26200 46.01500
H  49.20300 27.66500 43.52800
H  48.54200 29.75900 40.00700
H  47.65800 28.26800 39.58900
H  49.47600 28.38300 39.44400
Mg 49.37500 45.85000 42.64200
C  45.95000 46.84700 41.94300
C  48.79700 43.12300 40.70800
C  52.55900 45.33300 42.90600
C  49.74800 49.31400 43.80300
N  47.59300 45.16400 41.59000
C  46.28400 45.60100 41.48700
C  45.43500 44.76300 40.57300
C  46.29300 43.43400 40.33600
C  47.65900 43.92800 40.94900
C  45.68200 42.14100 40.98200
C  44.95400 45.39900 39.23800
C  43.41100 45.35300 39.06600
H  42.97400 45.52800 37.59500
N  50.53700 44.39200 42.10300
C  50.11800 43.33000 41.30100
C  51.15000 42.43200 41.24000
C  52.28500 42.94200 41.97200
C  51.85500 44.26900 42.39800
C  51.13600 41.13100 40.37400
C  53.64900 42.32200 42.15200
O  53.92800 41.30800 41.59600
C  54.69700 42.94700 43.00700
N  50.91300 47.12400 43.12000
C  52.17300 46.61500 43.34100
C  53.16800 47.76400 43.55800
C  52.29000 49.03600 43.88900
C  50.91600 48.47900 43.59600
C  54.28200 47.48600 44.66000
C  52.61500 50.29500 43.18600
C  52.68000 51.60500 44.01100
N  48.14300 47.72800 42.90800
C  48.41500 48.93900 43.46800
C  47.25200 49.68100 43.55700
C  46.19100 48.86400 43.07200
C  46.80200 47.68600 42.59700
C  47.06800 51.04000 44.14200
C  44.82400 48.77100 42.77800
O  43.95600 49.54900 42.99000
C  44.58600 47.46600 41.95200
C  43.60700 46.78500 42.74800
O  43.54300 46.71600 43.99000
O  42.80300 46.08500 41.89500
C  41.95000 45.16600 42.61900
H  48.76200 42.23200 40.07700
H  53.64800 45.26300 42.90100
H  49.98400 50.31400 44.17300
H  44.51300 44.53300 41.10600
H  46.47800 43.19500 39.28900
H  44.62500 42.21600 41.23700
H  46.14700 41.86500 41.92900
H  45.78300 41.31500 40.27700
H  45.46100 44.88700 38.42000
H  45.29700 46.43000 39.14900
H  43.01200 46.24000 39.55900
H  42.87500 44.52600 39.53300
H  51.93300 40.46700 40.70900
H  51.41900 41.46000 39.37500
H  50.16000 40.64900 40.42900
H  54.23000 43.36600 43.89800
H  55.23300 43.73600 42.47800
H  55.45000 42.18200 43.19600
H  53.65200 47.93000 42.59500
H  52.20400 49.29300 44.94500
H  55.32800 47.50500 44.35400
H  54.11100 46.42600 44.84800
H  54.25000 48.09100 45.56600
H  51.88300 50.61500 42.44400
H  53.57400 50.13300 42.69300
H  52.86900 51.44700 45.07200
H  51.71600 52.10400 43.91100
H  53.46500 52.17900 43.52000
H  47.13400 51.79100 43.35600
H  47.89300 51.16100 44.84500
H  46.09200 51.11200 44.62000
H  44.14500 47.74900 40.99600
H  42.44900 44.22200 42.83700
H  41.08500 44.82600 42.04900
H  41.58800 45.63600 43.53300

