158

Mg 23.98300 -4.62700 45.68300
C  25.80200 -2.10800 44.00500
C  21.19900 -3.67700 43.80500
C  22.37100 -7.27900 46.80900
C  27.02200 -5.83000 47.02300
N  23.51000 -2.99100 44.12900
C  24.44600 -2.08100 43.61500
C  23.77400 -1.15500 42.61000
C  22.22400 -1.58800 42.75800
C  22.28600 -2.80900 43.60400
C  21.41200 -0.45000 43.50700
C  24.22700 -1.48800 41.16700
C  25.20800 -0.44100 40.43900
H  24.95600 -0.33500 39.00400
N  22.00500 -5.32500 45.37200
C  21.03100 -4.81800 44.58400
C  19.80100 -5.56800 44.73900
C  20.06800 -6.55700 45.61500
C  21.56100 -6.47700 45.92100
C  18.52500 -5.14200 44.05700
C  19.01200 -7.45200 46.17700
O  17.79600 -7.42300 45.90700
C  19.47700 -8.59300 47.01000
N  24.65400 -6.37600 46.74000
C  23.72000 -7.27700 47.17200
C  24.37000 -8.27800 48.09600
C  25.82400 -7.85100 48.29100
C  25.89700 -6.63300 47.32400
C  23.57900 -8.64200 49.40800
C  27.01600 -8.88300 48.22200
C  27.58300 -9.29400 49.59000
N  26.06400 -4.04300 45.68400
C  27.15000 -4.67800 46.15500
C  28.33300 -3.88700 45.83200
C  27.81000 -2.88100 45.00700
C  26.45100 -3.08500 44.83900
C  29.78900 -4.09200 46.20500
C  28.21200 -1.73600 44.26600
O  29.33900 -1.27400 44.14800
C  26.94600 -1.15600 43.56900
C  26.83100 0.28900 43.72400
O  26.00400 0.83400 44.41200
O  27.70300 0.90100 42.82300
C  27.62500 2.38200 42.59200
H  20.31500 -3.21900 43.35600
H  21.90200 -8.17300 47.22700
H  27.95200 -6.14000 47.50400
H  24.08900 -0.13000 42.80500
H  21.77000 -1.84000 41.79900
H  22.15600 0.33500 43.64400
H  21.00200 -0.80200 44.45300
H  20.53500 -0.05100 42.99700
H  23.37000 -1.53700 40.49500
H  24.79100 -2.42100 41.14400
H  26.23700 -0.78700 40.54100
H  25.21300 0.54100 40.91200
H  17.59100 -5.70300 44.08400
H  18.58700 -4.93300 42.98900
H  18.30400 -4.17300 44.50500
H  18.57400 -9.10900 47.33700
H  19.77700 -8.07700 47.92200
H  20.23100 -9.18900 46.49700
H  24.28600 -9.22800 47.56900
H  25.90800 -7.34000 49.25000
H  23.94700 -8.37600 50.39900
H  23.41900 -9.71800 49.34200
H  22.58200 -8.21300 49.30400
H  27.77700 -8.47200 47.55800
H  26.67300 -9.78700 47.71900
H  28.67000 -9.34700 49.54000
H  27.16300 -10.28700 49.74800
H  27.30300 -8.55600 50.34200
H  30.35400 -3.29200 45.72500
H  30.12200 -5.05700 45.82200
H  29.86900 -4.13400 47.29100
H  27.05300 -1.24400 42.48800
H  27.24600 2.88600 43.48100
H  27.01700 2.61300 41.71800
H  28.60900 2.73600 42.28500
Mg 6.54600 53.77300 40.99500
C  5.62900 50.28100 40.76200
C  9.50800 52.92800 39.70900
C  7.03500 57.01700 40.87600
C  3.19800 54.33600 41.91000
N  7.33600 51.83200 40.06800
C  6.85300 50.53000 40.07400
C  7.92400 49.57300 39.56200
C  9.21800 50.40400 39.57800
C  8.68000 51.84500 39.86200
C  10.28000 50.00900 40.54600
C  7.60400 48.83300 38.22400
C  6.89600 49.49400 37.01900
H  7.81800 49.92400 35.96400
N  8.06700 54.92900 40.40200
C  9.23000 54.34500 39.88100
C  10.15800 55.35700 39.61900
C  9.54500 56.63200 40.00200
C  8.18400 56.27300 40.45500
C  11.49500 55.16600 39.03700
C  10.18400 57.92900 39.97500
O  11.32800 58.05400 39.65300
C  9.47400 59.22000 40.35700
N  5.22300 55.43900 41.17500
C  5.78000 56.68100 41.24400
C  4.67700 57.72800 41.55200
C  3.43200 56.86200 41.90800
C  3.93100 55.43300 41.65200
C  5.17800 58.69500 42.74800
C  2.01500 57.22600 41.36000
C  1.04500 57.70500 42.32900
N  4.78000 52.57600 41.32900
C  3.53900 52.95900 41.81600
C  2.70800 51.80000 42.07800
C  3.55800 50.74300 41.79600
C  4.74000 51.26000 41.22600
C  1.31300 51.73300 42.45300
C  3.69600 49.30300 41.73000
O  2.88300 48.46700 42.16500
C  5.08900 48.94600 41.13300
C  4.90100 47.98700 40.01500
O  4.47500 48.21600 38.87200
O  5.50100 46.82100 40.42400
C  5.51600 45.80900 39.35200
H  10.54400 52.62300 39.54800
H  7.22700 58.09100 40.93100
H  2.19700 54.54300 42.29700
H  7.95500 48.79900 40.32900
H  9.55900 50.29500 38.54800
H  10.00000 49.06500 41.01300
H  10.46900 50.73200 41.33900
H  11.28900 49.97200 40.13400
H  7.12800 47.88100 38.46000
H  8.57800 48.44900 37.92000
H  6.29300 50.35000 37.32300
H  6.14900 48.82600 36.59100
H  11.74300 54.10800 39.12300
H  12.32400 55.67300 39.53200
H  11.43200 55.44000 37.98400
H  10.12700 60.01800 40.00400
H  9.45800 59.24700 41.44700
H  8.54200 59.37000 39.81200
H  4.52800 58.36300 40.67900
H  3.28100 56.91400 42.98600
H  5.21300 59.71500 42.36400
H  6.17000 58.37900 43.07100
H  4.61200 58.76300 43.67800
H  1.55800 56.44700 40.74900
H  2.15000 58.15800 40.81100
H  1.54800 58.05000 43.23200
H  0.25100 57.02400 42.63600
H  0.50300 58.55100 41.90600
H  1.29000 51.74800 43.54300
H  0.76000 50.86500 42.09400
H  0.87300 52.66800 42.10600
H  5.51900 48.33700 41.92800
H  4.55400 45.76500 38.84100
H  5.60200 44.83500 39.83400
H  6.39400 46.03800 38.74800

