158

Mg 40.60500 8.77400 30.31600
C  42.88100 10.20900 32.67400
C  38.61600 8.05600 32.94000
C  38.41800 7.80000 28.09900
C  42.94700 9.56000 27.90300
N  40.77600 9.02600 32.62600
C  41.71800 9.72800 33.30800
C  41.39500 9.78300 34.82000
C  40.04200 8.99400 34.85800
C  39.78700 8.68100 33.41800
C  39.97100 7.79500 35.86900
C  41.40600 11.27300 35.39600
C  40.51200 11.62300 36.57500
H  40.96100 12.67300 37.62000
N  38.83600 7.88100 30.49800
C  38.13800 7.66400 31.62900
C  36.83900 7.11800 31.37000
C  36.72000 7.07900 29.93200
C  37.94900 7.57000 29.45000
C  35.85500 6.81900 32.47400
C  35.54700 6.67200 29.03000
O  35.69000 6.54500 27.80000
C  34.19900 6.50700 29.54800
N  40.76700 8.45300 28.28100
C  39.66400 8.20100 27.56400
C  40.06100 8.20400 25.99800
C  41.43400 8.93300 25.99200
C  41.73300 9.00600 27.51300
C  39.92700 6.77800 25.30500
C  41.45100 10.24100 25.24500
C  40.47500 11.36600 25.64600
N  42.61300 9.49800 30.24900
C  43.31400 9.86300 29.18000
C  44.54100 10.45100 29.60100
C  44.36800 10.70700 30.94900
C  43.17700 10.06100 31.31900
C  45.66800 10.85600 28.68200
C  44.94400 11.41100 32.02100
O  45.96300 12.04400 32.01900
C  44.04600 11.02500 33.33400
C  44.90700 10.16500 34.12700
O  45.27600 9.03300 33.83000
O  45.11600 10.81200 35.32700
C  45.79400 9.91400 36.34200
H  37.93600 7.83400 33.76500
H  37.73200 7.60400 27.27200
H  43.73600 9.89900 27.22800
H  42.12800 9.11400 35.27100
H  39.34100 9.75500 35.20100
H  40.88000 7.58900 36.43300
H  39.76200 6.80600 35.45900
H  39.22600 8.04300 36.62500
H  41.24200 11.90800 34.52600
H  42.40500 11.52400 35.75400
H  40.36200 10.67300 37.09000
H  39.62900 12.02900 36.08100
H  34.95200 7.40100 32.29200
H  36.18900 6.95200 33.50300
H  35.57500 5.76800 32.41100
H  33.72400 7.41400 29.91900
H  34.07300 5.77400 30.34500
H  33.60500 6.04500 28.75800
H  39.41200 8.95400 25.54700
H  42.20900 8.34500 25.50000
H  39.04200 6.62200 24.68800
H  40.14600 5.93100 25.95600
H  40.74800 6.67300 24.59600
H  41.32300 10.06600 24.17700
H  42.44000 10.61200 25.51100
H  40.98600 12.32300 25.54400
H  40.15600 11.20900 26.67700
H  39.63500 11.43200 24.95500
H  45.38500 10.77300 27.63300
H  46.49400 10.18000 28.90700
H  45.94900 11.89100 28.87700
H  43.74600 11.96000 33.80700
H  45.13000 9.62700 37.15800
H  46.53200 10.59500 36.76600
H  46.21400 8.96600 36.00500
Mg 47.51200 15.75700 28.43500
C  45.34500 15.47100 31.46200
C  49.72100 17.09400 30.50000
C  49.00500 16.66900 25.71500
C  44.76600 14.40900 26.67700
N  47.48300 16.19300 30.74200
C  46.57100 16.05600 31.72400
C  47.07000 16.53000 33.07600
C  48.51100 17.12100 32.72600
C  48.58100 16.70200 31.19900
C  48.68900 18.66400 33.02400
C  47.14400 15.45300 34.13800
C  46.87500 15.82300 35.56300
H  47.07300 17.27300 36.00600
N  49.19200 16.61400 28.14700
C  50.00300 17.08800 29.13800
C  51.16600 17.61600 28.52000
C  51.01700 17.50200 27.13500
C  49.68000 16.92900 26.94500
C  52.32500 18.18600 29.35800
C  51.91000 17.96900 26.05700
O  51.70700 17.85100 24.81800
C  53.23200 18.73700 26.38400
N  46.91200 15.68600 26.47700
C  47.75500 16.04200 25.51200
C  47.20500 15.70600 24.12300
C  45.95900 14.81000 24.37200
C  45.82200 14.95500 25.92600
C  46.79800 16.97500 23.45700
C  46.11000 13.30700 23.87700
C  47.06400 12.36500 24.62400
N  45.59200 15.04300 28.94100
C  44.61100 14.54800 28.05700
C  43.49200 14.11200 28.75300
C  43.68200 14.58800 30.07200
C  44.98100 15.11500 30.14200
C  42.28800 13.47200 28.22400
C  43.03500 14.64200 31.38800
O  41.90900 14.30700 31.67000
C  44.12600 15.18700 32.39100
C  43.69500 16.42000 33.04300
O  43.39400 17.48800 32.45200
O  43.75300 16.33400 34.42300
C  43.30500 17.63500 35.01700
H  50.40800 17.59700 31.18400
H  49.59100 16.94000 24.83400
H  43.97300 13.89800 26.12700
H  46.34900 17.29500 33.36200
H  49.26300 16.58000 33.29900
H  47.84300 18.93100 33.65700
H  48.72500 19.27100 32.11900
H  49.50800 19.05900 33.62600
H  48.11400 14.95900 34.19600
H  46.51400 14.60400 33.87000
H  47.55100 15.12400 36.05500
H  45.86200 15.45900 35.73800
H  53.29900 17.73900 29.15500
H  52.12600 18.24700 30.42800
H  52.42900 19.24000 29.10300
H  53.90100 18.02100 26.86000
H  52.96900 19.55800 27.05100
H  53.72500 19.03600 25.45900
H  48.03700 15.24100 23.59500
H  45.07000 15.28800 23.95900
H  46.65800 16.83300 22.38500
H  47.61300 17.68200 23.61500
H  45.91100 17.46200 23.86200
H  46.13300 13.20700 22.79200
H  45.10200 12.95100 24.09100
H  47.69400 11.93700 23.84400
H  46.53600 11.54400 25.11000
H  47.65900 12.98900 25.29100
H  42.18200 13.39500 27.14200
H  41.44200 14.06800 28.56600
H  42.14900 12.52300 28.74200
H  44.29800 14.51800 33.23400
H  42.22100 17.56200 34.93000
H  43.79100 18.50700 34.57900
H  43.60200 17.64100 36.06600

