158

Mg 23.68400 -5.79100 45.98300
C  25.86100 -3.55700 44.38600
C  21.10900 -4.68800 44.06800
C  21.99000 -8.63500 46.77700
C  26.61800 -7.18200 47.50400
N  23.54900 -4.45000 44.29600
C  24.54800 -3.52300 43.98100
C  24.05300 -2.50800 42.89300
C  22.49200 -2.80200 42.99200
C  22.35600 -4.04300 43.85500
C  21.60800 -1.60400 43.61400
C  24.64000 -2.79400 41.51900
C  25.26200 -1.62300 40.76200
H  25.11000 -1.57600 39.25300
N  21.76500 -6.56500 45.54400
C  20.80300 -5.91600 44.78000
C  19.56900 -6.68900 44.69600
C  19.92000 -7.94800 45.27000
C  21.27400 -7.82000 45.88400
C  18.29200 -6.25800 43.89000
C  19.06800 -9.16000 45.29400
O  17.93100 -9.09700 44.95400
C  19.65400 -10.53300 45.61600
N  24.29500 -7.70700 46.89700
C  23.33400 -8.63900 47.23100
C  23.92800 -9.68300 48.12400
C  25.36000 -9.12500 48.52300
C  25.49200 -7.97300 47.54000
C  23.11100 -10.05800 49.29600
C  26.35800 -10.25800 48.28400
C  27.46500 -10.27800 49.36100
N  25.82600 -5.38500 46.02800
C  26.82100 -6.00400 46.78400
C  28.04400 -5.26500 46.58300
C  27.75600 -4.27800 45.65300
C  26.40000 -4.44500 45.25100
C  29.40800 -5.51500 47.19500
C  28.36500 -3.18900 44.83800
O  29.45100 -2.63900 44.77300
C  27.08300 -2.67400 43.98500
C  26.80500 -1.25600 44.36400
O  26.39000 -0.92900 45.47100
O  27.17200 -0.51600 43.32400
C  27.13100 0.98100 43.56000
H  20.25400 -4.24400 43.55300
H  21.43200 -9.46900 47.20700
H  27.42700 -7.54600 48.14100
H  24.38500 -1.51300 43.18900
H  22.10500 -3.03600 42.00000
H  21.02400 -1.22600 42.77400
H  22.32000 -0.81300 43.84600
H  20.97800 -1.87100 44.46200
H  23.87300 -3.24100 40.88700
H  25.43700 -3.53600 41.52000
H  26.32500 -1.49300 40.96300
H  24.88100 -0.71700 41.23300
H  18.19100 -7.18700 43.32900
H  18.41300 -5.45100 43.16600
H  17.46500 -5.98600 44.54500
H  19.00200 -11.26700 45.14400
H  19.52100 -10.67300 46.68900
H  20.67400 -10.68700 45.26400
H  24.09100 -10.57900 47.52500
H  25.40600 -8.68900 49.52100
H  22.16600 -9.51400 49.30400
H  23.64200 -9.78400 50.20700
H  22.99300 -11.14100 49.31300
H  26.80300 -10.29800 47.29000
H  25.95200 -11.27000 48.31200
H  27.39100 -11.32700 49.64800
H  27.29500 -9.59700 50.19500
H  28.39700 -10.03400 48.85000
H  29.62200 -6.54800 46.92200
H  29.18700 -5.46300 48.26100
H  30.13100 -4.80000 46.80200
H  27.41000 -2.72200 42.94700
H  26.18500 1.23400 44.03800
H  27.21900 1.58000 42.65300
H  27.94900 1.16100 44.25700
Mg -2.22500 35.01200 26.35100
C  -3.70000 33.18700 28.93600
C  -0.85700 37.00000 28.82600
C  -0.78500 36.79300 23.91500
C  -3.52100 32.77200 24.10900
N  -2.48800 35.20000 28.71200
C  -2.94400 34.22600 29.52400
C  -2.66000 34.40000 30.96900
C  -1.77300 35.74700 30.87300
C  -1.72000 36.09400 29.38400
C  -2.20600 36.94600 31.69700
C  -1.94100 33.20300 31.61600
C  -2.53300 32.83100 32.99500
H  -1.55200 32.84700 34.11100
N  -1.02600 36.68000 26.33600
C  -0.58800 37.32700 27.44200
C  0.10900 38.57500 27.03700
C  0.09900 38.52100 25.63700
C  -0.57000 37.29600 25.22600
C  0.72700 39.67800 28.05700
C  0.73900 39.50700 24.56300
O  0.65700 39.29000 23.37600
C  1.22900 40.79000 25.00900
N  -2.23300 34.81600 24.30800
C  -1.58400 35.64200 23.48300
C  -1.67700 35.14800 21.99000
C  -2.02700 33.64900 22.21900
C  -2.62100 33.72900 23.59400
C  -2.75900 35.96700 21.23400
C  -0.82000 32.54900 22.18900
C  -0.84800 31.70800 20.94000
N  -3.51700 33.42500 26.40800
C  -4.03000 32.58800 25.44600
C  -4.80900 31.48100 26.02200
C  -4.68700 31.70700 27.42100
C  -3.92000 32.90700 27.57900
C  -5.41900 30.26300 25.21500
C  -5.07100 31.12800 28.65700
O  -5.60900 30.11100 28.92900
C  -4.47700 32.10900 29.70800
C  -5.60000 32.74300 30.52100
O  -6.37000 33.55200 30.10900
O  -5.51200 32.22100 31.80000
C  -6.43200 32.70300 32.87000
H  -0.21100 37.46200 29.57500
H  -0.31700 37.35000 23.10100
H  -3.73900 31.99200 23.37600
H  -3.57400 34.59100 31.53100
H  -0.75600 35.48900 31.16600
H  -1.34500 37.40000 32.18800
H  -3.01400 36.82000 32.41700
H  -2.58000 37.69700 31.00100
H  -0.89400 33.47400 31.75400
H  -1.92300 32.31200 30.98900
H  -3.09900 31.89900 32.98400
H  -3.27000 33.60000 33.22700
H  0.53200 40.68800 27.69800
H  1.79200 39.55400 28.25500
H  0.08700 39.74400 28.93700
H  1.61700 41.38500 24.18200
H  1.98200 40.65900 25.78600
H  0.38300 41.31700 25.45100
H  -0.74900 35.32900 21.44600
H  -2.87200 33.46600 21.55500
H  -2.78500 35.94200 20.14400
H  -2.76600 36.97600 21.64700
H  -3.77400 35.68500 21.51300
H  -0.92900 31.78200 22.95600
H  0.12700 33.07400 22.31100
H  -1.06000 32.42400 20.14600
H  -1.68500 31.01200 20.88800
H  0.09300 31.20200 20.72400
H  -5.96200 30.71300 24.38400
H  -6.00100 29.69700 25.94200
H  -4.62200 29.67200 24.76500
H  -3.80500 31.53000 30.34200
H  -7.14200 33.43000 32.47800
H  -5.88200 33.10700 33.72000
H  -7.01500 31.81800 33.12500

