158

Mg 27.98300 49.97600 26.24100
C  25.87700 50.84600 28.90500
C  30.33300 49.32100 28.65900
C  30.12400 49.21900 23.81600
C  25.39500 50.66200 24.12400
N  28.09500 50.20100 28.50600
C  27.13200 50.45500 29.39900
C  27.51200 50.31700 30.82300
C  29.02500 49.92300 30.74800
C  29.13200 49.80000 29.22200
C  29.97300 50.88300 31.57300
C  26.53000 49.40200 31.65700
C  25.93400 50.00600 32.91700
H  26.01200 49.17900 34.20700
N  29.87600 49.29300 26.19700
C  30.67000 48.99300 27.31100
C  31.97200 48.46700 26.84100
C  31.92700 48.50900 25.41600
C  30.59600 49.02100 25.06400
C  33.10400 48.07800 27.77900
C  33.04600 48.12000 24.45300
O  32.94700 48.34900 23.28500
C  34.30700 47.55000 24.94000
N  27.80900 50.08100 24.27900
C  28.82900 49.56100 23.45600
C  28.29900 49.54500 21.99300
C  26.74600 49.67500 22.20500
C  26.56400 50.07800 23.67800
C  28.97200 50.65600 21.12000
C  26.02800 48.25800 21.92300
C  25.17200 48.12400 20.59200
N  26.07700 50.76400 26.46500
C  25.10500 51.02100 25.49200
C  23.88400 51.57000 26.06000
C  24.18700 51.47300 27.41400
C  25.47700 50.97500 27.60300
C  22.68600 52.02700 25.37800
C  23.68300 51.76000 28.71700
O  22.57300 52.08500 29.06500
C  24.71100 51.41700 29.69200
C  25.03100 52.64300 30.48200
O  25.83400 53.49200 30.13100
O  24.29900 52.70700 31.62200
C  24.65200 53.81400 32.52900
H  31.03300 49.07400 29.46000
H  30.79200 48.82300 23.04800
H  24.57900 50.60500 23.40000
H  27.40000 51.31900 31.23700
H  29.17600 48.88200 31.03100
H  30.86800 51.11100 30.99600
H  30.35500 50.36300 32.45200
H  29.47600 51.77400 31.95700
H  27.01400 48.46900 31.94600
H  25.66700 49.04800 31.09500
H  24.88000 50.26400 32.81100
H  26.36600 50.98400 33.12900
H  33.87600 48.82900 27.61000
H  33.37700 47.05000 27.54100
H  32.75600 48.26400 28.79500
H  34.83000 48.17100 25.66800
H  34.91800 47.52000 24.03800
H  34.11600 46.54000 25.30300
H  28.52100 48.55000 21.60500
H  26.29900 50.48800 21.63500
H  29.64800 51.37700 21.57900
H  28.19400 51.17900 20.56400
H  29.46600 50.08800 20.33300
H  25.54900 48.08300 22.88600
H  26.78200 47.47300 21.98300
H  25.21200 48.95500 19.88800
H  24.15300 47.99600 20.95500
H  25.49000 47.24600 20.03000
H  22.24500 51.38300 24.61800
H  23.03300 52.96600 24.94500
H  21.93300 52.09200 26.16300
H  24.20800 50.75400 30.39600
H  25.45800 53.53200 33.20600
H  23.76200 53.97300 33.13800
H  24.74900 54.73000 31.94600
Mg 17.97100 50.72800 26.09400
C  19.75800 49.08400 28.61800
C  15.75300 51.65900 28.43300
C  16.00300 51.84300 23.56800
C  20.14900 49.50600 23.70200
N  17.73200 50.19900 28.29700
C  18.67300 49.74300 29.14600
C  18.26500 50.02500 30.58000
C  16.79100 50.50900 30.46800
C  16.76400 50.87700 28.99800
C  15.77400 49.52700 30.91800
C  19.15200 51.07100 31.25500
C  19.43500 50.92700 32.80600
H  18.44000 51.71700 33.59700
N  16.10500 51.73300 25.99000
C  15.38800 52.00200 27.14300
C  14.22500 52.70400 26.74500
C  14.26400 52.77100 25.33400
C  15.48200 52.08100 24.89200
C  13.18300 53.17600 27.74900
C  13.30800 53.49000 24.39500
O  13.53100 53.65700 23.19300
C  11.99800 54.14300 24.85900
N  18.12400 50.67800 23.91100
C  17.18800 51.26500 23.11600
C  17.47800 51.10600 21.60000
C  18.88600 50.37100 21.62000
C  19.08300 50.13400 23.17200
C  16.44400 50.47000 20.68200
C  19.98800 51.15800 20.81900
C  20.91800 50.30200 19.86200
N  19.68900 49.56700 26.06200
C  20.44400 49.16100 25.10000
C  21.61800 48.47700 25.63400
C  21.36600 48.35400 26.95300
C  20.16100 49.04000 27.21200
C  22.83200 48.03200 24.81800
C  21.81300 47.88700 28.28200
O  22.85000 47.30200 28.56900
C  20.89300 48.47900 29.40700
C  20.56600 47.44400 30.39600
O  19.93600 46.48500 30.09900
O  20.95000 47.76700 31.64600
C  20.46800 46.84100 32.67300
H  15.00600 52.06400 29.11900
H  15.42900 52.34600 22.78700
H  20.87200 49.28300 22.91400
H  18.28400 49.15200 31.23300
H  16.65400 51.34000 31.16000
H  14.85500 49.98000 31.29000
H  16.17100 48.98400 31.77700
H  15.66800 48.69300 30.22400
H  18.68800 52.04500 31.10000
H  20.11000 51.27500 30.77500
H  20.43800 51.33000 32.94500
H  19.47700 49.88100 33.10700
H  12.26000 52.59800 27.70100
H  12.81300 54.13800 27.39700
H  13.59000 53.43500 28.72700
H  12.28400 55.10100 25.29300
H  11.52300 53.54100 25.63400
H  11.22800 54.37300 24.12300
H  17.68400 52.14300 21.33500
H  18.93500 49.35500 21.22800
H  15.60200 50.04800 21.23100
H  16.84900 49.57400 20.21400
H  15.99200 51.18400 19.99300
H  20.65700 51.58600 21.56500
H  19.61100 52.02800 20.28000
H  21.97600 50.19100 20.09800
H  20.80300 50.67200 18.84300
H  20.54400 49.28300 19.75700
H  23.68400 48.68700 25.00300
H  22.66500 48.03100 23.74100
H  23.23300 47.11600 25.25300
H  21.50300 49.20200 29.94900
H  20.83100 45.83600 32.45500
H  19.40100 46.92100 32.87600
H  20.91700 47.13700 33.62100

