158

Mg 53.62700 24.36100 43.86700
C  50.98100 26.52800 43.48100
C  51.72900 21.70600 42.95700
C  56.47500 22.49700 43.34600
C  55.63200 27.15100 44.46200
N  51.63400 24.19000 43.25300
C  50.61600 25.17600 43.27800
C  49.30400 24.52100 42.95900
C  49.54900 22.96900 43.07500
C  51.08000 22.92500 43.10900
C  48.85100 22.29000 44.23000
C  48.60500 25.10900 41.60300
C  49.52900 25.24600 40.37800
H  49.31100 24.28900 39.22700
N  54.00000 22.28700 43.46400
C  53.05400 21.36400 43.22000
C  53.64900 20.07900 43.14100
C  55.06600 20.26500 43.19300
C  55.25100 21.71300 43.34700
C  52.73800 18.82900 42.95900
C  56.03600 19.11900 43.02700
O  55.64700 17.97400 42.73900
C  57.53000 19.44000 43.04700
N  55.76700 24.81600 43.86500
C  56.66900 23.87900 43.52200
C  58.12600 24.55800 43.48300
C  57.82100 26.01800 44.06400
C  56.28600 26.03400 44.11500
C  59.19200 23.77600 44.36700
C  58.38400 27.19800 43.25200
C  59.45500 28.06700 44.06600
N  53.35500 26.42600 44.01100
C  54.19200 27.39600 44.37600
C  53.54100 28.72700 44.56900
C  52.25600 28.42100 44.21800
C  52.18100 27.04800 43.84500
C  54.18000 29.98200 45.09400
C  50.85400 28.85900 44.19400
O  50.42000 29.95400 44.60500
C  50.00300 27.70500 43.60000
C  49.75300 28.25000 42.20000
O  50.60600 28.59800 41.38900
O  48.37300 28.46800 41.98300
C  48.10200 29.34600 40.80800
H  50.98900 20.91400 42.82700
H  57.40100 22.00500 43.03800
H  56.17700 28.05700 44.73600
H  48.58700 24.96200 43.65100
H  49.13600 22.57800 42.14600
H  49.56600 21.78500 44.87900
H  48.27600 21.52600 43.70900
H  48.12500 22.80600 44.85900
H  48.16000 26.08500 41.79700
H  47.90900 24.32500 41.30300
H  50.54300 25.07600 40.73900
H  49.46700 26.23900 39.93300
H  51.75800 18.95600 43.41900
H  52.98900 17.94100 43.53800
H  52.73500 18.40800 41.95300
H  58.04500 18.51200 42.79800
H  57.75900 19.60700 44.09900
H  57.71700 20.16500 42.25500
H  58.40100 24.50200 42.43000
H  58.10500 26.08900 45.11400
H  60.10200 23.63300 43.78500
H  58.82200 22.75900 44.50200
H  59.57500 24.27600 45.25600
H  57.57500 27.84200 42.90500
H  58.97700 26.78300 42.43700
H  60.38400 28.16700 43.50500
H  59.77200 27.63300 45.01400
H  58.98400 29.05000 44.02800
H  55.05500 30.25400 44.50400
H  54.44500 29.77500 46.13100
H  53.42700 30.76900 45.14500
H  49.04800 27.63900 44.12000
H  48.68500 30.26700 40.79100
H  47.10300 29.77400 40.88500
H  48.12400 28.84400 39.84100
Mg 6.61300 53.22600 40.94100
C  5.72300 49.79400 40.46800
C  9.55300 52.71100 39.60900
C  6.89800 56.54000 41.06300
C  3.05800 53.67400 41.82600
N  7.39700 51.41200 39.98500
C  6.93000 50.14700 39.87100
C  8.03100 49.29900 39.24400
C  9.35000 50.09400 39.62500
C  8.75800 51.52000 39.73100
C  10.08600 49.74000 40.92900
C  8.01100 48.87900 37.78600
C  7.49300 49.90300 36.73000
H  6.69700 49.31800 35.55600
N  8.08500 54.49500 40.46000
C  9.30200 54.10200 39.87400
C  10.15600 55.24400 39.90200
C  9.37200 56.36200 40.23200
C  8.05000 55.84200 40.62000
C  11.57500 55.12900 39.42400
C  9.86400 57.77700 40.18700
O  11.06400 57.99100 39.95400
C  9.00900 58.95800 40.41600
N  5.07000 54.88800 41.29300
C  5.54900 56.13300 41.41700
C  4.38800 57.12000 41.75100
C  3.18200 56.17200 42.08900
C  3.77500 54.81500 41.61800
C  4.58100 58.06800 42.98500
C  1.75100 56.51800 41.49800
C  1.32600 55.97200 40.10100
N  4.77100 52.01900 41.30000
C  3.47000 52.35100 41.69400
C  2.70000 51.16700 42.05400
C  3.54300 50.18500 41.47600
C  4.77600 50.73600 41.03000
C  1.31600 50.99600 42.61700
C  3.60900 48.77700 41.12600
O  2.80500 47.87900 41.32500
C  5.07900 48.45100 40.51700
C  4.89000 47.84200 39.18900
O  4.42600 48.40000 38.19900
O  5.19300 46.52100 39.22000
C  5.03000 45.74900 37.99100
H  10.58900 52.58000 39.29000
H  6.98500 57.61100 41.25900
H  2.03200 53.83200 42.16600
H  8.22600 48.36500 39.77000
H  10.14000 49.96600 38.88400
H  11.17100 49.72400 40.82600
H  9.71800 48.77800 41.28600
H  9.78600 50.52000 41.62900
H  7.33100 48.03200 37.69300
H  9.02600 48.63300 37.47200
H  8.31900 50.43200 36.25400
H  6.89700 50.69800 37.17700
H  11.64600 55.89100 38.64800
H  11.85100 54.13600 39.07000
H  12.35200 55.38400 40.14500
H  9.54200 59.77700 39.93300
H  8.93400 59.20800 41.47400
H  8.06500 58.82400 39.88800
H  4.13900 57.58500 40.79700
H  3.11600 55.93300 43.15000
H  3.81800 58.02100 43.76200
H  4.45500 59.03400 42.49500
H  5.56900 57.99700 43.43900
H  1.76500 57.59900 41.35600
H  0.90800 56.23600 42.12900
H  1.10000 56.82600 39.46300
H  0.44400 55.33100 40.12700
H  2.16700 55.52000 39.57700
H  1.40200 50.21700 43.37400
H  0.60600 50.66100 41.86100
H  0.78800 51.87000 42.99900
H  5.51600 47.68500 41.15700
H  4.49100 44.81500 38.15400
H  6.00500 45.48500 37.58300
H  4.51900 46.24600 37.16600

