158

Mg 8.97800 3.70300 27.35800
C  10.30600 2.42200 30.25100
C  7.04100 5.84700 29.27100
C  7.42700 4.60800 24.56000
C  10.43200 1.08900 25.53900
N  8.63800 3.99800 29.56500
C  9.51200 3.50300 30.52800
C  9.16300 4.10800 31.93700
C  8.03300 5.20600 31.65100
C  7.81200 4.98200 30.05700
C  6.72900 4.95900 32.47100
C  10.36800 4.71500 32.70900
C  10.73600 3.99200 34.03900
H  10.36300 4.83300 35.29600
N  7.49900 5.04200 26.96300
C  6.81600 5.87600 27.85800
C  5.91300 6.76300 27.14400
C  6.05200 6.44700 25.75600
C  7.05700 5.34900 25.69700
C  5.03100 7.80600 27.70000
C  5.37800 7.00400 24.46000
O  5.57800 6.61000 23.31600
C  4.19700 7.97800 24.71400
N  9.06300 3.00300 25.22100
C  8.31400 3.60000 24.29600
C  8.45000 2.87300 22.93000
C  9.43100 1.68300 23.20200
C  9.73300 1.96700 24.71500
C  7.09900 2.54700 22.19000
C  10.78300 1.71800 22.44600
C  11.37600 0.31800 22.05100
N  10.13100 2.01500 27.68000
C  10.66000 1.10800 26.88400
C  11.48400 0.25200 27.67300
C  11.36400 0.65800 29.03400
C  10.61600 1.83600 28.94000
C  12.33400 -0.84800 27.22800
C  11.72200 0.40600 30.37800
O  12.50500 -0.44700 30.75900
C  11.05500 1.50700 31.22300
C  10.01900 0.86400 32.11200
O  8.85800 0.68700 31.76900
O  10.54900 0.60300 33.37300
C  9.56000 0.14000 34.32900
H  6.63500 6.66400 29.87100
H  6.91700 4.87500 23.63200
H  10.92300 0.21100 25.11200
H  8.84600 3.23800 32.51300
H  8.28200 6.24900 31.84800
H  5.87900 5.00800 31.79000
H  6.70700 5.77700 33.19100
H  6.74900 4.02400 33.03100
H  10.12400 5.75700 32.91500
H  11.26200 4.66900 32.08800
H  11.81500 3.84400 34.07900
H  10.20600 3.05300 34.20300
H  4.01500 7.54900 27.40200
H  5.22700 8.83200 27.38600
H  5.01000 7.78000 28.79000
H  4.65000 8.89300 25.09500
H  3.43800 7.61700 25.40800
H  3.77300 8.20200 23.73500
H  8.93100 3.59600 22.27200
H  8.92000 0.72700 23.09900
H  6.19700 3.02500 22.57300
H  7.03700 1.46100 22.13000
H  7.10600 2.91400 21.16400
H  11.61100 2.18900 22.97500
H  10.57700 2.19200 21.48600
H  12.18300 0.06900 22.74000
H  11.83200 0.59200 21.10000
H  10.62600 -0.46900 21.98800
H  13.10300 -1.08700 27.96300
H  12.83700 -0.41000 26.36600
H  11.76200 -1.69500 26.84900
H  11.76000 2.13600 31.76700
H  8.83900 0.95000 34.44700
H  10.09600 -0.04600 35.25900
H  8.93100 -0.73700 34.17400
Mg 23.29800 -6.33800 45.42200
C  25.81200 -4.05500 44.37400
C  21.02200 -4.55300 43.62300
C  21.40200 -9.08100 45.47200
C  25.99800 -8.22900 46.90700
N  23.49300 -4.54000 44.05500
C  24.52900 -3.71000 43.84300
C  24.15100 -2.46200 43.02100
C  22.60600 -2.52800 43.16300
C  22.31400 -3.99700 43.60400
C  22.06700 -1.40500 44.13700
C  24.76600 -2.51000 41.67400
C  25.56400 -1.25200 41.24300
H  25.68200 -0.91100 39.74900
N  21.29500 -6.78200 44.75000
C  20.58600 -5.89100 43.95100
C  19.28100 -6.50300 43.76900
C  19.37400 -7.80900 44.38400
C  20.73200 -7.98200 44.87800
C  18.28800 -5.65300 43.05700
C  18.19300 -8.77500 44.56300
O  17.04600 -8.42600 44.20900
C  18.40800 -9.98100 45.32500
N  23.69700 -8.34100 46.07800
C  22.73800 -9.28600 46.03600
C  23.23400 -10.62800 46.56700
C  24.63800 -10.25700 47.12200
C  24.80500 -8.88400 46.59200
C  22.25500 -11.34400 47.55400
C  25.72700 -11.21400 46.60300
C  26.64400 -12.01400 47.59700
N  25.46700 -6.18400 45.70100
C  26.36600 -6.98700 46.35600
C  27.69900 -6.51600 46.20600
C  27.55900 -5.33300 45.47600
C  26.18500 -5.18600 45.17300
C  28.97400 -7.13700 46.80600
C  28.22200 -4.14900 44.89100
O  29.40300 -3.80700 44.88100
C  27.08100 -3.21900 44.22200
C  27.03600 -1.89400 44.90900
O  26.28500 -1.62700 45.78700
O  27.92200 -0.98000 44.36500
C  27.88000 0.45200 44.73500
H  20.25700 -3.90500 43.19100
H  20.90100 -10.04300 45.60100
H  26.70800 -8.91700 47.37100
H  24.48400 -1.53200 43.48200
H  22.10100 -2.45800 42.20000
H  21.58100 -1.78200 45.03800
H  21.36000 -0.77600 43.59700
H  22.85400 -0.77900 44.55600
H  23.96400 -2.57700 40.93800
H  25.36300 -3.40900 41.52400
H  26.56100 -1.38900 41.66000
H  25.11000 -0.36800 41.69200
H  18.10800 -4.72200 43.59400
H  17.28000 -6.06500 43.02200
H  18.63900 -5.36500 42.06500
H  17.45300 -10.47800 45.49300
H  18.89700 -9.78000 46.27900
H  18.95800 -10.74800 44.77900
H  23.34600 -11.25200 45.68000
H  24.62100 -10.18100 48.20900
H  22.05700 -12.36200 47.21800
H  21.32600 -10.78700 47.67500
H  22.58400 -11.22500 48.58600
H  26.37700 -10.71000 45.88800
H  25.25900 -11.89800 45.89500
H  27.67600 -11.84500 47.29000
H  26.49700 -13.08900 47.69400
H  26.48000 -11.57600 48.58200
H  29.36800 -7.92400 46.16400
H  28.77300 -7.64000 47.75200
H  29.68700 -6.34000 47.01700
H  27.33800 -3.14500 43.16600
H  26.91600 0.69600 45.18200
H  28.00200 1.17700 43.93000
H  28.62300 0.69400 45.49400

