158

Mg 24.31300 -5.04000 46.45400
C  26.44400 -2.58000 45.24700
C  21.86300 -3.91500 44.27000
C  22.61300 -8.00700 46.88800
C  26.86900 -6.32900 48.45600
N  24.20800 -3.45700 44.85700
C  25.19400 -2.55100 44.55000
C  24.78200 -1.82800 43.26400
C  23.20200 -2.02100 43.12500
C  23.04000 -3.12800 44.23900
C  22.47300 -0.70800 43.49200
C  25.58400 -2.42700 42.04200
C  26.14100 -1.32300 41.15000
H  25.38400 -1.06800 39.87400
N  22.41300 -5.79100 45.81100
C  21.61000 -5.17900 44.91900
C  20.37300 -5.93100 44.78000
C  20.55500 -7.07700 45.52000
C  21.90900 -7.03400 46.03700
C  19.25200 -5.34800 43.98100
C  19.46300 -8.17000 45.82400
O  18.33300 -8.00600 45.34200
C  19.77300 -9.40600 46.62000
N  24.63300 -6.84500 47.62200
C  23.74600 -7.92700 47.66100
C  24.37400 -9.13000 48.42700
C  25.72700 -8.51300 48.93500
C  25.74200 -7.12400 48.35200
C  23.35000 -9.61700 49.47600
C  26.90800 -9.46100 48.35100
C  28.14100 -9.62000 49.24000
N  26.21900 -4.59800 46.87900
C  27.16800 -5.16600 47.72400
C  28.33500 -4.31600 47.73600
C  28.11800 -3.32900 46.77100
C  26.84000 -3.53100 46.25000
C  29.60700 -4.70600 48.45800
C  28.72900 -2.23900 46.08000
O  29.84800 -1.77700 46.34100
C  27.69100 -1.84100 44.94400
C  27.48600 -0.34700 45.05800
O  26.65900 0.19100 45.78100
O  28.23400 0.30100 44.15600
C  28.11800 1.80200 44.11400
H  20.98500 -3.52300 43.75200
H  22.19200 -8.98700 47.12400
H  27.63600 -6.54600 49.20300
H  25.05900 -0.77400 43.30200
H  22.91100 -2.33000 42.12100
H  21.48600 -0.96400 43.87500
H  22.28200 -0.10000 42.60700
H  23.00400 -0.05300 44.18300
H  24.91000 -2.97100 41.38000
H  26.32400 -3.12900 42.42600
H  27.14200 -1.65400 40.87400
H  26.41600 -0.45700 41.75200
H  19.60000 -4.88200 43.06000
H  18.53100 -4.73900 44.52700
H  18.68800 -6.14200 43.49100
H  19.83900 -9.00800 47.63200
H  20.72500 -9.87900 46.38100
H  19.00500 -10.16900 46.49500
H  24.43700 -9.92500 47.68400
H  25.93400 -8.40100 50.00000
H  22.50600 -8.95300 49.66200
H  23.88300 -9.68200 50.42500
H  22.98700 -10.56900 49.08800
H  27.20200 -9.02400 47.39700
H  26.50600 -10.40400 47.98100
H  28.01000 -9.03900 50.15300
H  29.00000 -9.30100 48.65100
H  28.24400 -10.68800 49.43500
H  30.29500 -5.24300 47.80500
H  29.46000 -5.36700 49.31200
H  30.19400 -3.87600 48.85000
H  28.05900 -2.12200 43.95700
H  27.12600 1.94500 43.68500
H  28.90000 2.29400 43.53500
H  28.13900 2.23200 45.11500
Mg -8.33700 39.23000 39.49400
C  -7.62400 35.87500 38.70100
C  -5.18100 40.12600 38.47700
C  -9.46300 42.35200 39.31700
C  -11.77200 38.18500 39.81000
N  -6.65300 38.07100 38.50100
C  -6.50300 36.75800 38.51500
C  -5.02200 36.37400 38.30300
C  -4.30100 37.75600 38.57200
C  -5.44600 38.72200 38.55300
C  -3.51500 37.97100 39.84100
C  -4.90400 35.74900 36.93200
C  -5.45300 36.46300 35.70400
H  -6.57500 35.88800 34.89800
N  -7.44100 40.97300 39.03300
C  -6.09200 41.17900 38.62600
C  -5.80600 42.49800 38.39800
C  -7.02400 43.24800 38.64300
C  -8.03400 42.19700 38.97900
C  -4.42400 43.01300 37.89800
C  -7.21600 44.76800 38.44100
O  -6.29700 45.40200 37.92100
C  -8.54500 45.45700 38.75300
N  -10.37300 40.15100 39.48600
C  -10.53000 41.47800 39.39900
C  -11.98900 41.90200 39.78000
C  -12.63400 40.54700 39.95200
C  -11.56700 39.53500 39.68200
C  -12.21400 42.79600 41.01100
C  -13.91400 40.36400 38.98400
C  -15.20200 39.69200 39.54600
N  -9.51600 37.40500 39.34400
C  -10.82300 37.13600 39.58700
C  -11.06000 35.71200 39.48000
C  -9.81700 35.16400 39.13600
C  -8.94100 36.24900 38.99800
C  -12.35800 34.97000 39.57500
C  -9.11700 33.93800 38.97700
O  -9.49900 32.82000 38.99200
C  -7.61900 34.35300 38.75900
C  -6.68900 33.75000 39.67900
O  -6.69700 33.70400 40.90200
O  -5.79100 33.05600 38.90000
C  -4.80700 32.30900 39.67800
H  -4.11100 40.31600 38.37100
H  -9.74300 43.39000 39.50800
H  -12.79900 37.85200 39.97300
H  -4.65700 35.61000 38.99000
H  -3.85000 38.01200 37.61300
H  -4.08100 38.41100 40.66200
H  -2.75200 38.71500 39.61200
H  -3.22600 36.96600 40.14700
H  -5.29000 34.73600 37.04100
H  -3.83400 35.61800 36.77000
H  -4.62400 36.43500 34.99600
H  -5.79200 37.46600 35.96500
H  -3.77900 42.23900 37.48000
H  -3.91500 43.46000 38.75200
H  -4.69900 43.69300 37.09200
H  -8.70300 45.43600 39.83100
H  -9.40300 44.98600 38.27300
H  -8.44400 46.50600 38.47500
H  -12.32600 42.47400 38.91600
H  -12.94000 40.23800 40.95100
H  -12.84900 43.58500 40.60700
H  -11.29700 43.19900 41.44100
H  -12.75800 42.21800 41.75700
H  -13.57500 39.71800 38.17300
H  -14.17100 41.27000 38.43500
H  -15.40900 40.14200 40.51700
H  -15.08600 38.61000 39.60100
H  -15.95000 39.88600 38.77800
H  -13.21100 35.64700 39.61100
H  -12.31500 34.21600 40.36100
H  -12.51800 34.36900 38.67900
H  -7.42400 33.96600 37.75900
H  -5.24300 31.82300 40.55100
H  -3.99900 32.95100 40.02800
H  -4.32900 31.57500 39.02900

