158

Mg -2.60900 16.91900 25.53100
C  -2.89000 14.45000 28.18400
C  -3.46400 19.23900 27.80600
C  -2.70800 19.05600 23.09200
C  -2.55000 14.23100 23.34400
N  -3.07600 16.84300 27.72300
C  -3.05700 15.79200 28.64300
C  -3.36700 16.32700 30.08100
C  -3.54500 17.86800 29.78300
C  -3.37000 17.98500 28.34300
C  -4.76200 18.63000 30.35600
C  -2.30300 16.00200 31.20500
C  -2.48100 16.69200 32.55700
H  -1.98600 16.04900 33.88100
N  -2.76900 18.94200 25.47500
C  -3.28500 19.76900 26.41700
C  -3.30900 21.18500 25.93500
C  -2.81400 21.13100 24.66900
C  -2.72200 19.65700 24.33500
C  -3.63300 22.37800 26.82300
C  -2.43200 22.27100 23.73500
O  -1.86400 22.05000 22.69700
C  -2.72000 23.70400 24.11600
N  -2.40700 16.66900 23.45600
C  -2.59000 17.68900 22.60000
C  -2.62900 17.26200 21.10500
C  -2.88400 15.78200 21.25200
C  -2.42900 15.53100 22.74600
C  -3.50800 18.07600 20.14500
C  -2.17700 14.92400 20.21600
C  -3.17800 14.26200 19.25200
N  -2.53200 14.72200 25.66700
C  -2.56900 13.79100 24.66500
C  -2.82000 12.43400 25.22700
C  -2.65700 12.64000 26.62200
C  -2.62200 14.05100 26.83600
C  -3.06400 11.20300 24.47200
C  -2.61100 11.96100 27.95800
O  -2.73000 10.81200 28.31400
C  -2.69900 13.22900 29.04500
C  -1.54000 13.18300 29.94500
O  -0.47200 13.80300 29.78700
O  -1.84200 12.47100 31.07700
C  -0.88300 12.32800 32.14200
H  -3.62700 20.07500 28.49000
H  -3.07800 19.77000 22.35400
H  -2.69700 13.44700 22.59900
H  -4.31600 15.93200 30.44500
H  -2.60900 18.30800 30.12900
H  -5.48500 19.01200 29.63500
H  -4.46900 19.50300 30.94000
H  -5.31200 17.89500 30.94400
H  -1.26000 15.95000 30.89400
H  -2.60500 14.97500 31.41100
H  -3.47200 17.14000 32.62900
H  -1.84700 17.57800 32.53800
H  -4.20300 22.11200 27.71300
H  -4.25800 23.09500 26.29100
H  -2.72600 22.84000 27.21200
H  -2.32000 24.41600 23.39400
H  -2.25000 23.80700 25.09400
H  -3.78700 23.75800 24.33200
H  -1.64000 17.42700 20.67600
H  -3.95700 15.59000 21.22100
H  -4.14500 17.37200 19.60900
H  -2.92800 18.65800 19.42900
H  -4.01900 18.77000 20.81200
H  -1.63600 14.12600 20.72400
H  -1.34600 15.47700 19.77700
H  -4.22400 14.44800 19.49400
H  -3.04700 13.18500 19.35600
H  -2.99300 14.61500 18.23800
H  -3.24900 10.52700 25.30700
H  -2.17700 10.90100 23.91500
H  -3.96400 11.32600 23.87000
H  -3.59900 13.22900 29.65900
H  -1.00800 11.33300 32.57000
H  -1.11500 12.85900 33.06400
H  0.11600 12.50000 31.74300
Mg 48.03600 34.16500 26.73600
C  46.32900 33.00700 29.50800
C  48.43400 37.30700 28.25100
C  49.07200 35.48200 23.85400
C  47.16000 31.25300 25.01700
N  47.57200 35.00900 28.69600
C  46.83100 34.32400 29.64800
C  46.54900 35.23700 30.93800
C  47.11300 36.64800 30.41400
C  47.72600 36.31700 29.00900
C  45.98300 37.63100 30.28800
C  47.28800 34.80500 32.24200
C  46.43200 34.68200 33.47000
H  46.16600 36.02000 34.16800
N  48.95000 36.02700 26.19800
C  49.05600 37.18600 26.95800
C  49.93800 38.11200 26.21000
C  50.08500 37.61100 24.86300
C  49.36800 36.34200 24.87300
C  50.47900 39.35000 26.95900
C  50.87200 38.21600 23.66900
O  50.93200 37.70500 22.53900
C  51.61800 39.50000 23.95600
N  48.12600 33.44700 24.70300
C  48.57300 34.16700 23.67600
C  48.56900 33.42600 22.34700
C  48.07400 31.99600 22.77700
C  47.78800 32.26700 24.21400
C  47.72300 34.19700 21.34500
C  49.01100 30.79400 22.61200
C  50.22400 30.81600 23.58900
N  46.91900 32.43300 27.10600
C  46.76700 31.30700 26.39500
C  46.01100 30.35300 27.25000
C  45.81400 30.97300 28.49300
C  46.41900 32.25500 28.37000
C  45.60800 29.01600 26.73700
C  45.22400 30.79400 29.74400
O  44.64700 29.80100 30.17400
C  45.44900 32.17600 30.44400
C  46.05700 31.74500 31.77800
O  47.24900 31.55700 31.99400
O  45.04600 31.43400 32.71300
C  45.41500 31.10800 34.05700
H  48.46200 38.26500 28.77300
H  49.53000 35.82300 22.92200
H  46.91500 30.25500 24.64600
H  45.49200 35.26900 31.20000
H  47.92600 37.03000 31.03000
H  45.72700 38.01700 29.30200
H  46.27400 38.49700 30.88300
H  45.09800 37.32000 30.84400
H  48.03500 35.54800 32.51900
H  47.98000 33.99500 32.01200
H  47.03300 33.98600 34.05400
H  45.48000 34.27800 33.12500
H  49.82700 39.53500 27.81300
H  50.55000 40.21100 26.29500
H  51.43900 39.08800 27.40300
H  52.16200 39.62800 24.89200
H  50.86500 40.27800 23.82900
H  52.24300 39.68000 23.08100
H  49.57800 33.30000 21.95500
H  47.11600 31.67500 22.37000
H  47.22400 35.06000 21.78500
H  46.98900 33.55500 20.85800
H  48.42400 34.56800 20.59700
H  49.34400 30.74600 21.57500
H  48.44500 29.86300 22.65300
H  50.42700 31.77700 24.06000
H  50.99400 30.38900 22.94600
H  49.93300 30.21300 24.44900
H  44.53100 28.98100 26.57400
H  45.84300 28.19500 27.41300
H  46.11200 28.77800 25.80000
H  44.51900 32.71000 30.63800
H  46.33500 31.63700 34.30600
H  45.58700 30.04400 34.22000
H  44.49200 31.38700 34.56400

