158

Mg 17.01700 52.86600 26.64600
C  18.88000 51.35800 28.96500
C  14.96200 53.91400 29.26900
C  14.88200 54.34800 24.40700
C  19.01500 51.86200 24.11200
N  16.80000 52.50000 28.82100
C  17.81800 52.03100 29.56600
C  17.62100 52.29800 31.14500
C  16.15100 52.63700 31.18900
C  15.91100 53.02100 29.69000
C  15.37300 51.47300 31.60800
C  18.59100 53.35700 31.71900
C  18.88600 53.36600 33.30900
H  17.84500 52.53500 34.11400
N  15.12300 53.96900 26.76400
C  14.61300 54.43800 27.97700
C  13.62600 55.44100 27.73400
C  13.49200 55.49500 26.30900
C  14.47500 54.61000 25.72400
C  13.00100 56.20300 28.91800
C  12.52500 56.34700 25.45600
O  12.58600 56.23100 24.28700
C  11.66500 57.43900 25.99700
N  16.86300 52.91200 24.49600
C  15.90200 53.58300 23.83600
C  16.24100 53.64500 22.36700
C  17.67400 53.01400 22.27400
C  17.91200 52.60000 23.72200
C  15.20400 52.92600 21.31900
C  18.70300 54.00800 21.54400
C  19.23600 55.14500 22.41100
N  18.61600 51.77100 26.51300
C  19.42000 51.47600 25.38500
C  20.54900 50.79500 25.85400
C  20.42500 50.74000 27.22400
C  19.17200 51.30600 27.55200
C  21.70000 50.28700 25.06600
C  21.07000 50.25600 28.38600
O  22.05200 49.57700 28.48300
C  20.12600 50.73300 29.66300
C  19.82300 49.59700 30.52500
O  19.42400 48.51300 30.22400
O  20.04500 49.98400 31.81800
C  19.93400 48.94500 32.89000
H  14.38300 54.42100 30.04400
H  14.16900 54.68900 23.65400
H  19.80700 51.53400 23.43500
H  17.69400 51.37700 31.72200
H  16.11300 53.49700 31.85700
H  15.69400 51.02500 32.54800
H  15.49600 50.80600 30.75500
H  14.36700 51.81300 31.85300
H  18.19900 54.30500 31.35200
H  19.59200 53.23600 31.30300
H  18.94800 54.39100 33.67400
H  19.86400 52.99500 33.61700
H  13.58400 57.03000 29.32400
H  12.72500 55.49000 29.69500
H  12.00900 56.57400 28.65800
H  10.87000 56.93600 26.54600
H  11.34900 58.03900 25.14300
H  12.28100 58.04000 26.66600
H  16.15700 54.70400 22.12200
H  17.54000 52.07200 21.74300
H  14.53100 52.21300 21.79400
H  15.77100 52.38100 20.56400
H  14.66200 53.72000 20.80300
H  18.13400 54.53000 20.77500
H  19.56700 53.49600 21.12000
H  18.53000 55.25800 23.23300
H  19.27900 56.12200 21.92900
H  20.22400 54.88400 22.78900
H  21.62000 50.77500 24.09500
H  21.68900 49.20700 24.92400
H  22.60200 50.62000 25.57900
H  20.66500 51.48800 30.23400
H  19.04900 49.20100 33.47100
H  20.82900 49.01900 33.50700
H  19.93500 47.91600 32.52900
Mg 9.96100 48.14300 25.52100
C  7.66900 48.29500 28.09300
C  12.33000 49.63400 27.69000
C  12.24400 48.15100 22.92100
C  7.41900 47.37000 23.36600
N  10.01100 48.77700 27.71900
C  8.93800 48.67000 28.55700
C  9.40600 49.17700 29.97300
C  10.90100 49.69900 29.85800
C  11.14000 49.35000 28.34000
C  11.18400 51.20200 30.21800
C  9.22700 48.05000 31.05500
C  10.08200 48.00500 32.37900
H  9.48600 47.99200 33.74000
N  12.00100 48.67500 25.34600
C  12.77400 49.15400 26.36700
C  14.15100 49.33600 25.87200
C  14.08000 48.88700 24.51600
C  12.74800 48.53300 24.18000
C  15.26900 49.97700 26.61200
C  15.25200 48.86100 23.47000
O  15.05900 48.49100 22.30100
C  16.64500 49.25400 23.90400
N  9.88500 47.59900 23.44900
C  10.89900 47.73600 22.58500
C  10.49300 47.43900 21.15100
C  8.93900 47.28900 21.26800
C  8.69800 47.39500 22.81200
C  10.81100 48.58900 20.11000
C  8.56900 45.92000 20.73100
C  9.10200 44.75900 21.55400
N  7.97200 47.86000 25.58700
C  7.01900 47.48200 24.65600
C  5.72700 47.30200 25.29900
C  5.96500 47.64400 26.61600
C  7.26600 47.99500 26.76000
C  4.40300 46.99700 24.61100
C  5.28800 47.66500 27.88900
O  4.12200 47.43200 28.22100
C  6.42700 48.08000 28.91600
C  6.45200 46.86800 29.79600
O  7.10500 45.86400 29.60600
O  5.75200 47.06300 30.98900
C  6.05200 46.13500 32.10500
H  12.95900 50.27500 28.31100
H  12.89300 48.01100 22.05400
H  6.66300 47.16300 22.60500
H  8.77500 50.04300 30.17600
H  11.59000 49.03900 30.38500
H  10.45000 51.52400 30.95700
H  11.21500 51.81400 29.31700
H  12.14300 51.29600 30.72800
H  9.36100 47.12400 30.49600
H  8.21500 48.18000 31.44000
H  10.85000 48.77400 32.46200
H  10.51300 47.00600 32.30500
H  15.07800 49.94500 27.68500
H  15.40000 50.97700 26.19900
H  16.22600 49.47000 26.48500
H  16.72400 50.21700 24.40800
H  17.28100 49.37300 23.02700
H  16.95800 48.45200 24.57300
H  10.95800 46.49700 20.85800
H  8.38800 48.07000 20.74500
H  11.23300 49.49400 20.54700
H  9.90800 49.02600 19.68400
H  11.60200 48.31200 19.41300
H  9.10200 45.82200 19.78600
H  7.48500 45.83400 20.65000
H  9.70700 44.10600 20.92400
H  8.26000 44.14800 21.87900
H  9.73600 44.94600 22.42000
H  4.28600 45.91600 24.53100
H  4.48700 47.37900 23.59400
H  3.56400 47.43500 25.15100
H  5.99700 48.97600 29.36200
H  5.99000 45.16400 31.61300
H  5.34500 46.16900 32.93400
H  7.08100 46.32400 32.41100

