158

Mg -1.44400 17.69900 27.24500
C  -2.18700 15.55200 29.88400
C  -2.37400 20.35900 29.35900
C  -1.81300 19.80200 24.52300
C  -1.45200 14.94600 25.13200
N  -2.21400 17.93700 29.48400
C  -2.33300 16.88300 30.32900
C  -2.47700 17.45000 31.77400
C  -2.72600 18.99500 31.53700
C  -2.49400 19.14100 29.98500
C  -4.04100 19.60800 32.07700
C  -1.28600 17.02700 32.65100
C  -0.69000 17.98800 33.74300
H  -0.28200 17.39000 35.09100
N  -2.00800 19.73400 26.99200
C  -2.20600 20.64900 27.99000
C  -2.44100 21.96100 27.42000
C  -2.15300 21.88500 26.04000
C  -2.05700 20.41100 25.77200
C  -2.95000 23.19300 28.21200
C  -2.05200 22.96400 24.95600
O  -2.05600 22.71200 23.75500
C  -2.16100 24.43700 25.31600
N  -1.65200 17.41300 25.09500
C  -1.61000 18.45900 24.21200
C  -1.40900 17.96400 22.72100
C  -1.14600 16.42300 22.94300
C  -1.47400 16.25700 24.49900
C  -2.62300 18.36500 21.79500
C  0.26300 15.93100 22.45000
C  1.35900 16.51500 23.40300
N  -1.67800 15.58300 27.39800
C  -1.70100 14.67600 26.45700
C  -1.80800 13.38200 27.02900
C  -2.05300 13.61800 28.40900
C  -1.97100 14.98600 28.60800
C  -1.89400 12.04400 26.36500
C  -2.25300 13.08100 29.73200
O  -2.42300 11.95700 30.14500
C  -2.35700 14.26900 30.68400
C  -1.29300 14.01800 31.72700
O  -0.15000 14.25300 31.60100
O  -1.85600 13.42300 32.83800
C  -0.87600 12.94200 33.78800
H  -2.51600 21.29400 29.90500
H  -1.58700 20.51200 23.72400
H  -1.36300 14.10100 24.44500
H  -3.39000 16.98800 32.14900
H  -1.90600 19.58600 31.94300
H  -4.83200 19.74200 31.33900
H  -3.88400 20.61700 32.45700
H  -4.46900 19.09800 32.94000
H  -0.38100 16.88900 32.06000
H  -1.58000 16.07400 33.09100
H  -1.39000 18.78900 33.98000
H  0.13000 18.46300 33.20500
H  -2.19600 23.96500 28.36100
H  -3.29200 22.93000 29.21300
H  -3.82400 23.49700 27.63500
H  -1.27900 24.64100 25.92300
H  -3.11200 24.68700 25.78600
H  -2.01800 25.05600 24.43000
H  -0.47900 18.37200 22.32500
H  -1.83400 15.73000 22.45900
H  -3.51800 18.33100 22.41500
H  -2.69300 17.61700 21.00500
H  -2.38900 19.35900 21.41500
H  0.44300 16.38500 21.47600
H  0.13800 14.84900 22.47600
H  1.02600 17.16200 24.21500
H  2.07200 17.10300 22.82500
H  1.96200 15.73500 23.86800
H  -1.14500 12.15300 25.58000
H  -2.88500 11.91500 25.92900
H  -1.66100 11.26300 27.08800
H  -3.25700 14.32500 31.29600
H  -0.17700 13.71500 34.10700
H  -0.42500 12.02200 33.41300
H  -1.58800 12.62900 34.55100
Mg 48.27100 15.19700 29.07800
C  46.25900 15.35700 31.99000
C  50.59500 16.97600 30.82600
C  50.17800 15.28000 26.24000
C  45.56900 14.08700 27.27200
N  48.33800 16.10400 31.22600
C  47.50100 15.95400 32.24100
C  47.97400 16.50800 33.53200
C  49.37500 17.05500 33.17100
C  49.49500 16.72400 31.67300
C  49.47500 18.56000 33.51400
C  47.83300 15.45100 34.69300
C  47.00700 15.82700 35.89700
H  47.04300 17.34700 36.25700
N  50.15000 15.91700 28.60500
C  50.92000 16.58500 29.48400
C  52.13600 16.95900 28.76400
C  52.16200 16.36200 27.50400
C  50.77000 15.80400 27.39200
C  53.19800 17.68000 29.37000
C  53.22400 16.29300 26.39900
O  52.99700 15.70600 25.34400
C  54.47300 17.04800 26.54400
N  47.88600 14.78600 27.04900
C  48.88600 14.82000 25.99700
C  48.24200 14.33200 24.66100
C  46.81400 13.94100 25.15000
C  46.74500 14.29100 26.59200
C  48.33800 15.30800 23.51800
C  46.54000 12.42500 24.92500
C  46.18400 11.95800 23.53800
N  46.36400 14.75800 29.50100
C  45.34600 14.23700 28.65800
C  44.14500 14.07600 29.38300
C  44.47400 14.55800 30.64600
C  45.83800 14.87000 30.73000
C  42.90200 13.56800 28.75400
C  43.86900 14.67500 31.91600
O  42.73900 14.45400 32.33600
C  44.99700 15.25500 32.83700
C  44.55800 16.56300 33.41800
O  44.83000 17.69900 32.99800
O  43.78200 16.36300 34.55600
C  43.02100 17.43500 35.19600
H  51.35300 17.59500 31.30800
H  50.79400 15.26600 25.33800
H  44.68800 13.71300 26.74700
H  47.19600 17.24400 33.73200
H  50.08100 16.51300 33.80000
H  49.75800 19.11200 32.61800
H  50.15800 18.64200 34.36000
H  48.48100 18.98300 33.66000
H  48.83800 15.21500 35.04600
H  47.49300 14.54200 34.19600
H  47.26700 15.16600 36.72300
H  45.97000 15.70700 35.58100
H  53.37000 18.51600 28.69200
H  54.07700 17.04700 29.24300
H  53.02500 18.12000 30.35200
H  54.99900 16.89200 25.60200
H  54.98400 16.64600 27.41900
H  54.26800 18.08900 26.79400
H  48.84300 13.44800 24.44700
H  46.02400 14.51400 24.66600
H  48.94800 14.73500 22.82000
H  48.88200 16.16100 23.92500
H  47.39200 15.60400 23.06400
H  45.78300 12.05600 25.61700
H  47.46100 11.90900 25.19900
H  46.93900 11.35200 23.03800
H  45.96000 12.84300 22.94200
H  45.29200 11.33300 23.49700
H  43.16400 12.52600 28.57200
H  42.56100 14.13000 27.88400
H  42.03300 13.59500 29.41200
H  45.10900 14.56000 33.66900
H  43.64600 18.32200 35.29800
H  42.62800 17.22500 36.19100
H  42.19800 17.60400 34.50100

