158

Mg 1.78200 -2.20300 45.27200
C  5.15100 -1.22900 44.90000
C  0.78700 0.68100 43.73900
C  -1.21100 -3.68100 44.90100
C  3.05900 -5.34900 46.63800
N  2.87900 -0.50300 44.25600
C  4.25400 -0.22700 44.32900
C  4.64200 1.02500 43.52800
C  3.20000 1.73600 43.51200
C  2.19600 0.60300 43.87800
C  3.09900 2.85000 44.59100
C  5.15000 0.47700 42.10800
C  6.37200 1.13200 41.54700
H  6.10300 1.98200 40.30200
N  -0.01500 -1.49600 44.59500
C  -0.23400 -0.28400 44.03700
C  -1.66400 -0.24700 43.66000
C  -2.25400 -1.50200 43.78500
C  -1.12700 -2.32500 44.42800
C  -2.28000 1.05300 42.99700
C  -3.71200 -1.92400 43.42400
O  -4.55500 -1.10400 43.04500
C  -4.14200 -3.39300 43.35300
N  1.03000 -4.19900 45.76400
C  -0.28700 -4.49600 45.56200
C  -0.56900 -5.94400 45.73500
C  0.68000 -6.47100 46.41400
C  1.70700 -5.29200 46.25600
C  -1.87400 -6.19500 46.61800
C  1.15200 -7.86000 45.79900
C  1.90100 -8.83900 46.69100
N  3.67000 -3.06700 45.84900
C  4.03100 -4.33300 46.40600
C  5.50600 -4.43000 46.55600
C  5.94100 -3.24700 46.00400
C  4.79900 -2.46900 45.51600
C  6.26700 -5.57600 47.15600
C  7.11500 -2.44900 45.74600
O  8.28700 -2.69500 46.04400
C  6.64500 -1.14100 45.01300
C  7.01000 0.02300 45.82900
O  6.95000 0.11100 47.05200
O  7.49000 1.02800 45.02400
C  7.91300 2.27700 45.56400
H  0.50400 1.60600 43.23300
H  -2.23500 -4.05100 44.81000
H  3.32400 -6.30300 47.09900
H  5.30200 1.70200 44.06900
H  3.01500 2.29500 42.59500
H  3.03600 3.79400 44.05000
H  4.01700 3.01300 45.15500
H  2.21700 2.68800 45.21000
H  4.29400 0.56900 41.43900
H  5.41000 -0.56600 42.29100
H  7.01300 0.30100 41.25100
H  6.84500 1.78000 42.28400
H  -3.01800 0.86000 42.21800
H  -1.44300 1.62300 42.59400
H  -2.87000 1.52900 43.78100
H  -4.39000 -3.66600 44.37900
H  -3.39600 -3.99500 42.83400
H  -5.03500 -3.46100 42.73300
H  -0.53800 -6.51300 44.80600
H  0.60700 -6.53300 47.49900
H  -2.73100 -6.20000 45.94600
H  -2.06200 -5.44200 47.38300
H  -1.79500 -7.13500 47.16400
H  1.84200 -7.65100 44.98100
H  0.36400 -8.41200 45.28800
H  1.47600 -8.96200 47.68700
H  2.97900 -8.68000 46.73500
H  1.94100 -9.79000 46.16100
H  5.63200 -5.92600 47.97000
H  7.24900 -5.23300 47.48400
H  6.40700 -6.29400 46.34800
H  7.27200 -1.17400 44.12200
H  8.81100 2.56400 45.01700
H  8.18500 2.27000 46.61900
H  7.13300 3.00500 45.34100
Mg 47.14400 34.59900 27.19300
C  45.54000 32.84100 29.87000
C  47.75300 37.09000 29.27600
C  47.87100 36.45500 24.52300
C  46.23500 31.84200 25.03300
N  46.71200 34.85300 29.35400
C  46.19800 34.01100 30.31900
C  46.51600 34.53100 31.72000
C  46.88100 36.04600 31.46500
C  47.12200 36.01400 29.92900
C  45.80700 37.05700 31.91700
C  47.67000 33.73000 32.40300
C  47.81700 33.90600 34.00300
H  46.82700 34.91000 34.63100
N  47.75200 36.56400 26.93700
C  48.04600 37.39700 27.94500
C  48.57600 38.60100 27.45800
C  48.67100 38.47200 26.04100
C  48.10800 37.13900 25.74700
C  48.83300 39.87600 28.31100
C  49.25300 39.43600 25.01700
O  49.33300 39.12800 23.83800
C  49.97800 40.76600 25.36200
N  47.10800 34.10400 25.13300
C  47.40200 35.12700 24.22800
C  47.18400 34.67700 22.85300
C  47.05100 33.18600 22.98000
C  46.70800 33.01600 24.47900
C  45.91000 35.30700 22.28500
C  48.36800 32.35900 22.72200
C  48.32700 30.97400 22.02900
N  46.16300 32.64000 27.36400
C  45.84700 31.69000 26.42300
C  45.21600 30.55000 27.03800
C  45.00800 31.00900 28.41100
C  45.61600 32.27800 28.53800
C  44.79100 29.29600 26.40200
C  44.49200 30.62100 29.67600
O  43.86800 29.62300 29.96000
C  44.68800 31.89700 30.60900
C  45.00100 31.55600 31.98300
O  45.89700 30.75500 32.34900
O  44.00500 32.16000 32.76900
C  44.16400 31.86600 34.22200
H  48.08400 37.84200 29.99600
H  48.10300 37.10000 23.67300
H  45.85400 31.00900 24.43800
H  45.56700 34.40100 32.24100
H  47.79500 36.40500 31.93800
H  44.82900 36.62700 32.13400
H  45.58300 37.69500 31.06100
H  46.18500 37.71000 32.70300
H  48.61100 33.96400 31.90600
H  47.60900 32.67900 32.12200
H  48.82800 34.13500 34.34100
H  47.42400 32.95000 34.34900
H  49.89100 39.97400 28.55000
H  48.36100 39.82900 29.29200
H  48.56400 40.82900 27.85400
H  49.38300 41.56600 25.80200
H  50.44200 41.08100 24.42700
H  50.83300 40.51500 25.99000
H  48.06800 34.89600 22.25300
H  46.19300 32.72600 22.49000
H  45.03600 34.65900 22.35900
H  46.12400 35.55500 21.24600
H  45.75200 36.21600 22.86600
H  48.92700 32.16000 23.63700
H  49.02900 32.88800 22.03600
H  48.88900 30.23600 22.60200
H  48.73200 31.07100 21.02200
H  47.27800 30.69400 21.92600
H  44.82900 29.34500 25.31300
H  43.73700 29.16900 26.64700
H  45.49700 28.59400 26.84700
H  43.66700 32.27800 30.58000
H  44.19300 30.80200 34.45900
H  43.26000 32.16400 34.75400
H  45.08400 32.15200 34.73100

