158

Mg 1.64400 -0.98300 43.23800
C  5.16000 -0.54400 42.69000
C  1.20900 2.01200 41.65200
C  -1.62600 -1.75800 43.15500
C  2.39300 -4.34500 44.28000
N  2.99500 0.43300 42.20600
C  4.39300 0.44200 42.15000
C  4.85600 1.46400 41.18200
C  3.68500 2.49600 41.21400
C  2.56100 1.57400 41.70000
C  3.87200 3.71500 42.21200
C  5.12100 0.90000 39.73600
C  6.50300 1.24200 39.17200
H  6.55000 1.71200 37.71000
N  -0.06600 0.00800 42.56800
C  0.01600 1.31200 42.03200
C  -1.28700 1.76400 41.79300
C  -2.13500 0.70700 42.37100
C  -1.33900 -0.41400 42.72400
C  -1.64900 3.12600 41.16100
C  -3.66300 0.83900 42.44100
O  -4.18800 1.93900 42.26700
C  -4.57900 -0.24800 42.81700
N  0.52800 -2.79100 43.75600
C  -0.78000 -2.82900 43.56800
C  -1.30300 -4.21400 43.82300
C  -0.07000 -5.04300 44.25300
C  1.06000 -4.02900 44.10600
C  -2.34700 -4.26900 44.94600
C  0.30300 -6.20900 43.35900
C  0.73600 -7.45700 44.09300
N  3.40400 -2.21200 43.61000
C  3.52400 -3.52300 44.03700
C  4.93600 -3.84000 44.20700
C  5.60300 -2.67400 43.68900
C  4.65900 -1.74400 43.32300
C  5.42500 -5.13400 44.75500
C  6.91500 -2.09700 43.44700
O  7.99800 -2.52600 43.73400
C  6.71400 -0.67000 42.69300
C  7.49200 0.36300 43.37900
O  7.63300 0.42800 44.59200
O  7.93500 1.21900 42.41200
C  8.53400 2.41400 42.97000
H  1.09700 2.99600 41.19200
H  -2.70300 -1.93100 43.19600
H  2.72100 -5.28400 44.73000
H  5.74300 2.00000 41.52000
H  3.43000 2.92900 40.24700
H  4.33900 3.40000 43.14600
H  2.87400 4.07300 42.46700
H  4.44100 4.53700 41.77800
H  4.31600 1.26100 39.09500
H  4.99300 -0.17900 39.82000
H  7.12600 0.34800 39.15300
H  6.98600 1.99500 39.79500
H  -0.83000 3.61700 40.63600
H  -2.03200 3.81500 41.91400
H  -2.53900 3.01800 40.54100
H  -5.58600 0.11900 42.61800
H  -4.51400 -0.49100 43.87800
H  -4.53400 -1.08200 42.11800
H  -1.63100 -4.52600 42.83100
H  -0.04600 -5.35300 45.29700
H  -2.08800 -3.67600 45.82400
H  -2.34400 -5.31000 45.27100
H  -3.32200 -4.12600 44.48200
H  1.05100 -5.88400 42.63600
H  -0.61700 -6.48600 42.84300
H  0.42600 -8.43500 43.72500
H  0.40400 -7.34500 45.12400
H  1.82600 -7.45400 44.07600
H  5.12600 -6.04100 44.23000
H  5.08100 -5.18100 45.78900
H  6.51400 -5.09400 44.76900
H  7.08500 -0.74400 41.67100
H  9.40300 2.14300 43.57000
H  7.86900 3.02900 43.57600
H  8.79100 3.00300 42.09000
Mg 16.58500 51.60200 25.94500
C  18.78400 50.61700 28.63300
C  14.55300 52.92800 28.29300
C  14.61700 52.44200 23.47500
C  19.02200 50.44400 23.71100
N  16.74100 51.85600 28.11300
C  17.62100 51.22100 29.03800
C  17.26600 51.54000 30.53500
C  15.83600 52.15400 30.39800
C  15.66200 52.30400 28.84700
C  14.75700 51.28900 31.13400
C  18.30100 52.49500 31.16100
C  18.59500 52.26500 32.66200
H  17.62300 51.40000 33.53600
N  14.76800 52.47600 25.93000
C  14.08500 53.01700 26.97200
C  12.82200 53.49000 26.50600
C  12.79500 53.21400 25.11400
C  14.12300 52.70300 24.75000
C  11.82400 54.17000 27.46600
C  11.63500 53.49400 24.15300
O  11.67200 53.44300 22.91700
C  10.40400 53.99500 24.79400
N  16.83300 51.50100 23.76900
C  15.81500 51.92100 22.99800
C  16.06500 51.41400 21.56800
C  17.60900 50.91300 21.62200
C  17.86700 50.98700 23.10000
C  14.99700 50.35100 21.04300
C  18.54700 51.88900 20.81200
C  19.95100 51.41500 20.43500
N  18.55100 50.76100 26.06900
C  19.34400 50.32600 25.06000
C  20.44000 49.54400 25.61400
C  20.30500 49.58300 26.98600
C  19.10600 50.35200 27.26500
C  21.53500 48.88900 24.74500
C  20.86700 49.13200 28.23100
O  21.83700 48.45300 28.63000
C  19.87800 49.76100 29.34600
C  19.49300 48.69400 30.32800
O  18.66500 47.83300 30.11300
O  20.17500 48.86200 31.50400
C  19.77900 47.92800 32.54500
H  13.78200 53.14800 29.03400
H  13.98400 52.68500 22.61900
H  19.76100 50.15800 22.96000
H  17.38400 50.56700 31.01200
H  15.94700 53.14200 30.84600
H  14.05400 52.02000 31.53300
H  15.23200 50.58400 31.81600
H  14.31900 50.71000 30.32100
H  17.99900 53.53600 31.05100
H  19.25600 52.43300 30.63800
H  18.76200 53.23200 33.13500
H  19.46800 51.62000 32.76500
H  11.32100 55.06400 27.09700
H  12.45300 54.59200 28.25000
H  11.02100 53.53500 27.84000
H  10.07000 53.38800 25.63600
H  9.68300 54.11600 23.98600
H  10.53000 55.01400 25.15800
H  15.97900 52.27700 20.90700
H  17.76100 49.95500 21.12400
H  15.37000 49.35500 20.80600
H  14.48500 50.82500 20.20500
H  14.22700 50.16000 21.79100
H  18.59500 52.75900 21.46700
H  18.07100 52.10900 19.85700
H  20.84000 51.86400 20.87800
H  20.19500 51.43500 19.37200
H  19.86400 50.34500 20.62000
H  22.48600 49.04000 25.25600
H  21.60400 49.41400 23.79200
H  21.21600 47.84700 24.69800
H  20.44000 50.37900 30.04600
H  19.92900 48.61100 33.38100
H  20.44000 47.07100 32.67100
H  18.72000 47.67400 32.48900

