158

Mg 2.01700 -1.24900 44.07800
C  5.27600 -0.69800 43.32400
C  1.08500 1.46600 42.01000
C  -1.12300 -2.37900 44.02600
C  3.06800 -4.31900 45.57500
N  3.01700 0.13700 42.68700
C  4.40000 0.23800 42.73400
C  4.84500 1.53000 42.07400
C  3.51700 2.25200 41.75900
C  2.45200 1.25200 42.16400
C  3.30400 3.74200 42.14200
C  5.69200 1.15200 40.79900
C  6.95900 2.06800 40.67800
H  6.89500 3.10500 39.48000
N  0.13000 -0.47300 43.23100
C  -0.01300 0.63200 42.41400
C  -1.40100 0.82700 42.17700
C  -2.09100 -0.32600 42.77000
C  -1.01700 -1.09100 43.47800
C  -1.99300 2.05500 41.43900
C  -3.56300 -0.46600 42.66200
O  -4.31400 0.11800 41.85100
C  -4.22000 -1.61800 43.45800
N  1.09100 -3.16300 44.56600
C  -0.21500 -3.29300 44.59200
C  -0.52800 -4.66900 45.27600
C  0.75700 -5.01100 46.07200
C  1.72100 -4.16800 45.37500
C  -1.80100 -4.62000 46.12400
C  1.05200 -6.52400 46.15400
C  1.04500 -7.05000 47.58900
N  3.83500 -2.29200 44.39900
C  4.04800 -3.42500 45.18000
C  5.39600 -3.60200 45.33600
C  6.02800 -2.49400 44.69300
C  4.99900 -1.78700 44.11500
C  6.00800 -4.87900 45.77900
C  7.25700 -1.89100 44.35100
O  8.37100 -2.25000 44.70200
C  6.81500 -0.64100 43.48400
C  7.23400 0.54300 44.13900
O  6.76700 0.89300 45.22100
O  8.24000 1.29000 43.50100
C  8.55500 2.54300 44.21500
H  0.88400 2.38100 41.44900
H  -2.15300 -2.73700 44.09400
H  3.45600 -5.06600 46.27100
H  5.38800 2.03500 42.87300
H  3.43900 2.31600 40.67300
H  2.40700 3.96700 42.71900
H  3.22600 4.43500 41.30500
H  4.15200 4.16400 42.68200
H  5.07100 1.18500 39.90300
H  6.10800 0.14500 40.76100
H  7.86200 1.47200 40.54400
H  7.15600 2.71300 41.53400
H  -2.10100 1.76700 40.39300
H  -1.28200 2.87800 41.50700
H  -2.96200 2.31700 41.86400
H  -4.01400 -1.52600 44.52400
H  -3.87800 -2.55300 43.01300
H  -5.29600 -1.56100 43.29400
H  -0.68800 -5.34500 44.43600
H  0.79700 -4.53300 47.05100
H  -2.33900 -5.53200 45.86700
H  -2.39200 -3.70700 46.19600
H  -1.54100 -4.82900 47.16200
H  2.03100 -6.77000 45.74200
H  0.32600 -7.03800 45.52500
H  0.61500 -6.24100 48.17900
H  2.05100 -7.30600 47.92200
H  0.50500 -7.98200 47.75300
H  5.60100 -5.06200 46.77300
H  7.09100 -4.90100 45.89800
H  5.58900 -5.63900 45.12000
H  7.29400 -0.67900 42.50600
H  8.96000 3.15900 43.41200
H  9.27200 2.44000 45.03000
H  7.68100 3.03700 44.63900
Mg 16.31600 51.53700 26.90000
C  18.28800 50.34200 29.52700
C  13.98400 52.48600 29.11900
C  14.43700 52.55700 24.25600
C  18.94500 50.66900 24.70900
N  16.18700 51.47300 29.05300
C  17.12600 50.98400 29.92000
C  16.66900 51.22400 31.39900
C  15.14800 51.57800 31.31300
C  15.09600 51.86100 29.76100
C  14.04900 50.45600 31.68100
C  17.60300 52.38200 32.01500
C  17.93500 52.33300 33.57000
H  17.02500 51.40500 34.46000
N  14.42100 52.40000 26.69100
C  13.65900 52.76300 27.74400
C  12.59100 53.52100 27.21700
C  12.60900 53.48000 25.83500
C  13.82200 52.74300 25.47700
C  11.64700 54.23600 28.08200
C  11.68200 54.12100 24.86700
O  11.81500 53.99900 23.67000
C  10.56900 55.04200 25.35500
N  16.66100 51.59800 24.83000
C  15.67300 52.02200 23.88500
C  16.34900 52.21000 22.53900
C  17.73100 51.60600 22.70700
C  17.81700 51.29400 24.19200
C  15.50800 51.80300 21.28100
C  18.88800 52.44900 22.11100
C  20.03100 51.73400 21.29800
N  18.22100 50.58300 27.00500
C  19.19900 50.32900 26.09400
C  20.38800 49.67100 26.70600
C  20.04900 49.77400 28.06600
C  18.75100 50.27800 28.21200
C  21.72600 49.23700 26.01400
C  20.58000 49.51500 29.32500
O  21.70800 49.10900 29.65000
C  19.46800 49.89400 30.37900
C  19.17500 48.54000 30.95300
O  19.14200 47.42800 30.40200
O  18.92600 48.66300 32.34400
C  18.11900 47.56600 32.86800
H  13.18200 52.82400 29.77900
H  13.81200 53.02600 23.49300
H  19.73000 50.38100 24.00800
H  16.59400 50.35200 32.04800
H  15.01500 52.43200 31.97600
H  13.41800 50.59700 32.55800
H  14.55900 49.49500 31.75900
H  13.40900 50.53400 30.80300
H  17.05500 53.32300 31.96600
H  18.56100 52.36400 31.49500
H  17.96200 53.35700 33.94200
H  18.93800 51.92600 33.69600
H  11.72700 54.11700 29.16200
H  10.70100 53.71800 27.92400
H  11.34100 55.24100 27.78800
H  9.96900 55.43100 24.53200
H  10.77700 55.98100 25.86800
H  9.93800 54.48800 26.05000
H  16.55200 53.28100 22.51200
H  17.80700 50.59300 22.31200
H  15.47500 52.65100 20.59700
H  14.46300 51.54400 21.45100
H  16.03100 51.00100 20.75900
H  19.40600 52.87100 22.97200
H  18.42200 53.24700 21.53300
H  20.43800 52.47000 20.60400
H  19.77700 50.78300 20.83000
H  20.84300 51.54600 22.00100
H  22.47500 48.90500 26.73300
H  22.13900 50.09300 25.47800
H  21.53000 48.39800 25.34600
H  19.86100 50.55700 31.15000
H  17.64200 47.91300 33.78500
H  18.63600 46.62800 33.06900
H  17.21600 47.43800 32.27100

