158

Mg 50.24700 45.58100 41.30900
C  46.98400 46.47400 40.48600
C  49.53800 42.46600 40.11500
C  53.51100 44.80300 41.64500
C  51.11000 48.98600 41.72900
N  48.47300 44.63100 40.28500
C  47.24600 45.17400 40.09600
C  46.28800 44.24800 39.38400
C  47.11800 42.92500 39.37800
C  48.47100 43.31300 40.03000
C  46.35600 41.73900 40.10900
C  46.02700 44.64700 37.93700
C  44.57100 44.37900 37.37100
H  44.40500 43.56000 36.11400
N  51.35600 43.83100 41.03500
C  50.85100 42.65400 40.54800
C  51.93900 41.71200 40.44000
C  53.17100 42.40100 40.79800
C  52.73700 43.77000 41.21100
C  51.76300 40.27700 40.00800
C  54.58400 41.81600 40.80400
O  54.71700 40.62700 40.48800
C  55.85700 42.50500 41.23100
N  52.02500 46.79200 41.48600
C  53.20700 46.14600 41.78000
C  54.27700 47.20200 42.02000
C  53.56900 48.59300 42.18700
C  52.16400 48.14900 41.68400
C  55.24100 46.95500 43.15700
C  54.16400 49.70400 41.24300
C  54.12800 51.10900 41.80000
N  49.25200 47.43700 41.30600
C  49.69600 48.69700 41.54500
C  48.57400 49.59100 41.36000
C  47.54300 48.79700 40.91600
C  47.92800 47.45300 40.90600
C  48.70400 51.05600 41.48800
C  46.17300 48.85400 40.46200
O  45.40500 49.78300 40.38200
C  45.70800 47.38100 40.25300
C  44.46000 47.11900 40.99700
O  44.29700 47.16900 42.24100
O  43.45600 46.79200 40.09000
C  42.19000 46.50500 40.70100
H  49.31600 41.53800 39.58400
H  54.56500 44.59500 41.83800
H  51.34800 50.01200 42.01800
H  45.35400 44.05800 39.91400
H  47.44000 42.57400 38.39800
H  45.27500 41.60700 40.05500
H  46.61100 41.70900 41.16800
H  46.83600 40.86100 39.67600
H  46.70400 44.14700 37.24400
H  46.30200 45.69700 37.83100
H  44.23200 45.38300 37.11400
H  43.97400 44.04700 38.21900
H  52.57400 39.90100 39.38400
H  50.97300 40.18800 39.26100
H  51.76500 39.62100 40.87900
H  55.70100 42.82700 42.26100
H  55.66700 43.33900 40.55600
H  56.73300 42.01200 40.81100
H  54.96400 47.20500 41.17300
H  53.59700 48.95700 43.21400
H  56.24900 46.65500 42.87300
H  54.82400 46.13100 43.73600
H  55.37800 47.83700 43.78200
H  53.57400 49.61500 40.33000
H  55.17600 49.45200 40.92800
H  53.46600 51.65200 41.12500
H  55.14800 51.49300 41.80700
H  53.67100 51.09100 42.78900
H  48.30900 51.54100 40.59500
H  49.77300 51.26500 41.45200
H  48.24700 51.38100 42.42300
H  45.41100 47.39500 39.20500
H  41.55100 46.42100 39.82200
H  41.73200 47.24400 41.35900
H  42.23800 45.50900 41.14100
Mg -10.96700 39.60900 40.82500
C  -9.82400 36.44500 39.65300
C  -7.95600 40.96800 39.85700
C  -12.42000 42.55200 41.14500
C  -14.00000 38.02000 41.88700
N  -9.17900 38.76700 39.63200
C  -8.91900 37.46700 39.46200
C  -7.44200 37.25900 39.07100
C  -6.79600 38.66000 39.48100
C  -8.03800 39.50400 39.63800
C  -5.89900 38.67500 40.74800
C  -7.08800 36.80400 37.61600
C  -8.09100 37.23200 36.54200
H  -8.66600 36.12900 35.70200
N  -10.25800 41.54600 40.71000
C  -9.04700 41.85200 40.15600
C  -8.96300 43.32400 40.06500
C  -10.29300 43.83000 40.31500
C  -11.07600 42.63000 40.74500
C  -7.68400 43.96200 39.80000
C  -10.74500 45.23200 40.05700
O  -9.88900 46.03900 39.65500
C  -12.21600 45.62000 40.07400
N  -12.86500 40.21100 41.56400
C  -13.22500 41.52000 41.57500
C  -14.68100 41.60600 42.05400
C  -15.08800 40.24100 42.53700
C  -13.91700 39.40300 41.89000
C  -15.00300 42.82800 43.02500
C  -16.48600 39.88000 41.93100
C  -17.58200 39.61900 42.98800
N  -11.77400 37.63100 40.83700
C  -13.00200 37.14100 41.33700
C  -12.97100 35.64300 41.11100
C  -11.76500 35.36300 40.40800
C  -11.08100 36.60000 40.29300
C  -14.06000 34.75900 41.59000
C  -10.93700 34.31700 39.85500
O  -11.10300 33.09400 39.82500
C  -9.57500 34.98400 39.47400
C  -8.59500 34.52500 40.44100
O  -8.49700 34.76800 41.68400
O  -7.72000 33.65900 39.76700
C  -6.80200 32.85500 40.64500
H  -6.97400 41.29900 39.51500
H  -13.02800 43.44400 41.30900
H  -14.92800 37.50700 42.14900
H  -7.01900 36.52000 39.75200
H  -6.05900 38.98400 38.74600
H  -5.65400 37.63200 40.95000
H  -6.49400 39.13200 41.53900
H  -5.02600 39.31800 40.63300
H  -6.82000 35.74800 37.59000
H  -6.09600 37.12800 37.30100
H  -7.49400 37.79100 35.82200
H  -8.96100 37.76100 36.92900
H  -7.77000 45.04200 39.91100
H  -7.25900 43.77000 38.81500
H  -7.02100 43.57000 40.57100
H  -12.70600 45.79400 41.03200
H  -12.71500 44.85700 39.47600
H  -12.25500 46.60200 39.60100
H  -15.13600 41.79000 41.08100
H  -14.92200 40.21400 43.61400
H  -15.10500 43.73400 42.42700
H  -14.13600 42.99300 43.66500
H  -15.85300 42.59000 43.66500
H  -16.36700 38.93100 41.41000
H  -16.76500 40.61300 41.17300
H  -17.14200 39.73300 43.97900
H  -18.04500 38.63300 43.02300
H  -18.41100 40.31300 42.85400
H  -14.74300 35.20900 42.31100
H  -13.68700 33.86100 42.08200
H  -14.84100 34.45700 40.89100
H  -9.34200 34.68800 38.45200
H  -5.77000 32.99000 40.32300
H  -6.95100 31.77600 40.59200
H  -6.65300 33.32700 41.61600

