158

Mg 16.80700 -2.04000 27.54900
C  16.03600 0.29300 30.00300
C  18.32100 -3.99400 30.02500
C  18.35500 -3.78000 25.18900
C  15.98800 0.38300 25.09400
N  17.19600 -1.83600 29.75600
C  16.63100 -0.88700 30.57700
C  16.83600 -1.19400 32.08600
C  17.59600 -2.57900 32.01100
C  17.80000 -2.81300 30.49400
C  18.91100 -2.59600 32.81200
C  15.52400 -1.31000 32.87800
C  15.33600 -0.29000 34.01700
H  16.61400 0.09100 34.78500
N  17.82100 -3.78500 27.56200
C  18.29600 -4.48400 28.66800
C  19.09700 -5.62100 28.30000
C  19.29200 -5.52800 26.85000
C  18.51800 -4.29300 26.51800
C  19.64200 -6.61300 29.33200
C  20.06300 -6.41400 25.99800
O  20.15600 -6.11500 24.81000
C  20.69300 -7.66300 26.45900
N  17.05400 -1.73700 25.43700
C  17.77800 -2.57500 24.74400
C  17.87000 -2.20400 23.24000
C  17.05600 -0.93100 23.16300
C  16.59500 -0.75700 24.61700
C  19.32100 -2.02600 22.69800
C  15.88300 -0.95000 22.11400
C  15.99700 0.13000 21.03100
N  16.06400 -0.11700 27.52000
C  15.68800 0.74700 26.50000
C  15.11900 1.99400 27.03100
C  15.13500 1.78200 28.40000
C  15.80700 0.57900 28.66000
C  14.81100 3.24400 26.35100
C  14.83400 2.47000 29.70400
O  14.25600 3.56800 29.92700
C  15.45300 1.49200 30.77900
C  16.57000 2.34000 31.48900
O  17.76900 2.36800 31.10900
O  16.09500 2.92400 32.61000
C  16.86300 4.06100 33.06300
H  18.77900 -4.63300 30.78300
H  18.91800 -4.41700 24.50300
H  15.81400 1.22300 24.41900
H  17.52100 -0.41000 32.40800
H  16.90900 -3.30100 32.45300
H  18.93600 -1.68300 33.40600
H  19.73900 -2.60000 32.10300
H  18.88200 -3.48800 33.43800
H  15.42300 -2.21800 33.47200
H  14.70100 -1.14600 32.18300
H  14.67700 -0.75700 34.74800
H  14.81800 0.56000 33.57200
H  20.72700 -6.57400 29.23600
H  19.28500 -7.58400 28.98900
H  19.35300 -6.54600 30.38000
H  20.05300 -8.28700 27.08400
H  21.54200 -7.41300 27.09600
H  21.20200 -8.01200 25.56000
H  17.52700 -3.02000 22.60300
H  17.75600 -0.11500 22.98300
H  19.50000 -1.24000 21.96400
H  19.58700 -3.00900 22.30900
H  19.92200 -1.86100 23.59200
H  14.89200 -0.80300 22.54500
H  15.93300 -1.93800 21.65700
H  16.22600 1.03600 21.59400
H  15.03400 0.29300 20.54800
H  16.76100 -0.04900 20.27400
H  15.35800 3.24800 25.40800
H  15.09900 4.06000 27.01400
H  13.75900 3.22900 26.06800
H  14.76000 1.19600 31.56700
H  17.10400 4.72300 32.23100
H  17.80200 3.84400 33.57200
H  16.27700 4.59800 33.80800
Mg 6.94500 54.32600 41.50600
C  6.93000 50.73200 41.15300
C  10.23800 54.33900 40.75100
C  6.73500 57.71200 41.42800
C  3.52600 54.12800 42.00800
N  8.33800 52.74800 40.91000
C  8.13700 51.34600 40.81800
C  9.44200 50.56400 40.46300
C  10.50900 51.71000 40.72200
C  9.69400 53.04700 40.80300
C  11.40000 51.58300 41.99900
C  9.50200 50.03400 39.01500
C  9.20500 50.99500 37.84400
H  7.94000 50.77600 36.97400
N  8.31300 55.80500 41.18700
C  9.63400 55.63300 40.85600
C  10.35500 56.95800 40.65300
C  9.30400 57.94900 40.95600
C  8.00200 57.18000 41.18000
C  11.81500 57.14300 40.32100
C  9.48900 59.47600 41.01400
O  10.61100 59.96100 40.70100
C  8.39200 60.55500 41.45200
N  5.26600 55.74400 41.59000
C  5.47500 57.13700 41.67400
C  4.23100 57.83200 42.10100
C  3.17100 56.68300 42.09200
C  4.02200 55.42100 41.85500
C  4.31300 58.52000 43.48400
C  1.95900 56.83600 41.10300
C  0.62200 57.36400 41.73400
N  5.51400 52.82600 41.60100
C  4.21500 52.88000 41.98700
C  3.65600 51.57500 42.14200
C  4.72400 50.72800 41.80900
C  5.79800 51.48400 41.49300
C  2.33700 51.22200 42.59100
C  5.06200 49.35900 41.93000
O  4.45800 48.40400 42.38600
C  6.53600 49.25600 41.44700
C  6.61700 48.39300 40.27000
O  6.35500 48.70600 39.10500
O  6.91400 47.11700 40.71600
C  6.97700 46.16700 39.57500
H  11.32600 54.31600 40.66600
H  6.52900 58.76800 41.61600
H  2.54100 54.09500 42.47800
H  9.74300 49.76300 41.13800
H  11.19300 51.68000 39.87400
H  11.06100 50.81700 42.69600
H  11.23800 52.48400 42.59000
H  12.45600 51.51400 41.73600
H  8.86400 49.15100 39.00500
H  10.46300 49.58200 38.76900
H  10.00800 50.93300 37.11000
H  9.11100 51.96200 38.33900
H  11.97200 58.04500 39.72900
H  12.16900 56.30000 39.72700
H  12.54800 57.18300 41.12700
H  8.67000 61.60300 41.33900
H  8.01800 60.32600 42.45000
H  7.54100 60.52100 40.77100
H  3.96700 58.53600 41.31200
H  2.79000 56.57700 43.10700
H  4.30400 59.60900 43.50700
H  5.21100 58.21600 44.02200
H  3.38300 58.25100 43.98600
H  1.78200 55.90400 40.56800
H  2.23500 57.43600 40.23600
H  0.58500 57.60400 42.79600
H  -0.19800 56.66200 41.57900
H  0.18800 58.29600 41.37100
H  1.87300 50.79800 41.70000
H  1.66300 52.02000 42.90300
H  2.25700 50.46100 43.36700
H  7.11700 48.79300 42.24500
H  7.07600 45.13300 39.90300
H  7.78700 46.45500 38.90500
H  6.06900 46.22600 38.97400

