158

Mg 34.98100 3.33800 29.48900
C  32.82200 4.22600 32.17200
C  37.59400 3.51000 31.67400
C  37.02700 2.68400 26.87400
C  32.35300 3.46500 27.35000
N  35.17400 3.73700 31.74400
C  34.16600 4.03500 32.60900
C  34.75100 4.12000 34.01400
C  36.26800 4.18900 33.75800
C  36.39800 3.69600 32.35800
C  36.93300 5.53700 34.00100
C  34.25500 2.86600 34.82200
C  33.94400 3.23100 36.29600
H  34.66400 4.33100 36.89000
N  37.02000 3.09700 29.29800
C  37.97500 3.29500 30.26400
C  39.27800 2.95500 29.85400
C  39.13800 2.66100 28.49200
C  37.68700 2.81700 28.11500
C  40.45600 2.95600 30.79800
C  40.16800 2.22300 27.42700
O  39.94100 2.18000 26.23100
C  41.48700 1.75700 27.94600
N  34.75900 3.13400 27.35700
C  35.71500 2.82100 26.51500
C  35.16200 2.62900 25.10000
C  33.62200 2.92600 25.20400
C  33.55800 3.22100 26.76700
C  36.02600 3.44400 24.09100
C  32.63200 1.79100 24.85900
C  31.51200 2.18300 23.87100
N  33.05800 3.70800 29.67500
C  32.04900 3.82800 28.68000
C  30.76300 4.10500 29.25700
C  31.11100 4.25800 30.61600
C  32.48900 4.01100 30.84600
C  29.51900 4.23700 28.53300
C  30.46600 4.53400 31.90200
O  29.28900 4.69400 32.12800
C  31.58600 4.50600 32.98800
C  31.69000 5.84900 33.62000
O  32.43500 6.72700 33.21700
O  30.88900 5.88800 34.75000
C  31.33800 6.87500 35.75800
H  38.42100 3.54600 32.38700
H  37.77600 2.48200 26.10500
H  31.48100 3.51000 26.69500
H  34.50800 5.08000 34.47000
H  36.82000 3.49400 34.39000
H  37.16300 6.10400 33.09900
H  37.88200 5.36000 34.50600
H  36.40900 6.15200 34.73300
H  34.98900 2.06600 34.91300
H  33.35400 2.52400 34.31200
H  33.97100 2.35600 36.94600
H  32.91200 3.56900 36.20000
H  40.35600 3.90000 31.33400
H  41.40100 2.89500 30.25800
H  40.32000 2.16800 31.53800
H  41.90200 1.11300 27.17100
H  41.35000 1.26800 28.91100
H  42.17300 2.60000 28.03200
H  35.21600 1.57100 24.84200
H  33.37600 3.77100 24.56100
H  36.46800 4.30300 24.59500
H  35.42100 3.76200 23.24200
H  36.83700 2.78700 23.77600
H  32.08000 1.38100 25.70500
H  33.19500 1.03800 24.30700
H  31.42700 3.26900 23.82700
H  30.53400 1.74800 24.07800
H  31.77900 1.78000 22.89400
H  28.77900 4.72000 29.17100
H  29.13500 3.26300 28.22800
H  29.67000 4.81000 27.61800
H  31.51000 3.71000 33.73000
H  30.57700 7.64600 35.87500
H  32.22200 7.44900 35.47900
H  31.56600 6.27900 36.64200
Mg 10.02000 47.99600 25.64500
C  8.02500 48.23900 28.53000
C  12.49000 49.39700 27.29300
C  11.64400 48.23000 22.69100
C  7.14400 46.86800 23.86000
N  10.17100 48.70000 27.70400
C  9.33600 48.61500 28.74500
C  10.04100 49.15100 30.04700
C  11.32100 49.89400 29.45400
C  11.31600 49.33100 28.06000
C  10.99800 51.40200 29.22800
C  10.37600 48.13100 31.08100
C  10.00700 48.50900 32.54300
H  10.19600 47.40600 33.49600
N  11.82800 48.63400 25.07400
C  12.77300 49.11000 25.93300
C  14.04600 49.22000 25.24500
C  13.82200 48.92500 23.89700
C  12.33600 48.61800 23.82500
C  15.34100 49.59900 25.97300
C  14.77100 48.83300 22.65200
O  14.43300 48.83400 21.45100
C  16.19700 48.91400 22.95000
N  9.41100 47.75800 23.49100
C  10.31500 47.87700 22.51400
C  9.72100 47.37100 21.17900
C  8.38100 46.65000 21.66300
C  8.30700 47.06900 23.11800
C  9.56100 48.52900 20.18700
C  8.21600 45.13100 21.36400
C  8.90300 44.02300 22.27000
N  7.92600 47.76300 25.98000
C  6.87300 47.31000 25.14800
C  5.68900 47.19200 25.97500
C  6.10200 47.58800 27.29100
C  7.48400 47.85600 27.21100
C  4.39400 46.58200 25.47900
C  5.61200 47.77700 28.71100
O  4.46400 47.75600 29.20200
C  6.90700 47.96500 29.60000
C  7.14500 46.65100 30.35400
O  7.80700 45.71200 29.93300
O  6.48500 46.74800 31.54600
C  6.65300 45.60600 32.45900
H  13.32100 49.91200 27.78000
H  12.23400 48.12700 21.77800
H  6.28200 46.41100 23.37000
H  9.40400 49.83600 30.60600
H  12.29100 49.67600 29.90000
H  10.01000 51.68100 29.59400
H  10.95100 51.74500 28.19400
H  11.75500 51.98000 29.75800
H  11.45400 47.97100 31.05900
H  9.96500 47.12200 31.03700
H  8.91900 48.56700 32.51400
H  10.57000 49.40100 32.81700
H  15.22200 49.71100 27.05100
H  15.74400 50.57300 25.69400
H  16.11100 48.84200 25.82500
H  16.67000 49.04600 21.97700
H  16.52300 47.98000 23.40600
H  16.33500 49.84100 23.50700
H  10.36800 46.61100 20.74300
H  7.49500 47.13900 21.25900
H  10.20200 49.36200 20.47600
H  8.50000 48.78000 20.22200
H  9.72200 48.32000 19.12900
H  8.47500 45.03700 20.30900
H  7.15000 44.96100 21.51600
H  8.21400 43.19700 22.44400
H  9.32300 44.43100 23.18900
H  9.70300 43.65700 21.62700
H  3.82900 47.32100 24.91100
H  3.71600 46.40300 26.31400
H  4.43000 45.66600 24.89000
H  6.98900 48.85500 30.22500
H  7.59800 45.78000 32.97300
H  6.70100 44.64000 31.95800
H  5.92400 45.52700 33.26500

