158

Mg 46.89700 16.24900 27.89000
C  44.77100 16.24200 30.69400
C  49.01200 18.37700 29.71200
C  48.39400 17.40100 24.98800
C  44.35100 15.04000 25.99600
N  46.81000 17.33900 29.87000
C  45.98300 17.02700 30.89100
C  46.44500 17.56800 32.21700
C  47.71900 18.39700 31.87800
C  47.88900 18.01800 30.40300
C  47.68100 19.87100 32.19400
C  46.87300 16.40600 33.16200
C  46.64700 16.57500 34.67400
H  46.29500 17.97200 35.19300
N  48.56300 17.61300 27.38900
C  49.33000 18.26600 28.34700
C  50.52600 18.71700 27.69800
C  50.42100 18.43200 26.28200
C  49.03500 17.84900 26.15900
C  51.66300 19.27300 28.43600
C  51.39000 18.77700 25.10400
O  51.20000 18.49700 23.92000
C  52.77400 19.33200 25.38900
N  46.50500 16.26200 25.78600
C  47.23600 16.68200 24.81600
C  46.84700 16.14500 23.43600
C  45.57800 15.34300 23.77700
C  45.42300 15.62100 25.32100
C  46.62700 17.29700 22.43500
C  45.70600 13.73600 23.43800
C  44.71600 13.21600 22.34700
N  44.99900 15.56500 28.24800
C  44.15000 14.98400 27.37000
C  42.92800 14.66100 28.09900
C  43.11800 15.09200 29.39900
C  44.36700 15.69100 29.45500
C  41.59800 14.08200 27.60100
C  42.55400 15.19200 30.82300
O  41.45800 14.84600 31.17400
C  43.63300 15.98100 31.68300
C  42.97900 17.17400 32.32700
O  42.73200 18.18800 31.69600
O  42.57500 17.00000 33.63200
C  41.97600 18.04900 34.42000
H  49.71900 18.91300 30.34800
H  48.90400 17.65200 24.05500
H  43.55300 14.61900 25.38000
H  45.70100 18.26700 32.59900
H  48.64400 18.03300 32.32600
H  47.83000 20.49400 31.31200
H  48.48900 20.15600 32.86700
H  46.69600 20.10700 32.59500
H  47.91900 16.14600 33.00200
H  46.31300 15.54300 32.80200
H  47.61300 16.27700 35.08300
H  45.93500 15.85200 35.07200
H  51.62100 19.57900 29.48100
H  51.82200 20.19400 27.87400
H  52.52000 18.64800 28.18400
H  53.32600 19.23800 24.45400
H  53.30400 18.78200 26.16600
H  52.71900 20.40200 25.59400
H  47.64400 15.47300 23.11700
H  44.69800 15.72400 23.25900
H  46.72300 18.20400 23.03200
H  45.65100 17.27600 21.95100
H  47.35000 17.32900 21.62000
H  45.38700 13.26700 24.36900
H  46.77200 13.52400 23.35200
H  45.08600 12.24500 22.01900
H  44.66800 13.90300 21.50200
H  43.71900 13.01400 22.73700
H  41.29200 14.83300 26.87200
H  40.98900 13.89300 28.48500
H  41.81700 13.11100 27.15700
H  43.96800 15.33300 32.49400
H  42.03600 17.88400 35.49500
H  40.91000 18.16600 34.22500
H  42.52900 18.97100 34.23900
Mg 9.48900 48.05900 25.63200
C  7.34200 48.29700 28.30600
C  11.92000 49.20100 27.67800
C  11.62500 47.89600 23.03200
C  6.77800 47.61100 23.53600
N  9.60500 48.79800 27.71500
C  8.63600 48.59400 28.70200
C  9.19700 48.85200 30.07900
C  10.58600 49.46500 29.76900
C  10.74800 49.16100 28.30300
C  10.70800 50.92200 30.15400
C  9.30800 47.55100 30.96800
C  10.21600 47.45100 32.24400
H  9.79500 46.44300 33.31300
N  11.52300 48.53100 25.37000
C  12.34800 48.85800 26.36900
C  13.73200 48.77500 25.89400
C  13.67500 48.35700 24.59700
C  12.23300 48.30400 24.21200
C  14.94700 49.05100 26.74600
C  14.76300 48.02100 23.55000
O  14.58100 47.61700 22.36200
C  16.17800 48.01700 24.09300
N  9.20400 47.83100 23.57000
C  10.28600 47.79300 22.69900
C  9.82200 47.56200 21.22300
C  8.25000 47.62100 21.35100
C  8.01700 47.63600 22.88400
C  10.39500 48.50400 20.17700
C  7.52900 46.52500 20.58700
C  6.45200 46.92900 19.61000
N  7.41100 47.98100 25.75800
C  6.43600 47.70600 24.84900
C  5.15400 47.64700 25.53100
C  5.47700 47.82000 26.88900
C  6.86100 48.12500 26.99500
C  3.76800 47.65100 24.95500
C  4.91300 47.98600 28.21500
O  3.76200 47.88100 28.60200
C  6.10000 48.16100 29.22600
C  6.14800 46.91500 30.00600
O  6.82500 45.93100 29.76100
O  5.64800 47.12300 31.20900
C  6.06700 46.15800 32.28800
H  12.80700 49.45000 28.26300
H  12.40200 47.72300 22.28400
H  5.91000 47.63000 22.87300
H  8.45500 49.53700 30.49000
H  11.24200 48.88200 30.41500
H  10.54700 51.54000 29.27100
H  11.71300 51.11000 30.53300
H  9.89000 51.13000 30.84300
H  9.56600 46.75100 30.27500
H  8.31100 47.44700 31.39600
H  10.11900 48.44500 32.68200
H  11.22900 47.23400 31.90400
H  14.86500 48.83500 27.81100
H  15.28300 50.07100 26.55900
H  15.72000 48.30100 26.57500
H  16.15200 47.22800 24.84500
H  16.44400 48.94200 24.60500
H  16.85400 47.77000 23.27500
H  10.18400 46.60000 20.85900
H  7.91200 48.57400 20.94300
H  10.88800 49.38300 20.59000
H  9.53800 48.94900 19.67000
H  11.03000 48.11400 19.38200
H  7.04100 45.93900 21.36700
H  8.17700 45.79200 20.10600
H  5.58300 46.31800 19.85500
H  6.95100 46.78100 18.65300
H  6.21700 47.98500 19.74400
H  3.03700 47.68100 25.76300
H  3.65300 46.79800 24.28700
H  3.67900 48.60700 24.44000
H  5.92800 49.08600 29.77800
H  6.47500 46.90500 32.96900
H  6.73400 45.36500 31.95000
H  5.26900 45.70500 32.87700

