158

Mg 44.92600 4.70900 45.98100
C  43.31400 7.76900 46.04500
C  41.85900 3.17800 45.32800
C  46.63900 1.91200 45.31000
C  48.02000 6.56300 45.82400
N  42.86200 5.43400 45.44800
C  42.36500 6.74900 45.77200
C  40.91200 6.87200 45.51400
C  40.50900 5.32600 45.54000
C  41.82700 4.53100 45.52800
C  39.44700 4.94700 46.64800
C  40.65600 7.60400 44.21100
C  41.49900 7.15200 42.99700
H  40.76700 6.71900 41.72100
N  44.30200 2.79100 45.43400
C  43.01600 2.34000 45.17100
C  43.00600 0.95600 44.79000
C  44.41600 0.54800 44.88200
C  45.18900 1.75600 45.37500
C  41.81100 0.18000 44.46200
C  44.84500 -0.85900 44.52200
O  44.10400 -1.72200 44.07800
C  46.25900 -1.28300 44.64500
N  47.13700 4.33400 45.60500
C  47.50500 2.99300 45.44300
C  49.02600 2.93200 45.23400
C  49.38100 4.43200 45.62800
C  48.09400 5.18000 45.69000
C  49.70700 1.85100 46.19600
C  50.52900 5.09100 44.84400
C  51.57900 5.73900 45.74000
N  45.55800 6.74400 45.90100
C  46.80000 7.34100 45.94900
C  46.71900 8.74000 46.07200
C  45.30000 8.94400 46.16400
C  44.66100 7.70100 46.05100
C  47.71500 9.78700 46.09400
C  44.34800 9.94400 46.47200
O  44.53500 11.15800 46.69600
C  42.97800 9.21100 46.31400
C  42.13200 9.39600 47.52000
O  41.97600 8.54000 48.38600
O  41.38800 10.60300 47.46600
C  40.44400 10.66100 48.59300
H  40.85400 2.78800 45.15600
H  47.12500 0.96600 45.06000
H  48.96600 7.09600 45.93400
H  40.40600 7.27500 46.39100
H  39.96900 5.00200 44.65100
H  38.68200 5.69400 46.86300
H  39.93500 4.58800 47.55400
H  38.97900 4.07700 46.18800
H  40.72400 8.68600 44.32000
H  39.63000 7.30000 44.00300
H  42.20700 6.33700 43.15100
H  42.07600 7.99500 42.61800
H  41.87100 -0.60400 43.70700
H  40.95200 0.77700 44.15400
H  41.64000 -0.28200 45.43400
H  46.22600 -2.29100 44.23300
H  46.54800 -1.34000 45.69500
H  46.81000 -0.56600 44.03600
H  49.33200 2.60500 44.24000
H  49.64400 4.33700 46.68100
H  49.96500 0.97600 45.59900
H  48.98200 1.52100 46.94000
H  50.58100 2.26800 46.69600
H  50.15900 5.87300 44.18000
H  51.07000 4.42600 44.17000
H  51.52300 5.35800 46.75900
H  51.40300 6.81500 45.72200
H  52.54900 5.50600 45.30100
H  48.59100 9.31400 45.65000
H  47.95500 10.08600 47.11500
H  47.31200 10.68200 45.61900
H  42.49500 9.59100 45.41400
H  41.02500 10.77600 49.50800
H  39.73100 9.83700 48.57300
H  39.90800 11.60900 48.53400
Mg 27.64900 49.70800 26.91200
C  25.48600 50.72800 29.67100
C  29.99000 48.90500 29.17100
C  29.67100 49.30400 24.35600
C  25.08100 50.88800 24.72100
N  27.68400 49.77400 29.27200
C  26.69200 50.16300 30.12000
C  27.12500 49.85500 31.51400
C  28.67600 49.39200 31.37600
C  28.80400 49.30700 29.86200
C  29.78300 50.26100 32.03600
C  26.13900 48.87200 32.21800
C  25.38900 49.27700 33.50400
H  26.15900 49.86100 34.73200
N  29.53300 49.22000 26.79900
C  30.37300 48.85900 27.84800
C  31.68300 48.41800 27.31800
C  31.56300 48.53800 25.90000
C  30.19700 48.98900 25.61600
C  32.91100 48.05700 28.15000
C  32.62700 48.29700 24.79900
O  32.45800 48.50600 23.57700
C  33.95600 47.65600 25.24300
N  27.43800 50.13600 24.83300
C  28.44700 49.80600 23.96100
C  27.99500 49.99600 22.45100
C  26.42100 50.18500 22.62100
C  26.24900 50.31200 24.10100
C  28.82200 51.12800 21.74000
C  25.62300 49.02000 22.01100
C  24.48500 49.45600 21.10700
N  25.78500 50.66500 27.08200
C  24.87900 51.04100 26.10100
C  23.72900 51.62400 26.73000
C  23.95600 51.52700 28.14200
C  25.18300 50.90000 28.28100
C  22.62900 52.27000 25.91500
C  23.36800 51.78100 29.43200
O  22.32400 52.39900 29.75700
C  24.35300 51.24300 30.51100
C  24.74100 52.37600 31.41000
O  25.65100 53.17400 31.30800
O  23.85000 52.34000 32.47200
C  24.06900 53.31800 33.56500
H  30.77900 48.70400 29.90000
H  30.21200 48.97000 23.46800
H  24.18000 51.12700 24.15300
H  27.06100 50.80200 32.04800
H  28.69400 48.34400 31.67800
H  30.08300 49.72500 32.93600
H  29.55700 51.31000 32.22500
H  30.70700 50.25200 31.45800
H  26.69300 48.07800 32.72000
H  25.38900 48.35200 31.62100
H  24.93300 48.32000 33.76000
H  24.56900 49.92700 33.19800
H  33.62600 48.81400 27.82700
H  33.31200 47.07100 27.91800
H  32.78100 48.13400 29.22900
H  33.79200 46.76900 25.85400
H  34.49800 48.47300 25.72100
H  34.54700 47.40100 24.36300
H  28.32800 49.15700 21.84000
H  26.09600 51.17500 22.30300
H  29.41700 51.60500 22.51900
H  28.12600 51.70900 21.13500
H  29.51000 50.66000 21.03600
H  25.24000 48.46900 22.87000
H  26.41400 48.62400 21.37500
H  24.59800 50.46600 20.71400
H  23.62300 49.46900 21.77400
H  24.35700 48.64900 20.38600
H  23.00600 52.98800 25.18700
H  22.06300 52.81700 26.66900
H  22.08500 51.44300 25.45800
H  23.86300 50.48800 31.12600
H  23.47600 52.96800 34.41000
H  23.70500 54.34100 33.47700
H  25.11500 53.49200 33.81500

