158

Mg 1.58000 8.83500 27.05200
C  2.23500 10.86000 29.68800
C  1.47800 6.08500 29.24600
C  1.19500 6.65100 24.41100
C  1.80900 11.44100 24.94200
N  1.82900 8.52700 29.25600
C  2.10000 9.49600 30.11900
C  1.88100 9.04200 31.51600
C  1.74500 7.42900 31.34300
C  1.61000 7.30700 29.81100
C  2.91500 6.61800 31.90100
C  0.59700 9.73600 32.13100
C  0.02400 9.15100 33.41300
H  0.91800 8.64700 34.50500
N  1.41100 6.67900 26.78800
C  1.37600 5.76300 27.85300
C  1.27300 4.44000 27.36200
C  1.37900 4.57600 25.95000
C  1.29000 6.03600 25.65900
C  1.41400 3.12300 28.15900
C  1.48300 3.51300 24.86500
O  1.51900 3.76300 23.66000
C  1.66100 2.03600 25.21600
N  1.45400 8.95600 24.98700
C  1.27700 8.01600 24.09700
C  1.14900 8.52400 22.75700
C  0.90800 10.07400 22.98700
C  1.44200 10.19300 24.42700
C  2.37700 8.33100 21.85400
C  -0.56700 10.45600 22.80900
C  -0.94200 11.67600 21.91000
N  2.08600 10.77900 27.25200
C  2.18500 11.72100 26.29500
C  2.38600 12.99400 26.92400
C  2.43700 12.65200 28.23400
C  2.22500 11.30400 28.37400
C  2.31600 14.31700 26.28800
C  2.61100 13.23300 29.56400
O  2.61800 14.40300 29.94400
C  2.33200 12.10500 30.53200
C  3.31700 12.13800 31.60900
O  4.39000 11.56400 31.71400
O  2.65000 12.70600 32.68100
C  3.06700 12.41000 34.09900
H  1.44700 5.29400 29.99800
H  1.01300 6.01300 23.54400
H  1.62800 12.26600 24.25100
H  2.78400 9.26100 32.08700
H  0.83300 7.09500 31.83900
H  3.43800 6.08500 31.10800
H  2.56500 5.82500 32.56200
H  3.54800 7.26500 32.50900
H  -0.25000 9.73300 31.44500
H  0.84100 10.74100 32.47400
H  -0.54700 8.28200 33.08700
H  -0.73500 9.80000 33.84900
H  2.35700 2.67900 27.83900
H  0.59800 2.40500 28.08100
H  1.32000 3.17300 29.24400
H  2.57000 1.93700 25.81000
H  1.86700 1.61000 24.23300
H  0.75600 1.58000 25.61700
H  0.30100 8.06100 22.25100
H  1.54900 10.67600 22.34300
H  2.14800 7.50900 21.17500
H  3.24000 8.00600 22.43500
H  2.68600 9.19700 21.26800
H  -0.95700 10.69700 23.79800
H  -1.09300 9.55600 22.49200
H  -1.40600 12.42000 22.55800
H  -1.72400 11.31800 21.24000
H  -0.09300 12.16400 21.43000
H  1.34100 14.68200 26.61000
H  2.17400 14.21400 25.21200
H  3.13700 14.95500 26.61400
H  1.31700 12.23300 30.90800
H  3.54100 11.43300 34.19200
H  2.32100 12.54500 34.88100
H  3.92200 13.04200 34.33700
Mg 47.06400 24.92900 28.12300
C  48.18200 27.27900 30.56900
C  46.87800 22.58900 30.46700
C  46.19900 23.01400 25.68000
C  47.80900 27.62100 25.77800
N  47.81000 24.88400 30.22900
C  47.89200 25.99500 31.02000
C  47.60800 25.62400 32.53800
C  47.36000 24.13800 32.47200
C  47.41800 23.80200 30.96900
C  48.34000 23.17300 33.27600
C  46.43700 26.46400 33.21900
C  45.67900 25.92000 34.46200
H  45.62700 26.85100 35.76600
N  46.40200 23.08000 28.06600
C  46.41100 22.21900 29.16900
C  45.88700 20.93900 28.74300
C  45.65500 21.07300 27.33200
C  46.11500 22.41200 26.95000
C  45.88000 19.74000 29.60500
C  45.06800 20.07700 26.29900
O  44.69600 20.39700 25.21000
C  44.55800 18.73500 26.75400
N  47.06800 25.23200 25.98600
C  46.75100 24.21100 25.17100
C  46.64900 24.73900 23.64200
C  46.97100 26.27300 23.82800
C  47.24100 26.39800 25.30000
C  47.52400 23.98700 22.50500
C  45.86300 27.22600 23.34100
C  46.24200 28.14400 22.23300
N  48.09000 26.99900 28.13800
C  48.28500 27.91000 27.10800
C  48.83100 29.11200 27.62800
C  48.72700 28.98900 29.06000
C  48.29200 27.67000 29.25800
C  49.25800 30.33000 26.86100
C  48.87800 29.61200 30.40200
O  49.35700 30.68600 30.82200
C  48.33500 28.53700 31.40400
C  49.30100 28.40000 32.44300
O  50.42300 27.81100 32.30800
O  48.84300 28.82000 33.64400
C  49.75400 28.80100 34.85800
H  46.66800 21.79900 31.19100
H  45.74400 22.40200 24.89800
H  48.05900 28.45800 25.12300
H  48.54500 25.76400 33.07700
H  46.32400 23.94500 32.75400
H  48.94500 22.63600 32.54500
H  47.72900 22.45500 33.82400
H  48.94200 23.72200 34.00000
H  45.70100 26.67100 32.44200
H  46.80000 27.43500 33.55900
H  46.11900 24.95000 34.69200
H  44.70100 25.71300 34.02700
H  46.63800 19.05300 29.22800
H  44.98200 19.12300 29.61400
H  46.08700 20.04300 30.63100
H  43.92200 18.74400 27.63900
H  45.37500 18.03200 26.91800
H  43.98700 18.42300 25.88000
H  45.61900 24.65100 23.29700
H  47.90600 26.59800 23.37200
H  47.76600 22.94200 22.69600
H  48.45900 24.49700 22.27100
H  46.93300 24.10800 21.59800
H  45.51200 27.86900 24.14800
H  45.06500 26.57300 22.98700
H  45.58700 27.92000 21.39200
H  47.28900 28.15400 21.92800
H  46.01300 29.18100 22.48000
H  49.06700 31.26800 27.38400
H  48.77500 30.28700 25.88500
H  50.31800 30.20000 26.64400
H  47.39400 28.94700 31.77300
H  49.22500 28.20800 35.60500
H  49.98600 29.79300 35.24400
H  50.69300 28.25500 34.76900

