158

Mg 39.89400 8.99800 29.16100
C  41.88900 10.30000 31.84000
C  37.88800 7.57900 31.52100
C  38.47800 7.44100 26.62800
C  42.56700 9.96700 26.96800
N  39.93400 9.00900 31.41800
C  40.73900 9.64500 32.30000
C  40.24400 9.47400 33.74100
C  39.02800 8.52400 33.62700
C  38.97400 8.27000 32.08700
C  38.87800 7.21000 34.42900
C  39.87800 10.86000 34.34600
C  38.74200 11.01200 35.39800
H  39.14300 11.79600 36.60700
N  38.34000 7.79900 29.02400
C  37.57100 7.43800 30.11100
C  36.48300 6.62000 29.61100
C  36.53400 6.69000 28.17200
C  37.86900 7.22500 27.87200
C  35.49100 5.85700 30.47300
C  35.56500 6.11000 27.15300
O  35.93200 5.98700 26.01900
C  34.17000 5.63100 27.46400
N  40.44200 8.67900 27.17700
C  39.63900 8.06000 26.26900
C  40.05300 8.27900 24.80500
C  41.39400 9.10500 24.89600
C  41.54200 9.25300 26.42900
C  40.20900 6.96100 24.03200
C  41.27000 10.50100 24.13000
C  40.09300 11.42500 24.50200
N  41.84800 9.97800 29.31900
C  42.82700 10.22500 28.36300
C  43.95500 10.97700 28.94900
C  43.61300 11.00600 30.31500
C  42.36300 10.41100 30.47100
C  45.22000 11.43400 28.31200
C  44.00000 11.47500 31.66400
O  44.93300 12.14800 32.07400
C  42.95700 11.04400 32.59600
C  43.50400 10.25800 33.70100
O  43.55600 9.03300 33.79500
O  43.64800 11.07400 34.81100
C  43.99100 10.56400 36.17100
H  37.10300 7.21900 32.19000
H  37.83800 7.13500 25.79800
H  43.33500 10.39000 26.31700
H  41.05600 9.01000 34.30100
H  38.13800 9.12100 33.82200
H  39.39900 6.42300 33.88300
H  37.82200 7.00300 34.60000
H  39.39000 7.29900 35.38700
H  39.96000 11.58700 33.53700
H  40.77400 11.00100 34.95000
H  38.39800 10.07100 35.82800
H  37.91000 11.50400 34.89300
H  35.58500 4.90100 29.95800
H  34.47700 6.24900 30.39000
H  35.68000 5.68200 31.53200
H  33.80900 6.45700 28.07700
H  34.26800 4.62800 27.87900
H  33.59800 5.57800 26.53700
H  39.23500 8.84000 24.35300
H  42.31600 8.70300 24.47500
H  39.61300 7.02100 23.12200
H  39.84500 6.17000 24.68800
H  41.22000 6.66600 23.75100
H  41.15000 10.35200 23.05700
H  42.15000 11.08700 24.39600
H  40.37700 12.44400 24.76600
H  39.69100 11.20500 25.49100
H  39.33100 11.34600 23.72700
H  45.25400 11.32000 27.22800
H  46.09200 11.02900 28.82600
H  45.23900 12.49400 28.56400
H  42.43000 11.91600 32.98200
H  43.06600 10.60000 36.74500
H  44.73000 11.16200 36.70500
H  44.23600 9.50300 36.12100
Mg 31.12600 58.45200 40.29600
C  28.18800 56.88500 39.44400
C  32.84500 55.58600 39.40200
C  33.96800 60.20100 39.86700
C  29.26600 61.38600 40.54300
N  30.60600 56.46300 39.47400
C  29.32100 56.03900 39.24800
C  29.37300 54.55100 38.83800
C  30.76000 54.13900 39.28000
C  31.48500 55.49500 39.37600
C  30.73900 53.45600 40.66100
C  29.07300 54.37600 37.31800
C  27.78000 53.77500 36.80000
H  27.04600 54.59100 35.74900
N  33.15400 57.94100 39.74300
C  33.64500 56.70600 39.43100
C  35.07500 56.78100 39.17300
C  35.40000 58.14400 39.28600
C  34.16300 58.80600 39.69000
C  35.89100 55.54000 38.81000
C  36.76000 58.75100 39.11800
O  37.72000 58.05300 38.81500
C  37.00800 60.16300 39.51800
N  31.56400 60.46800 40.27500
C  32.82000 60.96500 40.12600
C  32.77800 62.53600 40.03200
C  31.24600 62.88100 40.08300
C  30.61600 61.53500 40.44000
C  33.70600 63.36900 40.94200
C  30.60800 63.54300 38.75900
C  29.84800 64.87600 38.93800
N  29.05300 59.05800 40.22400
C  28.43700 60.25000 40.45600
C  27.03300 60.07600 40.34400
C  26.88200 58.75700 39.96000
C  28.15300 58.16600 39.95600
C  26.04900 61.18700 40.49700
C  25.94700 57.78300 39.47300
O  24.75700 57.97400 39.21200
C  26.72900 56.45000 39.26800
C  26.05600 55.45700 40.18900
O  26.13200 55.41500 41.37900
O  25.35900 54.55200 39.47200
C  24.57800 53.53900 40.18200
H  33.35500 54.63800 39.21900
H  34.74800 60.92500 39.62000
H  28.71800 62.28900 40.81800
H  28.64200 53.98400 39.41400
H  31.16800 53.51400 38.48600
H  30.01400 52.64500 40.72900
H  30.52900 54.15800 41.46700
H  31.72300 53.01000 40.81000
H  29.86000 53.77200 36.86600
H  29.26800 55.28800 36.75200
H  27.15600 53.75200 37.69300
H  28.04600 52.77900 36.44600
H  36.25400 55.79400 37.81500
H  35.36000 54.59200 38.73500
H  36.69400 55.44700 39.54200
H  36.67800 60.81900 38.71300
H  38.08800 60.30800 39.53500
H  36.69700 60.44000 40.52600
H  33.04000 62.71100 38.98800
H  31.00000 63.54100 40.91500
H  33.97300 62.70000 41.76000
H  33.18900 64.12800 41.52900
H  34.45600 63.98200 40.44200
H  29.91600 62.87800 38.24200
H  31.39400 63.78200 38.04300
H  29.94400 65.20800 39.97200
H  28.85500 64.81500 38.49300
H  30.38100 65.64100 38.37300
H  25.04700 60.84900 40.76100
H  26.04700 61.74000 39.55800
H  26.33500 61.73400 41.39500
H  26.66900 56.06700 38.24900
H  23.82200 53.83800 40.90900
H  25.29900 52.93200 40.72900
H  24.14600 52.87800 39.43100

