158

Mg -2.00100 17.17100 25.80300
C  -2.70700 14.72500 28.49800
C  -2.28800 19.56400 28.12900
C  -1.96400 19.11100 23.29700
C  -2.66800 14.35700 23.61600
N  -2.49100 17.11600 28.10200
C  -2.51500 16.06900 28.96600
C  -2.50900 16.47000 30.39200
C  -2.68300 18.05500 30.26000
C  -2.48300 18.29700 28.74100
C  -4.10500 18.61100 30.64100
C  -1.23200 16.19100 31.31700
C  -0.91100 17.08600 32.48800
H  -0.61600 16.43400 33.82700
N  -2.03700 19.05600 25.73100
C  -2.18600 19.97600 26.72600
C  -2.30200 21.31400 26.27400
C  -2.21300 21.16500 24.85000
C  -2.05900 19.71600 24.57600
C  -2.59300 22.59600 27.18000
C  -2.23900 22.27900 23.76500
O  -2.12700 22.07400 22.55700
C  -2.30100 23.69700 24.24400
N  -2.40400 16.78900 23.73800
C  -2.09200 17.80200 22.91300
C  -2.06200 17.37300 21.38700
C  -2.48400 15.85800 21.49500
C  -2.42000 15.59700 23.03800
C  -3.04700 18.25300 20.65900
C  -1.52500 14.81000 20.67600
C  -2.17400 13.68300 19.81800
N  -2.46800 14.98100 25.97800
C  -2.70400 14.05300 24.97500
C  -2.92300 12.74000 25.52300
C  -2.90700 12.95700 26.95600
C  -2.73000 14.36700 27.11300
C  -2.96100 11.31700 24.83600
C  -2.90200 12.31500 28.19000
O  -3.06500 11.13500 28.48700
C  -3.05000 13.41300 29.26000
C  -2.08200 13.09100 30.33500
O  -0.91000 13.30100 30.21500
O  -2.69700 12.40200 31.35800
C  -1.79600 11.95400 32.37400
H  -2.10000 20.37300 28.83800
H  -1.96600 19.82000 22.46700
H  -2.76600 13.52500 22.91600
H  -3.37300 16.12400 30.95900
H  -1.94600 18.69300 30.74800
H  -4.52000 19.26700 29.87600
H  -4.10000 19.15300 31.58700
H  -4.72300 17.72000 30.74900
H  -0.31400 16.13700 30.73000
H  -1.31000 15.20300 31.77100
H  -1.83000 17.64400 32.66800
H  -0.19100 17.85800 32.21500
H  -1.98100 23.45000 26.88900
H  -2.43400 22.42000 28.24400
H  -3.63900 22.87300 27.04700
H  -2.52500 24.18100 23.29400
H  -1.35000 24.03800 24.65300
H  -3.06300 23.94100 24.98500
H  -1.02400 17.53200 21.09400
H  -3.45000 15.66500 21.02900
H  -3.99200 18.28700 21.20000
H  -3.18800 17.66400 19.75300
H  -2.64300 19.25300 20.50100
H  -0.99800 14.23600 21.43800
H  -0.86000 15.40500 20.05100
H  -2.11800 12.68600 20.25600
H  -1.85600 13.57500 18.78100
H  -3.25000 13.84800 19.85200
H  -3.12600 11.31100 23.75800
H  -3.74100 10.76500 25.36000
H  -2.00300 10.80000 24.89200
H  -4.05400 13.41700 29.68300
H  -0.87900 11.49100 32.00900
H  -2.27100 11.17400 32.96800
H  -1.42600 12.76300 33.00300
Mg 43.28100 3.92200 46.75200
C  41.17600 6.68400 46.37600
C  40.57700 1.88000 46.71400
C  45.39900 1.28200 46.23800
C  46.00900 6.02600 46.42000
N  41.06600 4.26300 46.31300
C  40.40800 5.46200 46.41600
C  38.91200 5.32100 46.63600
C  38.80900 3.79200 46.83900
C  40.26700 3.26500 46.61900
C  38.15500 3.40900 48.23500
C  38.06700 5.97200 45.49700
C  38.51500 5.59800 44.09600
H  39.53200 6.56900 43.40000
N  43.01700 1.88300 46.56300
C  41.81600 1.23200 46.62300
C  41.97600 -0.18100 46.44200
C  43.38400 -0.44700 46.43000
C  44.02000 0.93500 46.41100
C  40.73600 -1.16900 46.53500
C  44.00600 -1.79100 46.41600
O  43.27800 -2.75800 46.41800
C  45.55700 -1.92300 46.34800
N  45.46500 3.67300 46.40400
C  46.07700 2.53400 46.28400
C  47.60800 2.67700 46.15700
C  47.81600 4.19600 46.30100
C  46.37300 4.68700 46.41900
C  48.39500 1.67200 46.99600
C  48.54800 4.87000 45.15400
C  49.60200 4.15900 44.30500
N  43.61000 5.88500 46.39700
C  44.74100 6.63500 46.40300
C  44.42500 8.02100 46.50600
C  43.03400 8.09300 46.45000
C  42.55600 6.74200 46.25900
C  45.40300 9.14400 46.53200
C  41.91300 8.97200 46.58900
O  41.75700 10.14800 46.88600
C  40.62300 8.11300 46.38900
C  39.74000 8.32200 47.50700
O  39.94100 7.85300 48.65200
O  38.73200 9.16600 47.15000
C  37.89200 9.64400 48.29800
H  39.69200 1.24000 46.71900
H  46.16300 0.53100 46.02700
H  46.87000 6.69600 46.37400
H  38.70900 5.87600 47.55200
H  38.19600 3.40100 46.02600
H  37.83500 4.30700 48.76300
H  38.86700 2.83100 48.82400
H  37.24800 2.80900 48.15800
H  37.87700 7.03500 45.64500
H  37.04900 5.59000 45.57500
H  37.67500 5.43700 43.42000
H  38.98600 4.61500 44.09800
H  40.51400 -1.52600 45.52900
H  39.79800 -0.73700 46.88600
H  40.85200 -1.99100 47.24200
H  46.08100 -1.33200 47.09900
H  46.02000 -1.55300 45.43300
H  45.91200 -2.93900 46.51800
H  47.62100 2.54900 45.07500
H  48.40800 4.40400 47.19200
H  48.51400 0.73200 46.45700
H  47.89200 1.47300 47.94200
H  49.36600 2.15200 47.11900
H  49.15700 5.67700 45.56100
H  47.89600 5.32900 44.41100
H  49.29800 4.26800 43.26300
H  49.61000 3.07700 44.44300
H  50.55400 4.65900 44.47800
H  44.93900 9.92200 45.92600
H  46.41000 8.89600 46.19600
H  45.46200 9.43700 47.58000
H  40.29700 8.39800 45.38800
H  38.44700 10.13300 49.09900
H  37.24900 8.81500 48.59500
H  37.37900 10.47500 47.81600

