158

Mg 24.28000 -5.18200 46.52000
C  26.20200 -2.83100 44.71500
C  21.67600 -4.67700 44.33800
C  22.73700 -7.96000 47.79200
C  27.07400 -5.95600 48.48400
N  24.11800 -4.00100 44.64600
C  24.93100 -2.96400 44.23400
C  24.29900 -2.15000 43.07600
C  22.83100 -2.60400 43.20200
C  22.84600 -3.86400 44.08900
C  21.87900 -1.40900 43.76200
C  25.00600 -2.38700 41.71400
C  25.49600 -1.09500 41.11700
H  24.98700 -0.94200 39.66100
N  22.45800 -6.14600 46.20600
C  21.48100 -5.75600 45.26500
C  20.26300 -6.55800 45.37100
C  20.54800 -7.49100 46.39700
C  22.01700 -7.27300 46.83300
C  19.07100 -6.43700 44.48400
C  19.59400 -8.58900 46.86600
O  18.45600 -8.77900 46.41200
C  19.94600 -9.45500 47.98700
N  24.77800 -6.73900 47.95200
C  23.93200 -7.78300 48.29400
C  24.72300 -8.84700 49.07000
C  26.12800 -8.13900 49.42700
C  26.01800 -6.90100 48.53400
C  24.05200 -9.54300 50.27800
C  27.37300 -9.00800 49.28100
C  28.50500 -8.88200 50.25900
N  26.24500 -4.53600 46.71300
C  27.27400 -4.86100 47.57800
C  28.37100 -4.04300 47.36800
C  28.02500 -3.28600 46.21000
C  26.71000 -3.61000 45.82900
C  29.58400 -3.80600 48.23400
C  28.53400 -2.24100 45.33900
O  29.63700 -1.66800 45.39200
C  27.44300 -2.02600 44.21000
C  27.08700 -0.58100 44.33500
O  26.45100 -0.03300 45.24700
O  27.68500 0.07400 43.30400
C  27.80200 1.52900 43.40400
H  20.85100 -4.28200 43.74300
H  22.23200 -8.91000 47.98200
H  27.93800 -6.22100 49.09800
H  24.21900 -1.09300 43.33100
H  22.55100 -2.94300 42.20500
H  20.92200 -1.31500 43.24800
H  22.26600 -0.39100 43.77600
H  21.57100 -1.60600 44.78900
H  24.31100 -2.95300 41.09300
H  25.83200 -3.08000 41.87400
H  26.58600 -1.09200 41.09900
H  25.20200 -0.19800 41.66200
H  19.17500 -7.28500 43.80700
H  19.08100 -5.48800 43.94700
H  18.16500 -6.55400 45.07900
H  20.42200 -8.89400 48.79100
H  20.67800 -10.17100 47.61200
H  19.18400 -10.13900 48.36000
H  24.87800 -9.60500 48.30200
H  26.07600 -7.78600 50.45700
H  23.72900 -10.50900 49.89100
H  23.26300 -8.90500 50.67600
H  24.80600 -9.64800 51.05800
H  27.75500 -8.86800 48.26900
H  27.03600 -10.04500 49.29100
H  28.78900 -9.74600 50.86000
H  28.21600 -8.03000 50.87400
H  29.46000 -8.67300 49.77700
H  29.96200 -4.81000 48.42800
H  29.31000 -3.34300 49.18200
H  30.52100 -3.50500 47.76600
H  27.83500 -2.25100 43.21800
H  28.76700 1.71900 43.87500
H  26.95400 1.95500 43.94000
H  27.85800 1.87500 42.37100
Mg 26.93500 50.46700 25.61200
C  24.86100 51.71300 28.07500
C  29.24100 49.81100 27.94700
C  28.82100 49.30200 23.14400
C  24.63700 51.84400 23.16800
N  27.02500 50.86600 27.78500
C  26.00600 51.19500 28.61100
C  26.30200 50.98000 30.14600
C  27.82700 50.49500 29.95600
C  28.09700 50.44800 28.46000
C  28.82600 51.43000 30.62300
C  25.41300 49.85500 30.61100
C  25.81100 49.30100 32.03200
H  24.96200 49.66500 33.20100
N  28.76900 49.74200 25.62200
C  29.62000 49.49400 26.65900
C  30.83400 48.80200 26.17200
C  30.77100 48.63000 24.78600
C  29.41800 49.21300 24.44100
C  31.93500 48.36800 27.14000
C  31.74800 48.00100 23.79000
O  31.49800 47.93000 22.62200
C  33.04200 47.33800 24.33900
N  26.67400 50.50300 23.50300
C  27.61900 49.91200 22.72500
C  27.02900 49.68600 21.31200
C  26.00400 50.79000 21.21300
C  25.72100 51.13800 22.67500
C  28.02600 49.59400 20.11600
C  24.67200 50.39400 20.50800
C  23.83600 49.37700 21.17900
N  25.14600 51.55800 25.54000
C  24.34200 52.05200 24.54300
C  23.17000 52.71100 25.13500
C  23.35800 52.56900 26.48000
C  24.53200 51.89900 26.72500
C  22.04100 53.41200 24.48100
C  22.78400 52.90100 27.76500
O  21.75300 53.52000 27.97400
C  23.62900 52.28500 28.80800
C  24.07300 53.26000 29.82300
O  24.93000 54.12500 29.64500
O  23.39200 53.02200 31.05600
C  23.70500 53.99100 32.14300
H  29.94000 49.53500 28.73900
H  29.45500 48.87400 22.36400
H  23.90100 52.31200 22.51100
H  26.17500 51.85200 30.78800
H  27.93200 49.46900 30.30700
H  28.41200 52.26000 31.19500
H  29.45100 51.87800 29.85100
H  29.38200 50.73700 31.25500
H  25.50700 49.09100 29.83900
H  24.39100 50.23100 30.65700
H  26.79600 49.67900 32.30800
H  25.90700 48.23000 31.85700
H  31.97000 47.27900 27.11900
H  31.64200 48.69800 28.13700
H  32.95500 48.73700 27.02800
H  33.40800 48.12100 25.00300
H  33.71100 47.08800 23.51500
H  32.72000 46.41900 24.82900
H  26.56600 48.71700 21.50100
H  26.34300 51.68700 20.69600
H  28.38800 48.56700 20.06200
H  28.90100 50.19100 20.37500
H  27.66000 50.01600 19.18000
H  24.97200 50.02100 19.52900
H  24.01200 51.24100 20.32500
H  24.26000 49.06800 22.13500
H  23.81100 48.53900 20.48200
H  22.81600 49.67100 21.43000
H  21.80600 52.86700 23.56700
H  22.26700 54.47600 24.41200
H  21.25500 53.34500 25.23300
H  23.03200 51.58000 29.38800
H  22.92100 54.02800 32.89900
H  23.67200 55.04900 31.88500
H  24.74200 53.82100 32.43300

