158

Mg 26.18200 -0.90500 29.00500
C  28.29700 -1.13900 31.78900
C  23.55500 -0.37400 31.00900
C  24.16400 -1.25200 26.30500
C  29.01700 -1.55000 27.05100
N  26.04400 -0.80800 31.11800
C  26.96000 -0.81900 32.13200
C  26.47700 -0.34000 33.47600
C  24.95900 -0.24200 33.15100
C  24.77100 -0.52600 31.67200
C  24.06600 -0.99700 34.19700
C  27.17600 0.93200 34.09400
C  27.91800 0.84400 35.42600
H  27.66200 1.77200 36.58700
N  24.20900 -0.80900 28.67100
C  23.25500 -0.57700 29.64700
C  21.94500 -0.66700 29.09700
C  22.07600 -0.90400 27.67700
C  23.50000 -0.99700 27.46900
C  20.67800 -0.61100 29.98000
C  20.89000 -1.00800 26.60300
O  21.06400 -1.31500 25.41700
C  19.39200 -0.90400 27.02600
N  26.54700 -1.53800 26.98000
C  25.53300 -1.52700 26.09800
C  26.14000 -1.40500 24.70800
C  27.70900 -1.41300 24.88900
C  27.79100 -1.43300 26.37600
C  25.65600 -2.50900 23.72500
C  28.49400 -0.22100 24.19700
C  28.68200 1.09200 24.92300
N  28.16700 -1.45500 29.31800
C  29.19000 -1.63300 28.43300
C  30.37700 -1.95500 29.13600
C  30.10400 -1.75500 30.48800
C  28.69000 -1.43900 30.48900
C  31.69700 -2.34500 28.51700
C  30.66300 -1.72800 31.80600
O  31.82000 -1.84200 32.21600
C  29.49400 -1.25900 32.68000
C  29.46500 -2.09200 33.96700
O  28.87400 -3.13900 34.13800
O  30.33400 -1.50100 34.84000
C  30.41500 -2.04900 36.16200
H  22.75000 -0.16800 31.71800
H  23.62700 -1.25300 25.35400
H  29.97200 -1.48600 26.52700
H  26.68700 -1.11000 34.22000
H  24.69100 0.78800 33.38500
H  23.47700 -1.70000 33.60800
H  23.38100 -0.16400 34.35500
H  24.53800 -1.37200 35.10500
H  26.50400 1.77800 34.23600
H  27.95700 1.33900 33.45100
H  28.99000 0.97200 35.27900
H  27.90700 -0.16200 35.84500
H  19.99500 0.18500 29.68000
H  20.84700 -0.49900 31.05100
H  20.20800 -1.58700 29.86400
H  19.15800 -1.69700 27.73600
H  18.77600 -0.99200 26.13100
H  19.17500 0.03100 27.54300
H  25.83900 -0.49600 24.18700
H  28.13000 -2.39900 24.69500
H  25.74100 -3.37900 24.37600
H  26.36800 -2.67300 22.91600
H  24.67000 -2.36800 23.28000
H  27.94000 -0.01500 23.28100
H  29.46500 -0.60900 23.88700
H  28.09000 1.29100 25.81600
H  28.34200 1.80400 24.17100
H  29.75800 1.20300 25.06000
H  32.24900 -1.57200 27.98100
H  31.59900 -3.23500 27.89600
H  32.28600 -2.72800 29.35000
H  29.72200 -0.24400 33.00600
H  30.64600 -3.11000 36.06900
H  29.50200 -1.76400 36.68500
H  31.28000 -1.62100 36.66800
Mg 35.93600 0.42800 29.49100
C  33.59100 1.55200 31.91400
C  38.27100 0.20600 32.10000
C  38.30000 -0.04700 27.13700
C  33.58200 1.18800 27.00200
N  35.86800 0.89400 31.72000
C  34.83100 1.30600 32.48600
C  35.28200 1.39600 33.94600
C  36.78100 1.00800 34.00400
C  36.99700 0.64900 32.55100
C  37.89500 1.93800 34.55400
C  34.33900 0.60300 34.92100
C  33.57000 1.36600 36.00600
H  34.31800 2.57200 36.58300
N  37.94900 -0.01100 29.60600
C  38.75800 -0.03100 30.76300
C  40.07800 -0.25200 30.37700
C  40.12200 -0.41200 28.92400
C  38.77800 -0.11300 28.51300
C  41.22800 -0.30000 31.36100
C  41.25000 -0.80200 28.04800
O  41.04400 -1.07400 26.83700
C  42.69400 -0.96900 28.61400
N  35.95900 0.53300 27.40400
C  37.03900 0.24700 26.65800
C  36.77700 0.33900 25.16800
C  35.24800 0.54500 25.12600
C  34.90500 0.80300 26.58600
C  37.39200 1.53300 24.42600
C  34.33300 -0.43400 24.26200
C  33.63400 -1.60200 25.00600
N  33.92400 1.00400 29.44300
C  33.15500 1.29900 28.35700
C  31.88600 1.65600 28.88000
C  31.96500 1.80400 30.22300
C  33.24900 1.44600 30.53200
C  30.60700 1.91700 27.99600
C  31.30100 2.12200 31.48200
O  30.08500 2.31900 31.61600
C  32.33800 1.99600 32.71700
C  32.53200 3.31900 33.38800
O  33.48400 4.01400 33.14100
O  31.43100 3.70400 34.05300
C  31.52000 5.12000 34.59000
H  38.89900 0.09400 32.98600
H  38.99500 -0.10100 26.29600
H  32.86500 1.20200 26.17800
H  35.16700 2.44000 34.23900
H  36.80500 0.11800 34.63300
H  38.59200 1.25300 35.03500
H  37.71200 2.58300 35.41300
H  38.39200 2.37900 33.69000
H  34.80200 -0.26300 35.39400
H  33.57700 0.14600 34.29000
H  33.55900 0.69500 36.86600
H  32.51900 1.59800 35.83400
H  40.79600 -0.57400 32.32400
H  41.90200 0.55600 31.40600
H  41.89000 -1.14500 31.17300
H  42.74600 -1.88600 29.20100
H  42.98200 0.00400 29.01200
H  43.37300 -1.03100 27.76400
H  37.11000 -0.52400 24.59100
H  34.93700 1.47600 24.65100
H  38.25400 1.19600 23.85100
H  37.74600 2.25200 25.16600
H  36.67100 1.95100 23.72300
H  34.86100 -0.72300 23.35300
H  33.46500 0.14500 23.94800
H  34.01300 -2.57300 24.68600
H  32.58700 -1.82900 24.80500
H  33.84100 -1.52400 26.07400
H  30.37000 0.99400 27.46600
H  30.92000 2.60700 27.21300
H  29.70000 2.07900 28.57800
H  31.89800 1.23500 33.36100
H  32.43700 5.35600 35.13000
H  30.76200 5.16900 35.37100
H  31.47300 5.72800 33.68600

