158

Mg 24.18200 -6.87400 46.62800
C  25.85800 -4.20100 45.33700
C  21.50000 -5.98800 44.32600
C  22.68100 -9.85000 47.14900
C  26.85800 -7.84800 48.34700
N  23.75300 -5.27500 44.98800
C  24.63800 -4.25400 44.70600
C  24.03700 -3.35600 43.62400
C  22.51700 -3.80600 43.52600
C  22.58100 -5.08900 44.31900
C  21.45000 -2.73600 43.91800
C  24.86800 -3.48800 42.31100
C  25.14300 -2.20500 41.47900
H  24.65100 -2.17600 40.02200
N  22.25100 -7.82100 45.99300
C  21.32200 -7.30400 45.00200
C  20.16800 -8.15600 45.05000
C  20.46300 -9.21300 45.96600
C  21.81100 -8.99800 46.42000
C  18.93500 -7.91900 44.18200
C  19.49100 -10.33200 46.37200
O  18.40400 -10.45200 45.77300
C  19.84000 -11.32800 47.49600
N  24.66600 -8.59800 47.62200
C  23.83900 -9.62000 47.77300
C  24.42500 -10.63900 48.79000
C  25.82700 -10.05000 49.12600
C  25.77300 -8.72600 48.36000
C  23.53900 -11.01800 49.96200
C  27.13700 -10.92800 48.85700
C  28.03000 -11.16700 50.14500
N  25.99100 -6.26200 46.76300
C  27.05900 -6.70400 47.55300
C  28.10700 -5.71100 47.56800
C  27.68000 -4.74600 46.68500
C  26.37200 -5.11800 46.24000
C  29.31400 -5.76700 48.49200
C  28.02100 -3.43600 46.18500
O  28.90100 -2.62700 46.41800
C  26.85300 -3.06100 45.23500
C  26.35600 -1.79300 45.68400
O  26.87400 -0.71900 45.26900
O  25.17100 -1.90900 46.37300
C  24.73400 -0.68500 47.11300
H  20.61900 -5.77800 43.71500
H  22.28300 -10.84000 47.38200
H  27.68500 -8.09600 49.01500
H  24.01900 -2.29200 43.85700
H  22.27800 -4.07300 42.49700
H  20.88500 -3.11200 44.77000
H  20.73100 -2.58600 43.11300
H  21.84500 -1.80300 44.32100
H  24.37600 -4.18500 41.63300
H  25.80100 -3.99800 42.55200
H  26.22400 -2.27500 41.36400
H  24.99100 -1.29500 42.06100
H  18.83700 -8.78700 43.52900
H  19.02400 -7.11600 43.45100
H  17.98800 -7.82100 44.71300
H  20.40600 -12.07000 46.93200
H  18.94200 -11.79100 47.90600
H  20.40900 -10.78700 48.25300
H  24.55000 -11.59100 48.27600
H  25.75500 -9.81700 50.18900
H  22.73900 -10.28000 50.03200
H  23.99200 -11.05200 50.95200
H  23.13100 -12.00600 49.74900
H  27.82300 -10.52400 48.11300
H  26.70300 -11.86400 48.50500
H  28.00400 -12.23700 50.35300
H  27.66300 -10.66200 51.03800
H  29.05500 -10.82500 50.00100
H  29.35200 -4.83400 49.05500
H  30.21000 -5.87400 47.88100
H  29.12200 -6.56000 49.21400
H  27.18100 -3.02500 44.19600
H  24.07500 -0.07600 46.49400
H  25.59700 -0.06600 47.36000
H  24.28800 -1.00400 48.05500
Mg 46.39300 24.62200 28.53200
C  46.90800 26.60900 31.11400
C  45.70100 21.93200 30.70400
C  46.29200 22.51200 25.77100
C  47.74100 27.07400 26.44900
N  46.25500 24.28100 30.63200
C  46.51500 25.29300 31.53500
C  46.16800 24.81200 33.00600
C  45.90500 23.31000 32.85700
C  45.98000 23.14900 31.33100
C  46.87700 22.34700 33.58900
C  45.00900 25.59200 33.67600
C  44.62300 25.09800 35.11400
H  44.72800 26.24000 36.15000
N  46.04300 22.56800 28.29400
C  45.76100 21.66000 29.32100
C  45.52900 20.42200 28.73500
C  45.80900 20.51700 27.35800
C  46.02800 21.91600 27.04500
C  45.02800 19.16900 29.47300
C  45.92100 19.45700 26.28900
O  46.16300 19.69800 25.09100
C  45.72100 17.96600 26.64800
N  47.05500 24.70900 26.37100
C  46.78800 23.76900 25.48900
C  46.88700 24.29400 23.98400
C  47.19800 25.80000 24.25400
C  47.42400 25.85200 25.74000
C  47.82500 23.53600 23.03300
C  45.88800 26.74200 23.89100
C  44.47800 26.37700 24.38600
N  47.17200 26.48000 28.65600
C  47.75300 27.38700 27.81200
C  48.04100 28.61800 28.44900
C  47.74600 28.41900 29.77000
C  47.21800 27.09400 29.82000
C  48.76300 29.78200 27.85600
C  47.74400 28.96000 31.07300
O  48.12100 30.03800 31.47400
C  47.16700 27.85000 32.04900
C  48.13700 27.69100 33.13900
O  49.26800 27.19700 33.03600
O  47.73800 28.40200 34.23400
C  48.72200 28.51200 35.32500
H  45.57900 21.14900 31.45700
H  46.17900 21.95300 24.83900
H  47.99000 27.83500 25.70700
H  47.08500 24.98900 33.56800
H  44.92000 23.03800 33.23900
H  46.79800 21.44600 32.98100
H  46.60900 22.07300 34.61000
H  47.87900 22.76800 33.50300
H  44.21900 25.34300 32.96700
H  45.13500 26.67000 33.57300
H  45.34700 24.34600 35.42800
H  43.58200 24.78000 35.16600
H  44.82400 19.41900 30.51400
H  45.74300 18.34700 29.48600
H  44.11300 18.81800 28.99600
H  46.05000 17.24600 25.89900
H  44.69400 17.74700 26.93800
H  46.34800 17.73700 27.50900
H  45.88200 24.28900 23.56000
H  48.12600 26.13100 23.78900
H  47.18500 23.44500 22.15600
H  47.97900 22.56800 23.50800
H  48.71700 24.09300 22.74400
H  45.79300 26.75600 22.80600
H  46.06900 27.78600 24.14800
H  44.56200 25.62700 25.17300
H  43.92100 25.93400 23.56000
H  44.01900 27.25600 24.83700
H  49.15400 30.36000 28.69400
H  48.10100 30.43600 27.28900
H  49.48600 29.45200 27.11100
H  46.31800 28.41200 32.43700
H  49.63900 27.98600 35.06200
H  48.36300 27.96500 36.19700
H  48.94000 29.55500 35.55400

