158

Mg 0.83900 8.25700 26.86000
C  1.54200 10.44500 29.53400
C  0.81800 5.65400 28.94500
C  0.40900 6.19500 24.28900
C  1.13500 11.08200 24.67400
N  1.36400 8.08500 28.94200
C  1.53900 9.08100 29.84500
C  1.42000 8.49900 31.28400
C  1.45200 6.97900 31.08800
C  1.18500 6.87300 29.56300
C  2.85800 6.24800 31.38100
C  0.16700 9.02000 32.13900
C  0.36700 9.28200 33.69600
H  1.58700 8.56400 34.28200
N  0.44800 6.24900 26.69000
C  0.47000 5.33900 27.61700
C  0.27300 4.00900 27.12300
C  0.05700 4.11200 25.73300
C  0.30300 5.57700 25.51800
C  0.21600 2.75200 27.98600
C  -0.31000 3.04600 24.68200
O  -0.28000 3.20600 23.48200
C  -0.76400 1.64800 25.10800
N  1.05300 8.61900 24.78500
C  0.76600 7.58000 23.92600
C  0.72100 8.04500 22.45800
C  0.51200 9.61400 22.62800
C  0.98900 9.81200 24.11900
C  1.98400 7.55600 21.73600
C  -1.01200 9.99200 22.56500
C  -1.40600 10.68200 21.23000
N  1.32100 10.49600 26.99600
C  1.45500 11.45800 26.03300
C  1.56400 12.73300 26.75700
C  1.73400 12.47000 28.13600
C  1.52100 11.03200 28.24800
C  1.59800 14.00700 26.03400
C  1.88900 12.97500 29.44400
O  2.03500 14.09600 29.89600
C  1.76800 11.72200 30.34500
C  2.84100 11.63100 31.34000
O  3.90300 11.08300 31.11900
O  2.51100 12.24900 32.53700
C  3.48400 12.12400 33.61000
H  0.88400 4.88400 29.71700
H  0.21100 5.59600 23.39800
H  0.91000 11.84300 23.92400
H  2.28600 8.90900 31.80500
H  0.70500 6.42500 31.65700
H  3.36600 6.09800 30.42800
H  2.77700 5.37200 32.02400
H  3.46000 6.97500 31.92700
H  -0.67000 8.33300 32.01600
H  0.03700 9.99700 31.67300
H  -0.53700 9.04300 34.25700
H  0.51100 10.35800 33.78700
H  0.61300 1.97900 27.32900
H  -0.81500 2.52100 28.25200
H  0.83700 2.83700 28.87800
H  0.06800 0.99300 25.36800
H  -1.39300 1.28300 24.29600
H  -1.39500 1.63700 25.99700
H  -0.12300 7.50000 22.03600
H  1.07000 10.23100 21.92400
H  2.62400 7.03500 22.44800
H  2.62200 8.37100 21.39400
H  1.79000 6.84100 20.93700
H  -1.38100 10.59300 23.39600
H  -1.62500 9.10400 22.71700
H  -2.07400 10.03800 20.65900
H  -0.53700 10.93800 20.62500
H  -2.04000 11.55600 21.37600
H  0.56300 14.25900 25.80300
H  2.10600 13.82900 25.08700
H  2.18900 14.84500 26.40600
H  0.81200 11.79900 30.86400
H  4.41000 11.59800 33.38000
H  3.10000 11.62200 34.49800
H  3.63600 13.13100 34.00000
Mg 16.96100 51.78300 26.32300
C  18.73200 50.49000 29.03300
C  14.49700 52.77500 28.53000
C  14.91100 52.48700 23.69400
C  19.16700 50.18900 24.17900
N  16.73200 51.54000 28.53400
C  17.60100 51.10400 29.51400
C  17.11200 51.56200 30.95700
C  15.62500 51.87300 30.64900
C  15.65300 52.19000 29.13600
C  14.64100 50.69700 31.02700
C  17.87400 52.78000 31.50000
C  18.21800 52.61400 33.00900
H  17.19500 51.80900 33.86200
N  15.08100 52.62300 26.16700
C  14.24200 52.99100 27.17600
C  12.97600 53.63400 26.62700
C  13.14900 53.58100 25.21500
C  14.35300 52.82500 24.95100
C  11.93400 54.28900 27.44300
C  12.24500 54.16200 24.06700
O  12.47500 54.12400 22.91900
C  10.88900 54.80400 24.47800
N  17.03200 51.52700 24.24400
C  16.14500 51.94800 23.33200
C  16.59100 51.78400 21.94300
C  17.96400 51.05500 22.07700
C  18.06300 50.83800 23.59400
C  15.62800 50.88700 21.12800
C  19.16800 51.81300 21.43400
C  20.37500 50.85100 20.91900
N  18.72200 50.71300 26.48300
C  19.55300 50.06700 25.56300
C  20.66300 49.41200 26.21800
C  20.41800 49.62600 27.55000
C  19.15900 50.31800 27.69600
C  21.79400 48.59300 25.69000
C  20.88200 49.29200 28.85000
O  21.87400 48.64500 29.16500
C  19.88300 49.86900 29.82900
C  19.47100 48.80000 30.85600
O  18.96600 47.69400 30.60900
O  19.82400 49.26600 32.13500
C  19.57400 48.48100 33.40500
H  13.76600 53.10600 29.27100
H  14.17300 52.47600 22.88900
H  19.86800 49.58800 23.59600
H  17.28500 50.67000 31.55900
H  15.26200 52.72400 31.22500
H  15.06100 50.11900 31.84900
H  14.55100 50.13300 30.09800
H  13.67600 51.03900 31.40200
H  17.37500 53.72700 31.29500
H  18.86700 52.77500 31.05100
H  18.25900 53.61200 33.44700
H  19.22700 52.22300 33.14100
H  12.14600 54.31900 28.51200
H  11.10900 53.57700 27.46400
H  11.69600 55.27200 27.03500
H  10.95500 55.78600 24.94800
H  10.39000 54.02200 25.05000
H  10.42200 54.80100 23.49300
H  16.72400 52.72900 21.41700
H  17.97800 50.07100 21.61000
H  14.86300 50.40300 21.73500
H  16.20300 50.24900 20.45700
H  15.08700 51.47600 20.38700
H  19.68900 52.44400 22.15400
H  18.91100 52.31300 20.50000
H  20.28900 49.86900 21.38400
H  21.32400 51.33200 21.15700
H  20.30900 50.80300 19.83200
H  22.43500 49.39200 25.31600
H  21.47600 47.95000 24.86900
H  22.14400 47.95300 26.49900
H  20.42200 50.62800 30.39700
H  18.55100 48.14500 33.23400
H  19.57000 49.12800 34.28200
H  20.31400 47.68100 33.43300

