158

Mg 24.31400 -5.54800 46.54300
C  26.37500 -3.08600 45.17200
C  21.60100 -4.09000 44.89900
C  22.47700 -8.43000 47.20900
C  26.85800 -6.80700 48.36500
N  24.03000 -3.72100 45.24500
C  25.06700 -2.93200 44.74800
C  24.52600 -1.99800 43.67300
C  22.95100 -1.94100 44.02900
C  22.80700 -3.33500 44.81100
C  22.57300 -0.61700 44.82200
C  24.98700 -2.38100 42.17800
C  25.71500 -1.36400 41.27800
H  25.26300 -1.41000 39.80600
N  22.38300 -6.24400 46.01400
C  21.42100 -5.41000 45.44200
C  20.16300 -6.17700 45.47500
C  20.36900 -7.41800 46.10000
C  21.80900 -7.41400 46.50500
C  18.86700 -5.57000 44.91600
C  19.40000 -8.47700 46.29700
O  18.22400 -8.26700 45.90900
C  19.65400 -9.79600 46.90500
N  24.57800 -7.36800 47.62100
C  23.74700 -8.44100 47.67800
C  24.34200 -9.61800 48.59000
C  25.69600 -8.92500 49.05800
C  25.71000 -7.61600 48.33600
C  23.58100 -10.24600 49.76800
C  27.03100 -9.77000 48.89400
C  27.95500 -9.87800 50.12100
N  26.20200 -5.15500 46.70900
C  27.09800 -5.65400 47.61800
C  28.35100 -4.84600 47.58000
C  28.10400 -3.93700 46.47700
C  26.80500 -4.10000 46.10100
C  29.54000 -4.94800 48.39600
C  28.72900 -2.86000 45.71400
O  29.84900 -2.43100 45.87100
C  27.60400 -2.34600 44.71500
C  27.59800 -0.85600 44.91400
O  27.58500 -0.36100 45.97900
O  27.52200 -0.14800 43.75700
C  27.68100 1.26700 43.98400
H  20.80800 -3.46600 44.48200
H  21.98100 -9.33500 47.56400
H  27.64200 -7.16800 49.03300
H  24.96600 -1.00700 43.78700
H  22.39700 -1.89000 43.09200
H  22.09600 0.06200 44.11500
H  23.42000 -0.20800 45.37300
H  21.92900 -1.00500 45.61100
H  24.06600 -2.64400 41.65800
H  25.50500 -3.34000 42.15700
H  26.75600 -1.68400 41.23400
H  25.73400 -0.40200 41.79100
H  18.37400 -4.97400 45.68400
H  18.11400 -6.30600 44.63400
H  19.05800 -4.98700 44.01600
H  18.75300 -10.40400 46.82600
H  19.95800 -9.69700 47.94700
H  20.33100 -10.42300 46.32600
H  24.64500 -10.46000 47.96700
H  25.70500 -8.70100 50.12500
H  22.66300 -9.75200 50.08600
H  24.22700 -10.35400 50.63900
H  23.24200 -11.25300 49.52400
H  27.62200 -9.30800 48.10300
H  26.67600 -10.75500 48.59300
H  28.91700 -9.44600 49.84700
H  27.98200 -10.91500 50.45700
H  27.69600 -9.22800 50.95700
H  29.73300 -3.95500 48.80000
H  30.33800 -5.26200 47.72300
H  29.38900 -5.71700 49.15400
H  27.82500 -2.52300 43.66200
H  27.63800 1.67300 42.97300
H  28.65000 1.53500 44.40400
H  26.92500 1.77200 44.58600
Mg 36.50100 49.77900 25.69400
C  36.84300 47.66700 28.33800
C  35.48400 52.36100 27.60200
C  36.11700 51.70200 22.79300
C  37.39500 47.07600 23.51500
N  36.10000 49.96400 27.76200
C  36.52000 49.05200 28.67400
C  36.37700 49.67800 30.07800
C  35.71200 51.08900 29.80000
C  35.76000 51.15600 28.27900
C  34.42000 51.28000 30.60800
C  37.74700 49.67700 30.83000
C  37.76700 49.71900 32.32600
H  36.53100 49.85900 33.27200
N  35.91200 51.76400 25.28700
C  35.60800 52.70200 26.24100
C  35.53000 53.95600 25.63800
C  35.74800 53.80200 24.25800
C  35.96300 52.33400 24.03600
C  35.30900 55.17900 26.51300
C  35.78900 54.92200 23.16000
O  36.06100 54.73800 21.96100
C  35.38700 56.22900 23.47400
N  36.70800 49.43300 23.48300
C  36.47600 50.36000 22.48400
C  36.58700 49.76800 21.07100
C  37.08900 48.27300 21.30700
C  37.00500 48.23800 22.81600
C  35.31300 49.81000 20.21900
C  38.54100 47.98400 20.78600
C  38.81700 46.60100 20.27900
N  37.08300 47.76800 25.84700
C  37.44700 46.76900 24.93800
C  37.66800 45.55400 25.55700
C  37.45300 45.79900 26.95700
C  37.08800 47.17400 27.04300
C  37.86300 44.26300 24.81400
C  37.33400 45.24500 28.29300
O  37.45600 44.08000 28.69300
C  37.09000 46.48400 29.30300
C  35.83500 46.09200 29.98400
O  34.70000 46.10100 29.51200
O  36.07500 45.94900 31.31500
C  34.91500 45.80100 32.22100
H  35.14700 53.17600 28.24700
H  36.09600 52.29200 21.87500
H  37.76100 46.29300 22.84800
H  35.77400 48.96600 30.64100
H  36.36100 51.88600 30.16300
H  34.39000 50.69800 31.52900
H  33.57100 51.29100 29.92500
H  34.46600 52.30300 30.98300
H  38.35200 50.49300 30.43500
H  38.36300 48.81800 30.56400
H  38.53900 50.44600 32.57900
H  38.25100 48.78300 32.60600
H  36.02900 55.96700 26.29400
H  35.55000 55.06300 27.57000
H  34.32300 55.59100 26.29600
H  35.95700 56.50900 24.36000
H  34.32500 56.12900 23.69600
H  35.56800 56.90500 22.63800
H  37.39400 50.24000 20.51100
H  36.43200 47.52000 20.87000
H  34.98800 48.93200 19.66200
H  35.31100 50.73100 19.63600
H  34.46200 50.01800 20.86700
H  39.13000 47.97600 21.70300
H  38.90400 48.68300 20.03300
H  38.96000 46.66500 19.20000
H  38.03900 45.86800 20.49300
H  39.71300 46.33200 20.83900
H  38.17300 44.35100 23.77300
H  36.96400 43.65200 24.73100
H  38.50700 43.66000 25.45400
H  37.91000 46.69000 29.99100
H  35.21900 45.56600 33.24100
H  34.29200 44.97800 31.87100
H  34.43200 46.77800 32.23400

