158

Mg 8.14500 3.46300 28.76800
C  9.74000 2.12600 31.60800
C  6.35300 5.57700 30.97200
C  6.40600 4.46600 26.19400
C  9.72900 0.88100 26.96700
N  7.99000 3.66300 31.05600
C  8.80900 3.14100 31.99200
C  8.81200 3.84200 33.37400
C  7.55300 4.75800 33.12700
C  7.31700 4.75000 31.59900
C  6.24900 4.46100 34.00900
C  10.08400 4.74700 33.55800
C  10.89200 4.40800 34.83500
H  10.26900 5.07100 36.04800
N  6.58100 4.85000 28.57100
C  6.07200 5.67200 29.54200
C  5.05400 6.60700 28.93100
C  5.24000 6.43000 27.52700
C  6.11200 5.23400 27.38100
C  4.28700 7.69200 29.62100
C  4.67100 7.20000 26.37600
O  4.91900 6.87600 25.23200
C  3.71800 8.30300 26.52000
N  8.13100 2.74900 26.93200
C  7.28400 3.37400 26.02400
C  7.58800 2.77300 24.61100
C  8.57300 1.57400 24.83700
C  8.83700 1.68700 26.35800
C  6.29100 2.52000 23.90400
C  9.80200 1.45700 23.83200
C  10.00600 0.06600 23.19900
N  9.44500 1.90900 29.17200
C  9.93600 0.90800 28.32100
C  10.83200 -0.01500 29.01700
C  10.83800 0.55400 30.26900
C  9.93600 1.62600 30.36100
C  11.61100 -1.19300 28.43800
C  11.34200 0.35600 31.66000
O  12.26700 -0.32200 32.00000
C  10.68000 1.39200 32.60700
C  9.82200 0.57300 33.56800
O  8.85700 -0.04300 33.19400
O  10.16700 0.76200 34.91100
C  9.20000 0.28300 35.89900
H  5.93600 6.33700 31.63600
H  5.99000 4.88700 25.27600
H  10.23700 0.19900 26.28200
H  8.57000 3.10300 34.13800
H  7.65300 5.82500 33.32300
H  5.81000 5.34500 34.47200
H  6.50800 3.62100 34.65300
H  5.60700 4.13700 33.19000
H  9.87400 5.80600 33.70700
H  10.81900 4.72100 32.75300
H  11.90900 4.79900 34.86500
H  10.86800 3.33600 35.03300
H  4.43600 7.78200 30.69700
H  3.23100 7.46300 29.47800
H  4.60000 8.60800 29.11900
H  4.29100 9.19100 26.78400
H  3.10400 8.15500 27.40800
H  3.06300 8.49200 25.66900
H  8.10800 3.58300 24.09900
H  8.02700 0.63000 24.83900
H  5.51000 2.41300 24.65800
H  6.30800 1.62000 23.29000
H  6.07900 3.22000 23.09700
H  10.66400 1.82100 24.39100
H  9.62600 2.18000 23.03500
H  10.13800 0.11400 22.11800
H  9.40500 -0.80000 23.47800
H  10.95500 -0.43100 23.40000
H  11.67000 -1.03900 27.36000
H  11.06700 -2.10400 28.68800
H  12.59500 -1.21700 28.90700
H  11.49400 1.96400 33.05300
H  9.58400 -0.62600 36.36300
H  8.26700 0.03100 35.39500
H  9.01400 1.09100 36.60500
Mg 34.76000 2.71000 30.19000
C  32.79300 3.54400 32.94600
C  37.44800 2.52200 32.33000
C  36.67300 2.20300 27.49400
C  31.94800 2.81800 28.17000
N  35.10100 3.20300 32.33800
C  34.11900 3.38700 33.33300
C  34.65100 3.34100 34.73900
C  36.16400 2.97400 34.52100
C  36.26000 2.84100 32.97000
C  37.19900 4.01800 35.00300
C  33.88500 2.20000 35.53900
C  33.59200 2.44200 37.00200
H  34.48200 3.48000 37.75100
N  36.79600 2.41600 29.94800
C  37.74500 2.31500 30.91200
C  39.10300 2.05500 30.30900
C  38.86000 2.03000 28.89100
C  37.40700 2.18200 28.70700
C  40.26100 1.97200 31.20600
C  39.84800 1.88800 27.74300
O  39.51000 1.78700 26.58300
C  41.33400 1.85100 28.01700
N  34.41600 2.58900 28.10900
C  35.36000 2.34300 27.19000
C  34.83800 2.34900 25.73000
C  33.33400 2.13100 26.08400
C  33.21400 2.55900 27.53900
C  35.22000 3.66900 24.99300
C  32.91500 0.67900 25.88800
C  32.12800 0.23200 24.62700
N  32.68300 3.04800 30.43300
C  31.67700 3.05500 29.54100
C  30.46200 3.51800 30.20400
C  30.86800 3.70600 31.52900
C  32.23500 3.40800 31.62200
C  29.13900 3.71400 29.60400
C  30.34300 4.16400 32.77400
O  29.20000 4.47800 33.09900
C  31.62800 4.11600 33.78600
C  31.90800 5.39100 34.43600
O  32.78300 6.22700 34.17400
O  31.02500 5.46600 35.50000
C  31.39000 6.53600 36.46700
H  38.22700 2.33800 33.07200
H  37.14300 2.27200 26.51100
H  31.08400 2.93600 27.51200
H  34.55600 4.29200 35.26200
H  36.51600 1.99900 34.85800
H  36.82800 4.90500 35.51600
H  37.82800 4.52000 34.26800
H  37.86900 3.58700 35.74600
H  34.48900 1.29300 35.56800
H  32.88900 2.00000 35.14500
H  33.76400 1.51700 37.55300
H  32.54000 2.70300 37.11500
H  41.01900 1.40900 30.66000
H  39.97500 1.54400 32.16700
H  40.88200 2.82500 31.47900
H  41.66900 0.94400 28.52000
H  41.66200 2.73000 28.57200
H  41.97600 1.97000 27.14400
H  35.22900 1.50600 25.16100
H  32.87400 2.80200 25.35900
H  36.26900 3.91100 25.16400
H  34.54300 4.45700 25.32300
H  35.10500 3.64600 23.90900
H  32.36600 0.23900 26.72000
H  33.80500 0.05900 25.77800
H  31.23700 -0.32000 24.92700
H  32.67300 -0.38700 23.91500
H  31.84200 1.12500 24.07200
H  28.83200 4.75900 29.64400
H  28.38700 3.15500 30.16100
H  29.09300 3.45600 28.54600
H  31.21900 3.37300 34.47100
H  30.92900 6.33000 37.43300
H  31.00500 7.47800 36.07800
H  32.47200 6.57400 36.59700

