158

Mg 29.65500 58.02700 40.63300
C  26.91200 56.34500 39.26300
C  31.71600 55.59200 39.21900
C  32.32600 60.16600 40.71800
C  27.51400 60.85200 41.54900
N  29.31200 56.22600 39.27700
C  28.13800 55.70400 38.82300
C  28.32300 54.34600 38.13300
C  29.83600 54.15700 38.25000
C  30.36200 55.37300 38.99900
C  30.38800 52.84900 38.87500
C  27.67700 54.01900 36.68400
C  27.50400 55.23000 35.65700
H  28.02300 55.15700 34.20400
N  31.74400 57.80000 40.32700
C  32.41600 56.68800 39.79000
C  33.77400 56.90100 39.87200
C  34.00500 58.28500 40.17100
C  32.64100 58.84400 40.38600
C  34.90500 55.91200 39.53700
C  35.39700 59.05000 40.09600
O  36.43700 58.44000 39.76200
C  35.52100 60.49300 40.23300
N  29.93000 60.17900 41.27500
C  31.14500 60.77800 41.14600
C  31.06600 62.29400 41.54400
C  29.52000 62.49400 41.77500
C  28.90100 61.05100 41.60400
C  32.05600 62.82600 42.67700
C  28.79600 63.63600 40.98300
C  28.18200 64.80600 41.72200
N  27.64300 58.47300 40.59500
C  26.93800 59.58000 41.10400
C  25.51300 59.32200 40.87900
C  25.46200 58.09000 40.21100
C  26.79100 57.63400 40.01200
C  24.35500 60.20400 41.22800
C  24.63300 57.07200 39.54400
O  23.41900 57.14200 39.36500
C  25.46300 55.94200 38.88100
C  25.10900 54.63400 39.46800
O  25.53500 54.20400 40.53700
O  24.15600 53.96100 38.73900
C  23.35500 52.82900 39.34100
H  32.29400 54.69600 38.98300
H  33.13900 60.87900 40.56400
H  26.86500 61.67300 41.86200
H  27.85400 53.56100 38.72600
H  30.16100 54.26300 37.21500
H  29.52100 52.21300 39.05500
H  30.94000 52.96900 39.80800
H  31.04300 52.44900 38.10200
H  26.67800 53.59500 36.78200
H  28.32400 53.24800 36.26600
H  27.91000 56.10200 36.16900
H  26.43100 55.42300 35.66400
H  35.49600 56.36500 38.74100
H  34.49400 55.01700 39.06900
H  35.45000 55.53100 40.40000
H  36.56700 60.76400 40.37100
H  34.95200 60.77600 41.11900
H  35.08400 61.00800 39.37700
H  31.34700 62.85300 40.65100
H  29.30300 62.75100 42.81200
H  32.53500 61.88800 42.95800
H  31.60200 63.11000 43.62700
H  32.82700 63.53600 42.37800
H  28.10200 63.20700 40.26000
H  29.56900 64.14200 40.40600
H  28.48200 65.83100 41.50400
H  28.45700 64.76100 42.77600
H  27.10300 64.86100 41.57400
H  24.26000 60.59100 42.24300
H  23.40300 59.68200 41.13200
H  24.38600 61.11900 40.63700
H  25.40600 56.02600 37.79500
H  23.73700 52.56600 40.32700
H  23.50900 51.93900 38.73000
H  22.30400 53.09100 39.46400
Mg 36.46200 48.73100 24.90000
C  36.19300 46.84000 27.72200
C  34.81200 51.43100 26.65000
C  35.83900 50.24200 21.92000
C  37.53900 45.89900 23.16400
N  35.61400 49.10700 26.96700
C  35.73100 48.19000 27.98500
C  35.39400 48.82200 29.38100
C  34.80700 50.17800 28.95800
C  35.06800 50.26900 27.41900
C  33.37500 50.46300 29.44200
C  36.47600 48.96800 30.47100
C  36.22600 48.99600 31.95400
H  34.80400 48.93700 32.46200
N  35.60900 50.62300 24.35900
C  35.07600 51.57700 25.24900
C  34.71400 52.79000 24.47300
C  34.95100 52.51500 23.09600
C  35.41700 51.04400 23.02500
C  34.11900 54.05500 25.03900
C  34.76300 53.40700 21.83800
O  35.13700 53.06400 20.69700
C  34.10600 54.75300 21.96700
N  36.60700 48.13300 22.83200
C  36.42800 48.98500 21.79000
C  36.75600 48.31300 20.44400
C  37.65400 47.15600 20.98700
C  37.17700 47.04200 22.39400
C  35.51800 47.88900 19.69700
C  39.21400 47.32900 20.73900
C  39.88200 48.72200 20.64100
N  36.74900 46.75100 25.26100
C  37.24600 45.68600 24.49400
C  37.36700 44.44300 25.25200
C  36.91400 44.86700 26.53300
C  36.57800 46.25800 26.46300
C  37.87600 43.02800 24.85500
C  36.64400 44.44500 27.87700
O  36.80200 43.29600 28.39200
C  36.20400 45.74000 28.69300
C  34.96300 45.45500 29.42600
O  33.80600 45.59200 29.02300
O  35.30800 44.99600 30.67500
C  34.29800 44.76300 31.69500
H  34.47500 52.29100 27.23200
H  35.62400 50.81600 21.01600
H  37.95500 45.05000 22.61800
H  34.57500 48.20000 29.74100
H  35.39400 51.00300 29.36100
H  32.65800 50.65700 28.64400
H  33.48900 51.27900 30.15500
H  32.89200 49.66500 30.00700
H  37.07200 49.86100 30.28400
H  37.33400 48.31300 30.31900
H  36.57900 49.96100 32.31800
H  36.87600 48.32600 32.51800
H  34.61900 54.91500 24.59200
H  34.44400 54.17900 26.07200
H  33.04800 54.02100 24.83800
H  33.16400 54.68700 22.51000
H  33.63500 55.05800 21.03300
H  34.83800 55.42600 22.41500
H  37.28700 48.98200 19.76700
H  37.33600 46.20000 20.57100
H  35.80800 47.05100 19.06300
H  35.09100 48.73300 19.15500
H  34.90400 47.50800 20.51300
H  39.44100 46.94700 19.74400
H  39.75000 46.65800 21.41000
H  40.52300 48.79800 19.76200
H  40.50400 48.83000 21.52900
H  39.17700 49.54300 20.77100
H  38.79500 42.67800 25.32500
H  37.96700 43.00300 23.76900
H  37.14700 42.26200 25.11900
H  36.99300 45.87200 29.43300
H  34.21900 43.68800 31.85500
H  33.30400 45.14900 31.46800
H  34.58400 45.09700 32.69200

