158

Mg 40.97200 7.99500 29.35600
C  42.68500 9.41900 32.12700
C  38.51600 6.87200 31.60100
C  39.60500 6.25300 26.83000
C  43.77300 8.72400 27.33600
N  40.63000 8.23300 31.61400
C  41.46800 8.77300 32.49500
C  40.94500 8.70800 33.97000
C  39.71200 7.70100 33.72400
C  39.60900 7.55200 32.25000
C  39.81400 6.35200 34.56600
C  40.60700 10.11300 34.54300
C  39.62100 10.17400 35.72400
H  40.18700 10.91800 36.90000
N  39.28100 6.68600 29.26100
C  38.41200 6.42100 30.27200
C  37.37200 5.64000 29.75500
C  37.63300 5.49100 28.39700
C  38.94500 6.11200 28.08600
C  36.26800 5.24400 30.57700
C  36.84000 4.83700 27.35600
O  37.21800 4.71900 26.19100
C  35.44900 4.30200 27.72800
N  41.67800 7.49800 27.37600
C  40.84900 6.77000 26.52800
C  41.50900 6.58600 25.16400
C  42.81600 7.49000 25.31500
C  42.75800 7.92600 26.77100
C  41.77800 5.08600 24.71300
C  42.80100 8.61600 24.30900
C  42.01000 9.84800 24.83200
N  42.79800 8.87800 29.60600
C  43.82500 9.12100 28.70300
C  44.81600 9.99000 29.33700
C  44.48800 10.04800 30.70500
C  43.20900 9.43800 30.78500
C  46.07200 10.53600 28.76300
C  44.94100 10.51100 32.04600
O  45.89900 11.14200 32.48500
C  43.74100 10.15900 32.98000
C  44.21100 9.29000 34.17500
O  44.72600 8.15900 34.10100
O  44.11100 10.00600 35.32000
C  44.49400 9.22300 36.41500
H  37.68800 6.61800 32.26600
H  39.26600 5.77100 25.91100
H  44.60900 9.00900 26.69500
H  41.70800 8.23400 34.58700
H  38.80300 8.22100 34.02800
H  40.39000 5.60300 34.02100
H  38.76500 6.06200 34.50800
H  40.11000 6.40000 35.61400
H  40.24500 10.60800 33.64300
H  41.51900 10.59000 34.90200
H  39.45400 9.13900 36.02400
H  38.71800 10.70000 35.41500
H  36.37500 4.18800 30.82700
H  35.32400 5.40100 30.05600
H  35.95600 5.86300 31.41900
H  35.47300 3.65700 28.60700
H  35.04000 3.68600 26.92800
H  34.69600 5.08700 27.78700
H  40.71600 6.82500 24.45400
H  43.73800 6.92000 25.20200
H  42.71400 4.70900 25.12500
H  41.89100 5.12100 23.63000
H  40.98600 4.38300 24.97000
H  42.27500 8.29000 23.41200
H  43.86200 8.81200 24.15000
H  41.46500 9.66900 25.75800
H  41.26600 10.18400 24.11100
H  42.73400 10.66300 24.84000
H  46.38000 11.48600 29.20000
H  45.82900 10.64800 27.70600
H  46.88800 9.82400 28.88300
H  43.44700 11.11800 33.40700
H  45.55900 9.00400 36.33500
H  43.75300 8.43000 36.51400
H  44.43900 9.70600 37.39000
Mg 48.40200 14.95800 28.06800
C  46.02300 14.81100 30.75900
C  50.54100 16.74400 30.14200
C  50.39800 15.11900 25.53500
C  45.92400 13.27600 26.13200
N  48.28900 15.72500 30.10000
C  47.26800 15.49400 30.96600
C  47.57900 15.99500 32.36700
C  48.85200 16.83800 32.11500
C  49.29400 16.42900 30.67600
C  48.67100 18.34300 32.34700
C  47.82300 14.71200 33.26600
C  47.26000 14.86600 34.67600
H  47.08900 16.28500 35.30400
N  50.28400 15.82200 27.82000
C  51.03600 16.49800 28.79800
C  52.37600 16.76600 28.22500
C  52.28400 16.46300 26.85200
C  50.98000 15.75000 26.69600
C  53.43600 17.57800 29.00400
C  53.20900 16.67100 25.67100
O  52.98000 16.30900 24.52500
C  54.53200 17.45200 25.88300
N  48.19100 14.25400 26.17300
C  49.14300 14.50000 25.26500
C  48.81400 13.94700 23.79800
C  47.47600 13.08900 24.14200
C  47.18300 13.55000 25.58300
C  48.64400 15.02900 22.72100
C  47.67900 11.56200 24.00200
C  48.13600 10.71600 25.22000
N  46.34800 14.32100 28.27000
C  45.54300 13.61700 27.43300
C  44.27200 13.31600 28.08300
C  44.43500 13.74800 29.42200
C  45.73400 14.27800 29.45900
C  43.09500 12.51800 27.55200
C  43.80100 13.71500 30.68900
O  42.66300 13.34100 31.04500
C  44.80600 14.37700 31.63900
C  44.11400 15.54400 32.26300
O  44.09100 16.67100 31.78200
O  43.57500 15.15800 33.47000
C  42.97500 16.22100 34.18400
H  51.19400 17.13000 30.92700
H  51.01900 15.07700 24.63800
H  45.19200 12.89600 25.41700
H  46.77200 16.65500 32.68600
H  49.68500 16.49600 32.73000
H  47.88500 18.65100 33.03700
H  48.65800 18.86200 31.38900
H  49.56600 18.73100 32.83400
H  48.88500 14.54100 33.44400
H  47.40500 13.79200 32.85800
H  47.84500 14.33400 35.42700
H  46.27200 14.41200 34.74400
H  53.46500 18.56200 28.53600
H  54.40500 17.09600 29.13500
H  53.03900 17.71700 30.01000
H  54.98700 17.18600 26.83700
H  54.27900 18.51000 25.96600
H  55.23600 17.30600 25.06500
H  49.53700 13.21700 23.43500
H  46.63200 13.36100 23.50900
H  49.45100 14.96100 21.99100
H  48.57900 16.03700 23.13000
H  47.69800 14.90000 22.19500
H  48.47200 11.40000 23.27200
H  46.75500 11.12100 23.62700
H  48.79200 9.90200 24.91400
H  47.30700 10.16500 25.66500
H  48.48100 11.44500 25.95400
H  43.35400 11.47300 27.37900
H  42.89500 13.02100 26.60600
H  42.23500 12.62500 28.21300
H  45.14300 13.60700 32.33300
H  43.49900 17.17500 34.11800
H  42.79000 15.99600 35.23400
H  42.00800 16.30700 33.68900

