158

Mg 1.74400 -1.30200 43.61500
C  5.36000 -0.91800 43.69500
C  1.51400 1.86700 42.36200
C  -1.45900 -1.96000 43.09200
C  2.36200 -4.48100 44.83100
N  3.28700 0.21800 42.99500
C  4.68700 0.16300 43.08100
C  5.32500 1.42700 42.40700
C  4.05600 2.35400 42.09500
C  2.83600 1.44400 42.56100
C  4.01500 3.68400 42.77300
C  6.25900 1.13300 41.26600
C  5.99200 -0.14600 40.42600
H  5.23500 0.10400 39.05100
N  0.23500 -0.23900 42.90600
C  0.34100 1.11600 42.56300
C  -0.98700 1.60700 42.29900
C  -1.93500 0.53000 42.40800
C  -1.08700 -0.61200 42.85000
C  -1.30300 3.08900 41.99000
C  -3.43800 0.57500 42.15000
O  -3.86600 1.63900 41.75700
C  -4.42400 -0.53300 42.47400
N  0.70100 -3.07900 43.57600
C  -0.61200 -3.05800 43.44000
C  -1.27300 -4.32600 43.85600
C  -0.13600 -4.92400 44.74000
C  1.10500 -4.16700 44.33700
C  -2.70200 -4.37200 44.37800
C  0.05400 -6.45900 44.55100
C  0.17300 -7.29800 45.80500
N  3.45900 -2.51800 44.19300
C  3.53300 -3.79400 44.69700
C  4.88200 -4.19100 45.01600
C  5.61700 -3.07100 44.62700
C  4.73300 -2.12200 44.13700
C  5.22600 -5.61400 45.50100
C  7.04000 -2.61300 44.47800
O  8.10900 -3.12700 44.80800
C  6.89000 -1.14200 43.87300
C  7.30600 -0.14200 44.92400
O  6.64400 0.14100 45.88000
O  8.49000 0.46400 44.44900
C  8.77600 1.80700 45.00500
H  1.36400 2.89100 42.01300
H  -2.46800 -2.30400 42.85400
H  2.39700 -5.39100 45.43400
H  5.92500 1.93900 43.16000
H  4.02800 2.51500 41.01800
H  3.50400 4.38100 42.10900
H  5.02700 4.00800 43.01200
H  3.45700 3.73900 43.70800
H  7.29200 1.12000 41.61300
H  6.11700 2.01400 40.64000
H  5.52800 -1.02000 40.88500
H  6.99100 -0.53300 40.22200
H  -1.35000 3.20800 40.90700
H  -0.49100 3.62300 42.48400
H  -2.21500 3.33700 42.53400
H  -4.53400 -1.31500 41.72300
H  -5.33500 -0.10100 42.88800
H  -3.92000 -0.96100 43.34100
H  -1.24000 -4.97800 42.98300
H  -0.34600 -4.57200 45.75100
H  -3.22300 -3.42000 44.27000
H  -2.80700 -4.89300 45.32900
H  -3.21300 -5.19100 43.87200
H  0.93000 -6.76300 43.97800
H  -0.78400 -6.92600 44.03500
H  0.29200 -8.36400 45.60900
H  -0.72600 -7.30000 46.42100
H  0.94500 -6.83000 46.41500
H  5.26500 -6.37800 44.72400
H  4.51100 -6.01500 46.21900
H  6.17100 -5.58300 46.04200
H  7.45200 -1.07700 42.94100
H  9.06000 2.46200 44.18200
H  9.70500 1.66700 45.55800
H  8.01300 2.35200 45.56100
Mg 8.13300 1.79900 27.80300
C  9.81700 0.46000 30.61000
C  6.47100 3.94100 29.91500
C  6.17500 2.57500 25.15900
C  9.56600 -0.80800 25.87100
N  8.07600 1.99600 30.03000
C  8.92300 1.44900 30.94700
C  8.60000 1.93100 32.33300
C  7.33100 2.82000 32.08500
C  7.32600 2.99700 30.56300
C  5.98200 2.38800 32.71400
C  9.89200 2.58600 32.96100
C  10.19200 2.42700 34.44200
H  9.07600 2.29900 35.50100
N  6.67500 3.14700 27.52300
C  6.23600 4.02700 28.49100
C  5.36700 5.02600 27.83200
C  5.15700 4.63000 26.53400
C  6.03600 3.46300 26.28900
C  4.72700 6.15300 28.62900
C  4.17900 5.18300 25.51300
O  4.08000 4.86900 24.34000
C  3.32700 6.32200 25.87900
N  7.90500 1.01600 25.80000
C  6.94600 1.46000 24.92400
C  6.85900 0.57300 23.66600
C  8.04700 -0.41400 23.90000
C  8.61200 -0.05900 25.25500
C  5.35000 0.01400 23.43300
C  9.10400 -0.45900 22.71600
C  9.47900 -1.85900 22.27200
N  9.50400 0.29300 28.01900
C  10.00000 -0.67600 27.19700
C  10.86200 -1.55200 27.91200
C  10.83000 -1.10500 29.25400
C  10.01500 0.00300 29.25900
C  11.59100 -2.82900 27.42000
C  11.34300 -1.39900 30.58400
O  12.21500 -2.18000 30.89600
C  10.64000 -0.38700 31.50700
C  9.76800 -1.18700 32.52700
O  8.67000 -1.61700 32.34000
O  10.35200 -1.17400 33.76400
C  9.70500 -1.90000 34.84800
H  5.85800 4.56600 30.56700
H  5.47300 2.77700 24.34700
H  9.96200 -1.64200 25.28700
H  8.51900 1.05500 32.97700
H  7.51600 3.80800 32.50500
H  5.75200 3.08700 33.51900
H  6.11900 1.49400 33.32200
H  5.24300 2.14800 31.94900
H  9.79700 3.64100 32.70300
H  10.77400 2.28800 32.39300
H  10.59000 3.40900 34.69700
H  10.94300 1.68800 34.72200
H  4.71200 7.11000 28.10700
H  5.16700 6.42200 29.58900
H  3.66200 5.93800 28.71400
H  2.88800 5.99600 26.82200
H  2.60300 6.45500 25.07500
H  3.79300 7.29000 26.06900
H  7.17900 1.18700 22.82400
H  7.60500 -1.39300 24.08600
H  4.73600 0.08300 24.33100
H  5.41100 -1.05200 23.21800
H  4.92200 0.59100 22.61300
H  10.00400 0.13300 22.88600
H  8.65800 0.04000 21.85500
H  9.11700 -1.78400 21.24700
H  8.84300 -2.62400 22.71800
H  10.56600 -1.86700 22.34900
H  12.67600 -2.79700 27.52700
H  11.29100 -3.06300 26.39900
H  11.18200 -3.57400 28.10300
H  11.46500 -0.00500 32.10700
H  9.34900 -2.84000 34.42600
H  8.88800 -1.33600 35.29900
H  10.41300 -2.13700 35.64200

