158

Mg 24.82500 -7.86800 47.50500
C  26.95700 -5.23400 46.25900
C  22.46600 -6.94300 45.28000
C  23.24400 -10.70000 48.24400
C  27.75400 -9.06900 49.17900
N  24.84500 -6.36700 45.78000
C  25.71800 -5.31800 45.58800
C  25.16900 -4.25100 44.62200
C  23.66500 -4.75700 44.52200
C  23.64500 -6.09100 45.21500
C  22.74300 -3.68100 45.03500
C  26.02100 -4.17600 43.29600
C  26.58200 -2.76000 42.99000
H  26.28200 -2.26700 41.58700
N  23.05300 -8.67500 46.89900
C  22.17800 -8.09200 46.00200
C  20.98300 -8.83800 45.79000
C  21.15200 -9.93300 46.72600
C  22.48000 -9.81700 47.38200
C  19.86900 -8.47100 44.75700
C  20.05600 -11.04100 47.00900
O  19.03400 -11.02300 46.39600
C  20.42500 -12.04600 48.08400
N  25.46400 -9.66000 48.44100
C  24.53700 -10.61700 48.71300
C  25.15700 -11.67900 49.60400
C  26.52400 -11.09600 50.10300
C  26.61300 -9.87900 49.16400
C  24.27600 -12.28600 50.71000
C  27.79900 -12.04300 50.05100
C  28.76200 -12.16700 51.21000
N  26.88000 -7.25800 47.84000
C  27.93000 -7.82200 48.55000
C  29.05100 -6.96600 48.58800
C  28.72800 -5.90700 47.76100
C  27.41100 -6.20100 47.24500
C  30.29100 -7.28500 49.42700
C  29.12800 -4.62500 47.30100
O  30.16300 -3.95900 47.43800
C  28.03200 -4.21000 46.21300
C  27.56600 -2.81700 46.51600
O  26.58200 -2.45100 47.14500
O  28.37000 -1.89500 45.89400
C  27.90600 -0.53000 45.80700
H  21.74200 -6.54300 44.56700
H  22.78900 -11.64700 48.54100
H  28.41300 -9.46400 49.95400
H  25.15900 -3.27700 45.11100
H  23.31400 -4.90800 43.50100
H  23.28000 -2.79200 45.36600
H  22.12000 -4.04700 45.85100
H  22.07000 -3.45700 44.20700
H  25.47000 -4.49800 42.41300
H  26.90400 -4.81200 43.35700
H  27.65600 -2.93800 43.04100
H  26.34000 -1.91800 43.63800
H  20.15900 -8.66000 43.72400
H  19.51300 -7.44200 44.70900
H  18.93100 -9.00800 44.89600
H  21.19500 -12.69400 47.66700
H  19.57700 -12.70300 48.27900
H  20.71900 -11.47500 48.96500
H  25.43300 -12.53000 48.98100
H  26.52700 -10.74000 51.13300
H  23.31600 -11.80200 50.89100
H  24.85300 -12.18300 51.62900
H  24.10600 -13.34700 50.52600
H  28.44000 -11.74900 49.22000
H  27.31600 -12.99400 49.82600
H  29.75100 -12.20100 50.75400
H  28.53800 -13.05400 51.80300
H  28.73700 -11.21700 51.74400
H  29.98100 -7.52700 50.44400
H  30.89700 -6.37900 49.42200
H  30.75900 -8.20600 49.07700
H  28.46900 -4.14600 45.21700
H  26.83600 -0.59300 45.60700
H  28.45700 -0.07700 44.98300
H  28.03800 0.01000 46.74400
Mg 53.34800 22.79600 43.84900
C  50.48700 24.52300 42.70900
C  51.79700 19.84200 43.42000
C  56.37700 21.32600 43.93100
C  54.85700 25.93300 44.36200
N  51.49400 22.19900 42.67600
C  50.45000 23.11500 42.51700
C  49.19200 22.24800 42.23700
C  49.51000 20.86500 42.84900
C  50.99700 20.90900 42.98800
C  48.67800 20.64000 44.20700
C  48.96900 22.12600 40.70800
C  47.80600 21.22200 40.24000
H  48.01000 20.17300 39.18900
N  53.99200 20.80800 43.67700
C  53.20700 19.75500 43.60400
C  53.99800 18.56200 43.54200
C  55.36200 18.89900 43.70500
C  55.27900 20.39800 43.76800
C  53.46200 17.12800 43.37300
C  56.55600 17.95900 43.62600
O  56.35800 16.73600 43.53700
C  58.00600 18.38700 43.66000
N  55.36000 23.53500 43.88800
C  56.42900 22.70700 44.07800
C  57.71800 23.52300 44.33400
C  57.24000 25.02400 44.46100
C  55.72500 24.84400 44.21000
C  58.68200 23.01200 45.43000
C  57.96400 25.95500 43.36900
C  57.21100 26.43200 42.12400
N  52.80100 24.78400 43.75500
C  53.46700 25.87900 44.05200
C  52.56700 26.98800 44.06500
C  51.41600 26.50300 43.50500
C  51.58400 25.14300 43.27000
C  52.70900 28.41500 44.62300
C  50.08100 26.85700 43.03800
O  49.40500 27.86100 43.16800
C  49.45400 25.52800 42.39700
C  49.40700 25.78800 40.95000
O  50.40200 26.02600 40.20000
O  48.14600 25.53100 40.46900
C  47.95100 25.78800 38.99900
H  51.20300 18.92700 43.39200
H  57.35400 20.85300 44.05100
H  55.28500 26.91100 44.58900
H  48.28600 22.68600 42.65400
H  49.27100 20.07300 42.13900
H  48.06100 19.76200 44.01600
H  48.09800 21.51300 44.50700
H  49.35800 20.37400 45.01600
H  49.87100 21.60700 40.38200
H  48.85200 23.11100 40.25800
H  47.07000 21.91000 39.82400
H  47.43900 20.68000 41.11200
H  53.89600 16.54700 42.56000
H  52.38700 17.25400 43.25000
H  53.63200 16.57300 44.29600
H  58.59500 17.53500 43.32000
H  58.13100 18.59100 44.72300
H  58.27300 19.29700 43.12300
H  58.30200 23.35600 43.42900
H  57.40800 25.39900 45.47100
H  58.12400 22.52900 46.23200
H  59.41000 23.75600 45.75400
H  59.31600 22.28300 44.92500
H  58.89400 25.50300 43.02400
H  58.43300 26.73600 43.96800
H  56.41600 25.74400 41.83500
H  57.89100 26.63200 41.29600
H  56.76700 27.38700 42.40600
H  52.21500 29.20600 44.06000
H  53.78400 28.59600 44.63700
H  52.29600 28.53600 45.62400
H  48.43300 25.35200 42.73500
H  48.54400 26.61500 38.60800
H  46.91200 25.96200 38.71900
H  48.19100 24.85400 38.49200

