158

Mg 7.81300 3.38400 28.12900
C  8.93900 1.67600 31.00500
C  5.66600 5.18500 30.24400
C  6.53500 4.72400 25.30700
C  9.51900 1.00200 26.15700
N  7.21300 3.31800 30.38000
C  8.00500 2.62900 31.31900
C  7.54800 3.08800 32.80800
C  6.33500 4.06300 32.45100
C  6.36300 4.19200 30.95800
C  4.96400 3.76500 32.99400
C  8.71100 3.71900 33.68900
C  8.35800 4.48000 35.04500
H  8.99500 4.14300 36.32200
N  6.36800 4.74500 27.80800
C  5.65900 5.45600 28.82700
C  4.88400 6.47000 28.15600
C  5.07800 6.30900 26.72100
C  6.02200 5.25500 26.54400
C  3.99000 7.50600 28.91700
C  4.34200 7.08400 25.60400
O  4.31600 6.70000 24.43300
C  3.58800 8.27800 25.96000
N  7.98500 2.90900 26.02200
C  7.42800 3.71100 25.06300
C  7.64200 3.07300 23.69300
C  8.93300 2.19700 23.91200
C  8.77500 1.96000 25.44700
C  6.45400 2.20600 23.14200
C  10.18200 2.87500 23.49400
C  10.99400 3.70500 24.49200
N  9.00500 1.76700 28.49600
C  9.63900 0.88000 27.57200
C  10.48100 0.01400 28.30000
C  10.26600 0.29400 29.65000
C  9.31900 1.35600 29.70300
C  11.31800 -1.09500 27.71400
C  10.53600 -0.17300 30.97800
O  11.33400 -1.02000 31.34800
C  9.75400 0.76000 31.94700
C  9.08600 -0.06200 32.98100
O  8.14100 -0.84700 32.79400
O  9.58300 0.23500 34.26200
C  8.78800 -0.27000 35.36500
H  4.96500 5.78400 30.82900
H  6.12300 5.23300 24.43300
H  10.10000 0.25500 25.61300
H  7.16800 2.15400 33.22100
H  6.59500 5.07600 32.75900
H  4.21800 3.71600 32.20100
H  4.65400 4.53700 33.69800
H  5.08400 2.82000 33.52400
H  9.29700 4.40500 33.07700
H  9.34400 2.89400 34.01500
H  7.28800 4.59400 35.21300
H  8.58600 5.53300 34.87800
H  2.92200 7.35200 28.76800
H  4.47100 8.33800 28.40300
H  4.04800 7.52700 30.00600
H  2.71600 8.23700 26.61300
H  3.14900 8.75300 25.08200
H  4.37000 8.90900 26.38000
H  7.71000 3.90400 22.99200
H  8.84600 1.17300 23.55000
H  5.55300 2.31500 23.74600
H  6.76500 1.17300 22.98300
H  6.17900 2.60400 22.16500
H  9.96100 3.66400 22.77600
H  10.81000 2.25800 22.85100
H  12.03400 3.40600 24.36400
H  10.89200 3.49200 25.55600
H  10.82700 4.77400 24.36000
H  10.88300 -1.47300 26.78900
H  11.02500 -1.86200 28.43100
H  12.36500 -0.83200 27.56600
H  10.40900 1.41000 32.52700
H  8.69300 0.62600 35.97700
H  9.34100 -1.04600 35.89500
H  7.77500 -0.59700 35.13100
Mg 54.38000 24.32400 44.14600
C  51.69900 26.53200 43.41700
C  52.52100 21.69700 43.28800
C  57.32200 22.70500 43.80300
C  56.27600 27.31500 44.80200
N  52.34900 24.14100 43.31500
C  51.38000 25.14400 43.16700
C  50.02100 24.45100 42.89900
C  50.29500 22.94600 43.18600
C  51.80300 22.91400 43.22800
C  49.58600 22.48700 44.49800
C  49.51900 24.73600 41.37800
C  47.97700 24.94600 41.20400
H  47.45100 25.06700 39.80300
N  54.81700 22.35600 43.73100
C  53.87500 21.39900 43.42400
C  54.59200 20.14900 43.23500
C  55.96400 20.41800 43.53200
C  56.10500 21.88900 43.77400
C  53.94500 18.81900 42.87900
C  57.10800 19.42000 43.43700
O  56.85300 18.29000 43.03900
C  58.50600 19.69400 43.94700
N  56.56400 24.97300 44.18700
C  57.58200 24.08400 44.02000
C  58.96700 24.69600 44.30500
C  58.58500 26.22000 44.59100
C  57.07500 26.20700 44.54300
C  60.00400 24.05600 45.31900
C  59.20500 27.26800 43.58400
C  59.70800 28.63000 44.09000
N  54.07600 26.46800 44.26300
C  54.88000 27.51200 44.69900
C  54.09000 28.64600 44.92200
C  52.84700 28.39400 44.35700
C  52.89700 27.04600 43.96800
C  54.49700 29.97500 45.59800
C  51.52500 28.85600 44.09400
O  51.03000 29.90100 44.42600
C  50.82100 27.72000 43.29600
C  50.67100 28.17400 41.88400
O  51.57400 28.54200 41.20100
O  49.37700 28.13700 41.54900
C  48.87300 28.71900 40.31300
H  51.87900 20.82600 43.14300
H  58.28800 22.19600 43.78900
H  56.80400 28.19000 45.18700
H  49.19600 24.83700 43.49800
H  50.10500 22.24700 42.37200
H  50.30700 22.30200 45.29400
H  49.05600 21.57500 44.22500
H  48.78100 23.19600 44.69400
H  49.77500 23.84300 40.80700
H  50.03300 25.57700 40.91400
H  47.75600 25.79000 41.85800
H  47.34700 24.14700 41.59300
H  53.06400 19.14500 42.32600
H  53.62500 18.25100 43.75300
H  54.55200 18.16400 42.25400
H  59.10700 20.20500 43.19500
H  58.95900 18.71500 44.10100
H  58.38700 20.21600 44.89700
H  59.45600 24.64100 43.33300
H  58.88400 26.56300 45.58200
H  59.62100 23.10500 45.68800
H  60.05300 24.75400 46.15400
H  61.01300 23.92000 44.92700
H  58.51600 27.28800 42.74000
H  60.10100 26.82800 43.14800
H  60.67300 28.94100 43.69100
H  59.81700 28.64900 45.17400
H  59.01400 29.46300 43.97000
H  53.93500 29.96200 46.53200
H  54.07900 30.79600 45.01500
H  55.57600 30.11100 45.67000
H  49.86000 27.37200 43.67300
H  49.61100 29.18100 39.65800
H  48.15100 29.49300 40.57300
H  48.41000 27.91800 39.73500

