158

Mg 17.30200 -2.02700 28.60400
C  16.40100 0.25100 30.98900
C  19.29900 -3.60700 30.91800
C  18.48500 -4.09200 26.09400
C  15.80900 -0.09700 26.17900
N  17.94600 -1.66600 30.65600
C  17.22700 -0.76100 31.49900
C  17.69100 -0.86700 32.94400
C  18.90200 -1.85400 32.81600
C  18.70500 -2.41400 31.37500
C  20.32700 -1.35500 33.10100
C  16.45600 -1.33900 33.78100
C  16.24100 -0.68200 35.11900
H  17.54300 -0.29700 35.85500
N  18.54300 -3.72500 28.59600
C  19.27800 -4.24600 29.65800
C  20.02100 -5.48000 29.23800
C  19.66600 -5.58200 27.81900
C  18.88600 -4.42600 27.46000
C  20.79400 -6.38800 30.10000
C  20.08000 -6.68100 26.80700
O  19.65800 -6.71300 25.68000
C  20.96000 -7.82900 27.41700
N  16.90500 -2.27800 26.46400
C  17.64800 -3.09200 25.65300
C  17.35500 -2.65600 24.20800
C  16.40100 -1.44900 24.26300
C  16.39900 -1.27300 25.73100
C  18.71600 -2.14800 23.49900
C  14.92400 -1.79400 23.64000
C  13.88500 -2.38900 24.63600
N  16.32200 -0.29100 28.53300
C  15.69500 0.29800 27.48700
C  14.97700 1.51700 27.95100
C  15.23500 1.53600 29.30600
C  16.05000 0.38900 29.61200
C  14.21300 2.42700 27.08900
C  14.99500 2.22300 30.59400
O  14.32600 3.20000 30.85400
C  15.80500 1.45800 31.69500
C  16.54100 2.44000 32.61800
O  17.38500 3.17100 32.19600
O  16.01200 2.46200 33.87700
C  16.59100 3.58200 34.64500
H  19.96300 -4.16500 31.58200
H  18.93700 -4.61600 25.24900
H  15.35100 0.48400 25.37600
H  18.01400 0.11200 33.30000
H  18.76300 -2.63700 33.56100
H  20.60100 -2.01400 33.92500
H  20.22900 -0.33000 33.45700
H  21.00500 -1.38500 32.24800
H  16.69800 -2.38800 33.95100
H  15.49300 -1.32400 33.27100
H  15.81900 -1.47300 35.73900
H  15.49100 0.10800 35.08500
H  21.76200 -6.47200 29.60500
H  20.19400 -7.27800 30.29000
H  21.08900 -6.03200 31.08700
H  21.90800 -7.33900 27.63900
H  21.07900 -8.57700 26.63200
H  20.70900 -8.26900 28.38200
H  17.05600 -3.49300 23.57800
H  16.82100 -0.59300 23.73500
H  19.49000 -1.94200 24.23800
H  18.53800 -1.22100 22.95500
H  19.25600 -2.91300 22.94100
H  14.94700 -2.63500 22.94800
H  14.40000 -0.96200 23.16900
H  13.13200 -1.61000 24.75700
H  14.34500 -2.65200 25.58900
H  13.41000 -3.31500 24.31100
H  13.78900 1.86100 26.26000
H  14.80900 3.18200 26.57600
H  13.49000 2.99900 27.67100
H  15.05400 1.06800 32.38200
H  16.78500 4.47900 34.05600
H  17.48300 3.22800 35.16200
H  15.87200 3.75800 35.44400
Mg 16.31600 51.53700 26.90000
C  18.28800 50.34200 29.52700
C  13.98400 52.48600 29.11900
C  14.43700 52.55700 24.25600
C  18.94500 50.66900 24.70900
N  16.18700 51.47300 29.05300
C  17.12600 50.98400 29.92000
C  16.66900 51.22400 31.39900
C  15.14800 51.57800 31.31300
C  15.09600 51.86100 29.76100
C  14.04900 50.45600 31.68100
C  17.60300 52.38200 32.01500
C  17.93500 52.33300 33.57000
H  17.02500 51.40500 34.46000
N  14.42100 52.40000 26.69100
C  13.65900 52.76300 27.74400
C  12.59100 53.52100 27.21700
C  12.60900 53.48000 25.83500
C  13.82200 52.74300 25.47700
C  11.64700 54.23600 28.08200
C  11.68200 54.12100 24.86700
O  11.81500 53.99900 23.67000
C  10.56900 55.04200 25.35500
N  16.66100 51.59800 24.83000
C  15.67300 52.02200 23.88500
C  16.34900 52.21000 22.53900
C  17.73100 51.60600 22.70700
C  17.81700 51.29400 24.19200
C  15.50800 51.80300 21.28100
C  18.88800 52.44900 22.11100
C  20.03100 51.73400 21.29800
N  18.22100 50.58300 27.00500
C  19.19900 50.32900 26.09400
C  20.38800 49.67100 26.70600
C  20.04900 49.77400 28.06600
C  18.75100 50.27800 28.21200
C  21.72600 49.23700 26.01400
C  20.58000 49.51500 29.32500
O  21.70800 49.10900 29.65000
C  19.46800 49.89400 30.37900
C  19.17500 48.54000 30.95300
O  19.14200 47.42800 30.40200
O  18.92600 48.66300 32.34400
C  18.11900 47.56600 32.86800
H  13.18200 52.82400 29.77900
H  13.81200 53.02600 23.49300
H  19.73000 50.38100 24.00800
H  16.59400 50.35200 32.04800
H  15.01500 52.43200 31.97600
H  13.41800 50.59700 32.55800
H  14.55900 49.49500 31.75900
H  13.40900 50.53400 30.80300
H  17.05500 53.32300 31.96600
H  18.56100 52.36400 31.49500
H  17.96200 53.35700 33.94200
H  18.93800 51.92600 33.69600
H  11.72700 54.11700 29.16200
H  10.70100 53.71800 27.92400
H  11.34100 55.24100 27.78800
H  9.96900 55.43100 24.53200
H  10.77700 55.98100 25.86800
H  9.93800 54.48800 26.05000
H  16.55200 53.28100 22.51200
H  17.80700 50.59300 22.31200
H  15.47500 52.65100 20.59700
H  14.46300 51.54400 21.45100
H  16.03100 51.00100 20.75900
H  19.40600 52.87100 22.97200
H  18.42200 53.24700 21.53300
H  20.43800 52.47000 20.60400
H  19.77700 50.78300 20.83000
H  20.84300 51.54600 22.00100
H  22.47500 48.90500 26.73300
H  22.13900 50.09300 25.47800
H  21.53000 48.39800 25.34600
H  19.86100 50.55700 31.15000
H  17.64200 47.91300 33.78500
H  18.63600 46.62800 33.06900
H  17.21600 47.43800 32.27100

