158

Mg 8.01800 3.44500 28.46500
C  9.75300 2.21900 31.30100
C  6.31800 5.68400 30.64900
C  6.27500 4.70200 25.84900
C  9.38300 0.92300 26.53800
N  7.93600 3.82500 30.60900
C  8.81000 3.27400 31.53600
C  8.53800 3.80200 32.97800
C  7.38100 4.72600 32.75400
C  7.19500 4.78700 31.17600
C  6.15200 4.50100 33.60300
C  9.89700 4.54600 33.40900
C  9.90300 5.54000 34.58600
H  10.52700 5.09300 35.86500
N  6.64200 5.12400 28.24000
C  6.03200 5.82600 29.26000
C  5.08900 6.78100 28.62900
C  5.19200 6.58500 27.20900
C  6.13300 5.43500 27.02800
C  4.27100 7.71100 29.40000
C  4.38100 7.25800 26.15600
O  4.46900 7.02400 24.97000
C  3.43200 8.38800 26.50300
N  7.74000 2.79700 26.53900
C  7.04000 3.57000 25.61800
C  7.17700 3.02500 24.18400
C  8.21700 1.87100 24.44200
C  8.44400 1.79600 25.91900
C  5.82900 2.44500 23.44500
C  9.58900 1.94900 23.66800
C  10.72500 2.80100 24.39600
N  9.37500 1.88400 28.77500
C  9.81100 0.95900 27.91000
C  10.78200 0.08700 28.51300
C  10.79100 0.53700 29.88000
C  9.89400 1.64700 30.00900
C  11.60300 -0.92500 27.75100
C  11.32300 0.32300 31.21100
O  12.09200 -0.56200 31.47200
C  10.69100 1.35400 32.13100
C  9.95600 0.76700 33.31400
O  8.78700 0.35700 33.33600
O  10.88100 0.62200 34.39900
C  10.40500 -0.33200 35.38000
H  5.83300 6.39200 31.32400
H  5.87100 5.12000 24.92400
H  9.86900 0.17300 25.91100
H  8.28600 2.98100 33.64800
H  7.66200 5.77400 32.85800
H  5.39800 4.14300 32.90200
H  5.65600 5.40400 33.96100
H  6.24300 3.70100 34.33800
H  10.42200 4.99000 32.56300
H  10.62800 3.76100 33.59900
H  8.89600 5.82000 34.89300
H  10.41300 6.45300 34.27700
H  4.36700 8.65700 28.86700
H  4.82900 7.83800 30.32800
H  3.23000 7.48900 29.63300
H  2.87400 8.05400 27.37800
H  2.79500 8.59900 25.64400
H  3.89300 9.34500 26.74900
H  7.50300 3.88000 23.59200
H  7.81300 0.95000 24.02100
H  4.91600 2.96900 23.72800
H  5.73300 1.39000 23.70100
H  6.01200 2.42900 22.37100
H  9.41800 2.20800 22.62300
H  9.93600 0.92700 23.51500
H  10.36600 3.45200 25.19200
H  11.30200 3.42600 23.71500
H  11.54000 2.18300 24.77400
H  11.98000 -0.67200 26.76000
H  11.08200 -1.86500 27.56900
H  12.45700 -1.12800 28.39800
H  11.46000 2.03300 32.50100
H  10.47200 0.15900 36.35100
H  11.01500 -1.23500 35.37000
H  9.34400 -0.56700 35.29300
Mg 41.93400 41.45500 26.59300
C  41.02400 43.84300 29.02000
C  43.05600 39.42600 28.98000
C  42.66700 39.18800 24.09500
C  41.10200 43.75200 24.21200
N  42.18300 41.68700 28.77300
C  41.50600 42.60000 29.54300
C  41.55600 42.21700 31.06300
C  42.46900 40.90000 30.92800
C  42.58000 40.60600 29.47700
C  43.90300 41.16300 31.50000
C  40.18000 42.17000 31.67100
C  39.92700 41.10600 32.82500
H  39.25300 41.81800 34.01600
N  42.81200 39.61700 26.51800
C  43.13200 38.91300 27.62300
C  43.77400 37.64700 27.25900
C  43.50400 37.50600 25.81900
C  43.00400 38.82000 25.42300
C  44.30900 36.66100 28.25100
C  43.63100 36.32500 24.92100
O  43.35800 36.35200 23.71400
C  44.07600 34.91100 25.50100
N  42.01600 41.43300 24.50200
C  42.19700 40.36900 23.67300
C  42.06300 40.69400 22.16800
C  41.31900 42.10000 22.31500
C  41.49600 42.49300 23.80600
C  43.35400 40.65200 21.36400
C  39.86100 42.14600 21.79500
C  38.85200 41.18000 22.40100
N  41.16800 43.40100 26.55300
C  41.03400 44.28300 25.48000
C  40.55300 45.50500 26.02600
C  40.54800 45.44100 27.36400
C  40.98800 44.15100 27.65700
C  40.02200 46.72300 25.26400
C  40.20600 46.10500 28.62600
O  39.72900 47.22500 28.80400
C  40.49300 45.02200 29.77700
C  41.41200 45.44000 30.88900
O  42.55900 45.75300 30.77700
O  40.68700 45.52700 32.06600
C  41.50100 45.47100 33.32600
H  43.50800 38.82800 29.77400
H  42.91100 38.47500 23.30500
H  40.62600 44.49300 23.56600
H  41.97300 43.00200 31.69300
H  42.08000 40.05900 31.50200
H  44.20600 40.19600 31.90200
H  43.88000 41.90400 32.29900
H  44.66500 41.45800 30.77900
H  39.57500 41.77700 30.85300
H  39.74900 43.14500 31.89800
H  40.86700 40.64000 33.11900
H  39.28000 40.35900 32.36500
H  45.19700 36.25200 27.77000
H  43.66500 35.80000 28.42900
H  44.66800 37.25100 29.09500
H  45.15400 34.78000 25.41500
H  43.73700 34.06900 24.89700
H  43.68500 34.56800 26.45900
H  41.47000 39.86400 21.78400
H  41.89800 42.83600 21.75600
H  43.53200 41.63300 20.92300
H  43.43600 39.83600 20.64600
H  44.17300 40.53200 22.07400
H  39.86400 41.99700 20.71600
H  39.51300 43.11700 22.14800
H  38.07400 41.69800 22.96300
H  39.32200 40.51600 23.12700
H  38.45000 40.57100 21.59100
H  39.25000 47.17900 25.88300
H  39.61500 46.24400 24.37300
H  40.85100 47.40200 25.06500
H  39.49000 44.81600 30.15200
H  41.48900 44.46300 33.74100
H  41.11100 46.23600 33.99700
H  42.52900 45.67100 33.02300

