158

Mg 48.08200 44.81600 41.66100
C  44.65600 44.13000 41.59600
C  48.63100 41.30500 41.30400
C  51.37900 45.23300 41.32500
C  47.41000 48.11200 41.43500
N  46.80100 42.95400 41.30000
C  45.37400 42.95500 41.40800
C  44.84200 41.54400 41.45600
C  46.10600 40.72800 41.36100
C  47.29400 41.68700 41.39800
C  46.19400 39.65600 42.44600
C  43.80900 41.17800 40.32300
C  43.89200 41.84800 38.95700
H  43.64500 41.15600 37.66100
N  49.78100 43.44400 41.30000
C  49.79100 42.12000 41.19600
C  51.15000 41.64900 41.09900
C  52.00200 42.73700 41.33100
C  51.06900 43.87000 41.34800
C  51.46800 40.15700 41.19300
C  53.44500 42.66500 41.75100
O  54.05700 41.60000 41.66800
C  54.28700 43.90600 42.08400
N  49.24100 46.43600 41.26200
C  50.59200 46.41600 41.31500
C  51.13600 47.87800 41.17500
C  49.89000 48.76300 41.29900
C  48.78100 47.71400 41.30900
C  52.34800 48.32300 42.08500
C  49.77600 49.93800 40.23100
C  49.30700 51.28800 40.85700
N  46.39800 45.97800 41.67500
C  46.28500 47.30300 41.62200
C  44.92300 47.74500 41.79500
C  44.19700 46.50800 41.82500
C  45.14200 45.48700 41.68700
C  44.43800 49.16300 41.87200
C  42.86000 45.87000 41.87500
O  41.74000 46.31000 42.13500
C  43.14000 44.26800 41.77400
C  42.51700 43.48700 42.84900
O  41.39900 42.85500 42.73200
O  43.35300 43.38500 43.92600
C  42.93500 42.38600 44.93100
H  48.88000 40.24900 41.42700
H  52.45700 45.39200 41.24700
H  47.04200 49.13200 41.30800
H  44.43300 41.37900 42.45300
H  46.09500 40.16800 40.42600
H  45.22100 39.31900 42.80300
H  46.77600 39.81300 43.35400
H  46.51400 38.69400 42.04600
H  42.80100 41.25700 40.73000
H  43.91900 40.13300 40.03200
H  44.80500 42.44400 38.93400
H  43.08700 42.58400 38.96000
H  51.72800 39.99000 42.23900
H  52.30800 39.72600 40.64900
H  50.68900 39.54400 40.74000
H  54.28900 44.50700 41.17500
H  55.36000 43.73100 42.16400
H  53.71800 44.40000 42.87100
H  51.60000 47.88300 40.18900
H  50.00600 49.10200 42.32800
H  53.29100 48.49700 41.56700
H  52.54100 47.51700 42.79300
H  52.18500 49.19900 42.71300
H  49.17000 49.69000 39.35900
H  50.80200 50.08200 39.89300
H  48.26600 51.36400 40.54400
H  49.96200 52.10400 40.55200
H  49.21200 51.31400 41.94300
H  43.41700 49.24900 42.24300
H  44.41100 49.48500 40.83100
H  45.02600 49.76300 42.56700
H  42.65600 43.87700 40.88000
H  43.76700 42.17500 45.60400
H  42.70100 41.41800 44.48800
H  42.17400 42.78900 45.59700
Mg -5.54400 25.47000 26.28400
C  -4.00500 26.73200 29.14000
C  -7.44000 23.42900 28.45700
C  -6.66100 23.90000 23.65100
C  -3.55600 27.50400 24.32300
N  -5.62700 25.12200 28.49900
C  -4.97800 25.84500 29.43000
C  -5.61900 25.71400 30.79100
C  -6.45900 24.33900 30.66800
C  -6.58100 24.27200 29.09800
C  -5.77200 23.09400 31.35600
C  -6.45700 27.05900 31.28500
C  -6.15400 27.43700 32.72400
H  -5.88100 26.23600 33.61300
N  -7.06600 23.98100 26.06300
C  -7.64600 23.27700 27.09000
C  -8.52300 22.25500 26.47200
C  -8.24600 22.35600 25.02000
C  -7.24900 23.42500 24.87900
C  -9.41400 21.30400 27.26300
C  -8.70200 21.42600 23.88700
O  -8.32700 21.55200 22.69600
C  -9.69100 20.32200 24.23100
N  -5.35000 25.84300 24.25800
C  -5.86000 24.98800 23.27500
C  -5.55600 25.48500 21.84700
C  -4.48700 26.65500 22.12100
C  -4.46000 26.70500 23.71600
C  -4.99700 24.52200 20.83800
C  -4.92500 28.09200 21.55500
C  -5.68100 28.16500 20.23100
N  -3.90100 26.62700 26.60800
C  -3.30500 27.49000 25.68200
C  -2.36300 28.34300 26.45400
C  -2.60000 28.04700 27.72900
C  -3.51100 26.98300 27.85500
C  -1.52700 29.50600 25.88000
C  -2.30000 28.56600 29.05900
O  -1.52000 29.40500 29.42600
C  -3.15400 27.74300 30.05400
C  -2.24900 26.94100 30.93000
O  -1.81200 25.82100 30.75000
O  -1.96300 27.63700 32.06800
C  -1.42900 26.86300 33.20100
H  -7.96600 22.80500 29.18300
H  -6.99900 23.35800 22.76600
H  -3.08700 28.22900 23.65400
H  -4.79100 25.51600 31.47200
H  -7.47800 24.36200 31.05400
H  -5.14000 23.34600 32.20700
H  -5.24600 22.51300 30.59900
H  -6.55100 22.44200 31.75000
H  -7.53800 26.95300 31.19000
H  -6.24000 27.86800 30.58700
H  -7.02700 27.93700 33.14300
H  -5.35800 28.18200 32.71800
H  -9.36100 21.59700 28.31200
H  -9.04700 20.31500 26.98800
H  -10.43400 21.30700 26.87900
H  -9.80700 19.74000 23.31600
H  -10.59400 20.65600 24.74200
H  -9.12100 19.65500 24.87800
H  -6.49800 25.90200 21.49000
H  -3.42900 26.45800 21.94700
H  -3.97300 24.66100 20.49100
H  -5.76400 24.44700 20.06800
H  -5.06800 23.56100 21.34700
H  -3.91800 28.48800 21.42100
H  -5.44600 28.69600 22.29800
H  -6.41800 28.94000 20.01900
H  -6.05900 27.23100 19.81600
H  -4.83500 28.33200 19.56400
H  -2.04900 29.81800 24.97500
H  -0.54400 29.15800 25.56500
H  -1.51700 30.29200 26.63500
H  -3.78200 28.42100 30.63200
H  -0.35800 27.00900 33.34700
H  -1.50300 25.77600 33.17300
H  -1.99100 27.19500 34.07400

