158

Mg 47.72300 14.61300 27.87800
C  45.73800 14.82100 30.65600
C  50.09400 16.62300 29.54800
C  49.56400 14.56500 25.17500
C  45.37900 12.57100 26.32400
N  47.86300 15.56800 29.91700
C  46.97200 15.40600 30.89800
C  47.44900 16.02200 32.18600
C  48.80700 16.77200 31.79300
C  48.94600 16.34200 30.32300
C  48.84000 18.33300 31.89800
C  47.49300 15.00000 33.33700
C  46.66100 15.15800 34.58500
H  47.46100 15.70600 35.79400
N  49.59100 15.47400 27.39600
C  50.41100 16.23100 28.22200
C  51.67200 16.40900 27.55500
C  51.52700 15.80600 26.27500
C  50.17000 15.28100 26.22500
C  52.78300 17.36100 28.05600
C  52.49100 15.80700 25.06400
O  52.13600 15.37200 23.94200
C  53.89400 16.38900 25.23400
N  47.38300 13.78300 25.92200
C  48.36800 13.89800 24.98900
C  47.91800 13.04400 23.72200
C  46.70500 12.31700 24.15500
C  46.42900 12.94400 25.47400
C  47.71600 13.81500 22.42800
C  46.79700 10.77900 24.03100
C  47.53900 10.09800 25.20900
N  45.98200 13.88100 28.31400
C  45.10900 12.99900 27.58500
C  43.94500 12.76200 28.39400
C  44.10900 13.50900 29.57000
C  45.38100 14.10700 29.47800
C  42.76600 11.90600 27.94000
C  43.50400 13.83400 30.82600
O  42.40800 13.60000 31.38300
C  44.57800 14.65700 31.60900
C  43.94000 15.94400 31.88300
O  43.60400 16.74700 31.04200
O  43.89900 16.16000 33.22000
C  43.37000 17.31400 33.74700
H  50.76800 17.29300 30.08500
H  50.16300 14.30000 24.30200
H  44.58500 11.94200 25.91500
H  46.58500 16.63800 32.43300
H  49.66100 16.42200 32.37300
H  48.87800 18.89900 30.96800
H  49.64000 18.50900 32.61700
H  47.84900 18.58200 32.27800
H  48.48400 14.98800 33.79000
H  47.28900 14.01600 32.91600
H  46.17200 14.20700 34.79400
H  45.83900 15.85900 34.44000
H  52.26500 18.12700 28.63300
H  53.33300 17.94900 27.32100
H  53.49600 16.79700 28.65800
H  54.20700 16.17900 26.25700
H  54.05900 17.41700 24.91100
H  54.65400 15.86200 24.65800
H  48.76100 12.36200 23.61500
H  45.83100 12.67000 23.60800
H  46.73500 14.28700 22.47400
H  47.90300 13.11500 21.61400
H  48.44800 14.62000 22.35900
H  47.37100 10.62200 23.11800
H  45.84600 10.28400 23.83400
H  47.09400 10.53400 26.10300
H  48.60700 10.31100 25.15900
H  47.32900 9.02800 25.21500
H  42.80400 10.89800 28.35400
H  42.76700 11.72500 26.86500
H  41.85500 12.46900 28.14100
H  44.91500 14.09800 32.48100
H  44.07800 18.09900 33.48100
H  43.32400 17.41800 34.83100
H  42.35700 17.42100 33.35900
Mg 41.36800 41.18200 26.65400
C  40.82700 43.71100 28.89300
C  42.11200 39.09000 29.14700
C  42.41300 38.86200 24.26900
C  41.05700 43.45100 24.00800
N  41.46400 41.42500 28.85700
C  41.04700 42.47700 29.57800
C  40.92700 42.12300 31.10600
C  41.61500 40.63900 31.06300
C  41.70100 40.37600 29.58800
C  42.91000 40.48700 31.87700
C  39.45300 42.22300 31.57900
C  39.13000 43.21100 32.73900
H  38.49500 42.58100 33.99900
N  42.01700 39.15600 26.68400
C  42.26000 38.52600 27.84800
C  42.74700 37.20100 27.61400
C  42.82100 37.09300 26.21100
C  42.42500 38.39700 25.60600
C  43.19800 36.24600 28.67300
C  43.24100 35.97400 25.31000
O  43.30500 36.04200 24.10400
C  43.62600 34.66100 25.95500
N  41.77700 41.11500 24.51300
C  42.14400 40.08900 23.75800
C  41.91600 40.35400 22.21100
C  41.24900 41.72800 22.21800
C  41.29300 42.14800 23.69000
C  43.31500 40.37800 21.44300
C  39.86400 41.62200 21.47800
C  38.78700 40.79600 22.16400
N  41.03000 43.21100 26.44200
C  40.93000 44.02300 25.32300
C  40.64500 45.36800 25.61900
C  40.51300 45.35600 27.06900
C  40.84000 43.94700 27.45000
C  40.50800 46.58800 24.70300
C  40.15700 46.05800 28.24600
O  39.83500 47.26800 28.41400
C  40.19300 45.06000 29.47800
C  41.03600 45.72500 30.52700
O  42.25700 45.70000 30.68400
O  40.13500 46.36700 31.34200
C  40.77800 46.98100 32.52400
H  42.39600 38.37600 29.92300
H  42.46000 38.16600 23.42900
H  40.87000 44.03200 23.10200
H  41.53200 42.87100 31.61700
H  40.95100 39.86500 31.45000
H  43.26800 41.39800 32.35700
H  43.63500 40.19100 31.11900
H  42.74600 39.64700 32.55200
H  39.13100 41.18700 31.68700
H  38.90100 42.54200 30.69500
H  38.39900 43.94400 32.39600
H  40.05800 43.67700 33.07200
H  42.53300 35.39300 28.54000
H  43.10800 36.58100 29.70600
H  44.25600 36.05300 28.50000
H  44.56700 34.61900 26.50500
H  43.72400 33.99000 25.10200
H  42.84100 34.19700 26.55200
H  41.16700 39.64800 21.85400
H  41.76400 42.44700 21.58100
H  43.47500 41.27000 20.83700
H  43.22100 39.61200 20.67300
H  44.16400 40.04000 22.03800
H  40.04400 41.34200 20.44000
H  39.44700 42.59900 21.23400
H  38.49600 40.14400 21.34000
H  37.86200 41.31200 22.41800
H  39.09800 40.14800 22.98300
H  39.70300 47.24700 25.02800
H  40.28400 46.41800 23.65000
H  41.40500 47.17800 24.89200
H  39.22500 44.66100 29.78000
H  40.03000 47.52300 33.10100
H  41.56900 47.68800 32.27200
H  41.12700 46.29100 33.29300

