158

Mg 54.15500 24.87500 44.89000
C  51.65400 27.16600 43.97400
C  52.26300 22.41700 43.36100
C  56.80700 23.04300 45.02900
C  56.13600 27.71800 45.94700
N  52.24100 24.84000 43.71200
C  51.37300 25.87200 43.55000
C  50.21700 25.38200 42.76100
C  50.18000 23.85900 43.05700
C  51.64400 23.65700 43.36500
C  49.21100 23.50300 44.21100
C  50.18400 25.68100 41.18600
C  51.60100 25.90000 40.53800
H  52.13100 24.69300 39.77600
N  54.45900 22.93600 44.30300
C  53.58300 22.10900 43.69000
C  54.23400 20.85200 43.50200
C  55.55700 20.92600 44.04700
C  55.65500 22.30600 44.56100
C  53.55100 19.66800 42.72600
C  56.60100 19.85700 43.98800
O  56.45900 18.86000 43.30000
C  58.00200 19.86500 44.70300
N  56.22400 25.27800 45.49600
C  57.16100 24.32500 45.43300
C  58.49900 24.80300 45.94500
C  58.27000 26.34300 45.98900
C  56.79400 26.46700 45.83100
C  58.74200 24.07700 47.25500
C  59.11100 27.21100 45.00600
C  59.81400 28.44000 45.67800
N  53.94700 27.02100 45.06400
C  54.77400 28.03400 45.60500
C  54.01100 29.23200 45.71200
C  52.77000 28.98000 45.05100
C  52.77900 27.63500 44.72700
C  54.47600 30.58800 46.38500
C  51.52400 29.59100 44.55500
O  51.04800 30.69600 44.70100
C  50.80300 28.48000 43.82400
C  50.52600 28.91200 42.44100
O  51.34400 29.16400 41.58600
O  49.18600 28.90600 42.24400
C  48.70100 29.37700 40.95600
H  51.65300 21.55900 43.07000
H  57.68400 22.41000 45.18000
H  56.78300 28.54200 46.25600
H  49.24900 25.81000 43.02400
H  49.88100 23.31200 42.16300
H  48.90000 24.42300 44.70600
H  49.56600 22.79100 44.95600
H  48.29100 23.02800 43.86700
H  49.53600 26.54100 41.01700
H  49.63100 24.83700 40.77200
H  52.32800 26.12600 41.31800
H  51.54300 26.80000 39.92500
H  53.48200 19.94200 41.67300
H  52.56400 19.48100 43.14900
H  54.14000 18.75400 42.80200
H  58.36200 18.84100 44.80900
H  57.91700 20.45300 45.61700
H  58.67900 20.49700 44.12800
H  59.34300 24.51900 45.31600
H  58.37400 26.69100 47.01700
H  59.24600 23.12200 47.10500
H  57.83600 23.98300 47.85400
H  59.39300 24.70500 47.86300
H  58.55000 27.61900 44.16500
H  59.90300 26.59500 44.57800
H  60.81200 28.45900 45.24000
H  59.88300 28.38200 46.76400
H  59.26300 29.30700 45.31400
H  53.81100 30.83100 47.21400
H  54.32000 31.46000 45.75000
H  55.51100 30.52800 46.72100
H  49.82500 28.41900 44.30100
H  49.24100 29.05300 40.06600
H  48.44400 30.43600 40.91700
H  47.82200 28.74800 40.82000
Mg 17.34500 51.14700 26.56600
C  19.42800 49.83600 29.13000
C  15.12100 52.13100 29.00800
C  15.47100 52.37600 24.18600
C  19.61300 49.92100 24.20600
N  17.27600 51.00900 28.85400
C  18.24800 50.44000 29.62100
C  17.74900 50.53000 31.10400
C  16.23100 50.90300 30.97300
C  16.19100 51.41500 29.53600
C  15.17800 49.80400 31.28200
C  18.63000 51.39900 32.02900
C  18.68900 50.95300 33.51500
H  17.82100 51.50700 34.61500
N  15.58000 52.14400 26.59000
C  14.79300 52.51900 27.67000
C  13.73700 53.48500 27.20600
C  13.73800 53.31600 25.78000
C  14.92300 52.57300 25.44200
C  12.79500 54.07700 28.16500
C  12.78300 53.91600 24.76900
O  12.85100 53.68500 23.58400
C  11.66800 54.68200 25.30100
N  17.47100 51.03800 24.48400
C  16.63800 51.73100 23.74600
C  16.94900 51.74400 22.26300
C  18.46300 51.25500 22.34100
C  18.53300 50.71800 23.71100
C  15.93900 50.90100 21.39000
C  19.46900 52.32400 21.95000
C  20.29300 51.93600 20.70200
N  19.04100 49.94700 26.58100
C  19.88100 49.57200 25.51900
C  21.02400 48.90800 26.06200
C  20.89900 49.00800 27.47500
C  19.66900 49.68000 27.76000
C  22.19200 48.37500 25.17900
C  21.51600 48.63300 28.73800
O  22.59300 48.14700 29.02000
C  20.50900 49.11300 29.82500
C  20.07500 47.86100 30.58200
O  19.16600 47.10300 30.21900
O  20.74500 47.77800 31.74100
C  20.07800 46.91000 32.76700
H  14.48200 52.53000 29.79800
H  14.86200 52.71600 23.34600
H  20.31700 49.63000 23.42300
H  17.74800 49.50100 31.46300
H  16.08000 51.77200 31.61400
H  14.68900 50.08900 32.21300
H  15.64900 48.83200 31.13600
H  14.44600 49.66900 30.48500
H  18.15700 52.38000 32.07200
H  19.65600 51.57000 31.70300
H  19.72200 51.16700 33.78700
H  18.60900 49.86600 33.53600
H  13.23800 54.06500 29.16100
H  11.87000 53.50100 28.19900
H  12.59600 55.14600 28.09600
H  12.00700 55.55900 25.85300
H  11.09300 54.00400 25.93300
H  11.09700 55.04600 24.44700
H  16.94100 52.78400 21.93600
H  18.55400 50.36800 21.71500
H  15.64900 51.48400 20.51600
H  15.09900 50.47700 21.94100
H  16.46700 50.08800 20.89200
H  20.20100 52.44500 22.74800
H  18.99600 53.30500 21.89100
H  20.29200 52.75300 19.98100
H  19.89300 51.13300 20.08300
H  21.35500 51.80000 20.90700
H  21.74700 47.67400 24.47300
H  22.96500 47.92200 25.80000
H  22.58100 49.25000 24.65900
H  21.01300 49.64300 30.63300
H  20.78700 46.23000 33.24000
H  19.22600 46.29500 32.47600
H  19.75200 47.47000 33.64400

