158

Mg 47.43000 25.72700 28.79200
C  48.52300 27.97000 31.20800
C  46.96200 23.38100 31.30700
C  46.94700 23.38800 26.37800
C  48.75900 27.94500 26.34600
N  47.64800 25.71900 31.00700
C  47.92600 26.81500 31.80100
C  47.53000 26.53700 33.23000
C  47.10400 24.97700 33.23500
C  47.20500 24.67500 31.73900
C  47.96800 23.97000 34.13300
C  46.41100 27.59800 33.71400
C  45.64800 27.33700 35.01000
H  45.85400 28.08900 36.31700
N  46.85300 23.70900 28.86300
C  46.73800 22.89100 30.00800
C  46.44400 21.53300 29.59900
C  46.23900 21.54900 28.17300
C  46.73500 22.91800 27.73500
C  46.17500 20.46400 30.52700
C  45.85600 20.44100 27.25000
O  45.67600 20.61300 26.00800
C  45.44300 19.13800 27.73100
N  47.87400 25.67000 26.67700
C  47.41700 24.66300 25.90500
C  47.27700 25.08600 24.40700
C  47.71500 26.57700 24.44100
C  48.15800 26.75000 25.92800
C  48.23300 24.23400 23.51800
C  46.59900 27.58400 24.01000
C  47.02200 28.67500 23.05800
N  48.50100 27.55500 28.71100
C  48.90700 28.32200 27.63900
C  49.50700 29.55600 28.13900
C  49.35600 29.42800 29.55900
C  48.75900 28.20000 29.89500
C  50.20800 30.57500 27.37400
C  49.57300 30.14400 30.81200
O  50.06900 31.29400 30.98000
C  48.92500 29.30600 31.87800
C  49.69800 29.17600 33.19700
O  50.75100 28.51700 33.30800
O  49.20800 30.01200 34.22000
C  49.95200 29.90100 35.47400
H  46.56000 22.77300 32.12100
H  46.56200 22.74700 25.58300
H  49.02400 28.69100 25.59400
H  48.37400 26.66000 33.90800
H  46.05600 24.88300 33.52100
H  48.58300 23.34200 33.48800
H  47.36600 23.23100 34.66200
H  48.65300 24.55000 34.75100
H  45.70800 27.54800 32.88200
H  46.83000 28.60100 33.64500
H  46.12600 26.42900 35.37700
H  44.59700 27.11500 34.82400
H  46.23900 20.73200 31.58100
H  46.77200 19.59800 30.24100
H  45.14300 20.21800 30.27800
H  46.18700 18.74000 28.42200
H  45.48300 18.48300 26.86100
H  44.59700 19.19700 28.41500
H  46.31400 24.95700 23.91300
H  48.54300 26.69000 23.74100
H  48.44200 23.26800 23.97800
H  49.23600 24.59100 23.28500
H  47.64700 23.93000 22.65100
H  46.13900 28.01800 24.89800
H  45.76200 27.09700 23.51100
H  46.36600 29.45100 23.45400
H  46.78200 28.47100 22.01500
H  48.05800 28.98300 23.20400
H  50.48000 31.48500 27.90900
H  49.46900 30.94500 26.66400
H  51.11900 30.21800 26.89400
H  48.01000 29.77600 32.23900
H  49.98100 28.85600 35.78300
H  49.44800 30.36500 36.32300
H  50.97400 30.28000 35.47200
Mg 26.85100 50.73500 26.00400
C  24.68700 51.81900 28.61700
C  28.94500 49.46300 28.36100
C  28.85400 49.71400 23.52100
C  24.36300 51.67600 23.80000
N  26.70700 50.61900 28.18200
C  25.79200 51.13400 29.06900
C  26.17800 50.84100 30.51400
C  27.52600 50.05300 30.37400
C  27.75700 50.05100 28.86500
C  28.70400 50.49100 31.30300
C  25.07600 50.00000 31.34000
C  25.56300 49.18400 32.62600
H  25.48100 49.88400 33.95800
N  28.65600 49.83200 25.94600
C  29.33800 49.29800 27.03100
C  30.56800 48.64300 26.56000
C  30.61800 48.82800 25.12600
C  29.38500 49.52800 24.83100
C  31.62900 48.02900 27.48500
C  31.70800 48.50300 24.15700
O  31.70400 48.92600 22.98600
C  32.87100 47.58300 24.61300
N  26.75000 50.93900 24.01300
C  27.64100 50.34700 23.15700
C  27.17500 50.37600 21.65600
C  25.73600 50.82600 21.79700
C  25.61100 51.19600 23.30600
C  28.01300 51.36900 20.80000
C  24.71300 49.71800 21.41200
C  23.34200 50.09600 20.85800
N  24.99300 51.72200 26.16400
C  24.07200 52.03700 25.15500
C  22.89200 52.67000 25.67700
C  23.10100 52.56200 27.08500
C  24.36100 52.01800 27.30100
C  21.73900 53.25100 24.93500
C  22.48800 52.86200 28.40700
O  21.39600 53.38400 28.68800
C  23.48000 52.40400 29.49900
C  23.75100 53.63000 30.33000
O  24.41100 54.59500 29.93500
O  23.33700 53.37800 31.63300
C  23.69400 54.38200 32.62300
H  29.41500 48.92900 29.18900
H  29.44600 49.42900 22.64800
H  23.61700 52.03700 23.08800
H  26.20200 51.78100 31.06500
H  27.50900 48.97900 30.56100
H  28.30100 51.17300 32.05200
H  29.55900 50.88600 30.75500
H  29.11600 49.64200 31.84900
H  24.69900 49.36900 30.53500
H  24.15400 50.50800 31.62300
H  26.60000 48.84600 32.61700
H  24.93800 48.32800 32.87800
H  31.72400 46.95900 27.29800
H  31.48500 48.18800 28.55400
H  32.52900 48.62700 27.34400
H  32.38800 46.67600 24.97600
H  33.28400 48.08100 25.49000
H  33.62800 47.49400 23.83500
H  27.19400 49.43200 21.11000
H  25.49600 51.72700 21.23300
H  28.96000 51.43500 21.33600
H  27.49200 52.32300 20.71200
H  28.23500 50.92400 19.83000
H  24.47400 49.22200 22.35300
H  25.22000 48.91100 20.88200
H  23.05300 49.59300 19.93500
H  23.34900 51.15500 20.60000
H  22.73600 49.85600 21.73200
H  21.25500 52.41700 24.42800
H  22.18300 54.01400 24.29500
H  21.06400 53.62200 25.70600
H  23.06800 51.55100 30.03700
H  23.25900 55.35300 32.38700
H  24.76300 54.56800 32.52000
H  23.42000 54.11000 33.64200

