158

Mg 16.71200 53.11600 26.26800
C  18.68800 51.55200 28.78500
C  14.42900 53.84200 28.86800
C  14.42800 54.07400 24.01600
C  18.86300 51.92200 23.88200
N  16.54500 52.60300 28.49900
C  17.51200 52.02300 29.31800
C  17.10100 52.17200 30.81300
C  15.52400 52.40800 30.71700
C  15.43900 52.90300 29.27300
C  14.52600 51.26100 30.91600
C  17.87900 53.35200 31.55700
C  18.10200 53.24000 32.95400
H  17.21300 52.36800 33.80100
N  14.82700 54.02200 26.40800
C  14.10100 54.33600 27.58400
C  12.97500 55.11100 27.20300
C  13.03700 55.35700 25.81400
C  14.10400 54.47600 25.33400
C  12.10000 55.72900 28.26400
C  12.21900 56.31600 24.92700
O  12.49200 56.46900 23.80500
C  11.05900 57.25100 25.57000
N  16.64600 52.94400 24.29300
C  15.53000 53.32700 23.57300
C  15.73700 53.02000 22.16400
C  17.27300 52.73100 22.07600
C  17.69600 52.57000 23.49700
C  14.82800 51.90400 21.63400
C  18.08100 53.88900 21.38800
C  18.91300 54.89200 22.20300
N  18.42800 51.93200 26.32100
C  19.27500 51.61600 25.24000
C  20.41400 50.86600 25.74100
C  20.19100 50.84900 27.13500
C  19.06400 51.51800 27.40300
C  21.51000 50.20400 25.01200
C  20.82600 50.36300 28.36500
O  21.89800 49.75700 28.61200
C  19.87600 50.91400 29.51900
C  19.49200 49.73000 30.36500
O  18.76400 48.78400 30.17300
O  20.28000 49.80100 31.47800
C  20.17600 48.77300 32.48100
H  13.75000 54.19900 29.64400
H  13.65000 54.49400 23.37500
H  19.54900 51.55300 23.11700
H  17.17600 51.23600 31.36600
H  15.11600 53.21100 31.33000
H  13.67900 51.73300 31.41500
H  14.89200 50.42700 31.51500
H  14.18600 50.78400 29.99700
H  17.34900 54.28600 31.37000
H  18.87000 53.49200 31.12400
H  17.85700 54.21200 33.38200
H  19.13700 53.07000 33.25000
H  12.47200 56.67500 28.65800
H  11.97500 55.00000 29.06400
H  11.09000 55.89700 27.89000
H  10.10000 56.74300 25.67900
H  10.95300 58.13500 24.94100
H  11.32500 57.63400 26.55500
H  15.44200 53.81200 21.47500
H  17.58600 51.86400 21.49500
H  14.58300 52.16600 20.60500
H  13.89500 51.72700 22.16900
H  15.30500 50.92400 21.60400
H  17.43700 54.46200 20.72000
H  18.69600 53.46600 20.59400
H  18.50600 55.86000 21.91000
H  19.95600 54.73500 21.92700
H  18.87600 54.84500 23.29200
H  22.32500 49.93700 25.68500
H  21.87200 50.94500 24.29800
H  21.11500 49.38800 24.40700
H  20.33400 51.59300 30.23700
H  20.80500 49.20000 33.26100
H  20.59900 47.87700 32.02700
H  19.13000 48.70800 32.78100
Mg -10.17400 16.05000 41.45500
C  -6.79800 15.00600 41.44500
C  -9.16400 19.05500 40.21300
C  -13.36300 16.77000 40.80300
C  -11.01700 12.71300 42.08400
N  -8.21700 16.91500 40.87400
C  -7.03000 16.29600 40.98500
C  -5.86600 17.21300 40.45000
C  -6.57400 18.69400 40.60000
C  -8.08000 18.23200 40.55900
C  -6.16200 19.48800 41.87000
C  -5.57100 16.91200 38.97300
C  -4.10400 16.48400 38.61200
H  -3.90800 15.22500 37.74900
N  -11.11100 17.68600 40.52000
C  -10.56200 18.84000 40.21000
C  -11.49700 19.80700 39.71900
C  -12.78000 19.23400 39.94000
C  -12.46700 17.83200 40.36600
C  -11.24100 21.14000 39.17400
C  -14.15400 19.86200 39.66600
O  -14.27900 20.91000 39.05100
C  -15.41700 19.11400 39.98800
N  -11.84000 14.83000 41.30200
C  -13.06800 15.48700 41.26200
C  -14.21800 14.44100 41.48500
C  -13.48000 13.12100 41.57800
C  -12.02400 13.58800 41.67700
C  -15.08600 14.77600 42.73100
C  -13.61700 12.14800 40.38500
C  -14.17000 10.72900 40.71500
N  -9.15800 14.23200 42.01500
C  -9.63300 12.96600 42.18200
C  -8.61200 12.02800 42.52400
C  -7.45600 12.75500 42.16100
C  -7.81700 14.06800 41.82200
C  -8.66200 10.61300 42.99800
C  -5.94400 12.70600 41.94900
O  -5.19600 11.75900 42.12000
C  -5.57700 14.16600 41.46200
C  -4.47000 14.63800 42.26300
O  -3.41800 15.00100 41.78900
O  -4.66000 14.41800 43.64100
C  -3.39400 14.56300 44.43300
H  -8.89900 20.10900 40.10700
H  -14.45300 16.80400 40.86400
H  -11.25200 11.68700 42.37300
H  -4.94400 17.07800 41.01500
H  -6.36100 19.21800 39.66900
H  -7.04600 19.35000 42.49300
H  -6.11500 20.56700 41.72000
H  -5.26500 19.21000 42.42400
H  -5.74700 17.80200 38.36900
H  -6.29600 16.16000 38.66000
H  -3.50100 16.21400 39.47900
H  -3.66700 17.34000 38.09800
H  -10.99100 21.08800 38.11400
H  -10.41900 21.60100 39.72200
H  -12.06300 21.83800 39.32900
H  -15.39300 18.30600 39.25600
H  -16.23400 19.74000 39.63100
H  -15.41000 18.70500 40.99800
H  -14.79700 14.54100 40.56700
H  -13.63500 12.61400 42.53000
H  -16.12800 14.85300 42.41700
H  -14.80700 15.66100 43.30300
H  -15.15000 13.92000 43.40200
H  -12.74800 12.22000 39.73200
H  -14.37300 12.56800 39.72200
H  -15.15800 10.59400 40.27600
H  -14.35400 10.48800 41.76200
H  -13.52900 9.97700 40.25300
H  -8.77400 10.60200 44.08200
H  -7.79700 10.00700 42.72800
H  -9.54300 10.13600 42.56900
H  -5.22100 14.02100 40.44200
H  -2.57600 14.05100 43.92500
H  -3.54000 14.06100 45.39000
H  -3.16300 15.57400 44.76700

