158

Mg 25.81700 1.26400 29.21100
C  27.75700 0.76300 32.10400
C  23.07200 1.82500 31.18200
C  23.82500 1.10800 26.38400
C  28.59800 0.40300 27.37300
N  25.37400 1.09200 31.41800
C  26.37200 1.06200 32.35300
C  25.70300 1.36800 33.79200
C  24.20700 1.67100 33.52100
C  24.25000 1.57700 31.91900
C  23.20900 0.72000 34.09900
C  26.44600 2.45700 34.59300
C  26.87400 2.17800 36.05400
H  26.58500 3.26000 37.10200
N  23.74700 1.57300 28.78800
C  22.80600 1.75900 29.76600
C  21.49200 1.99700 29.09900
C  21.73600 1.80600 27.69100
C  23.14800 1.48400 27.56300
C  20.18600 2.24500 29.76900
C  20.76500 1.99600 26.54800
O  21.09500 1.95000 25.34700
C  19.37900 2.26100 26.81200
N  26.18300 0.76000 27.16800
C  25.17700 0.74400 26.23800
C  25.73400 0.50400 24.85700
C  27.30900 0.55400 25.07600
C  27.43700 0.61400 26.62800
C  25.11700 -0.67900 24.09000
C  27.99700 1.75200 24.28500
C  28.67200 1.46600 22.97400
N  27.76600 0.63200 29.61900
C  28.84100 0.36300 28.73300
C  29.97900 0.05000 29.53500
C  29.60300 0.20100 30.89200
C  28.24400 0.55400 30.85500
C  31.28200 -0.18500 28.92900
C  30.05700 0.13700 32.24200
O  31.07100 -0.26900 32.75600
C  28.87600 0.58100 33.13500
C  28.61900 -0.40700 34.23500
O  27.96700 -1.40200 34.15700
O  29.30100 0.00100 35.38900
C  28.98900 -0.74200 36.56400
H  22.20900 2.16600 31.75800
H  23.30900 1.31100 25.44300
H  29.44200 0.20800 26.70800
H  25.82400 0.40700 34.29200
H  23.92900 2.72100 33.61100
H  22.33000 1.35600 34.20100
H  23.53500 0.23200 35.01700
H  22.83200 -0.06100 33.43900
H  25.94100 3.42000 34.66900
H  27.37500 2.65000 34.05700
H  27.92700 1.91500 36.14800
H  26.32100 1.27600 36.31700
H  19.90300 3.26000 29.49000
H  20.38500 2.25100 30.84100
H  19.34500 1.60400 29.50600
H  18.85800 1.38700 27.20300
H  18.94000 2.52700 25.85100
H  19.11400 3.11700 27.43200
H  25.40700 1.40800 24.34300
H  27.81200 -0.36100 24.76100
H  25.85500 -1.45200 23.87000
H  24.79200 -0.43500 23.07900
H  24.27100 -1.23500 24.49400
H  28.79200 2.06500 24.96200
H  27.33700 2.59700 24.08800
H  28.41700 0.50100 22.53400
H  29.73100 1.62800 23.17700
H  28.26800 2.15100 22.22900
H  31.50300 0.39300 28.03100
H  31.40000 -1.22700 28.63000
H  32.03500 0.07200 29.67300
H  29.21100 1.49500 33.62600
H  29.54000 -0.30800 37.39800
H  29.16400 -1.81600 36.49400
H  27.94900 -0.68800 36.88700
Mg 35.96900 2.60400 30.20300
C  33.42900 3.62400 32.46900
C  37.94400 2.05100 32.92300
C  37.85100 1.01200 28.16200
C  33.45100 2.85600 27.59200
N  35.79300 2.91800 32.40000
C  34.65400 3.28100 33.08500
C  34.93500 3.29300 34.66200
C  36.46200 3.19900 34.70800
C  36.77700 2.75300 33.22400
C  37.24000 4.44200 35.24000
C  34.03800 2.22100 35.39500
C  33.70100 2.56500 36.86100
H  34.72400 3.47900 37.67300
N  37.73600 1.79200 30.50400
C  38.43100 1.62500 31.66100
C  39.58500 0.84100 31.36900
C  39.62700 0.61700 29.97700
C  38.38700 1.19600 29.48700
C  40.59100 0.28600 32.48000
C  40.62600 -0.18100 29.16700
O  40.63000 -0.33100 27.97800
C  41.70500 -0.81100 29.91000
N  35.73700 2.25000 28.09100
C  36.69300 1.37800 27.58600
C  36.35300 0.89300 26.16400
C  34.87600 1.37800 26.00800
C  34.64600 2.22700 27.28700
C  37.37800 1.45600 25.14800
C  33.94100 0.12600 25.78000
C  33.06200 0.08600 24.49800
N  33.88100 3.23900 29.94500
C  33.06000 3.26600 28.87400
C  31.70900 3.50200 29.31100
C  31.78200 3.70100 30.67000
C  33.18300 3.55800 31.02100
C  30.49500 3.48500 28.40900
C  31.05000 3.98400 31.88500
O  29.89200 4.29000 32.04100
C  32.06600 3.94400 33.06500
C  32.04800 5.23900 33.81400
O  32.06300 6.32000 33.32400
O  32.00400 4.99300 35.15000
C  31.69700 6.14200 36.00300
H  38.49800 1.89100 33.85100
H  38.55200 0.44200 27.54800
H  32.66700 2.78300 26.83500
H  34.68300 4.25600 35.10700
H  36.66800 2.31000 35.30500
H  36.54100 5.18600 35.62100
H  37.83900 4.81000 34.40700
H  37.83400 4.18900 36.11800
H  34.74000 1.38800 35.35700
H  33.15000 1.93800 34.83100
H  33.63300 1.59700 37.35600
H  32.69300 2.98100 36.86200
H  40.84100 -0.77000 32.38000
H  40.18500 0.50500 33.46800
H  41.50500 0.86000 32.32900
H  42.49900 -1.00200 29.18700
H  41.39200 -1.72800 30.40900
H  42.09900 -0.09600 30.63200
H  36.40200 -0.19200 26.07900
H  34.71300 1.97800 25.11300
H  37.84700 0.59400 24.67400
H  38.15900 1.95800 25.71800
H  36.76300 2.01900 24.44500
H  33.27400 0.13000 26.64200
H  34.40600 -0.85800 25.82400
H  33.22900 1.00000 23.92800
H  32.00200 0.08800 24.75200
H  33.28500 -0.80200 23.90700
H  30.53900 2.52200 27.90100
H  30.35400 4.32300 27.72600
H  29.58700 3.47300 29.01200
H  31.76900 3.18500 33.79000
H  31.69100 7.10500 35.49200
H  32.47700 6.19500 36.76200
H  30.77200 6.09200 36.57700

