158

Mg 2.49400 -0.36100 43.43800
C  5.93700 -0.00000 43.45400
C  2.14600 2.62900 41.78400
C  -0.86800 -1.21400 42.91200
C  3.02900 -3.64500 44.60800
N  3.89600 1.15100 42.75500
C  5.27000 1.03800 42.76400
C  5.92000 2.27600 42.07200
C  4.60000 3.18100 41.81900
C  3.45800 2.27000 42.09000
C  4.51100 4.51000 42.59800
C  6.73300 1.99200 40.75600
C  6.04500 1.08500 39.68700
H  5.74200 1.62400 38.28500
N  0.84300 0.68100 42.57700
C  0.93000 1.90800 42.01700
C  -0.41200 2.27500 41.67500
C  -1.31200 1.14700 41.93900
C  -0.46500 0.07900 42.44000
C  -0.77100 3.65100 41.23200
C  -2.80300 1.18400 41.53200
O  -3.39300 2.16900 41.04900
C  -3.62800 -0.07600 41.71500
N  1.27500 -2.14100 43.55800
C  -0.08000 -2.24700 43.39800
C  -0.58500 -3.58700 43.83800
C  0.71400 -4.45800 43.89100
C  1.72200 -3.34100 44.01700
C  -1.36200 -3.55400 45.19900
C  1.01200 -5.31900 42.67300
C  1.54200 -6.72900 43.01100
N  4.16600 -1.58600 44.06300
C  4.17000 -2.84800 44.59300
C  5.48700 -3.15600 45.09300
C  6.25800 -2.08600 44.60100
C  5.37500 -1.16000 44.04400
C  6.03100 -4.38900 45.85200
C  7.63900 -1.55100 44.40700
O  8.75900 -2.03200 44.74500
C  7.50000 -0.23100 43.68800
C  8.24900 0.86700 44.33500
O  9.14600 1.56700 43.85900
O  7.79100 1.03100 45.62000
C  8.54800 2.09500 46.34700
H  2.00200 3.55600 41.22500
H  -1.93600 -1.44100 42.92600
H  3.13400 -4.68600 44.92100
H  6.54900 2.74700 42.82700
H  4.65300 3.46700 40.76800
H  3.45800 4.73400 42.76900
H  4.96800 5.33700 42.05300
H  4.96900 4.35000 43.57400
H  7.58900 1.43900 41.14400
H  7.09500 2.94000 40.35700
H  5.11300 0.63100 40.02500
H  6.85100 0.35700 39.59300
H  -0.77300 3.80400 40.15200
H  -0.04900 4.27800 41.75500
H  -1.74700 3.97400 41.59400
H  -3.68400 -0.34000 42.77200
H  -3.36800 -0.92200 41.07800
H  -4.58700 0.14800 41.25000
H  -1.24700 -3.97200 43.06200
H  0.82700 -5.09100 44.77100
H  -0.96600 -4.13900 46.02900
H  -2.31700 -3.98000 44.89400
H  -1.46900 -2.56300 45.64200
H  1.56000 -4.78000 41.90000
H  0.10300 -5.58600 42.13300
H  2.37400 -6.83000 42.31500
H  0.93100 -7.62100 42.87100
H  1.97200 -6.68400 44.01100
H  5.71500 -4.23400 46.88400
H  7.11200 -4.48800 45.75000
H  5.54000 -5.23000 45.36200
H  7.85200 -0.29900 42.65800
H  9.55500 1.73700 46.56200
H  8.13200 2.14600 47.35400
H  8.37000 3.01800 45.79500
Mg 26.01800 -0.66500 29.64800
C  28.09100 -0.61700 32.49500
C  23.41900 0.32100 31.56700
C  24.04600 -0.77800 26.92100
C  28.76000 -1.77300 27.78000
N  25.77300 -0.26400 31.74100
C  26.74100 -0.29900 32.78000
C  26.17500 0.03000 34.16600
C  24.59200 0.20900 33.79400
C  24.56800 0.07800 32.25700
C  23.54900 -0.76500 34.46500
C  26.77800 1.22800 34.93500
C  25.94400 1.72800 36.15800
H  26.68800 2.19300 37.40600
N  23.99500 -0.20700 29.28300
C  23.07600 0.16400 30.21100
C  21.79400 0.35700 29.59500
C  21.89000 -0.03100 28.25100
C  23.33900 -0.40100 28.03800
C  20.57200 0.79900 30.38200
C  20.77200 -0.10800 27.10000
O  21.06300 -0.35300 25.93100
C  19.35600 0.15700 27.45400
N  26.34800 -1.30200 27.66300
C  25.40700 -1.10600 26.71000
C  25.96900 -1.40800 25.29100
C  27.49200 -1.60900 25.57100
C  27.54900 -1.50200 27.11400
C  25.45000 -2.67400 24.59100
C  28.35000 -0.40900 24.90800
C  29.72600 -0.62600 24.29100
N  28.03700 -1.12600 30.01900
C  29.00900 -1.65500 29.13500
C  30.25600 -1.75000 29.87700
C  29.88800 -1.27800 31.20600
C  28.51100 -1.05100 31.22300
C  31.58000 -2.21000 29.25400
C  30.51100 -0.93100 32.47200
O  31.67100 -0.98000 32.90800
C  29.29300 -0.57500 33.40500
C  29.23800 -1.51500 34.51100
O  28.77200 -2.61200 34.36100
O  29.78500 -0.97900 35.63700
C  29.51500 -1.65800 36.89700
H  22.64500 0.77700 32.18700
H  23.44200 -0.77000 26.01100
H  29.49000 -2.21600 27.10000
H  26.28900 -0.84400 34.80700
H  24.30200 1.23800 34.00600
H  23.78400 -1.03800 35.49300
H  23.44100 -1.66000 33.85300
H  22.55900 -0.31000 34.40700
H  26.84500 2.03300 34.20300
H  27.74600 0.95900 35.35600
H  25.28700 0.89600 36.41300
H  25.47300 2.62900 35.76300
H  20.89700 1.06400 31.38800
H  19.86400 -0.00800 30.57500
H  20.00200 1.59500 29.90200
H  19.03900 -0.61600 28.15300
H  18.68400 0.00400 26.60900
H  19.15700 1.17000 27.80200
H  25.77600 -0.57700 24.61100
H  27.92300 -2.56000 25.25700
H  24.56000 -3.09200 25.06300
H  26.15300 -3.50400 24.52400
H  25.10100 -2.49300 23.57400
H  28.37900 0.38000 25.66000
H  27.78200 0.05700 24.10300
H  30.41100 0.03900 24.81800
H  29.77800 -0.39500 23.22700
H  29.94500 -1.68700 24.40400
H  31.55700 -2.73000 28.29700
H  32.09100 -2.90800 29.91800
H  32.15400 -1.31100 29.02900
H  29.36200 0.39800 33.89200
H  30.47700 -2.02100 37.26100
H  28.87900 -2.54200 36.85400
H  29.09700 -0.89000 37.54700

