158

Mg 26.36900 50.66100 26.51600
C  24.00300 51.55000 28.95900
C  28.56500 50.01900 29.06300
C  28.57600 49.68600 24.12100
C  24.25400 51.75400 24.06100
N  26.20500 50.68300 28.71800
C  25.22400 51.04800 29.48500
C  25.35100 50.70800 30.91400
C  26.85500 50.38700 30.97700
C  27.25600 50.42400 29.49800
C  27.65400 51.45400 31.76500
C  24.39700 49.57500 31.50700
C  23.87800 49.71000 32.89900
H  24.54100 50.73300 33.79700
N  28.36600 49.96500 26.54700
C  29.04000 49.69400 27.71500
C  30.31200 49.06400 27.32000
C  30.29200 48.91200 25.96100
C  29.04900 49.52100 25.44300
C  31.33800 48.58600 28.35500
C  31.38300 48.29900 25.11100
O  31.29500 48.31700 23.87500
C  32.66600 47.80800 25.75700
N  26.35500 50.76200 24.44200
C  27.33300 50.14200 23.70200
C  26.97300 49.97000 22.24600
C  25.48200 50.63400 22.10900
C  25.27100 51.01000 23.64600
C  27.92000 50.57100 21.21500
C  24.43900 49.59400 21.67300
C  23.35800 50.21200 20.81300
N  24.52600 51.55100 26.44400
C  23.81200 51.98700 25.39300
C  22.50500 52.56400 25.83700
C  22.56900 52.39100 27.27200
C  23.84800 51.76900 27.56800
C  21.41300 52.86100 25.03500
C  21.80700 52.64000 28.47000
O  20.71500 53.14700 28.69200
C  22.76900 52.17200 29.57700
C  23.11000 53.39700 30.43400
O  23.87400 54.27500 30.19200
O  22.49900 53.21500 31.59000
C  22.28000 54.39000 32.46400
H  29.23500 49.58000 29.80500
H  29.14600 49.20800 23.32200
H  23.62100 52.03400 23.21600
H  25.14900 51.64400 31.43400
H  26.96400 49.35100 31.29900
H  28.23100 52.11400 31.11700
H  28.33500 51.00400 32.48800
H  27.07100 52.02000 32.49200
H  24.82700 48.57500 31.45600
H  23.53800 49.48500 30.84100
H  23.93500 48.74300 33.39900
H  22.81700 49.94900 32.83300
H  31.25000 47.50400 28.25400
H  31.11500 48.79100 29.40200
H  32.24600 49.14100 28.12200
H  33.37100 47.36000 25.05700
H  32.46400 47.05500 26.51900
H  33.10400 48.71600 26.17100
H  26.83600 48.92600 21.96300
H  25.46700 51.47600 21.41700
H  28.85300 50.93700 21.64200
H  27.61400 51.43100 20.62000
H  28.17300 49.77900 20.51000
H  23.98900 49.06100 22.51000
H  24.91500 48.77400 21.13400
H  22.32400 49.91000 20.97900
H  23.61800 49.99800 19.77600
H  23.37500 51.29900 20.89800
H  20.60700 52.13500 25.14500
H  21.68900 52.83400 23.98100
H  21.09800 53.86300 25.32500
H  22.30100 51.37300 30.15300
H  22.61100 55.23300 31.85800
H  22.83800 54.40000 33.40100
H  21.22300 54.53600 32.68700
Mg -10.84900 15.94400 43.42200
C  -7.53400 16.69700 43.12900
C  -11.75100 19.20300 42.80200
C  -14.20400 15.05700 43.59900
C  -10.02300 12.61700 43.69800
N  -9.78100 17.74400 42.97900
C  -8.40800 17.83200 42.94800
C  -7.96900 19.25000 42.71200
C  -9.40800 20.01100 42.61300
C  -10.42700 18.90600 42.87900
C  -9.54800 21.12000 43.61400
C  -7.12300 19.62400 41.42100
C  -5.76200 20.37900 41.58500
H  -4.99200 20.70800 40.37200
N  -12.74700 16.97600 43.12900
C  -12.85400 18.29300 42.94900
C  -14.21500 18.59000 42.77000
C  -15.04600 17.44800 42.96900
C  -14.00200 16.42700 43.25800
C  -14.58300 20.05100 42.59700
C  -16.61500 17.32200 42.88000
O  -17.19800 18.38100 42.51300
C  -17.34000 16.12400 43.25100
N  -12.00700 14.04400 43.29900
C  -13.29500 14.03000 43.73200
C  -13.68900 12.65500 44.25100
C  -12.35900 11.79600 44.21900
C  -11.41200 12.87100 43.65200
C  -14.45800 12.61700 45.61900
C  -12.23300 10.53500 43.31300
C  -12.12100 9.12500 43.98900
N  -9.13400 14.77200 43.38400
C  -8.94300 13.46700 43.52200
C  -7.51400 13.22900 43.57900
C  -6.87400 14.43300 43.37100
C  -7.94700 15.38900 43.24000
C  -6.97700 11.85000 43.82500
C  -5.59900 15.10600 43.25500
O  -4.48900 14.69100 43.21700
C  -5.93100 16.62000 43.06300
C  -5.27800 17.47300 44.06700
O  -5.85700 17.85700 45.08900
O  -3.91500 17.59300 43.86700
C  -3.14200 18.16800 44.96100
H  -11.90700 20.27100 42.63500
H  -15.17500 14.59500 43.79200
H  -9.68400 11.63100 44.02300
H  -7.39900 19.56700 43.58500
H  -9.69400 20.40700 41.63800
H  -8.60300 21.47700 44.02400
H  -10.22300 20.85700 44.42900
H  -10.03700 21.99700 43.19000
H  -7.67200 20.21200 40.68500
H  -6.89500 18.70600 40.87800
H  -5.07400 19.63300 41.98200
H  -5.91000 21.17700 42.31300
H  -15.62500 20.26500 42.83400
H  -14.35300 20.29100 41.55900
H  -14.05200 20.72300 43.27100
H  -18.38400 16.37000 43.05800
H  -17.19900 15.80800 44.28400
H  -17.01300 15.33300 42.57500
H  -14.34900 12.34700 43.44000
H  -11.95900 11.48600 45.18500
H  -14.09600 13.46000 46.20700
H  -14.07500 11.70700 46.08100
H  -15.52800 12.77100 45.47800
H  -11.40900 10.71300 42.62200
H  -13.13900 10.48700 42.70900
H  -11.57900 9.25700 44.92500
H  -11.67500 8.41100 43.29500
H  -13.11900 8.74100 44.20000
H  -7.32400 11.19900 43.02300
H  -7.23400 11.38700 44.77800
H  -5.89900 11.91800 43.68100
H  -5.49000 16.85500 42.09500
H  -2.36400 18.80200 44.53400
H  -2.61300 17.38600 45.50600
H  -3.65900 18.72800 45.74100

