158

Mg 41.01900 7.80200 29.33700
C  42.79600 9.22600 31.94200
C  38.76400 6.48600 31.73000
C  39.58300 5.96000 26.86800
C  43.69700 8.53900 27.16900
N  40.81900 7.79400 31.57100
C  41.60600 8.61600 32.39100
C  41.09400 8.56400 33.92100
C  39.82000 7.61500 33.81900
C  39.77900 7.25500 32.26200
C  40.01000 6.36400 34.72600
C  40.80300 10.02000 34.47100
C  40.10600 10.05600 35.86500
H  40.42900 11.24300 36.80400
N  39.34000 6.54600 29.27300
C  38.52500 6.14800 30.36900
C  37.38900 5.42000 29.83000
C  37.62200 5.24200 28.40700
C  38.89300 5.93200 28.10300
C  36.17000 5.09800 30.63800
C  36.63700 4.64400 27.38200
O  36.78000 4.56500 26.16300
C  35.31500 4.12700 27.86700
N  41.63200 7.21200 27.24500
C  40.73900 6.59200 26.44100
C  41.28500 6.43400 25.04900
C  42.61600 7.28200 25.07100
C  42.68100 7.73500 26.52300
C  41.34600 5.02900 24.51800
C  42.61200 8.42600 24.05600
C  41.59200 9.59700 24.28500
N  42.89700 8.58300 29.48600
C  43.80100 8.92000 28.51000
C  44.89300 9.65200 29.14700
C  44.56200 9.78900 30.44900
C  43.31600 9.13800 30.60800
C  46.19100 10.29300 28.40900
C  44.91700 10.36100 31.69000
O  45.90300 11.10100 31.90300
C  43.85300 9.95400 32.76700
C  44.34800 9.10300 33.81400
O  44.59700 7.93400 33.76600
O  44.34600 9.79100 35.03100
C  44.91400 9.05300 36.20700
H  38.10600 6.05000 32.48400
H  39.13700 5.39300 26.04800
H  44.52500 8.82800 26.51800
H  41.86400 8.23700 34.62000
H  38.93900 8.11400 34.22200
H  40.99100 6.39500 35.20000
H  39.92700 5.40400 34.21700
H  39.19400 6.30400 35.44700
H  40.16800 10.49200 33.72200
H  41.68700 10.65100 34.56500
H  40.27000 9.13400 36.42300
H  39.03700 10.08600 35.65100
H  36.11300 4.05100 30.93700
H  35.18900 5.28500 30.20100
H  36.19400 5.61100 31.59900
H  35.36400 3.36500 28.64500
H  34.83400 3.57200 27.06200
H  34.66700 4.99300 28.00400
H  40.50100 6.91800 24.46700
H  43.47700 6.65200 24.84700
H  41.80900 5.13800 23.53800
H  40.38800 4.58600 24.24700
H  41.94500 4.24400 24.98000
H  42.40600 7.93600 23.10400
H  43.61500 8.76500 23.79500
H  41.29800 9.71800 25.32800
H  40.73600 9.54100 23.61200
H  42.01600 10.58000 24.08400
H  46.88100 9.46300 28.25300
H  46.58500 11.08500 29.04500
H  45.84400 10.72500 27.47000
H  43.54800 10.92700 33.15100
H  44.47200 8.06400 36.32200
H  44.60500 9.47800 37.16200
H  46.00300 8.99900 36.23000
Mg 6.16100 53.94900 40.95800
C  5.72400 50.46400 40.85400
C  9.41100 53.50600 39.95900
C  6.26100 57.28200 40.27300
C  2.67900 54.09600 41.44900
N  7.38000 52.28900 40.37900
C  6.97800 50.95900 40.43900
C  8.12100 50.05700 40.03100
C  9.39700 50.92000 40.25800
C  8.68000 52.33200 40.12100
C  10.12400 50.66800 41.62200
C  7.96700 49.42500 38.66300
C  7.55900 50.41300 37.47500
H  6.36300 49.99900 36.49000
N  7.67100 55.19600 40.28100
C  8.95900 54.85800 40.03600
C  9.68800 56.07200 39.68700
C  8.83800 57.20300 39.84100
C  7.52300 56.61300 40.13100
C  11.14900 56.00400 39.38200
C  9.25200 58.75000 39.75400
O  10.39100 59.03600 39.59400
C  8.23700 59.80300 40.06000
N  4.68900 55.40700 40.79500
C  4.99200 56.72100 40.54300
C  3.73200 57.63500 40.40000
C  2.60300 56.62200 40.78300
C  3.32800 55.27100 40.96100
C  3.69400 58.80000 41.40300
C  1.36900 56.70400 39.90200
C  0.00500 56.70800 40.69600
N  4.53800 52.60700 41.40600
C  3.21500 52.84100 41.65600
C  2.51800 51.56700 41.96200
C  3.51200 50.62400 41.65300
C  4.68700 51.28600 41.35100
C  1.08100 51.40300 42.33600
C  3.72700 49.22300 41.59800
O  3.01100 48.30200 41.92300
C  5.16500 49.03900 40.94600
C  4.89600 48.33500 39.65600
O  4.22800 48.79600 38.74000
O  5.32100 47.02300 39.71400
C  4.92000 46.25200 38.56400
H  10.47100 53.31200 39.78800
H  6.28500 58.37000 40.17900
H  1.61400 54.22000 41.65400
H  8.13900 49.23400 40.74600
H  10.13200 50.79000 39.46400
H  11.19900 50.70900 41.44500
H  9.95100 49.62200 41.87500
H  9.74100 51.32700 42.40100
H  7.22900 48.63400 38.79600
H  8.94400 49.01800 38.40000
H  8.47100 50.67300 36.93700
H  7.08100 51.31300 37.86100
H  11.63200 55.41200 40.15900
H  11.81000 56.87100 39.37700
H  11.38700 55.56300 38.41400
H  7.46900 59.95000 39.30200
H  8.65300 60.79100 40.25800
H  7.79600 59.54600 41.02400
H  3.69600 58.08000 39.40600
H  2.26000 56.78200 41.80500
H  4.04800 59.66900 40.85000
H  4.44000 58.63100 42.18000
H  2.70600 58.94000 41.84000
H  1.38600 55.83000 39.25100
H  1.36500 57.55200 39.21600
H  -0.59000 57.55100 40.34400
H  0.00600 56.60000 41.78100
H  -0.36100 55.74100 40.35300
H  1.08600 50.54200 43.00500
H  0.54800 51.11600 41.43000
H  0.67400 52.26800 42.85900
H  5.77300 48.49700 41.67000
H  5.27100 46.75000 37.66000
H  3.84200 46.29300 38.40800
H  5.33300 45.25300 38.70400

