158

Mg 44.22500 5.10000 46.18700
C  42.44700 8.08900 45.92100
C  41.25100 3.42200 45.09200
C  45.91900 2.33700 45.61500
C  47.20000 6.91200 46.34300
N  42.06500 5.74700 45.44800
C  41.55200 7.01000 45.62100
C  40.07500 7.06300 45.51100
C  39.75400 5.52100 45.38400
C  41.07200 4.80600 45.29500
C  38.88900 4.79300 46.47000
C  39.46600 7.93600 44.41400
C  40.29600 8.07600 43.15000
H  39.62100 7.81100 41.79700
N  43.68300 3.08300 45.67500
C  42.44500 2.62700 45.25300
C  42.47400 1.21600 45.10000
C  43.82200 0.80200 45.26500
C  44.54900 2.07100 45.54400
C  41.31700 0.40900 44.82700
C  44.35800 -0.68100 45.17800
O  43.58600 -1.56700 44.79500
C  45.78000 -1.03300 45.56600
N  46.27900 4.71000 45.69300
C  46.72200 3.43800 45.70400
C  48.27100 3.37000 45.71500
C  48.64700 4.95600 45.72300
C  47.28700 5.56900 45.95800
C  48.87300 2.54200 46.91500
C  49.28400 5.47100 44.40700
C  50.87700 5.52300 44.41000
N  44.73300 7.11600 46.21700
C  45.98600 7.63900 46.39500
C  45.83500 9.02500 46.60700
C  44.48700 9.27000 46.47800
C  43.82400 8.06800 46.11200
C  46.91500 10.08500 46.82000
C  43.40200 10.27400 46.47300
O  43.43800 11.49700 46.62900
C  42.07100 9.58600 46.13100
C  41.10400 9.78300 47.19300
O  40.94300 9.03400 48.12000
O  40.24800 10.77200 46.91400
C  39.08600 10.92800 47.75900
H  40.34000 2.82000 45.08900
H  46.58100 1.47100 45.54200
H  48.13800 7.41000 46.59700
H  39.74700 7.40500 46.49300
H  39.14300 5.47800 44.48300
H  39.45200 4.74700 47.40200
H  38.74900 3.75300 46.17400
H  37.97300 5.38100 46.41200
H  39.19900 8.88200 44.88600
H  38.49900 7.56300 44.07600
H  41.16400 7.41800 43.11400
H  40.60000 9.11900 43.05600
H  41.44200 -0.15700 43.90400
H  40.35400 0.91400 44.90200
H  41.40400 -0.32500 45.62800
H  45.92000 -2.10800 45.67100
H  46.06700 -0.48600 46.46400
H  46.55000 -0.83300 44.82000
H  48.58800 2.87400 44.79800
H  49.27400 5.10100 46.60200
H  49.69200 3.07800 47.39500
H  49.37600 1.64100 46.56500
H  48.09700 2.33800 47.65200
H  48.92000 6.47700 44.20000
H  49.06100 4.72800 43.64100
H  51.13200 6.51900 44.04900
H  51.42000 4.84700 43.75100
H  51.21000 5.38200 45.43900
H  46.55900 11.11200 46.91000
H  47.49000 10.30700 45.92000
H  47.61800 9.78500 47.59700
H  41.72000 10.04700 45.20800
H  39.17400 11.68300 48.54000
H  38.79400 9.95000 48.14400
H  38.25300 11.32100 47.17600
Mg 46.51100 25.44900 28.14200
C  47.38100 27.88100 30.76700
C  45.11300 23.53600 30.66700
C  46.25100 23.08200 25.84800
C  48.21400 27.56700 25.84600
N  46.35100 25.74000 30.40700
C  46.70600 26.75500 31.26600
C  46.13800 26.56700 32.70800
C  45.65400 25.10900 32.69700
C  45.65600 24.74300 31.15700
C  46.49000 24.07700 33.56900
C  45.00900 27.56900 33.10200
C  45.29400 28.54400 34.23400
H  44.14000 28.83000 35.16100
N  45.65100 23.60000 28.23100
C  45.14300 22.95400 29.34300
C  44.60400 21.68600 28.95400
C  44.99400 21.51400 27.57900
C  45.70400 22.75900 27.13800
C  43.90300 20.74300 29.91600
C  44.73100 20.38200 26.67700
O  45.09100 20.47300 25.51000
C  44.11200 19.12100 27.11700
N  47.01800 25.40900 26.11200
C  46.81500 24.29600 25.32600
C  47.32200 24.47600 23.92200
C  47.81500 25.95200 23.91400
C  47.71700 26.29600 25.34900
C  48.40100 23.52100 23.36400
C  47.13800 26.91000 22.92400
C  45.82300 27.65200 23.42900
N  47.52200 27.40900 28.20500
C  48.15500 28.08300 27.15100
C  48.77400 29.24900 27.76200
C  48.39100 29.25000 29.13100
C  47.75800 28.05200 29.38700
C  49.60200 30.18800 26.98900
C  48.53300 30.00100 30.32500
O  48.95600 31.11200 30.57800
C  47.89500 29.06900 31.47400
C  48.86800 28.75200 32.54300
O  49.62500 27.74500 32.61200
O  48.82900 29.76500 33.46800
C  49.16500 29.30000 34.80600
H  44.65600 22.92400 31.44700
H  46.17800 22.44600 24.96400
H  48.88500 28.11600 25.18200
H  46.99300 26.60700 33.38200
H  44.59900 25.02500 32.95500
H  46.83700 23.29100 32.89800
H  45.79800 23.60200 34.26500
H  47.26700 24.36500 34.27800
H  44.16500 26.97300 33.44900
H  44.62700 28.05600 32.20400
H  45.45600 29.49500 33.72800
H  46.21400 28.35000 34.78500
H  43.15300 20.21200 29.33000
H  43.47600 21.22100 30.79700
H  44.78500 20.19000 30.24100
H  44.66400 18.78900 27.99700
H  44.25700 18.37900 26.33200
H  43.07600 19.24600 27.43000
H  46.42600 24.38600 23.30800
H  48.87100 25.95600 23.64400
H  48.77500 22.94600 24.21200
H  49.21600 23.94900 22.78000
H  47.94200 22.88800 22.60400
H  46.83300 26.56100 21.93700
H  47.85300 27.70100 22.69600
H  45.92400 28.72900 23.55900
H  45.60700 27.22400 24.40800
H  45.00700 27.46400 22.73100
H  49.59500 31.13900 27.52100
H  48.97800 30.36300 26.11300
H  50.63400 29.86300 26.85000
H  47.09500 29.68100 31.89000
H  50.17100 28.88200 34.78900
H  48.46400 28.52800 35.12600
H  49.11100 30.21300 35.39900

