158

Mg 8.94100 48.43100 25.88700
C  6.83600 49.11700 28.75600
C  11.53900 49.80500 27.77500
C  10.81400 48.14700 23.30200
C  5.91500 48.21400 24.03000
N  9.14900 49.24000 28.00100
C  8.17300 49.26300 28.99300
C  8.81100 49.62700 30.34900
C  10.14300 50.34700 29.91000
C  10.29900 49.73700 28.47800
C  9.98300 51.89400 29.82100
C  9.10800 48.41600 31.28600
C  9.38400 48.81800 32.80800
H  8.89200 47.90300 33.88200
N  10.91100 48.65800 25.66000
C  11.82300 49.24900 26.54000
C  13.10200 49.22700 26.00700
C  12.99000 48.66500 24.67700
C  11.51600 48.43700 24.49000
C  14.37500 49.49900 26.83900
C  14.00500 48.30700 23.62400
O  13.77600 47.70400 22.54700
C  15.45000 48.74800 23.83900
N  8.42300 48.35400 23.91000
C  9.42000 48.11600 23.11500
C  8.85700 47.80900 21.67100
C  7.33700 47.66400 21.92500
C  7.22000 48.14300 23.35600
C  9.18100 48.84800 20.58100
C  6.71000 46.21500 21.77800
C  5.51400 46.26900 20.81700
N  6.70200 48.57000 26.26600
C  5.64900 48.40100 25.39500
C  4.42600 48.71800 26.13800
C  4.89800 48.89100 27.49400
C  6.27100 48.81000 27.49300
C  3.03100 48.61200 25.58300
C  4.43300 49.17800 28.86200
O  3.28800 49.21600 29.28500
C  5.70600 49.45000 29.70500
C  5.65300 48.57100 30.83100
O  5.57100 47.36200 30.85300
O  5.56200 49.38300 31.94200
C  4.94200 48.74400 33.16700
H  12.26900 50.26800 28.44300
H  11.45800 48.22300 22.42400
H  5.12200 48.14800 23.28300
H  8.19000 50.33000 30.90400
H  11.01100 50.01100 30.47800
H  9.06000 52.24100 30.28400
H  10.08000 52.13300 28.76200
H  10.83800 52.29700 30.36400
H  9.95000 47.90000 30.82600
H  8.27600 47.71500 31.22300
H  8.78700 49.72500 32.90000
H  10.44200 48.90600 33.05500
H  14.21100 49.87800 27.84800
H  14.99000 50.12000 26.18700
H  14.91600 48.56100 26.96400
H  15.54500 49.71600 23.34700
H  16.20800 48.21000 23.27100
H  15.79500 48.87800 24.86500
H  9.22800 46.90500 21.19000
H  6.81500 48.40200 21.31600
H  9.52400 49.72300 21.13300
H  8.43100 49.04200 19.81300
H  10.07500 48.60200 20.00800
H  6.37500 45.92000 22.77200
H  7.52900 45.62700 21.36400
H  4.76200 45.72300 21.38600
H  5.78100 45.84000 19.85100
H  5.07800 47.25800 20.67500
H  2.90900 47.57800 25.26000
H  2.88600 49.39100 24.83500
H  2.35600 48.88800 26.39300
H  5.77000 50.46200 30.10300
H  4.40900 49.37000 33.88300
H  5.79900 48.22800 33.60000
H  4.19300 47.99400 32.91300
Mg 0.08100 43.85400 26.73400
C  2.34200 44.06200 29.31000
C  -2.50500 43.27600 29.04700
C  -1.85700 42.73500 24.26600
C  2.71000 44.31900 24.44700
N  -0.01700 43.75400 28.91800
C  1.00700 43.93300 29.81400
C  0.56500 43.91300 31.27200
C  -0.90400 43.36300 31.11500
C  -1.22900 43.54100 29.62400
C  -1.10400 41.99800 31.85600
C  0.71300 45.31400 32.00300
C  1.22600 45.35200 33.45500
H  0.91500 44.14600 34.20700
N  -2.00100 43.38200 26.64300
C  -2.86200 43.21600 27.69500
C  -4.17100 42.90100 27.18100
C  -4.09600 42.75500 25.79200
C  -2.60300 42.95500 25.48500
C  -5.43300 42.89800 28.11300
C  -5.08500 42.53800 24.75500
O  -4.81500 42.55900 23.55200
C  -6.50800 42.30500 25.19900
N  0.33300 43.48300 24.68000
C  -0.56000 42.89400 23.89200
C  -0.07500 42.62200 22.52400
C  1.23900 43.53900 22.49000
C  1.45900 43.82900 23.95700
C  0.23100 41.07400 22.18900
C  1.24200 44.75700 21.45300
C  1.78500 44.30900 20.04500
N  2.04200 44.11900 26.77700
C  3.04200 44.27900 25.79900
C  4.29400 44.44000 26.35100
C  4.10500 44.35700 27.73800
C  2.74700 44.11400 27.95300
C  5.54600 44.60300 25.68700
C  4.79600 44.41500 29.00100
O  5.97000 44.57700 29.29000
C  3.64800 44.21600 30.12400
C  4.03400 43.13900 31.09800
O  3.97300 41.92500 30.90500
O  4.58300 43.66500 32.16500
C  4.71000 42.65700 33.25900
H  -3.22100 43.00600 29.82600
H  -2.51800 42.11100 23.66000
H  3.46700 44.70400 23.76100
H  1.16300 43.18800 31.82400
H  -1.61400 43.96700 31.68000
H  -1.96800 42.07000 32.51600
H  -0.28000 41.65000 32.47800
H  -1.39100 41.23000 31.13800
H  -0.26900 45.78700 32.02400
H  1.40700 45.92900 31.43000
H  0.88200 46.24500 33.97700
H  2.31300 45.39900 33.38700
H  -5.27900 43.22600 29.14100
H  -5.70500 41.84300 28.13000
H  -6.25900 43.50800 27.74600
H  -7.06500 43.19900 25.47800
H  -6.47000 41.55800 25.99200
H  -7.08200 41.87600 24.37800
H  -0.83100 42.92100 21.79800
H  2.12800 42.94900 22.26900
H  1.15300 40.89300 21.63700
H  -0.65100 40.73900 21.64300
H  0.23400 40.64000 23.18900
H  1.86800 45.58500 21.78400
H  0.25200 45.21200 21.40300
H  1.27200 44.86500 19.26000
H  1.81500 43.22500 19.93600
H  2.82800 44.59300 19.90300
H  5.77400 45.65400 25.50500
H  5.46800 44.16800 24.69100
H  6.33100 44.08100 26.23500
H  3.56900 45.16900 30.64700
H  5.49900 41.92500 33.08700
H  3.80100 42.07300 33.40700
H  4.90400 43.20800 34.17900

