158

Mg -1.81800 17.27100 27.02000
C  -2.00300 15.20100 29.77300
C  -1.94300 19.90800 29.23400
C  -2.19900 19.27900 24.47100
C  -2.29100 14.44400 24.97600
N  -1.79800 17.53200 29.21400
C  -1.98000 16.53000 30.13400
C  -2.03400 17.08600 31.61000
C  -2.28400 18.62800 31.35000
C  -1.95500 18.69800 29.84100
C  -3.63800 19.15200 31.81400
C  -0.78000 16.72400 32.41200
C  -0.29100 17.66700 33.56700
H  -0.05000 16.81700 34.84600
N  -1.97400 19.39600 26.87100
C  -1.90500 20.30300 27.87400
C  -1.84700 21.63300 27.35500
C  -1.97800 21.48800 25.92400
C  -2.01500 20.02800 25.68500
C  -1.77900 22.93000 28.16600
C  -2.06500 22.60300 24.87500
O  -2.25500 22.25700 23.68800
C  -2.19000 24.08100 25.25400
N  -2.27700 16.87800 25.02600
C  -2.38500 17.93800 24.14300
C  -2.71800 17.42300 22.71000
C  -2.37400 15.88900 22.89200
C  -2.46500 15.69600 24.39400
C  -4.04800 17.80100 22.13700
C  -1.11400 15.32600 22.11100
C  0.16800 15.28200 23.01100
N  -1.92500 15.22000 27.21200
C  -2.19900 14.22000 26.30900
C  -2.29200 12.95700 27.02700
C  -2.23000 13.26600 28.40800
C  -2.04300 14.67400 28.44700
C  -2.68900 11.60800 26.43400
C  -2.38000 12.77300 29.68200
O  -2.45100 11.57700 30.04300
C  -2.29000 14.01000 30.64800
C  -1.21600 13.51800 31.57800
O  -0.00000 13.45600 31.30400
O  -1.79800 13.09900 32.74900
C  -0.80600 12.33400 33.58500
H  -2.08700 20.65300 30.01800
H  -2.34700 19.95100 23.62300
H  -2.45000 13.58600 24.32000
H  -2.88800 16.60600 32.08700
H  -1.52800 19.32200 31.71700
H  -4.10300 19.56900 30.92100
H  -3.57000 19.94100 32.56300
H  -4.27200 18.42300 32.31800
H  0.07400 16.64100 31.74000
H  -0.99300 15.76600 32.88600
H  -1.04100 18.45200 33.66700
H  0.63300 18.14600 33.24200
H  -2.56700 23.60300 27.82700
H  -0.81700 23.39300 27.94700
H  -1.83600 22.66200 29.22100
H  -1.23700 24.30600 25.73300
H  -3.10800 24.17100 25.83400
H  -2.28900 24.79800 24.43900
H  -2.08900 17.90400 21.96000
H  -3.18700 15.31300 22.45000
H  -3.84700 18.10700 21.11000
H  -4.55300 18.60200 22.67800
H  -4.71200 16.93600 22.12900
H  -0.84100 15.92500 21.24200
H  -1.27600 14.31200 21.74700
H  0.10800 15.63000 24.04200
H  1.07000 15.82300 22.72300
H  0.51600 14.25700 23.14100
H  -2.43400 10.90200 27.22400
H  -2.03500 11.24100 25.64300
H  -3.72600 11.51700 26.11000
H  -3.25600 14.05300 31.15000
H  -0.27700 11.55800 33.03200
H  -1.54300 11.88000 34.24800
H  -0.17400 12.95600 34.22000
Mg 6.57800 54.28300 42.18700
C  6.00300 50.81000 41.58700
C  9.57000 53.86200 40.57500
C  6.52800 57.55300 41.71500
C  3.25200 54.42000 43.24500
N  7.51000 52.54600 41.07300
C  7.18000 51.22200 40.99600
C  8.29100 50.37100 40.45200
C  9.56500 51.32000 40.64800
C  8.85000 52.69800 40.86500
C  10.60400 50.97400 41.62800
C  8.04700 49.86100 39.04700
C  7.30400 50.70900 38.06600
H  6.82200 50.19800 36.79500
N  7.95900 55.58100 41.38600
C  9.17900 55.21300 40.87900
C  9.95500 56.42600 40.76000
C  9.08100 57.52400 40.95100
C  7.74700 56.95100 41.30600
C  11.45600 56.46800 40.57800
C  9.38900 58.96200 40.73500
O  10.54700 59.30400 40.36100
C  8.43700 60.02600 40.81300
N  5.09000 55.73900 42.47500
C  5.30500 57.00500 42.19000
C  4.05900 57.91900 42.55500
C  2.98300 56.91300 42.77700
C  3.79600 55.58100 42.89100
C  4.38500 58.94600 43.69400
C  1.81200 56.76700 41.73800
C  0.49400 57.06000 42.34000
N  5.02600 52.92500 42.52500
C  3.80500 53.11300 43.16400
C  3.17400 51.90100 43.58700
C  3.99500 50.95400 42.87700
C  5.02400 51.61300 42.21400
C  2.02400 51.69000 44.53400
C  4.20500 49.57500 42.70500
O  3.56700 48.65800 43.13500
C  5.47400 49.37800 41.76700
C  5.11500 48.63200 40.48600
O  4.30800 48.99500 39.67700
O  5.79700 47.48800 40.32200
C  5.27300 46.53100 39.35700
H  10.61400 53.69500 40.30300
H  6.46200 58.64300 41.74600
H  2.24600 54.36700 43.66700
H  8.35300 49.51000 41.11700
H  10.06200 51.49700 39.69500
H  10.40400 49.99900 42.07300
H  10.56800 51.73800 42.40500
H  11.60600 50.92600 41.20100
H  7.78500 48.80300 39.07700
H  9.05600 49.77800 38.64300
H  7.95000 51.57800 37.93600
H  6.41200 51.10600 38.55000
H  11.65000 57.05500 39.68100
H  11.95200 55.51600 40.38700
H  11.97100 57.00000 41.37700
H  7.55600 59.83500 40.20200
H  8.87600 60.98200 40.52900
H  8.08800 60.04300 41.84600
H  3.71100 58.53200 41.72400
H  2.63200 57.14600 43.78200
H  5.44100 59.02600 43.95200
H  3.83100 58.59300 44.56400
H  3.99400 59.94200 43.48500
H  1.82100 55.80300 41.22900
H  2.10100 57.48800 40.97200
H  0.27500 56.41600 43.19200
H  -0.22600 56.79000 41.56700
H  0.49300 58.08900 42.70000
H  1.87600 52.53900 45.20100
H  2.17200 50.77100 45.10200
H  1.13300 51.67700 43.90600
H  6.19500 48.78000 42.32500
H  5.76000 45.57200 39.53200
H  5.38900 46.90000 38.33800
H  4.23500 46.31500 39.61000

