158

Mg 17.67000 -1.49400 28.15200
C  16.29200 0.52700 30.66200
C  19.38800 -3.12700 30.65300
C  19.32700 -3.29900 25.86000
C  15.97300 0.20500 25.74200
N  17.76500 -1.18000 30.43200
C  17.13300 -0.37500 31.25900
C  17.48500 -0.62000 32.77500
C  18.63400 -1.66700 32.68400
C  18.65200 -2.01400 31.18100
C  20.09200 -1.18100 33.07600
C  16.14500 -0.92500 33.51500
C  16.09100 -0.30700 34.93100
H  17.03400 -0.83600 35.99100
N  19.06600 -3.02100 28.27800
C  19.62900 -3.57300 29.38200
C  20.43900 -4.73100 28.97400
C  20.55300 -4.71000 27.53000
C  19.64000 -3.65900 27.15800
C  21.11400 -5.63000 29.99800
C  21.24600 -5.67900 26.63200
O  21.24500 -5.71800 25.39400
C  22.05800 -6.87500 27.21100
N  17.74300 -1.39500 26.07200
C  18.47800 -2.31900 25.39600
C  18.17600 -2.14900 23.85000
C  17.12400 -1.01000 23.75400
C  16.93000 -0.71600 25.26200
C  19.46200 -1.86000 23.06000
C  15.69400 -1.43900 23.08200
C  14.93000 -0.40700 22.15600
N  16.52800 0.10700 28.08300
C  15.84200 0.73200 27.06100
C  15.04700 1.80500 27.59200
C  15.19900 1.71200 28.93300
C  16.09200 0.67200 29.24900
C  14.00100 2.63600 26.87400
C  14.74500 2.38200 30.20500
O  13.93400 3.26400 30.47600
C  15.56500 1.70800 31.31500
C  16.55100 2.72600 31.87100
O  17.53600 3.08800 31.23200
O  16.22800 3.10600 33.14300
C  17.18400 3.95200 33.86300
H  19.88600 -3.63600 31.48100
H  19.91200 -3.82100 25.10000
H  15.34000 0.77600 25.06000
H  17.93700 0.28700 33.17800
H  18.37600 -2.57300 33.23200
H  20.67000 -2.06300 33.35200
H  20.14100 -0.46300 33.89400
H  20.54500 -0.68500 32.21800
H  16.23800 -2.00200 33.65000
H  15.23700 -0.61600 32.99800
H  15.12600 -0.63900 35.31400
H  16.05300 0.77700 34.82500
H  22.11800 -5.70400 29.58100
H  20.54500 -6.55800 30.06500
H  21.32500 -5.26700 31.00300
H  21.36100 -7.19700 27.98500
H  23.00500 -6.58600 27.66700
H  22.06600 -7.67300 26.46900
H  17.80400 -3.12100 23.52400
H  17.63200 -0.17200 23.27800
H  20.18100 -1.35000 23.70100
H  19.26600 -1.21500 22.20400
H  19.96700 -2.78600 22.78300
H  15.01100 -1.55300 23.92400
H  15.79300 -2.37500 22.53300
H  14.56500 -0.86800 21.23800
H  15.48000 0.51900 21.99000
H  14.10400 -0.00300 22.74100
H  14.46800 3.48900 26.38200
H  13.16200 2.93600 27.50200
H  13.62500 1.95700 26.11000
H  14.93200 1.37000 32.13600
H  16.84600 3.60800 34.84100
H  16.85900 4.99000 33.79000
H  18.18700 3.86600 33.44600
Mg 47.34100 25.08600 29.20200
C  48.27000 27.24900 31.82900
C  46.02200 22.93900 31.64300
C  46.71900 22.88400 26.66900
C  48.82500 27.16600 26.92300
N  47.26800 25.05200 31.58400
C  47.63000 26.09800 32.36600
C  47.23200 25.87800 33.83900
C  46.73600 24.38900 33.74900
C  46.52200 24.13200 32.22100
C  47.62800 23.37600 34.36400
C  46.07300 26.80500 34.24500
C  46.30100 27.64700 35.49300
H  46.85600 26.93600 36.71300
N  46.48400 23.22800 29.11400
C  46.03700 22.49900 30.28100
C  45.47400 21.18600 29.76600
C  45.62000 21.20200 28.35100
C  46.36700 22.50000 28.02800
C  44.96300 20.19600 30.75200
C  45.09400 20.13300 27.29500
O  45.23300 20.29600 26.11000
C  44.37400 18.99600 27.87400
N  48.02200 24.86600 27.14100
C  47.50700 23.96800 26.34000
C  47.99400 24.15900 24.91700
C  48.30700 25.65200 24.85100
C  48.42500 25.92900 26.36900
C  49.20800 23.25700 24.50300
C  47.14400 26.46100 24.26900
C  47.63000 27.83600 23.75100
N  48.26600 26.82300 29.33300
C  48.84100 27.63300 28.29500
C  49.32700 28.81100 28.85100
C  49.11300 28.67400 30.24300
C  48.49800 27.43800 30.51200
C  50.16300 29.78600 28.10300
C  49.32500 29.37500 31.52000
O  49.83600 30.43000 31.71800
C  48.80000 28.46300 32.59700
C  49.84700 28.10700 33.50700
O  50.75900 27.25800 33.35100
O  49.70500 28.81400 34.69500
C  50.87300 28.93300 35.63100
H  45.51900 22.37400 32.43100
H  46.42000 22.21600 25.85800
H  49.00600 28.00800 26.25100
H  48.09300 25.98900 34.49900
H  45.78000 24.29800 34.26600
H  48.66800 23.60200 34.12700
H  47.45400 22.39700 33.91900
H  47.52000 23.38800 35.44900
H  45.14900 26.22800 34.28400
H  45.91400 27.44500 33.37700
H  45.39700 28.23200 35.66400
H  46.94900 28.49800 35.28300
H  43.92300 20.48500 30.89900
H  45.41600 20.28900 31.74000
H  45.05100 19.14600 30.47200
H  45.13200 18.45800 28.44400
H  44.11800 18.36900 27.02000
H  43.43200 19.31100 28.32300
H  47.18500 23.86600 24.24800
H  49.29300 25.87900 24.44600
H  50.10000 23.88100 24.46100
H  49.13200 22.80700 23.51300
H  49.30600 22.49200 25.27300
H  46.35200 26.58900 25.00700
H  46.80400 25.96400 23.36000
H  48.71600 27.86400 23.67000
H  47.23400 28.75200 24.19000
H  47.23900 27.86000 22.73400
H  49.57200 30.45800 27.48100
H  50.93800 29.31800 27.49700
H  50.58700 30.38700 28.90700
H  48.00300 29.05500 33.04800
H  51.68900 28.25000 35.39600
H  50.54200 28.55600 36.59800
H  51.18800 29.96400 35.79600

