158

Mg 54.08000 23.89000 44.87700
C  51.82400 26.45600 43.74800
C  51.78000 21.60500 43.75400
C  56.41800 21.73600 45.29700
C  56.22200 26.53800 46.04500
N  52.06700 24.04200 43.69800
C  51.38900 25.18800 43.44100
C  50.05600 24.81900 42.75500
C  49.76900 23.42100 43.33200
C  51.30400 22.95800 43.63200
C  48.86800 23.46200 44.57000
C  50.09400 24.81800 41.21400
C  48.77500 25.27300 40.51200
H  48.31600 24.46300 39.29600
N  54.10900 21.90400 44.44200
C  53.06200 21.13300 44.13000
C  53.43400 19.73800 44.32300
C  54.83200 19.67400 44.66000
C  55.22600 21.16400 44.80600
C  52.51400 18.47800 43.85200
C  55.65800 18.40600 44.90400
O  55.17000 17.31000 44.85900
C  57.14100 18.50400 45.06400
N  56.15200 24.15800 45.40300
C  56.84300 23.03300 45.73100
C  58.22700 23.25300 46.28100
C  58.07500 24.80700 46.62200
C  56.70600 25.25100 45.99900
C  58.72200 22.39300 47.37500
C  59.27400 25.53000 45.95900
C  60.53400 25.64900 46.87700
N  54.05300 26.04700 44.99400
C  54.92800 26.90400 45.53600
C  54.26200 28.21500 45.65400
C  53.03900 28.09500 44.96000
C  52.99400 26.76700 44.49900
C  54.87600 29.44700 46.19900
C  51.82300 28.82500 44.46100
O  51.46800 29.99300 44.62100
C  50.98100 27.72900 43.67000
C  50.80200 28.27100 42.26200
O  51.70300 28.27400 41.41700
O  49.50000 28.69700 42.07900
C  49.10600 29.23300 40.76900
H  51.03400 20.84000 43.52700
H  57.12700 21.04600 45.75700
H  56.73900 27.41500 46.43900
H  49.26100 25.48300 43.09100
H  49.10100 22.85000 42.68800
H  48.06600 22.73600 44.43500
H  48.34300 24.38900 44.79700
H  49.38600 23.06000 45.44100
H  50.26700 23.81500 40.82500
H  50.94900 25.44600 40.96400
H  48.97600 26.30300 40.21800
H  47.96500 25.16200 41.23300
H  52.56900 18.41600 42.76500
H  51.48000 18.69200 44.12400
H  52.64300 17.44200 44.16500
H  57.55600 17.50800 44.91200
H  57.29800 18.88000 46.07500
H  57.41700 19.12400 44.21100
H  58.98300 23.03200 45.52700
H  58.22600 25.05900 47.67200
H  59.44500 21.74600 46.87900
H  57.94300 21.77100 47.81600
H  59.13000 23.05000 48.14400
H  59.01500 26.56700 45.74300
H  59.59500 25.06200 45.02800
H  60.52700 25.38000 47.93400
H  60.81400 26.70200 46.85200
H  61.41900 25.17200 46.45600
H  54.15700 30.26700 46.20500
H  55.69900 29.64800 45.51300
H  55.12100 29.19600 47.23100
H  49.98600 27.74600 44.11400
H  49.76200 29.99900 40.35400
H  48.08000 29.59900 40.77000
H  49.14100 28.41500 40.05000
Mg 8.44900 48.05000 26.22100
C  6.61700 47.91900 29.17800
C  11.21600 48.90700 28.04800
C  10.23000 48.14600 23.34500
C  5.59600 47.29400 24.46900
N  8.84400 48.39600 28.42200
C  7.94900 48.23000 29.44100
C  8.66700 48.39100 30.82200
C  9.98400 48.99300 30.36400
C  10.02800 48.75200 28.86200
C  10.20100 50.40200 30.90900
C  8.75200 46.97000 31.64900
C  9.50600 47.12200 32.91200
H  8.76100 47.35600 34.19900
N  10.42200 48.37100 25.72800
C  11.42900 48.63500 26.65700
C  12.69800 48.74600 25.92100
C  12.48800 48.39700 24.59500
C  10.99400 48.29100 24.53700
C  13.93100 49.07800 26.60600
C  13.43200 48.21700 23.55000
O  13.04000 48.01400 22.40700
C  14.94200 48.29700 23.81000
N  7.94000 48.01100 24.15200
C  8.90000 48.02300 23.13200
C  8.23800 47.70300 21.81400
C  6.80300 47.28600 22.15300
C  6.75000 47.56000 23.71700
C  8.27400 48.76800 20.71800
C  6.53800 45.83800 21.73200
C  7.19200 44.77000 22.63900
N  6.51700 47.70000 26.64500
C  5.48200 47.37900 25.84300
C  4.30600 47.12000 26.62600
C  4.69800 47.40700 27.96100
C  6.02400 47.72400 27.95900
C  2.89900 46.84200 26.17300
C  4.24200 47.55700 29.25900
O  3.12000 47.49200 29.75800
C  5.49300 47.69100 30.15300
C  5.55600 46.41600 30.91600
O  5.76400 45.32900 30.40600
O  5.24000 46.62300 32.23800
C  5.00400 45.41400 33.08200
H  12.14000 49.14900 28.57700
H  10.80100 47.93300 22.43900
H  4.68700 47.07000 23.90700
H  8.11500 49.07000 31.47100
H  10.79000 48.37400 30.75700
H  10.53600 51.05900 30.10700
H  10.90800 50.29500 31.73100
H  9.24900 50.80000 31.25900
H  9.26200 46.24300 31.01700
H  7.72100 46.64500 31.78600
H  10.25800 47.91100 32.88300
H  10.21400 46.29300 32.93900
H  14.66700 48.27300 26.59800
H  13.82200 49.42500 27.63400
H  14.42700 49.90700 26.10100
H  15.14600 47.56700 24.59300
H  15.30000 49.31500 23.96600
H  15.46600 47.73800 23.03500
H  8.81600 46.85600 21.44500
H  6.14000 47.96600 21.61800
H  8.02800 49.75000 21.12200
H  7.44200 48.45000 20.09000
H  9.22800 48.67700 20.19800
H  6.97800 45.81900 20.73500
H  5.46900 45.76700 21.52900
H  6.43000 44.17900 23.14700
H  7.79200 45.25700 23.40900
H  7.90600 44.12900 22.12100
H  2.83900 46.49500 25.14100
H  2.26900 47.72900 26.25200
H  2.39600 46.05900 26.74000
H  5.45700 48.47700 30.90700
H  4.26100 44.74500 32.64700
H  4.59000 45.65900 34.06000
H  5.97900 44.96600 33.26800

