158

Mg 24.35800 -4.77600 45.83600
C  26.69600 -2.61400 44.34800
C  21.94900 -3.63400 43.73200
C  22.41600 -7.38900 47.01300
C  26.92700 -5.98000 47.87600
N  24.39000 -3.36300 44.20500
C  25.41100 -2.56300 43.74300
C  24.99700 -1.75200 42.52500
C  23.48200 -1.75400 42.67000
C  23.20000 -2.99000 43.60400
C  22.83000 -0.49200 43.28700
C  25.66700 -2.24600 41.23600
C  26.23500 -1.13000 40.31900
H  25.74400 -1.20400 38.78800
N  22.46500 -5.48800 45.41900
C  21.60600 -4.81000 44.51000
C  20.36000 -5.48600 44.46600
C  20.42700 -6.56000 45.37900
C  21.79300 -6.52900 46.01000
C  19.29900 -4.86400 43.57600
C  19.24000 -7.50700 45.76500
O  18.15700 -7.39200 45.20900
C  19.31500 -8.55900 46.88500
N  24.68300 -6.53600 47.11500
C  23.65300 -7.35400 47.58400
C  24.17300 -8.43800 48.54300
C  25.55000 -7.87900 48.93300
C  25.70400 -6.69700 47.98100
C  23.23300 -8.82600 49.75800
C  26.68600 -8.93800 48.76600
C  27.47000 -9.33000 50.07200
N  26.37400 -4.35500 46.16200
C  27.33200 -4.96900 47.03200
C  28.58000 -4.29900 46.75200
C  28.36900 -3.37500 45.75000
C  27.02800 -3.42700 45.40500
C  29.89900 -4.79300 47.43900
C  29.04600 -2.42100 44.87300
O  30.22600 -2.07000 44.75200
C  27.95300 -1.91900 43.88100
C  27.90500 -0.41700 43.79000
O  27.46400 0.34000 44.63400
O  28.48800 0.00700 42.59600
C  28.24700 1.43500 42.31100
H  21.15900 -3.20100 43.11500
H  21.77100 -8.21400 47.32300
H  27.85200 -6.32500 48.34300
H  25.24600 -0.69200 42.55400
H  23.11600 -1.89800 41.65400
H  21.85200 -0.80900 43.65100
H  22.44100 0.14700 42.49300
H  23.42700 0.04600 44.02300
H  24.85400 -2.76600 40.72900
H  26.38700 -2.98900 41.58000
H  27.32200 -1.19500 40.29100
H  26.13600 -0.09300 40.64000
H  18.45800 -5.54400 43.44300
H  19.79000 -4.63600 42.63000
H  19.04000 -3.91600 44.04900
H  18.35200 -9.02200 47.09600
H  19.57900 -8.07000 47.82300
H  19.99200 -9.38600 46.66900
H  24.34800 -9.34700 47.96700
H  25.48800 -7.50200 49.95400
H  23.21300 -9.91100 49.86500
H  22.20600 -8.56100 49.50600
H  23.44700 -8.37600 50.72800
H  27.51500 -8.44000 48.26400
H  26.40200 -9.79500 48.15500
H  27.05200 -10.29200 50.37100
H  27.21000 -8.64900 50.88200
H  28.54800 -9.32300 49.91200
H  30.20200 -5.73500 46.98200
H  29.87600 -4.99500 48.51000
H  30.72200 -4.15400 47.11900
H  28.27700 -2.37300 42.94500
H  27.29300 1.83800 42.65100
H  28.29400 1.68100 41.25000
H  29.05400 2.04900 42.71100
Mg 48.46200 45.38000 42.63900
C  44.86000 45.27000 42.12300
C  48.41400 41.99300 42.26400
C  51.79700 45.52500 42.60400
C  48.18700 48.94000 42.51400
N  46.85400 43.83800 42.10200
C  45.47100 44.02800 42.03600
C  44.71300 42.70900 41.82600
C  45.85700 41.63600 41.94000
C  47.13700 42.49300 42.22200
C  45.57400 40.48600 43.03100
C  43.96400 42.70600 40.50300
C  44.69800 43.29000 39.30300
H  44.95100 42.35900 38.06400
N  50.00100 43.95500 42.44600
C  49.79100 42.55500 42.33300
C  51.11600 41.92500 42.30900
C  52.08500 42.90600 42.41300
C  51.31600 44.21000 42.53100
C  51.24900 40.43700 42.14300
C  53.63700 42.80700 42.37400
O  54.16300 41.73600 42.18800
C  54.56700 43.96600 42.75300
N  49.77300 46.93000 42.74300
C  51.09100 46.71200 42.71700
C  51.79800 48.11000 42.70500
C  50.64300 49.10000 42.83600
C  49.47100 48.28300 42.56100
C  52.97000 48.30600 43.68300
C  50.88700 50.43300 42.09000
C  50.76200 51.84900 42.74100
N  46.82200 46.85000 42.62200
C  46.92600 48.27200 42.53700
C  45.48100 48.78800 42.57100
C  44.66500 47.65400 42.37300
C  45.50800 46.52800 42.35900
C  45.02800 50.23200 42.37900
C  43.26000 47.17600 42.23700
O  42.16200 47.74800 42.26500
C  43.38000 45.64800 42.04400
C  42.53200 44.97000 43.03800
O  41.52900 44.34900 42.83700
O  43.02600 45.12900 44.33800
C  42.39100 44.27100 45.37100
H  48.34700 40.94800 42.57400
H  52.82700 45.76700 42.33200
H  48.16400 50.03100 42.53000
H  43.88500 42.69500 42.53400
H  45.95800 41.05900 41.02100
H  45.71700 39.46000 42.69200
H  44.52000 40.50100 43.30800
H  46.19900 40.65000 43.90800
H  43.03200 43.18500 40.80100
H  43.77500 41.66700 40.23000
H  45.68600 43.65900 39.57700
H  44.14900 44.12500 38.86800
H  50.38500 40.20000 41.52200
H  51.25500 40.11100 43.18300
H  52.11900 40.09800 41.58100
H  54.06300 44.43700 43.59700
H  54.50200 44.57300 41.85000
H  55.51900 43.51600 43.03600
H  52.23600 48.23200 41.71400
H  50.58100 49.39400 43.88400
H  52.81000 48.99000 44.51700
H  53.81600 48.58700 43.05500
H  53.29400 47.37100 44.14200
H  50.16100 50.40900 41.27700
H  51.91600 50.39100 41.73300
H  51.72100 52.35200 42.61300
H  50.61400 51.77100 43.81800
H  49.99500 52.51400 42.34400
H  43.96100 50.40700 42.24600
H  45.55500 50.71100 41.55300
H  45.44800 50.78200 43.22100
H  43.10600 45.52200 40.99600
H  41.30400 44.32900 45.30400
H  42.81000 44.49000 46.35300
H  42.68900 43.26400 45.07800

