158

Mg 7.58700 2.55600 27.08700
C  8.86800 1.20800 30.01700
C  5.47800 4.51000 28.99700
C  6.07300 3.63100 24.21300
C  8.97200 -0.13200 25.34600
N  7.06300 2.70900 29.28700
C  7.88300 2.16700 30.24800
C  7.48200 2.76900 31.60800
C  6.22800 3.71000 31.30700
C  6.28300 3.67000 29.77800
C  4.89000 3.06300 31.69700
C  8.64800 3.52400 32.23500
C  8.38500 3.96100 33.67200
H  9.41200 3.58000 34.79100
N  6.05900 3.93700 26.62400
C  5.30300 4.55700 27.55400
C  4.33300 5.44900 26.87900
C  4.61700 5.38200 25.52100
C  5.61700 4.26200 25.38900
C  3.39600 6.35300 27.63000
C  4.18400 6.21200 24.36500
O  4.43100 5.96500 23.19600
C  3.20400 7.37000 24.63900
N  7.46300 1.86300 25.13500
C  6.92000 2.57100 24.14600
C  7.10200 1.86300 22.83800
C  8.22900 0.72500 23.09700
C  8.17800 0.80800 24.64500
C  5.89200 1.32200 22.03400
C  9.59600 1.16500 22.44600
C  10.46400 2.09000 23.27700
N  8.68300 0.86900 27.48800
C  9.23900 -0.05000 26.71900
C  10.26900 -0.75500 27.43300
C  10.08000 -0.27500 28.75100
C  9.13200 0.71000 28.71800
C  11.24900 -1.77500 26.99600
C  10.51800 -0.54400 30.07600
O  11.30000 -1.37300 30.51700
C  9.82100 0.46400 30.95100
C  9.19000 -0.08400 32.14800
O  8.21700 -0.82200 32.25300
O  9.97800 0.26200 33.23800
C  9.43300 -0.06400 34.56800
H  4.96900 5.29100 29.56500
H  5.74100 3.94200 23.22100
H  9.50300 -0.92000 24.80800
H  7.26400 1.95700 32.30100
H  6.55500 4.65800 31.73500
H  4.44800 3.57400 32.55200
H  4.96200 1.99200 31.89200
H  4.14300 2.94400 30.91200
H  8.68900 4.50600 31.76400
H  9.57100 2.94600 32.17500
H  7.38500 3.68700 34.00800
H  8.42200 5.04800 33.74500
H  3.91800 7.30400 27.73700
H  3.31000 5.95600 28.64100
H  2.48300 6.43500 27.04000
H  2.22800 6.93300 24.84800
H  3.25900 8.02400 23.76900
H  3.52500 7.95300 25.50200
H  7.63700 2.52500 22.15600
H  7.89300 -0.25800 22.76400
H  5.06800 1.23700 22.74300
H  5.98200 0.33500 21.58000
H  5.75400 2.11600 21.30000
H  9.38300 1.64400 21.49000
H  10.03000 0.18600 22.24400
H  10.08800 2.23500 24.29000
H  10.57900 3.13400 22.98500
H  11.44100 1.61000 23.33600
H  11.08700 -1.76200 25.91800
H  10.88800 -2.73800 27.35700
H  12.30100 -1.53400 27.15200
H  10.47800 1.26400 31.29100
H  9.35300 -1.14600 34.67800
H  8.41100 0.30000 34.66700
H  10.05300 0.26000 35.40400
Mg -2.00500 33.50300 27.37400
C  -3.74800 31.49800 29.48000
C  -0.79400 35.29300 30.15900
C  -0.29800 35.77300 25.34500
C  -3.32900 32.16500 24.63700
N  -2.45000 33.56600 29.59600
C  -3.09800 32.54600 30.20000
C  -2.93400 32.65800 31.75200
C  -1.83500 33.72200 31.98600
C  -1.76300 34.32800 30.54600
C  -2.18000 35.02000 32.87900
C  -2.64900 31.27800 32.50900
C  -3.41000 30.96200 33.75500
H  -2.58300 30.76100 35.02500
N  -0.78400 35.34700 27.75600
C  -0.37300 35.84500 28.91500
C  0.52800 36.93400 28.70600
C  0.74600 37.10400 27.30700
C  -0.12400 36.07900 26.73100
C  1.05700 37.83400 29.82500
C  1.70400 38.13300 26.60700
O  1.84000 38.14700 25.41000
C  2.56300 39.01800 27.37400
N  -1.93500 33.99800 25.34000
C  -1.16300 34.89200 24.69900
C  -1.16600 34.77800 23.16100
C  -1.97000 33.42600 22.96100
C  -2.44700 33.21000 24.39200
C  -1.83700 35.96000 22.47700
C  -1.11800 32.24400 22.43200
C  -1.46100 31.77800 21.05300
N  -3.39600 32.15500 27.07100
C  -3.81400 31.60100 25.89900
C  -4.78700 30.55900 26.15900
C  -4.78700 30.40500 27.58300
C  -3.90000 31.40500 28.09500
C  -5.44200 29.76300 25.13700
C  -5.26300 29.68400 28.70600
O  -6.05200 28.71100 28.70500
C  -4.66400 30.35200 29.94400
C  -5.74800 30.78300 30.90700
O  -6.51400 31.79200 30.87500
O  -5.81100 29.73000 31.81200
C  -6.94300 29.62400 32.73200
H  -0.26700 35.70100 31.02300
H  0.17200 36.51500 24.69600
H  -3.51800 31.52900 23.76900
H  -3.87500 33.07000 32.11800
H  -0.94500 33.23200 32.37800
H  -2.61200 35.83700 32.30200
H  -1.29100 35.37700 33.39700
H  -2.84000 34.60400 33.64100
H  -1.57700 31.24700 32.69900
H  -2.79200 30.45300 31.81100
H  -3.86700 30.00100 33.51600
H  -4.32400 31.55300 33.81700
H  2.09800 37.58100 30.02800
H  0.42900 37.55400 30.67100
H  1.03500 38.89900 29.59200
H  2.04100 39.74900 27.99100
H  3.21000 39.51000 26.64700
H  3.21100 38.35800 27.95000
H  -0.12600 34.68700 22.84800
H  -2.89800 33.68000 22.44800
H  -2.59100 36.32700 23.17400
H  -2.44600 35.73500 21.60200
H  -1.09000 36.73200 22.29000
H  -1.13200 31.41000 23.13400
H  -0.09300 32.61100 22.37600
H  -1.87800 30.77900 20.93400
H  -0.55600 31.74600 20.44600
H  -2.11500 32.47500 20.52900
H  -6.29700 30.34900 24.79700
H  -5.76600 28.79100 25.50800
H  -4.72600 29.64700 24.32300
H  -4.03200 29.59600 30.41100
H  -6.50200 29.65000 33.72800
H  -7.40100 28.63800 32.65900
H  -7.71500 30.38200 32.59400

