158

Mg 23.90000 -5.58400 45.66500
C  26.49300 -3.57100 44.42100
C  21.67100 -3.89400 43.60500
C  21.83800 -8.25800 45.86600
C  26.43700 -7.50000 47.35500
N  24.09300 -3.88000 44.36400
C  25.21800 -3.16600 43.96900
C  24.86100 -2.07200 42.90400
C  23.37900 -1.88600 43.20300
C  23.01400 -3.29300 43.77100
C  23.03500 -0.76400 44.23700
C  25.12900 -2.56800 41.44600
C  25.45900 -1.41000 40.52300
H  24.73600 -1.26400 39.17300
N  21.95500 -5.96000 44.88400
C  21.22800 -5.15400 44.05600
C  19.99000 -5.79600 43.66600
C  20.00800 -7.08400 44.32700
C  21.26600 -7.16300 45.10800
C  19.02500 -5.20000 42.68500
C  18.89300 -8.05100 44.36400
O  17.87000 -7.78800 43.67300
C  18.81300 -9.18900 45.35900
N  24.09400 -7.53500 46.64000
C  23.08500 -8.46900 46.50900
C  23.46200 -9.72900 47.31300
C  24.96200 -9.48200 47.75400
C  25.17600 -8.07700 47.23100
C  22.52500 -10.17200 48.52100
C  25.97700 -10.46400 47.11600
C  25.66600 -11.93100 47.33900
N  25.95700 -5.46200 46.03200
C  26.84700 -6.32700 46.67300
C  28.19900 -5.82300 46.52700
C  28.09900 -4.73300 45.69700
C  26.75000 -4.59100 45.35900
C  29.35900 -6.46600 47.13600
C  28.83500 -3.78000 44.95700
O  30.04900 -3.52500 45.02600
C  27.78300 -2.91300 44.10200
C  27.82400 -1.45400 44.45300
O  27.33600 -0.92300 45.42000
O  28.41300 -0.82200 43.41400
C  28.20600 0.66800 43.43500
H  21.05000 -3.32800 42.90700
H  21.22300 -9.15800 45.93800
H  27.14400 -8.11000 47.92200
H  25.42700 -1.16200 43.10500
H  22.74700 -1.58100 42.37000
H  22.67200 -1.24700 45.14400
H  22.27000 -0.13900 43.77600
H  23.94600 -0.22100 44.48900
H  24.25700 -3.02100 40.97500
H  25.93700 -3.29900 41.43100
H  26.52300 -1.57400 40.34800
H  25.34000 -0.50800 41.12400
H  19.52600 -4.49700 42.01900
H  18.30500 -4.63100 43.27300
H  18.46500 -5.92600 42.09700
H  17.73700 -9.36200 45.36800
H  19.09000 -8.83100 46.35100
H  19.36100 -10.06400 45.01000
H  23.39000 -10.53200 46.58000
H  25.07900 -9.48100 48.83700
H  21.59500 -9.60300 48.52100
H  23.03100 -10.04100 49.47700
H  22.35300 -11.24800 48.55200
H  26.91700 -10.16700 47.58200
H  25.97100 -10.15300 46.07200
H  26.47500 -12.34800 47.93900
H  25.38100 -12.47800 46.44000
H  24.80300 -11.98200 48.00300
H  29.17300 -6.91600 48.11100
H  30.22100 -5.80200 47.21000
H  29.77900 -7.29800 46.56900
H  27.87300 -3.05700 43.02600
H  28.83800 1.05400 44.23500
H  27.14000 0.76100 43.64700
H  28.40800 1.19300 42.50100
Mg 27.27700 50.15600 25.71300
C  25.41000 51.51200 28.46700
C  29.50800 49.08300 28.10600
C  28.97200 48.99900 23.24100
C  25.02600 51.69100 23.45300
N  27.39600 50.25800 28.04700
C  26.47000 50.70500 28.92300
C  26.92900 50.46400 30.37600
C  28.25500 49.62700 30.17300
C  28.41900 49.67700 28.72000
C  29.36100 50.11100 31.06100
C  25.79200 49.71700 31.14500
C  25.22700 50.33300 32.51200
H  26.29100 50.61300 33.63900
N  28.98500 49.23400 25.63800
C  29.80600 48.93800 26.69300
C  30.91900 48.17300 26.18600
C  30.78000 48.07700 24.82600
C  29.58000 48.83700 24.47900
C  32.04900 47.65300 27.06000
C  31.55900 47.23000 23.84800
O  31.23400 47.16500 22.66400
C  32.87400 46.48300 24.28300
N  27.06600 50.40200 23.68300
C  27.85500 49.69500 22.80000
C  27.61800 50.11800 21.35400
C  26.15700 50.65200 21.41100
C  26.04500 50.97100 22.93700
C  28.59300 51.12300 20.85000
C  25.20600 49.59000 20.90300
C  24.59600 48.42100 21.79700
N  25.61900 51.42000 25.88700
C  24.76700 51.89900 24.84500
C  23.67900 52.64400 25.54700
C  23.89700 52.50200 26.93800
C  25.06000 51.70500 27.11000
C  22.53100 53.31000 24.90100
C  23.27600 52.84000 28.22100
O  22.30300 53.50200 28.48800
C  24.28900 52.21900 29.27600
C  24.80000 53.31600 30.10900
O  25.87100 53.92900 29.93000
O  23.90400 53.49600 31.16100
C  24.23300 54.44900 32.17800
H  30.17600 48.56100 28.79500
H  29.50800 48.76200 22.32000
H  24.30400 52.00800 22.69800
H  27.13200 51.41700 30.86200
H  28.06900 48.59400 30.46500
H  30.25300 50.10300 30.43400
H  29.61200 49.51000 31.93500
H  29.30100 51.17200 31.30200
H  26.17600 48.71300 31.32400
H  24.89300 49.57900 30.54400
H  24.58700 49.55200 32.91900
H  24.78800 51.23900 32.09400
H  32.96800 47.85200 26.50800
H  31.94800 46.58700 27.25900
H  32.13900 48.21400 27.99000
H  33.02600 45.91100 23.36800
H  32.64300 45.72100 25.02700
H  33.78200 47.06000 24.45700
H  27.69100 49.25400 20.69400
H  26.09000 51.54800 20.79500
H  29.29600 51.30100 21.66400
H  28.04300 51.99500 20.49600
H  29.21800 50.68500 20.07200
H  25.63800 49.02900 20.07400
H  24.34600 50.15700 20.54500
H  24.69800 48.55200 22.87400
H  25.15500 47.50700 21.59700
H  23.55300 48.27600 21.51700
H  21.66900 52.64400 24.92500
H  22.74100 53.59900 23.87100
H  22.35600 54.18900 25.52200
H  23.64800 51.59700 29.90100
H  25.12900 54.10900 32.69800
H  23.39800 54.67000 32.84300
H  24.48900 55.42300 31.76000

