158

Mg 26.12300 0.88000 29.26300
C  28.06200 0.00300 32.10700
C  23.36900 1.11400 31.11800
C  24.31500 0.97200 26.30100
C  28.95000 -0.05800 27.31000
N  25.83000 0.64100 31.32400
C  26.76800 0.42900 32.35500
C  26.18600 0.59200 33.73900
C  24.71100 0.82100 33.41700
C  24.60000 0.82500 31.85000
C  23.70200 -0.14400 34.15000
C  26.85400 1.75300 34.57300
C  26.06200 2.25200 35.83700
H  26.91900 2.52000 37.11700
N  24.09000 1.02500 28.76500
C  23.08800 1.14900 29.69700
C  21.83400 1.30600 28.95600
C  22.15100 1.42100 27.55300
C  23.57700 1.10400 27.45900
C  20.50500 1.38000 29.50900
C  21.23800 1.75700 26.43300
O  21.70700 1.86400 25.28100
C  19.89700 2.14800 26.63900
N  26.56000 0.57900 27.17300
C  25.66500 0.81800 26.15900
C  26.26200 0.67900 24.77000
C  27.74400 0.56600 25.08400
C  27.81100 0.39700 26.64500
C  25.76900 -0.54200 24.04300
C  28.48800 1.93900 24.69400
C  27.95500 3.18200 25.48800
N  28.11200 0.19100 29.59400
C  29.15300 -0.12900 28.68300
C  30.33500 -0.54400 29.39200
C  29.93700 -0.54400 30.74200
C  28.61800 -0.10700 30.81800
C  31.60500 -0.91500 28.73500
C  30.37300 -0.78800 32.13100
O  31.43900 -1.13300 32.57200
C  29.16900 -0.30500 33.02000
C  28.93400 -1.46700 33.96600
O  28.46000 -2.61000 33.66600
O  29.25700 -1.08300 35.24000
C  29.20300 -2.15900 36.22800
H  22.49800 1.46800 31.67400
H  23.83700 1.09400 25.32600
H  29.81000 -0.39200 26.72600
H  26.51500 -0.36100 34.15300
H  24.36900 1.83700 33.61700
H  23.09200 -0.76500 33.49400
H  23.07900 0.53800 34.72800
H  24.23600 -0.82800 34.81000
H  26.87100 2.61400 33.90500
H  27.89000 1.50800 34.80800
H  25.18300 1.64600 36.05300
H  25.54100 3.15300 35.51300
H  20.03700 2.36200 29.58600
H  20.58100 1.00600 30.53000
H  19.86600 0.76800 28.87300
H  19.89900 2.85900 27.46500
H  19.39700 1.21800 26.91100
H  19.41400 2.53500 25.74200
H  25.90200 1.54400 24.21200
H  28.18300 -0.33200 24.65000
H  24.71600 -0.31900 23.87200
H  25.80800 -1.51000 24.54100
H  26.22900 -0.58000 23.05500
H  28.60000 2.13100 23.62700
H  29.52100 1.80700 25.01500
H  27.46000 2.87000 26.40700
H  27.24000 3.70400 24.85100
H  28.85500 3.74200 25.73900
H  32.22800 -0.02100 28.74800
H  31.47100 -1.15800 27.68100
H  31.95900 -1.71200 29.38900
H  29.54600 0.41400 33.74700
H  28.23900 -2.13800 36.73600
H  29.88600 -1.79000 36.99400
H  29.36700 -3.17100 35.85900
Mg -10.91800 40.41500 39.62900
C  -9.56000 37.31400 38.60500
C  -7.85500 41.84600 38.77600
C  -12.27400 43.39900 40.06000
C  -14.06000 38.87200 39.66900
N  -8.99000 39.69500 38.73300
C  -8.64100 38.38500 38.50600
C  -7.20200 38.25700 38.01000
C  -6.59500 39.64900 38.28700
C  -7.86000 40.42600 38.66500
C  -5.57700 39.80100 39.43600
C  -7.21000 37.91600 36.49900
C  -6.15800 37.04100 35.87900
H  -6.65900 36.20800 34.67500
N  -10.20300 42.37300 39.32400
C  -8.87000 42.79500 39.06800
C  -8.79200 44.20500 39.19800
C  -10.05700 44.69800 39.48100
C  -10.94000 43.47700 39.64800
C  -7.54300 45.09100 38.98300
C  -10.47000 46.16800 39.52100
O  -9.55900 46.99800 39.43000
C  -11.92200 46.60300 39.55600
N  -12.92000 40.97600 39.75900
C  -13.16800 42.33000 39.96000
C  -14.65200 42.56600 40.26100
C  -15.26700 41.16900 40.11200
C  -14.00900 40.25400 39.80600
C  -15.01500 43.09900 41.69800
C  -16.34500 41.13600 38.86300
C  -17.68700 41.76100 39.32200
N  -11.72400 38.41400 39.39400
C  -12.98400 37.97400 39.41800
C  -13.00000 36.54500 39.24500
C  -11.66300 36.23100 38.93700
C  -10.92900 37.45700 39.00900
C  -14.18600 35.60100 39.36500
C  -10.73900 35.17100 38.52100
O  -10.89300 33.98700 38.32900
C  -9.32200 35.82100 38.25500
C  -8.39500 35.12500 39.14400
O  -8.66000 34.76100 40.27200
O  -7.33800 34.69900 38.36600
C  -6.41400 33.78800 39.06800
H  -6.85300 42.26100 38.64800
H  -12.63300 44.34800 40.46400
H  -15.09300 38.58400 39.87300
H  -6.62700 37.49300 38.53400
H  -6.06800 40.10600 37.45000
H  -5.12100 40.77600 39.26600
H  -4.73200 39.11700 39.35500
H  -5.98700 39.81400 40.44600
H  -7.10700 38.83900 35.92900
H  -8.17900 37.52600 36.18700
H  -5.69100 36.40000 36.62600
H  -5.42200 37.69700 35.41500
H  -7.53600 45.47800 37.96400
H  -6.65700 44.45800 38.92800
H  -7.35000 45.81800 39.77200
H  -11.95300 47.45600 38.87800
H  -12.36500 46.77300 40.53700
H  -12.50500 45.87600 38.99000
H  -15.13100 43.27600 39.58600
H  -15.82000 40.84200 40.99300
H  -14.13000 43.50000 42.19300
H  -15.52700 42.53100 42.47400
H  -15.64100 43.95200 41.43700
H  -16.56800 40.22300 38.31000
H  -15.87500 41.80200 38.14000
H  -17.44100 42.65400 39.89700
H  -18.10300 40.98200 39.96100
H  -18.34600 42.03300 38.49800
H  -14.28500 35.01900 38.44900
H  -15.11700 36.16500 39.42600
H  -14.12200 34.84800 40.14900
H  -9.01100 35.66700 37.22200
H  -5.37100 34.03700 38.87300
H  -6.72400 32.74500 39.00100
H  -6.45200 33.92000 40.15000

