158

Mg 45.14800 4.34400 46.77300
C  42.96600 7.10700 46.66900
C  42.42400 2.31200 46.05300
C  47.13300 1.70500 45.90200
C  47.86000 6.33800 46.86300
N  42.92800 4.78500 46.32600
C  42.23700 5.92000 46.48700
C  40.67900 5.65400 46.58000
C  40.63000 4.04900 46.68000
C  42.09500 3.66300 46.35200
C  40.22900 3.45200 48.00500
C  39.91600 6.15000 45.33100
C  40.40600 5.81700 43.85500
H  40.19400 6.79100 42.63100
N  44.80800 2.30000 46.23300
C  43.62300 1.67800 46.06500
C  43.76500 0.24100 45.76100
C  45.15800 0.04600 45.57900
C  45.81200 1.43500 45.94500
C  42.64800 -0.84200 45.53200
C  45.79700 -1.22300 45.11300
O  45.14300 -2.16000 44.71900
C  47.26900 -1.53400 45.11000
N  47.25800 4.05900 46.46100
C  47.84800 2.88300 46.21700
C  49.37400 2.92200 46.27900
C  49.62700 4.40700 46.69800
C  48.18600 4.97000 46.70400
C  50.05500 1.90500 47.25700
C  50.65000 5.16600 45.89100
C  51.92900 5.71100 46.50000
N  45.45200 6.37700 46.77200
C  46.59700 7.05700 46.89200
C  46.31800 8.48200 46.83000
C  44.87100 8.53600 46.81100
C  44.41600 7.21600 46.67900
C  47.29900 9.61800 47.10400
C  43.74500 9.48300 46.81600
O  43.70400 10.71700 46.99300
C  42.41200 8.57000 46.66900
C  41.51000 8.79300 47.87100
O  41.71400 8.39100 49.02300
O  40.31900 9.28800 47.37100
C  39.32400 9.77100 48.40700
H  41.55200 1.65600 46.09200
H  47.88600 0.97900 45.58800
H  48.74400 6.93000 47.10800
H  40.23000 6.14500 47.44300
H  39.87600 3.68700 45.98200
H  40.01200 4.28900 48.66800
H  41.08000 2.92600 48.43700
H  39.38300 2.76800 47.94600
H  39.71100 7.22100 45.31500
H  38.91900 5.72000 45.42400
H  39.87200 4.93600 43.49800
H  41.42900 5.44400 43.82400
H  42.99500 -1.75900 46.00900
H  42.45000 -0.80500 44.46100
H  41.71800 -0.48900 45.97900
H  47.69200 -1.04000 45.98500
H  47.62200 -1.25000 44.11900
H  47.52500 -2.57300 45.31900
H  49.77900 2.77000 45.27900
H  50.05500 4.47800 47.69800
H  50.37600 0.98300 46.77300
H  49.35800 1.68400 48.06500
H  51.06300 2.17400 47.57200
H  50.31700 6.06600 45.37400
H  51.03500 4.43600 45.18000
H  51.75700 5.78700 47.57400
H  52.30600 6.70800 46.27100
H  52.78800 5.12200 46.18100
H  46.69500 10.52100 47.00900
H  48.21500 9.60400 46.51300
H  47.61300 9.78800 48.13400
H  41.90100 8.71000 45.71600
H  39.17900 10.84900 48.32600
H  39.48400 9.50500 49.45100
H  38.40900 9.25800 48.11200
Mg 47.69000 25.71100 28.77800
C  48.46800 27.92300 31.35700
C  46.34700 23.49500 31.29800
C  47.32100 23.26200 26.47500
C  49.55200 27.62200 26.48100
N  47.45100 25.72600 31.09300
C  47.78500 26.82900 31.85400
C  47.33400 26.60500 33.27900
C  46.79600 25.16500 33.27200
C  46.89900 24.74500 31.79600
C  47.50800 24.15900 34.22600
C  46.39900 27.55800 34.03900
C  46.80000 27.85100 35.48800
H  45.79000 28.04600 36.54900
N  46.80000 23.78600 28.82300
C  46.31200 23.09600 29.95400
C  45.71300 21.88400 29.41200
C  45.95800 21.82100 27.99700
C  46.69000 23.02100 27.70600
C  44.99200 20.96500 30.32800
C  45.45000 20.82100 27.02000
O  45.67100 20.88300 25.81800
C  44.51700 19.70400 27.46200
N  48.37500 25.46700 26.89700
C  48.03400 24.42600 26.12600
C  48.53400 24.56400 24.66200
C  48.67100 26.12000 24.65200
C  48.86900 26.43200 26.10300
C  49.86800 23.79700 24.57500
C  47.41900 27.00400 24.18100
C  47.75600 28.13700 23.20600
N  48.75900 27.40500 28.79300
C  49.50400 28.09100 27.82600
C  50.04700 29.28000 28.47900
C  49.62400 29.27900 29.80800
C  48.86300 28.13200 29.94900
C  50.86300 30.30900 27.75200
C  49.74600 29.95300 31.10700
O  50.36300 30.96500 31.39900
C  48.83400 29.13700 32.06700
C  49.65300 28.89700 33.29800
O  50.59700 28.11100 33.33900
O  49.44300 29.75500 34.32800
C  50.32300 29.48800 35.54000
H  45.82300 22.90900 32.05500
H  47.19100 22.40700 25.80800
H  50.06300 28.29000 25.78400
H  48.29700 26.58300 33.79000
H  45.72800 25.16600 33.49100
H  48.21100 23.44800 33.79300
H  46.77700 23.58400 34.79500
H  48.10100 24.68600 34.97500
H  45.36300 27.21700 34.03400
H  46.46400 28.44400 33.40700
H  47.37100 28.77900 35.46800
H  47.35700 26.96000 35.77700
H  45.56900 20.04100 30.32100
H  43.94800 20.68700 30.18300
H  44.89700 21.17800 31.39300
H  45.01000 18.96800 28.09600
H  44.31100 19.15300 26.54400
H  43.60000 20.12300 27.87600
H  47.77400 24.11300 24.02500
H  49.51900 26.33200 24.00100
H  50.75900 24.42400 24.53900
H  49.92200 23.20100 23.66400
H  50.00800 23.24300 25.50400
H  46.91100 27.51100 25.00100
H  46.64900 26.37100 23.74100
H  46.96100 28.19700 22.46300
H  48.74700 28.01400 22.76900
H  47.61600 29.04300 23.79500
H  50.45100 30.59600 26.78400
H  51.88300 29.92800 27.79700
H  50.77900 31.26500 28.26900
H  47.95800 29.75000 32.28200
H  50.48200 30.41900 36.08500
H  51.33700 29.29200 35.19000
H  49.90600 28.67700 36.13700

