158

Mg 25.53100 -8.06700 47.36700
C  27.49400 -5.42600 46.58300
C  23.29700 -7.15100 44.85800
C  23.65700 -10.72700 48.13200
C  28.23200 -9.53100 49.35200
N  25.47300 -6.58800 45.84900
C  26.48800 -5.65300 45.66400
C  26.01300 -4.59400 44.52400
C  24.64400 -5.15400 44.08800
C  24.42900 -6.38100 44.97300
C  23.39400 -4.15300 44.21700
C  27.09100 -4.59400 43.51000
C  27.49000 -3.11000 43.07400
H  27.17500 -2.69000 41.63300
N  23.70500 -8.85800 46.59700
C  22.93600 -8.30100 45.57500
C  21.78500 -9.13700 45.42100
C  21.87500 -10.24000 46.35500
C  23.09100 -9.94500 47.14200
C  20.73100 -8.92900 44.37200
C  20.83600 -11.40800 46.43100
O  19.78500 -11.40300 45.78300
C  21.12500 -12.61300 47.18400
N  25.90800 -9.93100 48.54900
C  24.90700 -10.78500 48.79900
C  25.29900 -11.88700 49.78300
C  26.88700 -11.69300 49.83200
C  27.05400 -10.34700 49.22100
C  24.52800 -11.69400 51.15000
C  27.65500 -12.70700 49.03500
C  29.16600 -12.85700 49.42400
N  27.42700 -7.62100 47.90800
C  28.39000 -8.26400 48.65400
C  29.60300 -7.42600 48.70400
C  29.25300 -6.19500 48.03700
C  27.94900 -6.41300 47.48800
C  30.95700 -7.73200 49.32400
C  29.67300 -4.84100 47.66100
O  30.71500 -4.24100 47.84900
C  28.50800 -4.28000 46.74300
C  27.76600 -3.24500 47.47900
O  27.00300 -3.45600 48.45600
O  27.98800 -2.02000 46.85900
C  27.18500 -0.89600 47.42100
H  22.63300 -6.78900 44.07000
H  23.06400 -11.51900 48.59400
H  29.02300 -9.96800 49.96500
H  25.81400 -3.64200 45.01500
H  24.65000 -5.58300 43.08600
H  23.77800 -3.14000 44.09800
H  23.08400 -4.09500 45.26100
H  22.62200 -4.31600 43.46500
H  26.86300 -5.08200 42.56200
H  27.96400 -5.11400 43.90300
H  28.56300 -2.98100 43.21600
H  26.98400 -2.37800 43.70300
H  21.09000 -9.34100 43.42900
H  20.60600 -7.87400 44.13100
H  19.76300 -9.38900 44.57100
H  20.97400 -12.40300 48.24300
H  22.19500 -12.79800 47.08600
H  20.50500 -13.43300 46.82400
H  24.96900 -12.82100 49.32800
H  27.11200 -11.84800 50.88700
H  23.86800 -12.53900 51.34400
H  23.89600 -10.80700 51.10800
H  25.23200 -11.48900 51.95600
H  27.37100 -12.59600 47.98800
H  27.22100 -13.62300 49.43500
H  29.68900 -12.28700 48.65700
H  29.61300 -13.85000 49.36400
H  29.59000 -12.44200 50.33900
H  30.77400 -8.54800 50.02400
H  31.39600 -6.84800 49.78500
H  31.68000 -8.08000 48.58600
H  29.00700 -3.88500 45.85800
H  27.26000 0.07900 46.94000
H  27.35400 -0.79100 48.49300
H  26.14300 -1.20200 47.51600
Mg 47.56000 45.30000 43.79100
C  44.19600 44.96500 43.03200
C  48.06900 42.13200 42.70900
C  50.76600 45.94600 43.93800
C  46.98000 48.72300 44.54000
N  46.32800 43.85300 42.91800
C  44.98900 43.89700 42.65300
C  44.53700 42.65400 41.90200
C  45.56000 41.59600 42.43600
C  46.73500 42.55900 42.74100
C  45.05100 40.83700 43.69600
C  44.51100 42.82700 40.36700
C  43.10600 42.72000 39.64600
H  43.11200 41.84700 38.29300
N  49.24800 44.11900 43.45700
C  49.25800 42.90700 42.88600
C  50.68700 42.44800 42.83000
C  51.49600 43.52100 43.34100
C  50.50600 44.59000 43.57200
C  51.03300 41.05100 42.35800
C  52.95000 43.42000 43.67800
O  53.63800 42.48800 43.30300
C  53.73800 44.56300 44.41300
N  48.65800 47.13600 44.00700
C  50.02300 47.13500 44.05000
C  50.65300 48.43000 44.47500
C  49.46400 49.33100 44.62700
C  48.27500 48.37600 44.42500
C  51.61200 48.42900 45.72400
C  49.42300 50.54000 43.59300
C  49.28900 51.90300 44.23300
N  45.92200 46.63600 43.88300
C  45.84200 47.91500 44.15800
C  44.42500 48.41300 44.13500
C  43.71500 47.26100 43.73300
C  44.70000 46.19100 43.56200
C  43.86900 49.74500 44.41900
C  42.38900 46.71100 43.32700
O  41.32100 47.31500 43.28000
C  42.69400 45.14500 42.91800
C  42.04100 44.35500 44.06100
O  41.15900 43.56600 43.89100
O  42.57300 44.67400 45.29900
C  42.32800 43.89500 46.47900
H  48.23400 41.05800 42.60000
H  51.83000 46.12100 44.11000
H  46.65400 49.74700 44.73200
H  43.54600 42.46800 42.31600
H  45.83000 40.89400 41.64700
H  44.00300 40.97200 43.96400
H  45.61800 41.19000 44.55700
H  45.27600 39.79800 43.45400
H  45.22900 42.12900 39.93700
H  44.89600 43.79800 40.05700
H  42.76600 43.65700 39.20600
H  42.30100 42.24300 40.20600
H  51.88700 40.92300 41.69300
H  50.23500 40.49500 41.86400
H  51.30100 40.47000 43.24000
H  54.00500 45.37000 43.73100
H  54.68000 44.19700 44.82100
H  53.13700 45.07300 45.16700
H  51.17600 48.81200 43.59800
H  49.43800 49.71400 45.64700
H  51.46200 49.24400 46.43200
H  52.59600 48.54800 45.27000
H  51.46500 47.44200 46.16200
H  48.58400 50.27300 42.95100
H  50.37200 50.56700 43.05700
H  48.28300 52.12100 44.59300
H  49.60100 52.59600 43.45300
H  49.95500 51.96200 45.09400
H  43.98000 50.38100 43.54100
H  44.54200 50.07900 45.20900
H  42.80800 49.60500 44.62600
H  42.31000 44.90800 41.92600
H  41.85500 44.58300 47.17900
H  43.22300 43.68600 47.06500
H  41.83900 42.93300 46.32600

