158

Mg -0.71700 17.40400 27.48100
C  -1.74200 15.18300 29.97600
C  -1.83000 20.01600 29.43000
C  -0.46600 19.39600 24.77300
C  -0.20700 14.64200 25.35000
N  -1.71900 17.60100 29.53000
C  -1.83100 16.50500 30.44100
C  -2.26700 17.01000 31.82100
C  -2.52800 18.59500 31.56100
C  -1.94600 18.77700 30.12200
C  -3.94500 19.07700 31.91300
C  -1.22600 16.67300 32.91800
C  -1.14800 17.63800 34.19200
H  0.02000 17.39000 35.21700
N  -1.07800 19.45000 27.17100
C  -1.49900 20.37500 28.09300
C  -1.62100 21.73900 27.44200
C  -1.25100 21.49300 26.10700
C  -0.83400 20.10800 25.96400
C  -2.09900 23.01300 28.15000
C  -1.18400 22.53000 25.05900
O  -0.74500 22.26100 23.95000
C  -1.80800 23.82100 25.24900
N  -0.38700 17.03400 25.35400
C  -0.20300 18.06200 24.53900
C  -0.01700 17.57000 23.07000
C  0.41400 16.06500 23.35800
C  -0.05600 15.89100 24.77200
C  -1.26700 17.59600 22.17400
C  1.99300 15.81900 23.18200
C  2.97800 16.53000 24.13300
N  -0.97500 15.34800 27.58000
C  -0.61300 14.32100 26.66600
C  -0.85500 13.05900 27.26300
C  -1.20700 13.30600 28.55800
C  -1.40000 14.73600 28.69400
C  -0.58300 11.75100 26.57100
C  -1.52200 12.74000 29.77800
O  -1.58200 11.53800 30.04600
C  -1.89600 13.88100 30.80900
C  -0.93700 13.74900 31.82300
O  0.24300 14.13500 31.83700
O  -1.58000 13.21000 32.94300
C  -0.81900 12.86100 34.15700
H  -2.18700 20.92300 29.92200
H  -0.56600 19.99700 23.86600
H  0.01400 13.79300 24.70000
H  -3.20100 16.49100 32.03900
H  -1.96500 19.17300 32.29300
H  -4.25200 19.87900 31.24100
H  -4.09100 19.41300 32.94000
H  -4.65400 18.27000 31.73100
H  -0.24100 16.46200 32.50100
H  -1.47800 15.79400 33.51200
H  -2.14200 17.69300 34.63700
H  -0.86100 18.59500 33.75600
H  -1.59400 23.94800 27.90500
H  -1.83900 22.87200 29.20000
H  -3.18000 23.08400 28.02900
H  -1.85900 24.19500 24.22700
H  -1.06100 24.34200 25.84800
H  -2.78400 23.80200 25.73200
H  0.78100 18.15700 22.61600
H  0.01500 15.36500 22.62500
H  -1.96100 16.77300 22.34500
H  -0.93700 17.42000 21.15000
H  -1.70500 18.56200 22.42500
H  2.19400 16.06300 22.13900
H  2.12100 14.74000 23.25700
H  2.63100 17.34600 24.76700
H  3.80800 16.93800 23.55600
H  3.38100 15.79300 24.82800
H  -0.05200 11.81900 25.62100
H  -1.53200 11.23300 26.43400
H  -0.04800 11.10700 27.26900
H  -2.89900 13.59800 31.12800
H  -0.98200 13.58900 34.95200
H  0.25000 12.84400 33.94700
H  -1.15100 11.86300 34.44300
Mg -9.84000 17.47600 40.77100
C  -6.39200 17.04800 41.02200
C  -9.30200 20.96600 40.38700
C  -13.01100 17.67700 39.89600
C  -10.15900 13.84800 40.74200
N  -8.10300 18.82300 40.62900
C  -6.75800 18.42900 40.75600
C  -5.79400 19.61200 40.64400
C  -6.80800 20.75100 41.01000
C  -8.18500 20.19200 40.64400
C  -6.74600 21.33700 42.37900
C  -5.12200 19.86400 39.19000
C  -3.67200 19.44600 39.10800
H  -3.04600 18.42300 38.17800
N  -10.98900 19.08900 40.10800
C  -10.58300 20.43100 40.00700
C  -11.77700 21.18200 39.69600
C  -12.83600 20.30800 39.66800
C  -12.30200 18.95800 39.94300
C  -11.59100 22.63800 39.26400
C  -14.23400 20.73600 39.45900
O  -14.58200 21.91800 39.19900
C  -15.35100 19.67500 39.54700
N  -11.35100 15.90900 40.50400
C  -12.60700 16.33700 40.15300
C  -13.60200 15.14900 40.25500
C  -12.66800 13.88400 40.18100
C  -11.30900 14.55900 40.54200
C  -14.63600 15.29100 41.37200
C  -12.72800 13.18500 38.79100
C  -12.46600 11.62100 38.82200
N  -8.61400 15.79500 40.84300
C  -8.84100 14.41800 40.93200
C  -7.63400 13.68000 41.03300
C  -6.64900 14.68700 41.10900
C  -7.27700 15.97300 40.93900
C  -7.44200 12.19900 40.95300
C  -5.19800 14.89400 41.30200
O  -4.32100 14.09800 41.54200
C  -4.99600 16.47200 41.25000
C  -4.42900 17.02700 42.46800
O  -3.24100 17.37300 42.52900
O  -5.36600 17.12100 43.46200
C  -4.98800 18.11100 44.54300
H  -9.09500 22.03800 40.34600
H  -14.03200 17.54800 39.53000
H  -10.19000 12.75800 40.70100
H  -5.09800 19.52300 41.47700
H  -6.61900 21.64400 40.41500
H  -7.70500 21.48900 42.87600
H  -6.18900 22.27200 42.31100
H  -6.16700 20.73300 43.07700
H  -5.40100 20.86800 38.87100
H  -5.79600 19.32400 38.52500
H  -3.40800 19.17500 40.13100
H  -3.14000 20.37400 38.90100
H  -12.21700 22.78300 38.38400
H  -10.51500 22.57900 39.10100
H  -11.72700 23.51900 39.89200
H  -15.33500 18.90800 38.77300
H  -16.15700 20.39300 39.39000
H  -15.30400 19.27100 40.55800
H  -14.07900 15.21300 39.27700
H  -12.90200 13.20700 41.00200
H  -14.34700 14.54600 42.11400
H  -15.57900 14.91700 40.97300
H  -14.75600 16.33300 41.66700
H  -12.02300 13.70900 38.14500
H  -13.72100 13.13900 38.34400
H  -11.68200 11.51400 38.07200
H  -13.31300 11.01200 38.50600
H  -12.15100 11.37600 39.83600
H  -8.11400 11.73100 41.67200
H  -6.40500 11.91900 41.14000
H  -7.60200 11.86700 39.92700
H  -4.48000 16.59700 40.29800
H  -5.71200 18.92600 44.55600
H  -4.03500 18.63000 44.44800
H  -5.13000 17.67000 45.53000

