158

Mg 42.01900 41.63900 27.97300
C  40.89000 44.02200 30.47500
C  43.11800 39.67000 30.44300
C  43.25900 39.69100 25.66000
C  41.41000 44.16600 25.52900
N  41.84600 41.82500 30.15600
C  41.40600 42.83200 30.98300
C  41.54400 42.40000 32.45000
C  42.38600 41.04000 32.46600
C  42.50400 40.85800 30.90700
C  43.75400 41.31400 33.11900
C  40.06900 42.28000 33.05100
C  39.92700 43.15000 34.32700
H  39.26900 42.42300 35.54400
N  42.99800 39.82100 28.03200
C  43.35700 39.18300 29.13400
C  43.99500 37.93400 28.78300
C  43.89300 37.86900 27.33500
C  43.32800 39.14900 26.96500
C  44.49900 36.92600 29.83400
C  44.38100 36.75900 26.36100
O  44.54300 36.96000 25.19200
C  44.66100 35.39400 26.92700
N  42.50500 41.98500 25.92600
C  42.92300 40.94300 25.21500
C  42.96000 41.30100 23.71800
C  42.37600 42.70600 23.65900
C  42.12900 43.03000 25.15800
C  44.36300 41.23400 23.03000
C  41.06500 42.81300 22.87200
C  39.87700 42.11800 23.41600
N  41.26200 43.67500 27.98000
C  41.04300 44.49800 26.89100
C  40.34400 45.63100 27.33900
C  40.25900 45.53100 28.73700
C  40.92600 44.36000 29.08700
C  39.74500 46.75500 26.50100
C  39.81400 46.13700 30.02100
O  39.08800 47.08300 30.22300
C  40.30100 45.22200 31.17800
C  41.33500 45.86800 31.94500
O  42.46100 46.19900 31.54900
O  40.89800 45.97100 33.25100
C  41.69300 46.75100 34.26100
H  43.49900 39.00500 31.22100
H  43.48300 39.01200 24.83500
H  41.25200 44.93100 24.76500
H  42.12900 43.19500 32.91300
H  41.95400 40.11800 32.85700
H  43.95300 40.53000 33.85100
H  43.74200 42.25100 33.67600
H  44.50500 41.16100 32.34500
H  39.88000 41.25400 33.36700
H  39.32700 42.67600 32.35800
H  39.30500 43.99200 34.02300
H  40.90700 43.50000 34.65100
H  45.54900 36.84800 29.55400
H  43.97600 35.97100 29.78900
H  44.46400 37.25700 30.87200
H  43.77000 35.01200 27.42500
H  45.43800 35.45700 27.68800
H  44.98800 34.68600 26.16500
H  42.26100 40.58700 23.28200
H  43.02600 43.52900 23.36000
H  44.72000 42.26300 23.06200
H  44.23300 40.81500 22.03200
H  44.96400 40.55700 23.63800
H  41.17800 42.44200 21.85300
H  40.84700 43.85700 22.64300
H  39.19900 42.95300 23.59500
H  39.98700 41.45700 24.27500
H  39.44800 41.58700 22.56600
H  39.16100 46.29500 25.70300
H  40.56600 47.32100 26.06000
H  39.11000 47.34200 27.16400
H  39.46700 44.81200 31.74800
H  41.10800 47.64900 34.46200
H  42.66300 47.17200 33.99500
H  41.85600 46.07400 35.09900
Mg 6.40000 54.79600 40.20700
C  5.21400 51.47100 39.61300
C  9.53100 53.66700 39.61500
C  7.36000 58.06200 39.80100
C  3.11300 55.75700 40.57100
N  7.25100 52.85400 39.50000
C  6.59400 51.60900 39.34400
C  7.62900 50.53200 39.03500
C  8.91600 51.22400 39.55200
C  8.59000 52.64600 39.53300
C  9.54000 50.83200 40.87700
C  7.75800 50.24700 37.45800
C  6.85100 51.07000 36.53400
H  6.28200 50.48800 35.30800
N  8.24100 55.72600 39.90500
C  9.43900 55.07900 39.68300
C  10.48300 56.00900 39.50900
C  9.89100 57.33800 39.46600
C  8.40000 57.08400 39.69600
C  11.94300 55.71100 39.39900
C  10.60500 58.63700 39.20700
O  11.77300 58.56800 38.88800
C  10.07900 59.93700 39.46600
N  5.37200 56.68800 40.13900
C  6.01400 57.88400 40.18000
C  5.01700 59.04500 40.29700
C  3.71400 58.28000 40.59000
C  4.03500 56.82200 40.31100
C  5.48100 60.18500 41.30000
C  2.53200 58.67500 39.67200
C  1.13200 58.60300 40.36000
N  4.59600 53.86400 40.05600
C  3.34600 54.40300 40.37300
C  2.39800 53.40300 40.33700
C  3.08100 52.12800 40.14200
C  4.39800 52.51500 39.93500
C  0.88400 53.58200 40.29100
C  2.92000 50.73000 39.89700
O  1.91900 50.06100 39.74700
C  4.34400 50.24600 39.65600
C  4.46100 49.32600 38.52600
O  4.04900 49.59100 37.41400
O  4.95700 48.12900 38.94000
C  5.16400 47.04800 37.94500
H  10.55100 53.27600 39.59600
H  7.66800 59.08500 39.57700
H  2.12900 56.00400 40.97600
H  7.29700 49.70200 39.66000
H  9.74200 51.02900 38.86800
H  9.54300 51.69300 41.54500
H  10.59000 50.58500 40.72500
H  8.95700 50.03800 41.34400
H  7.45300 49.21400 37.29300
H  8.75700 50.39200 37.04700
H  7.55500 51.89500 36.42700
H  5.94100 51.52200 36.92800
H  12.20200 55.70700 38.34100
H  12.18700 54.73500 39.81900
H  12.59400 56.38500 39.95600
H  10.87900 60.67600 39.49400
H  9.71700 60.05600 40.48800
H  9.25900 60.15700 38.78200
H  4.94800 59.57500 39.34700
H  3.42300 58.37500 41.63600
H  4.59000 60.34100 41.90900
H  5.86100 61.03300 40.73200
H  6.27800 59.84200 41.95900
H  2.51100 57.98200 38.83100
H  2.70600 59.68100 39.29000
H  0.51100 59.42400 40.00100
H  1.15200 58.67600 41.44700
H  0.62000 57.68700 40.06800
H  0.61700 53.75000 39.24800
H  0.64500 54.44100 40.91700
H  0.40600 52.66900 40.64800
H  4.64800 49.70600 40.55200
H  4.42000 46.25400 38.00700
H  6.17700 46.68600 38.11800
H  5.11200 47.52300 36.96500

