158

Mg 53.74600 24.53700 43.82000
C  51.02700 26.99000 43.03800
C  51.41200 22.28200 42.72000
C  56.24200 22.49800 43.34200
C  55.73200 27.21700 44.61700
N  51.48600 24.67400 42.75400
C  50.59500 25.71200 42.72200
C  49.21900 25.24000 42.25200
C  49.27300 23.67600 42.45000
C  50.82000 23.53000 42.72100
C  48.48500 23.13300 43.71500
C  48.76700 25.72300 40.91500
C  49.84500 25.77200 39.75500
H  49.23400 25.78200 38.35600
N  53.80600 22.55700 43.42700
C  52.76100 21.84000 42.99900
C  53.23300 20.42900 42.77200
C  54.68200 20.46100 43.06900
C  54.96100 21.87900 43.27100
C  52.40100 19.33300 42.26900
C  55.64600 19.25100 42.92500
O  55.19800 18.14300 42.54300
C  57.08500 19.32000 43.22600
N  55.76100 24.89500 43.76600
C  56.69800 23.84400 43.58800
C  58.14500 24.39000 43.51200
C  57.85300 25.89600 44.06600
C  56.36000 26.02700 44.20400
C  59.26300 23.55900 44.19500
C  58.54500 27.02300 43.31300
C  57.79500 27.73900 42.23300
N  53.40100 26.59800 44.00500
C  54.34700 27.56200 44.44700
C  53.71600 28.89800 44.52400
C  52.43300 28.68500 43.98100
C  52.27400 27.32200 43.62600
C  54.20500 30.08700 45.22400
C  51.12900 29.31700 43.70700
O  50.74900 30.45100 43.83200
C  50.25900 28.31200 42.99500
C  49.87200 28.83600 41.60900
O  50.62200 29.09500 40.65800
O  48.56200 29.07800 41.73400
C  47.95300 29.54100 40.45900
H  50.73600 21.48500 42.40300
H  57.09600 21.83900 43.17000
H  56.38700 28.04300 44.90100
H  48.60400 25.71200 43.01900
H  49.03300 23.19500 41.50200
H  47.58500 22.69400 43.28500
H  48.40100 23.93600 44.44700
H  49.12500 22.40700 44.21600
H  48.18300 26.64300 40.93700
H  48.08000 24.91900 40.65300
H  50.66700 25.06500 39.86800
H  50.27400 26.77000 39.66000
H  52.34700 19.51400 41.19600
H  51.36800 19.49000 42.58100
H  52.69400 18.30600 42.48300
H  57.56700 19.50400 42.26600
H  57.50500 18.37200 43.56300
H  57.37200 20.06900 43.96500
H  58.42200 24.35500 42.45800
H  58.31400 25.88300 45.05400
H  58.84300 23.27000 45.15800
H  60.14900 24.15900 44.40200
H  59.41600 22.69300 43.55000
H  59.39200 26.53700 42.83000
H  58.90000 27.70700 44.08500
H  57.46100 28.69600 42.63300
H  56.83300 27.26700 42.03700
H  58.35100 27.74300 41.29500
H  53.70600 30.92900 44.74400
H  55.27100 30.15100 45.00900
H  54.04200 30.01900 46.29900
H  49.39000 28.23600 43.65000
H  47.67600 30.59500 40.48700
H  47.03600 28.95900 40.37200
H  48.52500 29.28700 39.56600
Mg 30.69700 58.52200 40.68000
C  28.11100 56.49900 39.31700
C  32.85600 56.23900 39.30000
C  33.17700 60.75500 41.18100
C  28.33000 60.96000 41.39400
N  30.46400 56.67500 39.45800
C  29.34600 56.04500 38.99600
C  29.66800 54.67400 38.20500
C  31.10200 54.48000 38.72300
C  31.54000 55.89300 39.18200
C  31.28500 53.38300 39.80500
C  29.60900 55.03600 36.64300
C  28.55500 54.34700 35.71000
H  27.92900 55.13800 34.61900
N  32.75700 58.47500 40.34400
C  33.44500 57.41900 39.82500
C  34.79300 57.56800 40.15600
C  34.94600 58.80000 40.79100
C  33.58600 59.47100 40.72000
C  35.96600 56.59100 39.94100
C  36.25000 59.33600 41.46900
O  37.30900 58.66400 41.33100
C  36.24800 60.63800 42.27400
N  30.78600 60.61000 41.11600
C  31.94000 61.31500 41.33200
C  31.71200 62.70300 41.91100
C  30.10000 62.83500 41.88600
C  29.68200 61.36300 41.44900
C  32.47600 62.90300 43.29100
C  29.51400 64.02300 41.16100
C  28.70600 65.03900 41.91100
N  28.67800 58.64500 40.58500
C  27.87100 59.72700 40.91600
C  26.49000 59.36300 40.76400
C  26.57200 58.13300 39.98100
C  27.87300 57.69300 39.99600
C  25.24400 60.09400 41.14500
C  25.71400 57.05600 39.32400
O  24.51200 56.93600 39.18000
C  26.79200 55.92900 38.95200
C  26.60000 54.65800 39.82300
O  27.15200 54.35300 40.85800
O  25.67000 53.90500 39.19600
C  25.06900 52.74200 39.68500
H  33.54900 55.51000 38.87600
H  33.98800 61.37600 41.56700
H  27.64600 61.79600 41.55600
H  29.00700 53.87700 38.54600
H  31.74100 54.17300 37.89500
H  30.38600 52.80700 40.02300
H  31.65300 53.74600 40.76400
H  31.98500 52.63900 39.42600
H  30.55200 54.75100 36.17700
H  29.45900 56.10000 36.45900
H  27.89500 53.91700 36.46400
H  29.11000 53.52400 35.26100
H  36.72500 56.91800 39.23000
H  35.55700 55.66000 39.54800
H  36.42300 56.14700 40.82500
H  37.17500 60.68000 42.84500
H  35.39200 60.61000 42.94800
H  36.12400 61.42000 41.52500
H  32.14000 63.50900 41.31500
H  29.69600 62.92200 42.89500
H  33.34700 63.45800 42.94300
H  32.82100 61.92600 43.63100
H  32.02400 63.45000 44.11800
H  28.91300 63.61300 40.34900
H  30.35300 64.56800 40.73000
H  27.82900 65.40300 41.37600
H  29.33800 65.92400 41.98700
H  28.40900 64.70800 42.90600
H  25.04600 60.67700 40.24500
H  25.40700 60.71900 42.02300
H  24.45100 59.35600 41.26200
H  26.65200 55.64400 37.90900
H  25.69500 52.28900 40.45300
H  24.93400 52.12200 38.79800
H  24.16700 53.09300 40.18700

