158

Mg 42.25700 41.11700 25.84200
C  41.42800 43.45900 28.44300
C  43.65200 39.17900 28.38800
C  43.41000 39.15400 23.49600
C  41.85300 43.70700 23.62700
N  42.48500 41.37100 28.09700
C  42.00700 42.33300 28.93800
C  42.07300 41.95700 30.45700
C  42.95200 40.62600 30.40100
C  43.06700 40.34000 28.83800
C  44.30700 40.62700 31.16300
C  40.62100 41.75300 31.12800
C  40.22900 42.85000 32.15900
H  39.56300 42.30700 33.41300
N  43.31800 39.41300 25.92700
C  43.71000 38.65600 27.02100
C  44.26000 37.41600 26.58800
C  44.13100 37.36800 25.12500
C  43.53500 38.69300 24.78100
C  44.89100 36.41800 27.53200
C  44.60200 36.27900 24.21100
O  44.41400 36.23800 23.02800
C  45.34300 35.16000 24.72800
N  42.57900 41.42200 23.87800
C  42.95200 40.40200 23.03100
C  42.79400 40.70700 21.53200
C  42.60200 42.28000 21.64000
C  42.39700 42.53900 23.14500
C  43.98600 40.33800 20.71100
C  41.43400 42.71600 20.71400
C  41.65000 44.13500 20.03100
N  41.57900 43.14500 25.94500
C  41.52600 44.06100 24.91300
C  41.16600 45.38400 25.47300
C  41.09400 45.10500 26.83300
C  41.41400 43.78500 27.07300
C  40.88400 46.69000 24.77300
C  40.71400 45.80100 28.08700
O  40.24400 46.95500 28.30400
C  40.88100 44.66500 29.18100
C  41.87200 45.23600 30.13100
O  43.05000 45.37800 29.87200
O  41.29200 45.70700 31.23500
C  42.02900 46.40700 32.24700
H  44.15400 38.66900 29.21300
H  43.60000 38.44000 22.69200
H  41.72000 44.48900 22.87600
H  42.63800 42.70000 31.02000
H  42.36100 39.79300 30.78000
H  45.16900 40.57800 30.49800
H  44.33000 39.76800 31.83400
H  44.46400 41.49400 31.80500
H  40.64500 40.84500 31.73100
H  39.78800 41.66200 30.43100
H  39.52400 43.60300 31.80800
H  41.11500 43.43300 32.41300
H  44.43300 35.42900 27.54900
H  44.93800 36.78300 28.55800
H  45.89900 36.29500 27.13700
H  46.32000 35.52900 25.04000
H  45.50600 34.30400 24.07400
H  44.97000 34.72900 25.65700
H  41.90900 40.20900 21.13500
H  43.53600 42.81500 21.47000
H  43.73500 39.46100 20.11400
H  44.87900 40.22900 21.32700
H  44.24500 41.09300 19.96900
H  40.60200 42.89300 21.39500
H  41.36700 41.94400 19.94600
H  40.68000 44.25400 19.54800
H  42.40600 44.11000 19.24700
H  41.72900 44.97500 20.72100
H  41.66600 47.19700 24.20800
H  40.75800 47.38600 25.60200
H  39.98700 46.65300 24.15500
H  39.90600 44.60300 29.66500
H  42.42500 45.67100 32.94700
H  41.42600 47.12400 32.80500
H  42.88300 46.95800 31.85200
Mg 6.58600 53.21100 40.81300
C  6.09000 49.78800 40.26900
C  9.81100 52.93000 39.93300
C  6.86800 56.66900 40.99300
C  3.07500 53.55000 41.14400
N  7.85400 51.54900 39.92200
C  7.43800 50.24100 39.95900
C  8.66100 49.42100 39.89100
C  9.87200 50.37400 40.08100
C  9.18800 51.73900 39.97900
C  10.70300 50.20900 41.42400
C  8.87200 48.51200 38.67000
C  8.88000 49.17800 37.29000
H  7.75300 48.75900 36.30600
N  8.15800 54.62600 40.54700
C  9.34900 54.27700 40.04200
C  10.16300 55.43200 39.78900
C  9.35500 56.51200 40.18200
C  8.04600 55.98100 40.63400
C  11.59400 55.37000 39.18500
C  9.74000 57.93300 40.12500
O  10.78800 58.21200 39.65100
C  8.98700 59.12100 40.68200
N  5.12900 54.84000 41.01900
C  5.52800 56.13500 41.06200
C  4.38300 57.06200 41.30100
C  3.18500 56.12400 41.10100
C  3.84100 54.73400 41.12500
C  4.47500 57.83600 42.65100
C  2.25000 56.29800 39.88300
C  0.74200 56.06500 40.14500
N  4.90200 51.98200 40.82900
C  3.55100 52.21100 41.04800
C  2.73100 50.95300 40.95500
C  3.72400 50.05700 40.70900
C  4.98900 50.67300 40.53300
C  1.33100 50.68500 41.08200
C  3.99100 48.62800 40.56100
O  3.24600 47.63100 40.64100
C  5.47100 48.37000 40.28400
C  5.44300 47.55500 38.96500
O  4.90900 47.91300 37.99800
O  6.16000 46.36500 39.07300
C  5.89000 45.36600 38.02600
H  10.89600 52.83900 39.84800
H  6.78800 57.75800 40.96100
H  1.98300 53.57100 41.15100
H  8.54300 48.79400 40.77400
H  10.67600 50.15000 39.38100
H  11.03100 51.08800 41.97800
H  11.59700 49.65600 41.13400
H  10.10400 49.67100 42.15900
H  8.06400 47.78600 38.75500
H  9.77900 47.91700 38.77900
H  9.83500 49.05600 36.77800
H  8.72500 50.23500 37.50600
H  11.63500 55.89000 38.22800
H  11.93900 54.33800 39.12800
H  12.23800 55.81500 39.94400
H  9.61800 60.01000 40.70800
H  8.80000 58.85500 41.72200
H  8.03000 59.32800 40.20300
H  4.21100 57.80500 40.52300
H  2.62900 56.07500 42.03700
H  4.65600 58.86700 42.34800
H  5.23300 57.50800 43.36200
H  3.45500 57.68600 43.00700
H  2.58300 55.74000 39.00800
H  2.33300 57.32100 39.51700
H  0.62200 56.06100 41.22800
H  0.52400 55.13700 39.61600
H  0.21400 56.96900 39.84200
H  1.17300 49.84800 40.40100
H  0.86000 51.64700 40.88100
H  1.14200 50.42700 42.12400
H  5.70800 47.63500 41.05300
H  4.81900 45.29300 37.83800
H  6.31900 44.39500 38.27200
H  6.34000 45.72500 37.10000

