158

Mg -2.34900 16.97600 27.25400
C  -2.91900 14.82200 29.86200
C  -3.28000 19.55600 29.19900
C  -2.11400 18.98900 24.52000
C  -2.10300 14.17500 25.11300
N  -3.00500 17.14300 29.20500
C  -2.98000 16.18100 30.17400
C  -3.33000 16.66500 31.61500
C  -3.47500 18.25900 31.28700
C  -3.35700 18.31400 29.80100
C  -4.71000 19.00400 31.96900
C  -2.30600 16.35100 32.76100
C  -2.20500 17.40300 33.89600
H  -1.70500 17.02900 35.31600
N  -2.54100 19.03100 26.90900
C  -2.90100 19.91400 27.87500
C  -2.69100 21.23200 27.38800
C  -2.12600 21.09600 26.03200
C  -2.24300 19.63900 25.72100
C  -3.06800 22.58000 28.09000
C  -1.63600 22.05400 25.03200
O  -1.16900 21.78600 23.91900
C  -1.61900 23.50700 25.26000
N  -2.38200 16.62500 25.16300
C  -2.17300 17.63200 24.23000
C  -2.28700 17.04200 22.78100
C  -2.13100 15.53200 23.00900
C  -2.16600 15.40200 24.55800
C  -3.58900 17.38900 21.95700
C  -0.87900 14.85000 22.32300
C  0.44200 15.14200 22.93300
N  -2.48500 14.88200 27.39200
C  -2.33800 13.88700 26.47200
C  -2.49600 12.65000 27.12800
C  -2.74700 12.94800 28.43600
C  -2.70700 14.33600 28.59100
C  -2.27600 11.28800 26.48000
C  -3.15900 12.41000 29.76900
O  -3.36600 11.28100 30.17200
C  -3.28500 13.58400 30.70200
C  -2.35500 13.37800 31.83200
O  -1.18300 13.43500 31.75800
O  -3.08500 13.06100 32.93800
C  -2.36100 12.76100 34.15800
H  -3.42100 20.38700 29.89400
H  -2.07200 19.62500 23.63300
H  -1.82700 13.28900 24.53700
H  -4.24800 16.13100 31.86100
H  -2.56100 18.73800 31.63900
H  -4.46200 19.92500 32.49700
H  -5.12300 18.37600 32.75800
H  -5.49300 19.28800 31.26600
H  -1.32200 16.09100 32.37000
H  -2.75300 15.48900 33.25500
H  -3.11800 17.99600 33.95700
H  -1.42900 17.99400 33.40900
H  -3.67000 23.11800 27.35800
H  -2.23100 23.17600 28.45400
H  -3.73800 22.31200 28.90700
H  -2.61900 23.92300 25.38300
H  -1.01300 24.00800 24.50500
H  -1.22700 23.72300 26.25300
H  -1.36500 17.41600 22.33600
H  -2.98000 14.96400 22.62700
H  -4.16600 18.11700 22.52700
H  -4.19200 16.54100 21.63100
H  -3.27200 17.86500 21.02900
H  -0.87500 15.06100 21.25300
H  -1.03000 13.78100 22.47600
H  0.22500 15.86700 23.71800
H  1.06700 15.70900 22.24300
H  1.01100 14.35000 23.41900
H  -3.18300 11.21300 25.88000
H  -2.17000 10.38300 27.07900
H  -1.44800 11.28800 25.77200
H  -4.31600 13.51800 31.05100
H  -2.93200 11.98200 34.66300
H  -2.25100 13.66200 34.76200
H  -1.38000 12.31900 33.98300
Mg 8.24400 3.97600 27.83200
C  9.46300 2.61000 30.76100
C  6.40300 6.18100 29.66300
C  6.85500 4.94800 24.95500
C  9.66700 1.16800 26.12800
N  7.84700 4.17700 30.06600
C  8.63200 3.70000 31.06800
C  8.44700 4.44200 32.39400
C  7.29800 5.48200 32.00200
C  7.19800 5.32500 30.45700
C  5.95300 5.39400 32.75200
C  9.73200 5.09600 33.06900
C  10.22300 4.51000 34.43200
H  10.49100 5.52500 35.62800
N  6.77800 5.37300 27.40900
C  6.18900 6.24300 28.33100
C  5.23400 7.14700 27.51200
C  5.43700 6.81500 26.14700
C  6.39500 5.65600 26.07700
C  4.25100 8.12600 28.08400
C  4.78500 7.48400 24.91500
O  4.92200 7.04700 23.77600
C  4.07500 8.82100 24.96100
N  8.09800 3.08900 25.95500
C  7.60900 3.79900 24.86900
C  8.01100 3.13000 23.55700
C  8.63300 1.81600 23.97000
C  8.77000 1.97200 25.46200
C  6.80500 2.95900 22.60900
C  9.88800 1.52100 23.11100
C  9.74400 0.84000 21.73800
N  9.48700 2.30600 28.25700
C  10.03800 1.30500 27.49300
C  10.86100 0.43500 28.23700
C  10.67600 0.83200 29.58400
C  9.78900 1.99200 29.52100
C  11.37000 -0.89800 27.70400
C  10.89700 0.61300 31.01100
O  11.62300 -0.22600 31.51800
C  10.19200 1.83700 31.80500
C  9.38400 1.31400 32.90500
O  8.20400 1.01300 32.90800
O  10.13500 1.32600 34.04300
C  9.46600 0.89300 35.25400
H  5.88800 6.94200 30.25200
H  6.51600 5.34600 23.99600
H  10.05900 0.39900 25.46000
H  8.06900 3.70600 33.10400
H  7.60700 6.49900 32.24700
H  5.89200 6.12900 33.55400
H  5.65600 4.41000 33.11500
H  5.14600 5.69400 32.08400
H  9.42000 6.11300 33.30500
H  10.53700 4.91000 32.35800
H  11.20200 4.05800 34.27100
H  9.53500 3.80800 34.90300
H  4.32200 8.11900 29.17200
H  3.31300 7.78700 27.64400
H  4.40800 9.14100 27.71900
H  4.61300 9.62200 25.46700
H  3.16800 8.60000 25.52400
H  3.94500 9.25300 23.96900
H  8.64500 3.89900 23.11400
H  7.90000 1.02400 23.81900
H  5.88700 3.15100 23.16400
H  6.71200 1.94300 22.22600
H  6.98900 3.56600 21.72200
H  10.55100 0.83000 23.63200
H  10.50300 2.40300 22.93400
H  10.28600 -0.10200 21.65800
H  10.14200 1.49900 20.96600
H  8.69200 0.59800 21.58900
H  12.45600 -0.86300 27.61400
H  11.00500 -1.02500 26.68400
H  11.03000 -1.60700 28.45900
H  11.06300 2.36400 32.19400
H  8.94400 -0.05500 35.12700
H  8.77800 1.69200 35.53200
H  10.17200 0.80800 36.08000

