158

Mg 6.01900 53.60000 40.70300
C  4.87400 50.26600 40.39100
C  9.14400 52.66100 39.60700
C  6.84800 56.79700 40.70800
C  2.66700 54.47700 41.11600
N  6.88600 51.70800 40.10300
C  6.23700 50.48700 40.05900
C  7.27400 49.45000 39.71700
C  8.66300 50.19300 39.94200
C  8.18600 51.62300 39.81800
C  9.47700 49.75200 41.21000
C  7.18400 48.82900 38.29100
C  7.00100 49.74600 37.10100
H  6.14200 49.17600 35.96600
N  7.79100 54.65700 40.21500
C  8.94300 54.05700 39.77100
C  9.89100 55.14000 39.49500
C  9.36100 56.34900 40.03300
C  7.95000 55.97100 40.34100
C  11.25300 54.81500 38.97600
C  10.08900 57.70100 40.20700
O  11.24200 57.81600 39.83300
C  9.50400 58.76400 41.08300
N  4.94100 55.34500 40.68900
C  5.53600 56.49900 40.88200
C  4.51700 57.61700 40.94300
C  3.13600 56.94600 41.06900
C  3.63200 55.47400 40.99300
C  4.75100 58.64800 42.06700
C  2.03200 57.28700 40.01700
C  0.65800 57.59800 40.61600
N  4.14800 52.62700 40.75300
C  2.86000 53.07600 40.96400
C  1.93300 52.01300 41.18500
C  2.72400 50.86100 40.92300
C  4.02500 51.31900 40.67100
C  0.47400 52.07600 41.51600
C  2.68100 49.40800 40.83800
O  1.79400 48.67800 41.22900
C  4.08300 48.98100 40.46100
C  3.95400 48.17400 39.28900
O  3.51400 48.54700 38.21500
O  4.20100 46.86500 39.57300
C  3.84300 45.90500 38.48000
H  10.11500 52.26700 39.29800
H  7.04800 57.84700 40.48600
H  1.65700 54.71000 41.46100
H  7.14600 48.72900 40.52500
H  9.33500 50.11200 39.08700
H  9.39500 50.53500 41.96500
H  10.52500 49.64000 40.93200
H  9.15200 48.79800 41.62500
H  6.48800 47.99500 38.37700
H  8.10600 48.28400 38.08900
H  8.06600 49.86700 36.90100
H  6.66400 50.73200 37.42100
H  11.16200 54.13000 38.13400
H  11.87000 54.48700 39.81300
H  11.69200 55.74000 38.60300
H  10.13900 59.39000 41.71100
H  8.76400 58.27400 41.71400
H  8.96800 59.27100 40.28100
H  4.59200 58.07600 39.95800
H  2.80200 57.23100 42.06700
H  3.79200 59.13500 42.24300
H  5.41900 59.47800 41.83600
H  5.14000 58.18000 42.97200
H  2.03600 56.54700 39.21600
H  2.24800 58.27300 39.60500
H  0.44100 58.65500 40.46100
H  0.66000 57.34000 41.67500
H  -0.08600 57.01300 40.07600
H  0.60100 52.17500 42.59500
H  -0.13200 51.22100 41.21600
H  0.02800 52.98500 41.11300
H  4.52400 48.39000 41.26300
H  2.80400 45.98500 38.16000
H  4.27700 44.97100 38.83500
H  4.56300 46.17200 37.70600
Mg 16.52100 51.75500 25.91000
C  18.36100 50.27400 28.43300
C  14.18100 52.63600 28.12000
C  14.80000 53.21900 23.35800
C  19.02000 50.90600 23.67700
N  16.32300 51.40400 27.99700
C  17.15900 50.76500 28.89300
C  16.70200 50.92600 30.38800
C  15.21300 51.43000 30.16300
C  15.26800 51.91500 28.65600
C  14.10600 50.29500 30.35800
C  17.58400 51.97700 31.15200
C  17.99200 51.49900 32.58000
H  17.26200 52.22600 33.75800
N  14.69400 52.75000 25.73000
C  13.91300 52.97700 26.77900
C  12.79500 53.75900 26.34700
C  13.01400 54.12600 24.99200
C  14.15800 53.32000 24.60200
C  11.72900 54.20300 27.24700
C  12.26700 55.08200 24.07800
O  12.63300 55.38800 22.97200
C  11.07600 55.96000 24.59600
N  16.89800 51.96100 23.77700
C  15.99300 52.53500 22.96300
C  16.52100 52.69800 21.49300
C  17.88600 51.98200 21.54100
C  17.98400 51.60700 23.08400
C  15.58000 52.10600 20.39800
C  19.03500 52.87400 21.03400
C  19.48000 54.01900 21.97100
N  18.18600 50.64300 25.90800
C  19.17300 50.37700 24.97300
C  20.29100 49.63800 25.47200
C  19.98000 49.61700 26.85200
C  18.75900 50.24000 27.09100
C  21.52100 49.16600 24.83300
C  20.46100 49.09600 28.11500
O  21.44600 48.40700 28.39300
C  19.46800 49.61900 29.24800
C  19.06000 48.61300 30.23700
O  18.23500 47.72500 30.17600
O  19.93600 48.68500 31.36300
C  19.48600 47.78300 32.53500
H  13.45800 52.71700 28.93500
H  14.29700 53.66100 22.49500
H  19.81500 50.59100 22.99700
H  16.79600 49.98000 30.92200
H  14.97600 52.31700 30.75100
H  14.45800 49.49200 31.00500
H  13.84400 49.89200 29.38000
H  13.24800 50.77600 30.82800
H  16.90800 52.82600 31.25900
H  18.47700 52.08400 30.53600
H  19.06400 51.64200 32.72200
H  17.87800 50.43700 32.79600
H  12.00600 53.93900 28.26800
H  10.74100 53.82500 26.98200
H  11.62200 55.28500 27.17300
H  10.64300 56.50000 23.75500
H  11.41400 56.63600 25.38200
H  10.32800 55.24400 24.93700
H  16.59300 53.76100 21.26300
H  18.01100 51.08000 20.94200
H  16.09200 51.53600 19.62200
H  15.07500 52.93000 19.89500
H  14.83300 51.47600 20.88000
H  18.82400 53.32500 20.06400
H  19.90300 52.22600 20.91700
H  20.17500 53.59600 22.69600
H  18.64000 54.50900 22.46300
H  19.92900 54.80400 21.36300
H  22.25000 49.04200 25.63300
H  21.89100 49.90100 24.11800
H  21.19900 48.24100 24.35500
H  19.98300 50.44900 29.73100
H  19.82600 46.76400 32.35100
H  18.44300 47.76200 32.85100
H  20.02700 48.20300 33.38400

