158

Mg 46.58600 25.27700 28.71500
C  47.88200 27.67800 31.05000
C  45.57800 23.31800 31.31000
C  45.30400 23.12800 26.43300
C  47.88400 27.17700 26.18900
N  46.79500 25.54300 30.95100
C  47.19600 26.58400 31.66000
C  46.81100 26.37300 33.15300
C  46.38500 24.88600 33.11400
C  46.25400 24.53000 31.63800
C  47.31800 24.02300 34.04600
C  45.70700 27.33300 33.65500
C  46.14200 28.33700 34.75800
H  45.24400 28.29000 36.04700
N  45.67500 23.42700 28.88600
C  45.23400 22.84200 30.05900
C  44.47300 21.62000 29.71600
C  44.36600 21.54900 28.31500
C  45.15100 22.73200 27.82300
C  43.85300 20.67700 30.77000
C  43.58200 20.64500 27.40200
O  43.59600 20.74600 26.22400
C  42.68700 19.46200 27.88900
N  46.81600 25.09800 26.62800
C  46.01400 24.22300 25.92500
C  46.04800 24.44600 24.40400
C  46.71400 25.83800 24.41200
C  47.18000 26.06100 25.79700
C  47.02600 23.44800 23.63500
C  45.75200 26.97800 24.08500
C  46.23200 28.12900 23.23000
N  47.73500 27.04000 28.60800
C  48.15100 27.74900 27.49300
C  48.68500 29.03600 27.88200
C  48.59600 29.00000 29.28300
C  48.05800 27.81900 29.65300
C  49.11400 30.02800 26.98400
C  48.91500 29.77700 30.49400
O  49.50100 30.84900 30.61900
C  48.44600 28.91300 31.64100
C  49.53300 28.54700 32.56400
O  50.55000 27.93000 32.29400
O  49.23900 28.79900 33.84900
C  50.04500 28.26600 34.95300
H  45.23800 22.77000 32.19100
H  44.84200 22.57900 25.61000
H  48.20700 27.77000 25.33100
H  47.58100 26.73000 33.83600
H  45.40300 24.76800 33.57000
H  46.65900 23.36400 34.61100
H  47.89000 24.59400 34.77700
H  47.92900 23.44500 33.35300
H  44.80900 26.82900 34.01400
H  45.42200 27.82300 32.72300
H  46.19300 29.32700 34.30500
H  47.13100 28.15100 35.17500
H  44.00200 21.01000 31.79700
H  44.41000 19.76100 30.57500
H  42.78000 20.62300 30.58500
H  41.91700 19.71700 28.61700
H  43.30100 18.62800 28.22900
H  42.08700 19.07400 27.06600
H  45.08800 24.31400 23.90500
H  47.58200 26.01500 23.77700
H  47.34900 22.66200 24.31800
H  47.90200 23.94900 23.22400
H  46.45400 23.01800 22.81300
H  45.46100 27.43400 25.03100
H  44.89700 26.46700 23.64200
H  46.11800 29.09700 23.71800
H  45.76000 28.18600 22.24900
H  47.28300 28.08400 22.94600
H  48.83700 31.00000 27.39000
H  48.46200 29.98400 26.11200
H  50.14700 30.03200 26.63600
H  47.63600 29.47100 32.11000
H  50.73600 27.47600 34.66100
H  49.42300 27.90000 35.77000
H  50.49700 29.17500 35.34900
Mg 26.84100 50.22100 27.02000
C  24.87300 51.29800 29.63700
C  29.20500 49.07000 29.12100
C  28.74000 49.37300 24.24800
C  24.38300 51.51000 24.77600
N  26.97500 50.21800 29.12600
C  25.97200 50.56800 30.07500
C  26.28700 50.07400 31.50200
C  27.79600 49.57400 31.31100
C  28.01700 49.62300 29.75900
C  28.84000 50.42100 32.04500
C  25.22000 49.06900 32.09300
C  24.64300 49.36200 33.52600
H  25.59800 49.96800 34.64100
N  28.75700 49.51400 26.73400
C  29.60800 49.04800 27.70600
C  30.80200 48.45600 27.13800
C  30.75400 48.80100 25.74900
C  29.38100 49.25500 25.50900
C  31.87700 47.74900 27.96200
C  31.81000 48.62300 24.63900
O  31.56100 48.87600 23.45800
C  33.20800 48.17700 24.95100
N  26.58600 50.39200 24.85200
C  27.43000 49.87100 23.99600
C  26.78800 49.82600 22.54600
C  25.54900 50.73700 22.67900
C  25.46100 50.82700 24.18500
C  27.77300 50.36700 21.45600
C  24.28400 50.31300 21.94800
C  23.52200 49.12500 22.53600
N  25.03900 51.22300 27.17500
C  24.17800 51.65700 26.13600
C  23.06000 52.33600 26.76400
C  23.33100 52.26500 28.14200
C  24.51000 51.55200 28.31300
C  21.95900 53.05900 26.12000
C  22.76900 52.57700 29.45200
O  21.74300 53.17400 29.76400
C  23.82900 51.98500 30.55400
C  24.20700 52.93300 31.65000
O  25.08200 53.80900 31.52700
O  23.40600 52.71800 32.76700
C  23.54800 53.84400 33.67200
H  29.95900 48.71200 29.82500
H  29.20900 49.00600 23.33200
H  23.67800 51.91600 24.04800
H  26.34700 50.95200 32.14500
H  28.00300 48.60000 31.75600
H  28.87100 50.21600 33.11500
H  28.61100 51.47300 31.87700
H  29.84600 50.17800 31.70400
H  25.52200 48.02700 31.98800
H  24.33400 49.15200 31.46400
H  24.40200 48.36200 33.88600
H  23.69000 49.87700 33.40900
H  31.49300 47.35700 28.90400
H  32.54900 48.53900 28.29800
H  32.28700 46.87800 27.45200
H  33.26900 47.10900 24.73900
H  33.49500 48.36300 25.98600
H  33.88000 48.56500 24.18500
H  26.60100 48.77300 22.33300
H  25.86800 51.75100 22.44000
H  28.73800 50.61800 21.89500
H  27.49600 51.28300 20.93200
H  28.03300 49.57300 20.75600
H  24.75600 49.96700 21.02800
H  23.61200 51.11100 21.63000
H  23.68800 48.25800 21.89700
H  22.44500 49.29200 22.50000
H  23.86700 48.84600 23.53200
H  20.99800 52.62900 26.40400
H  21.85100 53.06700 25.03500
H  21.96500 54.09400 26.46100
H  23.22500 51.23200 31.06100
H  23.33100 54.68000 33.00800
H  24.54000 54.04300 34.07900
H  22.81800 53.79200 34.48000

