158

Mg 23.96100 -4.69200 46.18400
C  25.81900 -2.24200 44.51800
C  21.38700 -4.07000 43.82800
C  22.40500 -7.67300 46.97400
C  26.77100 -5.65000 47.86700
N  23.73900 -3.35300 44.34900
C  24.58000 -2.38800 43.90300
C  24.15000 -1.58700 42.71200
C  22.54300 -1.91500 42.82300
C  22.49300 -3.18100 43.70700
C  21.60500 -0.80500 43.43000
C  24.79900 -2.07900 41.45300
C  25.55600 -1.04000 40.58100
H  25.01100 -0.87200 39.13300
N  22.17000 -5.65400 45.63800
C  21.26900 -5.23100 44.73400
C  20.10700 -6.03400 44.78700
C  20.26700 -7.08600 45.71600
C  21.67100 -6.85000 46.15100
C  18.89000 -5.70300 43.92200
C  19.31200 -8.14800 46.09400
O  18.23000 -8.15100 45.55500
C  19.64200 -9.22000 47.17500
N  24.53700 -6.45800 47.36900
C  23.64900 -7.47800 47.58100
C  24.38600 -8.59700 48.33400
C  25.78300 -7.98700 48.58100
C  25.70000 -6.60400 47.98000
C  23.65000 -9.12800 49.72200
C  26.99600 -8.79600 47.91400
C  28.18800 -8.96200 48.85100
N  25.88700 -3.97400 46.44100
C  26.90900 -4.43000 47.22600
C  28.02300 -3.49500 47.13200
C  27.62700 -2.64300 46.13100
C  26.27700 -2.97000 45.69100
C  29.36500 -3.65600 47.74800
C  28.01800 -1.50300 45.38800
O  29.05200 -0.86900 45.47600
C  26.87300 -1.26800 44.21500
C  26.51500 0.11600 44.21100
O  25.84100 0.63100 45.09600
O  27.09600 0.73600 43.13200
C  27.29400 2.15800 43.33700
H  20.45400 -3.89900 43.28800
H  22.03800 -8.69300 47.10700
H  27.63500 -5.94100 48.46700
H  24.25500 -0.51300 42.86500
H  22.15000 -2.07200 41.81800
H  22.30900 -0.08600 43.85000
H  21.08800 -1.27700 44.26500
H  20.97300 -0.32700 42.68100
H  24.02600 -2.42100 40.76500
H  25.49800 -2.89300 41.64600
H  26.58800 -1.38700 40.54700
H  25.58500 -0.09000 41.11300
H  19.18300 -5.39700 42.91800
H  18.46100 -4.80200 44.36000
H  18.13100 -6.48500 43.96900
H  20.39000 -9.93100 46.82300
H  18.74500 -9.82900 47.28300
H  19.77500 -8.71900 48.13400
H  24.44300 -9.43300 47.63700
H  26.01500 -7.81400 49.63200
H  23.77000 -10.21200 49.73000
H  22.62600 -8.75500 49.72700
H  24.06000 -8.87200 50.69900
H  27.47200 -8.40900 47.01200
H  26.68800 -9.80500 47.64200
H  28.02700 -9.84100 49.47500
H  28.30500 -8.04200 49.42400
H  29.13500 -8.95600 48.31200
H  29.58500 -4.66200 48.10500
H  29.48800 -2.91100 48.53300
H  30.06500 -3.38000 46.96000
H  27.29400 -1.49300 43.23500
H  28.03200 2.51100 42.61600
H  27.53800 2.43400 44.36300
H  26.39600 2.70100 43.04500
Mg 42.47900 41.86200 26.40900
C  41.46900 44.19700 28.82300
C  43.52100 39.78300 28.90600
C  43.39100 39.52800 24.14800
C  41.86300 44.21700 23.91000
N  42.47500 42.04200 28.61600
C  41.92900 43.00000 29.39200
C  41.87100 42.58200 30.91300
C  42.51300 41.15000 30.91100
C  42.92200 41.00100 29.39500
C  43.76500 40.97100 31.84400
C  40.47100 42.59200 31.56000
C  40.20800 43.44700 32.79800
H  39.37900 42.90000 33.93200
N  43.35600 39.96900 26.51700
C  43.69800 39.29700 27.61100
C  44.14400 37.99800 27.31200
C  43.88300 37.77700 25.92800
C  43.50400 39.14000 25.48700
C  44.66200 37.06800 28.39200
C  44.08300 36.48500 25.07900
O  43.72400 36.45000 23.89700
C  44.43900 35.18500 25.87600
N  42.69500 41.90000 24.30800
C  42.96500 40.79600 23.58700
C  42.87500 41.06200 22.09800
C  42.29300 42.49500 22.04100
C  42.31200 42.93900 23.52700
C  44.26700 40.77800 21.36700
C  40.87200 42.73800 21.39800
C  40.71700 43.89900 20.40800
N  41.81000 43.87500 26.34500
C  41.63900 44.64100 25.26600
C  41.01500 45.91000 25.68800
C  40.84000 45.72500 27.09600
C  41.40800 44.50700 27.41800
C  40.63600 47.00900 24.84500
C  40.44400 46.42400 28.27100
O  40.01900 47.55000 28.40600
C  40.86300 45.38100 29.48000
C  41.85600 46.03300 30.47700
O  43.08000 45.90800 30.46000
O  41.16200 46.59800 31.53600
C  42.00500 47.02000 32.67400
H  43.74700 39.19200 29.79700
H  43.60300 38.79100 23.37200
H  41.63900 44.84800 23.04800
H  42.45400 43.30000 31.48900
H  41.83900 40.31400 31.10300
H  43.63100 41.57600 32.74000
H  44.65800 41.37600 31.36800
H  43.97100 39.94500 32.14800
H  40.06900 41.61400 31.82500
H  39.82100 42.98900 30.78000
H  39.79600 44.44000 32.61500
H  41.17100 43.73900 33.21700
H  43.84900 36.40500 28.68500
H  45.15100 37.59700 29.21000
H  45.33900 36.29900 28.02000
H  45.51600 35.18500 26.04400
H  44.23300 34.33400 25.22800
H  43.77600 34.99900 26.72000
H  42.12100 40.37600 21.71100
H  43.04800 43.06300 21.49800
H  45.11100 40.75100 22.05600
H  44.47100 41.59200 20.67100
H  44.22200 39.81400 20.86100
H  40.21400 42.90300 22.25200
H  40.39200 41.86700 20.95200
H  39.94700 44.47500 20.92000
H  40.04400 43.59100 19.60800
H  41.52400 44.47800 19.95900
H  40.57400 46.59600 23.83800
H  41.35300 47.82900 24.89000
H  39.64000 47.40900 25.03900
H  40.01600 45.03600 30.07400
H  43.05200 47.15300 32.40100
H  41.93300 46.30600 33.49400
H  41.62800 47.98000 33.02700

