158

Mg 29.35200 57.84200 38.84100
C  26.34300 56.09900 38.06900
C  31.21300 55.07700 37.89700
C  32.11200 59.68300 38.68200
C  27.36600 60.75500 39.01300
N  28.79800 55.83500 38.09200
C  27.54300 55.34900 37.84800
C  27.63400 53.94300 37.25900
C  29.07500 53.47800 37.75200
C  29.78900 54.89300 37.92000
C  29.00200 52.54300 39.04000
C  27.48700 53.99900 35.73900
C  26.24500 53.47600 34.99000
H  25.51800 54.37900 33.97100
N  31.45000 57.39800 38.36900
C  31.98900 56.24900 37.99200
C  33.43200 56.45900 37.82900
C  33.76600 57.77000 38.20800
C  32.45700 58.36200 38.41300
C  34.45500 55.36800 37.55900
C  35.11500 58.37200 38.55900
O  36.12000 57.62600 38.46300
C  35.34300 59.81900 39.08700
N  29.66600 59.89500 38.86200
C  30.91400 60.37700 38.92400
C  30.90100 61.96000 38.97500
C  29.43100 62.27600 39.22100
C  28.76400 60.89600 39.00500
C  31.86600 62.68300 40.05100
C  28.96300 63.48200 38.36500
C  28.21100 64.64600 39.06800
N  27.25300 58.36600 38.80700
C  26.65700 59.56600 38.92500
C  25.21200 59.35600 38.96800
C  25.00800 57.97200 38.57100
C  26.33200 57.44100 38.48600
C  24.14300 60.42000 39.05200
C  24.07500 56.93700 38.10100
O  22.87100 57.03000 37.82500
C  24.89500 55.67600 37.81500
C  24.42000 54.73100 38.85200
O  24.46900 54.93000 40.06500
O  23.95100 53.62100 38.28900
C  23.38400 52.65900 39.25300
H  31.81800 54.21300 37.61700
H  32.92100 60.41600 38.67400
H  26.84700 61.71600 39.00300
H  26.87200 53.26300 37.64000
H  29.58700 52.87100 37.00600
H  27.99100 52.24900 39.32200
H  29.30200 53.19000 39.86500
H  29.69500 51.70200 39.03300
H  28.24700 53.39400 35.24500
H  27.46900 55.00700 35.32300
H  25.54500 53.22400 35.78600
H  26.57200 52.55700 34.50200
H  34.10500 54.49000 37.01500
H  34.84600 55.08300 38.53500
H  35.24100 55.66500 36.86500
H  36.30700 59.73700 39.58900
H  34.64100 59.87300 39.92000
H  35.26800 60.69400 38.44200
H  31.22500 62.33800 38.00500
H  29.19800 62.57000 40.24400
H  32.23600 61.83700 40.63100
H  31.35800 63.42900 40.66200
H  32.77600 63.05500 39.58000
H  28.30600 63.14900 37.56200
H  29.76500 64.00900 37.85000
H  27.54500 65.22800 38.43100
H  28.88600 65.42600 39.41900
H  27.45900 64.24500 39.74800
H  23.19700 59.88200 38.99000
H  24.11800 61.15600 38.24800
H  24.20800 61.02300 39.95700
H  24.55700 55.26200 36.86500
H  23.60300 51.66800 38.85700
H  22.35800 52.84300 39.57200
H  24.05500 52.49900 40.09700
Mg 36.31400 49.49300 24.61900
C  36.26100 47.61200 27.65900
C  35.41200 52.28000 26.40300
C  36.20400 51.16500 21.65400
C  36.92000 46.53200 22.97000
N  35.78700 49.88200 26.82300
C  35.96800 48.99700 27.86900
C  35.67300 49.67900 29.21100
C  35.26900 51.12600 28.71800
C  35.47600 51.12000 27.17100
C  33.85500 51.68300 29.14300
C  36.96300 49.67300 30.10000
C  36.61500 49.38400 31.63600
H  35.19800 49.57100 32.22000
N  35.97000 51.45900 24.13300
C  35.68700 52.44600 25.01400
C  35.46400 53.64900 24.27800
C  35.76800 53.40300 22.89300
C  35.96300 51.91200 22.86600
C  35.08900 55.00700 24.86100
C  35.85300 54.39300 21.71000
O  36.13200 53.99900 20.58100
C  35.57500 55.88500 21.83800
N  36.44700 48.91200 22.67300
C  36.39800 49.79200 21.60700
C  36.64100 49.01900 20.20100
C  37.19100 47.69900 20.75000
C  36.79600 47.69300 22.20600
C  35.46800 48.99900 19.25800
C  38.73000 47.45200 20.46100
C  39.70600 48.34300 21.30400
N  36.49300 47.47200 25.18900
C  36.72500 46.35500 24.41100
C  36.75800 45.14400 25.21400
C  36.64700 45.62800 26.50900
C  36.45000 47.01300 26.48500
C  36.84600 43.69800 24.56700
C  36.51400 45.19300 27.91000
O  36.50900 44.07800 28.36500
C  36.36000 46.47900 28.73600
C  35.09800 46.36400 29.65900
O  33.92900 46.51400 29.40000
O  35.57800 45.78700 30.78100
C  34.45300 45.24800 31.64700
H  34.95100 53.18800 26.79800
H  36.13800 51.71800 20.71400
H  37.06200 45.66300 22.32500
H  34.83400 49.22800 29.74200
H  36.04900 51.84800 28.96300
H  33.38400 51.32200 30.05800
H  33.11300 51.73100 28.34600
H  33.99100 52.74000 29.37300
H  37.41600 50.65700 29.98400
H  37.68200 48.94700 29.71900
H  37.33300 50.05900 32.10300
H  36.89500 48.34200 31.78900
H  35.82300 55.70400 24.45700
H  35.28700 54.97900 25.93300
H  34.07600 55.32600 24.61400
H  36.12700 56.43400 22.60100
H  34.49400 56.01200 21.78500
H  36.01000 56.32900 20.94300
H  37.51600 49.47800 19.74100
H  36.61900 46.86300 20.34700
H  36.03400 48.93100 18.32900
H  34.91700 49.93400 19.36100
H  34.79600 48.16800 19.47300
H  38.88400 47.74700 19.42300
H  39.01100 46.40200 20.54100
H  40.45600 48.81300 20.66600
H  40.26000 47.93600 22.14900
H  39.17100 49.11700 21.85300
H  37.43100 43.64900 23.64800
H  35.83600 43.38700 24.30100
H  37.29400 43.03300 25.30600
H  37.21100 46.72400 29.37200
H  34.87500 44.56100 32.38000
H  33.74700 44.69200 31.03000
H  34.00200 46.14400 32.07500

