158

Mg 46.86700 17.05000 28.46600
C  45.05200 16.95400 31.44700
C  49.30600 18.44400 30.21800
C  48.10400 17.98100 25.57600
C  43.96000 15.83400 26.71200
N  47.05600 17.68700 30.60900
C  46.25500 17.49700 31.70000
C  46.82300 17.86900 33.03400
C  48.12300 18.58400 32.48100
C  48.28900 18.04600 31.03400
C  48.22000 20.13000 32.74800
C  47.05400 16.61700 33.87200
C  46.60400 16.70600 35.38400
H  46.04900 17.97000 36.08500
N  48.59000 17.95100 27.93000
C  49.47400 18.44600 28.80800
C  50.54000 19.01800 28.09600
C  50.35200 18.80000 26.69800
C  48.98900 18.26000 26.62300
C  51.62500 19.81800 28.80800
C  51.27500 19.12200 25.53100
O  50.84900 18.91900 24.41400
C  52.76900 19.56600 25.66400
N  46.10600 16.81700 26.41800
C  46.87300 17.31800 25.40200
C  46.21400 17.18700 24.06800
C  45.06500 16.27100 24.40900
C  45.01100 16.18900 25.97200
C  45.72800 18.54100 23.48000
C  45.00700 14.95400 23.57900
C  45.57700 13.62800 24.17400
N  44.87500 16.31500 28.92200
C  43.86900 15.82800 28.14000
C  42.76300 15.47500 29.01800
C  43.16000 15.89500 30.32300
C  44.48800 16.41400 30.19700
C  41.32300 15.07300 28.69900
C  42.74200 15.97900 31.72600
O  41.69400 15.60000 32.27800
C  43.98600 16.63600 32.43800
C  43.40900 17.89200 32.95800
O  43.32900 18.96500 32.37700
O  42.77500 17.60800 34.18400
C  41.77900 18.61800 34.68300
H  50.12100 18.81200 30.84500
H  48.52500 18.54700 24.74300
H  43.10500 15.41500 26.17800
H  46.16800 18.56300 33.56200
H  48.95200 18.13900 33.03100
H  47.24600 20.55600 32.99100
H  48.65900 20.69600 31.92600
H  48.87800 20.35800 33.58600
H  48.13000 16.47000 33.96100
H  46.58600 15.75200 33.40100
H  47.44000 16.40100 36.01300
H  45.96200 15.82500 35.41800
H  52.57500 19.42700 28.44400
H  51.79800 19.61800 29.86500
H  51.56300 20.88500 28.59700
H  52.66200 20.65000 25.69700
H  53.25100 19.22600 24.74700
H  53.28700 19.13900 26.52300
H  46.94500 16.69400 23.42700
H  44.09800 16.71200 24.16600
H  45.68600 19.16900 24.37000
H  44.72600 18.48200 23.05500
H  46.48400 18.83700 22.75300
H  45.46600 15.13500 22.60700
H  43.95100 14.70900 23.46800
H  44.74200 12.95900 24.38000
H  46.16700 13.79000 25.07700
H  46.14400 13.02200 23.46800
H  41.06100 15.44300 27.70800
H  40.70500 15.64200 29.39400
H  41.15000 13.99700 28.69100
H  44.22600 16.12100 33.36800
H  40.86900 18.52900 34.08900
H  42.17800 19.62600 34.56600
H  41.65000 18.43000 35.74900
Mg 30.56400 58.23800 40.60000
C  27.93700 56.07400 39.61800
C  32.76100 55.87400 39.32100
C  32.98400 60.58500 40.64800
C  28.21200 60.83400 40.69800
N  30.32900 56.14300 39.61700
C  29.23600 55.47300 39.30900
C  29.55700 54.13900 38.56500
C  31.04500 53.97200 38.96500
C  31.40100 55.39900 39.37300
C  31.31800 53.07000 40.24400
C  29.35000 54.29400 37.04800
C  28.25700 53.32200 36.46700
H  27.33200 53.92400 35.40700
N  32.64900 58.22300 40.02500
C  33.31800 57.18500 39.44900
C  34.65900 57.61700 39.21400
C  34.76400 58.99800 39.55200
C  33.38700 59.32900 40.10300
C  35.69500 56.79700 38.58300
C  36.01700 59.87200 39.34400
O  37.07000 59.31200 38.95400
C  36.07500 61.40700 39.52800
N  30.53200 60.50900 40.63600
C  31.68800 61.11400 40.88400
C  31.49700 62.55100 41.39800
C  29.93900 62.69400 41.28100
C  29.50800 61.24000 40.88200
C  32.15700 62.80200 42.80700
C  29.42500 63.81700 40.32200
C  28.76200 64.94800 41.13300
N  28.48400 58.44600 40.43800
C  27.66400 59.56100 40.47100
C  26.29900 59.18200 40.38400
C  26.28400 57.77400 40.05000
C  27.69700 57.39300 40.05000
C  25.19500 60.15400 40.42600
C  25.53800 56.61100 39.63900
O  24.33400 56.38400 39.45800
C  26.55100 55.39900 39.52800
C  26.28200 54.43600 40.59500
O  26.11500 54.74300 41.77000
O  26.11200 53.19800 40.09200
C  25.65900 52.15900 40.96400
H  33.40000 55.11900 38.85800
H  33.85900 61.16100 40.95800
H  27.41100 61.56100 40.84000
H  29.06600 53.25700 38.97600
H  31.67400 53.71400 38.11300
H  30.41100 53.14000 40.84500
H  32.21300 53.39300 40.77600
H  31.62500 52.04400 40.04500
H  30.21400 54.12000 36.40700
H  29.00500 55.31000 36.85600
H  27.60600 53.03500 37.29200
H  28.81300 52.54900 35.93800
H  36.72700 57.07700 38.79400
H  35.49200 56.84900 37.51300
H  35.63800 55.73600 38.82300
H  36.28900 61.63900 40.57200
H  35.05700 61.77700 39.40600
H  36.85400 61.98900 39.03600
H  32.15300 63.17900 40.79500
H  29.44200 62.84000 42.24000
H  32.73400 61.91100 43.05500
H  31.28900 62.94700 43.45100
H  32.70800 63.74000 42.74200
H  28.65500 63.46600 39.63500
H  30.27200 64.20400 39.75700
H  28.64100 65.79500 40.45800
H  29.35900 65.21000 42.00700
H  27.74600 64.65000 41.39200
H  25.12900 60.50700 41.45500
H  24.34700 59.51400 40.18500
H  25.22800 61.02200 39.76700
H  26.55200 54.84800 38.58700
H  25.49600 51.31700 40.29100
H  24.80200 52.58400 41.48600
H  26.43300 51.81900 41.65100

