158

Mg 49.25700 45.79400 42.01000
C  45.85300 46.52200 41.12100
C  48.88200 42.79200 40.55000
C  52.59900 45.46400 42.21500
C  49.61600 49.23700 42.98100
N  47.60300 44.85200 40.92700
C  46.28500 45.27000 40.74200
C  45.40600 44.13900 40.10800
C  46.39000 42.96300 40.06000
C  47.72200 43.57000 40.55300
C  46.03100 41.69300 40.78100
C  45.00900 44.53900 38.62700
C  43.48000 44.28500 38.19800
H  43.23500 43.27100 37.16300
N  50.55300 44.30000 41.55200
C  50.15400 43.08100 41.01500
C  51.27900 42.20200 40.88800
C  52.46900 42.93300 41.33300
C  51.91200 44.31400 41.76600
C  51.16700 40.68700 40.49700
C  53.92700 42.45400 41.40900
O  54.14100 41.32400 41.03200
C  55.05900 43.36200 41.71000
N  50.88500 47.15300 42.44100
C  52.13700 46.74100 42.50200
C  53.04000 47.85200 42.99600
C  52.09900 49.05400 43.25100
C  50.76200 48.49600 42.76900
C  53.97400 47.39100 44.14700
C  52.49100 50.46500 42.61500
C  53.33400 51.35900 43.53800
N  48.03000 47.58000 42.08400
C  48.27000 48.87300 42.61500
C  47.00500 49.58800 42.51600
C  46.02400 48.63100 42.11900
C  46.71800 47.53500 41.69600
C  46.78300 51.01200 43.09000
C  44.59800 48.43600 42.04400
O  43.62700 49.12400 42.34300
C  44.39400 47.07900 41.23500
C  43.37600 46.25300 41.84100
O  42.24200 46.02600 41.33900
O  43.73200 45.67700 43.02100
C  42.91100 44.56200 43.45500
H  48.63500 41.78400 40.21100
H  53.68700 45.42800 42.30700
H  49.51900 50.21800 43.45100
H  44.43000 44.06700 40.58800
H  46.51400 42.66000 39.02000
H  46.37700 41.56200 41.80600
H  46.39500 40.88700 40.14300
H  44.95000 41.55800 40.80100
H  45.75900 44.21100 37.90700
H  45.06100 45.61500 38.46100
H  43.12800 45.20700 37.73400
H  42.80100 44.14600 39.03900
H  50.99600 40.47300 39.44100
H  50.43400 40.22700 41.15900
H  52.09800 40.17800 40.74500
H  55.00300 43.67100 42.75300
H  55.11900 44.30300 41.16300
H  55.99000 42.83600 41.50000
H  53.69900 48.11700 42.16900
H  52.09900 49.15700 44.33600
H  54.07800 48.17500 44.89600
H  54.94000 47.05300 43.77200
H  53.48300 46.47800 44.48300
H  51.57800 50.95000 42.27000
H  53.14300 50.39400 41.74400
H  54.35100 51.55800 43.20000
H  53.36000 50.94000 44.54400
H  52.80800 52.30900 43.63600
H  47.31000 51.03100 44.04400
H  45.75100 51.26300 43.33500
H  47.20100 51.78300 42.44300
H  44.18300 47.34500 40.19900
H  42.85600 43.84900 42.63200
H  41.91900 44.91000 43.74400
H  43.37800 44.22400 44.38000
Mg 47.53400 35.44100 26.61800
C  46.04300 33.75800 29.17900
C  48.09000 38.12700 28.60400
C  49.15000 37.00600 24.06900
C  46.74400 32.76900 24.54100
N  47.07600 35.90500 28.67800
C  46.53500 35.01900 29.57400
C  46.66000 35.60500 31.02300
C  47.14800 37.11900 30.77900
C  47.49600 37.03300 29.25700
C  46.12500 38.25000 31.10700
C  47.72200 34.77900 31.76200
C  47.58400 34.84100 33.28800
H  46.73100 35.92500 33.98000
N  48.55400 37.30200 26.37400
C  48.67500 38.29700 27.31800
C  49.28800 39.45200 26.80800
C  49.65800 39.16900 25.42300
C  49.14000 37.77400 25.22400
C  49.47400 40.76700 27.52800
C  50.35200 40.07400 24.44300
O  50.63800 39.64800 23.32600
C  50.56400 41.59300 24.63900
N  47.71100 34.98600 24.54300
C  48.58400 35.70600 23.78800
C  48.78000 35.09400 22.41100
C  48.12200 33.71700 22.62300
C  47.42800 33.77800 23.94100
C  48.11200 35.95700 21.29300
C  49.13600 32.48500 22.45700
C  49.10700 31.68600 21.13000
N  46.41000 33.70600 26.76200
C  46.17000 32.75000 25.82500
C  45.59700 31.58400 26.45500
C  45.39800 31.89300 27.78000
C  46.01700 33.21000 27.93300
C  45.30900 30.24900 25.81500
C  44.94900 31.47100 29.10600
O  44.25000 30.53600 29.45200
C  45.20000 32.76400 30.02000
C  45.58400 32.28200 31.30800
O  46.48000 31.41500 31.48500
O  44.78000 32.80000 32.29800
C  44.75400 32.13400 33.55100
H  48.12000 39.01000 29.24600
H  49.72600 37.35900 23.21100
H  46.56000 31.94200 23.85200
H  45.69800 35.47100 31.51700
H  48.06100 37.33000 31.33600
H  45.76900 38.86300 30.27900
H  46.65900 38.99700 31.69400
H  45.36100 37.83400 31.76400
H  48.70400 35.15000 31.46900
H  47.81300 33.78800 31.31800
H  48.59500 34.85600 33.69500
H  47.30000 33.84500 33.62900
H  49.24600 41.65900 26.94400
H  50.50800 40.76200 27.87400
H  48.89800 40.85300 28.45000
H  50.77700 42.10900 23.70300
H  51.27500 41.92800 25.39500
H  49.61100 41.98700 24.99000
H  49.81700 34.94600 22.10900
H  47.25000 33.51400 22.00100
H  47.26400 35.43800 20.84500
H  48.80700 36.24900 20.50600
H  47.57100 36.78900 21.74200
H  48.94700 31.68300 23.17100
H  50.15600 32.84200 22.59700
H  48.13300 31.79600 20.65300
H  49.23700 30.62500 21.34600
H  49.93400 31.94800 20.46900
H  44.69400 30.38300 24.92500
H  44.93700 29.63000 26.63100
H  46.23300 29.80300 25.44600
H  44.20600 33.19200 30.14500
H  44.84500 32.76000 34.43900
H  45.47600 31.33300 33.71200
H  43.76600 31.67600 33.60100

