158

Mg 43.19900 42.12800 26.25400
C  42.45900 44.71900 28.64700
C  44.69100 40.41500 28.85600
C  44.43600 40.16500 23.92800
C  42.05200 44.46100 23.79300
N  43.52500 42.58000 28.53300
C  42.98000 43.57900 29.25400
C  42.98500 43.22400 30.78900
C  43.85600 41.89500 30.81600
C  44.07400 41.61100 29.29500
C  45.05900 41.88100 31.71800
C  41.51900 43.12100 31.30500
C  41.05800 44.12800 32.46400
H  40.39500 43.57100 33.71900
N  44.32000 40.43200 26.36000
C  44.83500 39.88300 27.55600
C  45.47100 38.60100 27.14100
C  45.32600 38.47300 25.74100
C  44.64100 39.71200 25.24900
C  46.13800 37.69000 28.09200
C  45.82300 37.37000 24.80500
O  45.56700 37.38000 23.61100
C  46.74700 36.40700 25.37800
N  43.15500 42.32700 24.12600
C  43.69300 41.21700 23.42300
C  43.52200 41.46900 21.93000
C  42.57900 42.78300 21.81700
C  42.57300 43.19900 23.34000
C  44.92300 41.55900 21.21900
C  41.14500 42.45200 21.34800
C  40.45500 41.12400 21.95000
N  42.36900 44.11700 26.15700
C  41.98500 44.87700 25.08900
C  41.41600 46.12600 25.53600
C  41.52900 46.06200 26.94500
C  42.16100 44.89600 27.28700
C  40.87900 47.32500 24.77300
C  41.21800 46.82800 28.16700
O  40.61800 47.91400 28.34000
C  41.82000 45.87700 29.30100
C  42.84800 46.70600 30.13700
O  43.99100 46.84800 29.88700
O  42.27500 47.09300 31.31200
C  43.12700 47.56900 32.40700
H  44.99500 39.75300 29.67000
H  44.83300 39.53400 23.13000
H  41.61500 45.05900 22.99100
H  43.60100 43.94300 31.32900
H  43.19500 41.10600 31.17300
H  45.02100 42.51900 32.60000
H  45.98100 42.21900 31.24700
H  45.23300 40.87500 32.10100
H  41.40100 42.10100 31.67000
H  40.74200 43.19100 30.54400
H  40.35100 44.87500 32.10400
H  41.92400 44.68900 32.81500
H  45.78400 37.75800 29.12100
H  47.20300 37.90000 28.18400
H  45.93400 36.64400 27.86100
H  46.13900 35.70100 25.94400
H  47.46300 36.91300 26.02600
H  47.26200 35.85900 24.58900
H  42.92300 40.67300 21.48900
H  42.93400 43.49200 21.06900
H  45.61900 41.83500 22.01100
H  44.96900 42.29900 20.42000
H  45.23300 40.60900 20.78300
H  41.06100 42.48200 20.26200
H  40.60300 43.34400 21.66300
H  39.82800 40.63000 21.20800
H  39.62200 41.42200 22.58700
H  41.07400 40.42000 22.50700
H  39.87900 47.58200 25.12000
H  40.99100 47.10200 23.71100
H  41.39500 48.22700 25.10100
H  41.08400 45.32100 29.88200
H  42.78800 48.55900 32.71200
H  44.16200 47.83900 32.19700
H  43.20700 46.90000 33.26400
Mg -1.08400 34.01400 26.88100
C  -2.86400 32.49500 29.30600
C  0.15000 36.25100 29.28700
C  0.33400 35.92800 24.41100
C  -2.68800 32.17700 24.49400
N  -1.45200 34.33800 29.10900
C  -2.06700 33.42200 29.88400
C  -1.68500 33.63300 31.41100
C  -0.83400 34.98300 31.31900
C  -0.72300 35.25500 29.78300
C  -1.27300 36.18400 32.18000
C  -1.04500 32.30400 31.98900
C  -1.92200 31.59900 33.13600
H  -1.25600 31.41700 34.53500
N  0.09300 35.77700 26.88100
C  0.47000 36.52100 27.98800
C  1.33800 37.56000 27.54900
C  1.38500 37.52300 26.11900
C  0.59400 36.38100 25.72700
C  2.01400 38.51200 28.51300
C  2.10800 38.37900 25.09600
O  2.04700 38.23000 23.88300
C  2.93400 39.53400 25.60400
N  -1.19800 34.03900 24.72800
C  -0.37000 34.83300 23.95600
C  -0.35400 34.38600 22.49600
C  -1.42800 33.21600 22.48900
C  -1.72900 33.03100 24.01500
C  -0.62400 35.40900 21.41400
C  -1.03700 31.98600 21.57400
C  -0.37800 30.74000 22.31800
N  -2.53800 32.67700 26.85800
C  -3.13900 31.98400 25.82500
C  -4.14300 31.16100 26.34200
C  -4.06800 31.22800 27.72400
C  -3.08100 32.20000 28.00500
C  -5.03700 30.18200 25.55700
C  -4.60600 30.77200 28.98700
O  -5.47500 29.92900 29.16900
C  -3.77500 31.56400 30.09200
C  -4.83100 32.23000 30.88100
O  -5.30400 33.30400 30.53800
O  -5.19300 31.47800 32.00500
C  -6.34200 32.03500 32.77900
H  0.67900 36.81300 30.05900
H  0.70600 36.54300 23.58900
H  -3.00200 31.51400 23.68500
H  -2.60600 33.98200 31.87800
H  0.22300 35.00300 31.58800
H  -2.00100 35.83000 32.90900
H  -1.78800 36.89200 31.53000
H  -0.45900 36.76500 32.61400
H  -0.08800 32.57100 32.43600
H  -0.86000 31.51400 31.26100
H  -2.19300 30.58000 32.86100
H  -2.79500 32.18800 33.41500
H  3.06500 38.59500 28.23800
H  1.94100 38.12600 29.52900
H  1.59300 39.51800 28.51500
H  3.03600 40.37200 24.91400
H  3.90400 39.11400 25.86700
H  2.40400 39.87900 26.49200
H  0.64200 33.96500 22.35900
H  -2.42000 33.55600 22.19200
H  -1.02800 36.32300 21.84800
H  -1.27000 34.94700 20.66700
H  0.38400 35.61800 21.05600
H  -0.28500 32.30900 20.85400
H  -1.91100 31.64200 21.01900
H  0.49100 30.46300 21.72100
H  -1.05300 29.88500 22.36300
H  -0.15100 31.10500 23.32000
H  -4.55000 29.70800 24.70400
H  -5.89700 30.64400 25.07200
H  -5.23900 29.36500 26.25000
H  -3.31400 30.75100 30.65300
H  -6.95300 32.75900 32.24000
H  -5.74300 32.47300 33.57700
H  -6.94400 31.21300 33.16500

