158

Mg 43.91500 3.89200 46.98500
C  42.05300 6.72700 46.87900
C  40.91000 1.98600 46.80400
C  45.76000 1.20300 46.40200
C  46.86100 5.84800 46.46500
N  41.71800 4.37500 46.96100
C  41.19600 5.58700 46.86000
C  39.68000 5.52100 46.80700
C  39.30300 4.02100 46.94700
C  40.73400 3.40200 46.84500
C  38.52400 3.69700 48.26200
C  39.09400 6.22900 45.61400
C  39.44100 5.64600 44.21800
H  39.91400 6.62900 43.17100
N  43.37300 1.85300 46.78000
C  42.12300 1.21600 46.81000
C  42.26000 -0.15600 46.64400
C  43.58700 -0.37100 46.32900
C  44.35300 0.88500 46.44700
C  41.01700 -1.08100 46.73200
C  44.08500 -1.73800 45.92000
O  43.23800 -2.62400 45.86800
C  45.46600 -1.96400 45.56600
N  46.06500 3.59700 46.50000
C  46.48100 2.36900 46.48000
C  48.07100 2.31700 46.55300
C  48.43100 3.79100 46.36900
C  47.09700 4.51000 46.49200
C  48.50700 1.74600 47.92900
C  48.97000 4.15200 44.92300
C  50.44200 4.50100 44.94900
N  44.38600 5.87400 46.67300
C  45.62500 6.54400 46.51300
C  45.37600 8.00900 46.52900
C  43.97600 8.07000 46.64500
C  43.41300 6.81700 46.75100
C  46.30400 9.08000 46.56700
C  42.91500 8.93100 46.79600
O  42.95600 10.18000 46.81100
C  41.58100 8.18500 46.85800
C  40.73000 8.68200 47.92600
O  40.42600 8.04000 48.88900
O  40.18000 9.89400 47.54600
C  38.97100 10.32500 48.25500
H  39.97100 1.44900 46.65400
H  46.40800 0.32800 46.48500
H  47.71600 6.52300 46.38700
H  39.28700 6.13200 47.61900
H  38.72500 3.68000 46.08800
H  39.23400 3.84500 49.07600
H  38.39500 2.62200 48.38400
H  37.62600 4.28100 48.46200
H  39.45600 7.25500 45.56100
H  38.00800 6.27700 45.69800
H  38.58700 5.05200 43.89100
H  40.31000 5.01300 44.39600
H  40.77700 -1.52100 45.76400
H  40.10600 -0.51100 46.91500
H  41.16500 -1.84900 47.49100
H  46.05700 -2.16600 46.45900
H  45.80700 -1.08800 45.01400
H  45.50400 -2.80700 44.87600
H  48.46600 1.81000 45.67200
H  48.99800 4.30800 47.14300
H  47.68700 1.51100 48.60700
H  49.13600 2.50100 48.40000
H  49.01900 0.80200 47.74100
H  48.37500 4.95400 44.48600
H  48.70800 3.30400 44.29000
H  50.95400 3.91800 44.18300
H  50.80900 4.15900 45.91600
H  50.67200 5.56500 44.88900
H  45.87300 10.02900 46.24800
H  47.05300 8.88000 45.80100
H  46.77000 9.20700 47.54400
H  41.10500 8.50600 45.93200
H  38.98300 10.26000 49.34300
H  38.07200 9.83600 47.87900
H  38.79600 11.39200 48.11200
Mg -5.66900 26.30400 25.81000
C  -4.14700 27.38500 28.53200
C  -7.09600 23.72100 27.62200
C  -6.67000 24.72700 22.87600
C  -3.73400 28.40100 23.79400
N  -5.48400 25.46500 27.86300
C  -4.91700 26.26600 28.81900
C  -5.35000 25.81800 30.24700
C  -6.09100 24.47300 29.92000
C  -6.23700 24.49700 28.37500
C  -5.41800 23.15300 30.43100
C  -6.16500 26.92300 31.02500
C  -6.18700 26.94400 32.61600
H  -6.08700 25.59200 33.36100
N  -6.83700 24.54400 25.34900
C  -7.42100 23.71500 26.29600
C  -8.34900 22.81200 25.62900
C  -8.20500 23.03000 24.21900
C  -7.15700 24.13600 24.10900
C  -9.19500 21.61100 26.29600
C  -8.81400 22.37600 23.15000
O  -8.53600 22.57400 21.97400
C  -9.96700 21.39200 23.37700
N  -5.24000 26.47700 23.64500
C  -5.90600 25.84400 22.66800
C  -5.51700 26.40900 21.25600
C  -4.77000 27.70900 21.57600
C  -4.57000 27.51500 23.11100
C  -4.80600 25.33900 20.39400
C  -5.61000 28.90900 21.42100
C  -4.85600 30.12200 20.77400
N  -4.33400 27.66100 26.08200
C  -3.71900 28.56100 25.21300
C  -3.03000 29.52400 25.99800
C  -3.09700 29.11300 27.33000
C  -3.94400 27.99100 27.30900
C  -2.17800 30.65900 25.52600
C  -2.64800 29.35700 28.64300
O  -1.85700 30.17900 29.06200
C  -3.34100 28.23900 29.50300
C  -2.32500 27.48900 30.16200
O  -1.62000 26.64800 29.70500
O  -2.42000 27.84300 31.52300
C  -1.84100 27.01100 32.48200
H  -7.68000 22.93700 28.10900
H  -7.10400 24.35400 21.94600
H  -3.24400 29.15500 23.17400
H  -4.50300 25.44200 30.82200
H  -7.05800 24.49700 30.42300
H  -6.09900 22.75700 31.18300
H  -4.41500 23.19100 30.85600
H  -5.32600 22.47100 29.58600
H  -7.16300 26.81300 30.60000
H  -5.82300 27.90700 30.70300
H  -7.18200 27.28400 32.90400
H  -5.41500 27.54800 33.09300
H  -8.93500 20.67900 25.79500
H  -10.25500 21.86200 26.28800
H  -8.97200 21.46100 27.35200
H  -9.64600 20.43200 23.78000
H  -10.44300 21.23800 22.40900
H  -10.67700 21.85000 24.06500
H  -6.43700 26.61300 20.70900
H  -3.76400 27.70800 21.15700
H  -4.61100 24.46500 21.01500
H  -3.84600 25.73900 20.06700
H  -5.33900 25.08200 19.47900
H  -6.16700 29.24200 22.29700
H  -6.46400 28.78800 20.75400
H  -4.69300 30.85700 21.56300
H  -5.30700 30.60600 19.90800
H  -3.83400 29.85100 20.50800
H  -2.23200 31.45700 26.26700
H  -2.53600 30.86600 24.51800
H  -1.16400 30.28900 25.37400
H  -3.96200 28.81900 30.18600
H  -0.76000 27.00200 32.62600
H  -2.20500 25.98700 32.39800
H  -2.28600 27.38000 33.40600

