158

Mg 2.70200 -1.26200 44.86200
C  5.96400 -0.39000 44.43300
C  1.76100 1.15900 42.48500
C  -0.49800 -2.40500 44.97200
C  3.74500 -4.29000 46.54700
N  3.77500 0.05100 43.39500
C  5.16800 0.32000 43.58900
C  5.59700 1.42000 42.55900
C  4.27800 2.06900 42.20000
C  3.19200 1.04500 42.74200
C  4.15200 3.52900 42.67100
C  6.40000 0.74300 41.36400
C  7.85600 1.31700 41.24500
H  8.22600 1.72300 39.77900
N  0.85800 -0.65400 43.94000
C  0.74300 0.40400 43.05700
C  -0.69200 0.58500 42.81500
C  -1.41600 -0.50600 43.44000
C  -0.34900 -1.24800 44.15500
C  -1.23300 1.77600 42.06900
C  -2.92400 -0.53200 43.54500
O  -3.57000 0.25000 42.91600
C  -3.71000 -1.39100 44.45600
N  1.76300 -3.13700 45.63200
C  0.45800 -3.28200 45.58300
C  -0.06200 -4.54900 46.38300
C  1.35500 -5.21300 46.68300
C  2.38100 -4.18400 46.30800
C  -0.89800 -4.17800 47.65600
C  1.75300 -6.56500 46.05100
C  2.10500 -7.64900 47.08300
N  4.42400 -2.13900 45.56100
C  4.65900 -3.31600 46.28600
C  6.09100 -3.37800 46.53400
C  6.68300 -2.26300 45.89900
C  5.61800 -1.58800 45.19000
C  6.74800 -4.50500 47.36100
C  7.83200 -1.48000 45.62400
O  9.00800 -1.66200 46.03300
C  7.42000 -0.30200 44.65500
C  7.63300 0.99600 45.37600
O  7.47000 1.20500 46.59800
O  8.28300 1.85300 44.45200
C  8.42000 3.23800 44.94600
H  1.49000 1.82800 41.66600
H  -1.48900 -2.82400 44.78600
H  4.09500 -5.23100 46.97700
H  6.24000 2.06100 43.16200
H  4.23500 2.04800 41.11100
H  3.78400 4.16600 41.86700
H  5.14900 3.88000 42.93600
H  3.45400 3.80100 43.46400
H  5.82100 0.85600 40.44700
H  6.48400 -0.31200 41.62300
H  8.57200 0.60600 41.65600
H  8.01000 2.28600 41.71900
H  -2.17800 2.27600 42.28000
H  -1.10400 1.59300 41.00200
H  -0.50300 2.54800 42.31300
H  -4.68600 -0.97900 44.71200
H  -3.09800 -1.63200 45.32600
H  -3.87900 -2.32200 43.91700
H  -0.63000 -5.09000 45.62500
H  1.45400 -5.30400 47.76500
H  -1.87300 -3.91200 47.25000
H  -0.53100 -3.25700 48.11000
H  -0.92700 -5.07700 48.27200
H  2.62100 -6.42200 45.40700
H  0.90800 -6.90800 45.45300
H  3.17300 -7.87100 47.08600
H  1.62900 -8.60700 46.87300
H  1.81600 -7.41100 48.10700
H  6.64900 -5.39400 46.73800
H  6.26800 -4.54400 48.33900
H  7.83100 -4.42000 47.45700
H  7.99400 -0.30000 43.72900
H  7.44800 3.71800 45.06700
H  8.87200 3.85000 44.16600
H  9.15400 3.27900 45.75100
Mg 41.70000 40.97200 26.86000
C  41.03300 43.43100 29.36500
C  42.84400 39.01700 29.33600
C  42.66200 38.90400 24.39300
C  40.91600 43.45700 24.45400
N  41.95000 41.23500 29.13300
C  41.47100 42.25400 29.90700
C  41.43300 41.93200 31.44400
C  42.08000 40.47400 31.42300
C  42.38400 40.20800 29.88300
C  43.40400 40.22200 32.16300
C  40.00600 41.95000 32.08100
C  39.90300 42.80800 33.34800
H  38.95400 42.52600 34.50900
N  42.59800 39.17200 26.89400
C  43.00900 38.57400 27.99500
C  43.47400 37.24600 27.65300
C  43.43000 37.10300 26.23900
C  42.95400 38.42800 25.75900
C  43.78400 36.11200 28.70200
C  43.65700 35.94000 25.35000
O  43.44100 36.03100 24.12200
C  44.17700 34.63300 25.92200
N  41.81800 41.16900 24.82200
C  42.16500 40.13600 23.98400
C  41.97600 40.49000 22.50300
C  41.20000 41.81100 22.57300
C  41.33300 42.24300 24.05400
C  43.33000 40.75800 21.77600
C  39.73800 41.75000 22.08700
C  38.70700 41.04000 23.02200
N  41.05900 42.96900 26.73600
C  40.88700 43.88800 25.76200
C  40.49700 45.16500 26.30500
C  40.51400 44.98900 27.65800
C  40.91200 43.66400 27.93400
C  39.99900 46.29700 25.59100
C  40.27000 45.68200 28.95800
O  39.99800 46.81000 29.18000
C  40.59700 44.69900 30.03100
C  41.60000 45.27500 31.06600
O  42.78600 45.22100 31.09700
O  40.89800 45.80800 32.15500
C  41.81200 46.55600 33.05700
H  43.06500 38.27000 30.10200
H  42.87500 38.21000 23.57700
H  40.54500 44.06800 23.62800
H  42.13700 42.63300 31.89400
H  41.37600 39.73200 31.80100
H  44.20000 40.02200 31.44600
H  43.21900 39.46900 32.93000
H  43.77000 41.12700 32.64700
H  39.64200 40.94700 32.30700
H  39.29200 42.30800 31.34000
H  39.61700 43.84700 33.18200
H  40.92100 42.86100 33.73600
H  42.80500 35.68500 28.91900
H  44.08000 36.61100 29.62400
H  44.50100 35.33600 28.43200
H  45.24100 34.75400 26.12600
H  44.01700 33.99500 25.05200
H  43.57300 34.28100 26.75900
H  41.40500 39.70600 22.00500
H  41.59400 42.68700 22.05700
H  44.16300 40.63400 22.46800
H  43.41700 41.79800 21.46100
H  43.50200 40.00400 21.00800
H  39.64700 41.24000 21.12800
H  39.46900 42.80400 22.02500
H  39.04200 40.85000 24.04200
H  38.34600 40.06200 22.70400
H  37.81900 41.66300 22.91200
H  39.52200 45.91500 24.68900
H  40.74900 47.06400 25.40000
H  39.31000 46.73000 26.31600
H  39.71800 44.70200 30.67500
H  42.58100 47.09500 32.50400
H  42.39300 45.91800 33.72300
H  41.22900 47.30300 33.59700

