158

Mg 1.02500 7.51400 26.13000
C  1.81400 9.78000 28.74300
C  1.40100 4.99700 28.32000
C  0.78600 5.58500 23.51900
C  1.51900 10.31500 23.92700
N  1.54400 7.47700 28.30900
C  1.68400 8.47800 29.20700
C  1.72500 7.92600 30.65800
C  1.94700 6.44100 30.40700
C  1.53600 6.28600 28.92500
C  3.36500 5.98300 30.71900
C  0.32800 8.20400 31.37100
C  0.50200 8.68000 32.84500
H  1.70400 8.04100 33.64100
N  0.94000 5.53200 25.94900
C  1.08900 4.66500 26.96900
C  0.77400 3.37200 26.51000
C  0.67300 3.43000 25.13000
C  0.76300 4.87900 24.74900
C  0.73100 2.19900 27.42500
C  0.43300 2.31500 24.05300
O  0.26900 2.53900 22.87100
C  0.48600 0.90100 24.43600
N  1.27900 7.87800 24.03700
C  0.90300 6.88500 23.17300
C  0.85300 7.40600 21.68900
C  1.17200 8.95800 21.80500
C  1.31900 9.06000 23.36400
C  1.90100 6.58500 20.81000
C  0.04900 9.99200 21.23100
C  0.51000 11.29600 20.71300
N  1.49200 9.62500 26.22800
C  1.54600 10.61700 25.27200
C  1.69400 11.91200 25.88900
C  1.73800 11.64200 27.25700
C  1.65800 10.21600 27.40000
C  1.68500 13.30000 25.19300
C  1.89800 12.22600 28.56200
O  2.08300 13.33400 28.93700
C  1.90800 11.04800 29.55900
C  2.99800 11.12200 30.49400
O  4.13800 10.73500 30.25800
O  2.57600 11.65300 31.67100
C  3.54400 11.68600 32.77700
H  1.42500 4.15000 29.00900
H  0.65900 4.90300 22.67600
H  1.67400 11.24600 23.37900
H  2.50700 8.44100 31.21600
H  1.23600 5.94100 31.06500
H  3.91000 6.90200 30.93600
H  3.78100 5.46700 29.85400
H  3.39900 5.28900 31.55800
H  -0.31400 7.32600 31.29400
H  -0.08500 9.04300 30.81100
H  -0.41900 8.47200 33.39000
H  0.61900 9.76400 32.84500
H  -0.12200 1.64100 27.03800
H  0.50700 2.44500 28.46300
H  1.71500 1.73100 27.40300
H  0.26500 0.35600 23.51800
H  -0.23700 0.57400 25.18300
H  1.39600 0.71600 25.00700
H  -0.18900 7.25000 21.41200
H  2.11300 9.26900 21.35100
H  2.49700 5.90100 21.41300
H  2.45700 7.35900 20.28000
H  1.40700 5.93300 20.09000
H  -0.78500 10.16400 21.91200
H  -0.37800 9.44700 20.38900
H  1.39900 11.16000 20.09700
H  0.78700 12.02800 21.47100
H  -0.33800 11.74700 20.19800
H  1.36200 14.12000 25.83300
H  1.05400 13.25600 24.30600
H  2.70600 13.49100 24.86100
H  0.98700 11.21100 30.11900
H  4.41900 12.23700 32.43400
H  3.85300 10.66800 33.01500
H  3.15600 12.14900 33.68400
Mg 43.77100 2.81700 46.79000
C  42.59400 6.00700 45.75800
C  40.66500 1.59200 45.91000
C  45.05500 -0.30200 46.84000
C  46.92600 4.18000 46.85400
N  41.86600 3.74700 45.90600
C  41.59800 5.01600 45.62900
C  40.19900 5.19300 45.08400
C  39.45300 3.83500 45.56800
C  40.72900 2.99200 45.86100
C  38.71700 3.95400 46.94100
C  40.08900 5.54500 43.59800
C  39.46000 6.89500 43.26300
H  38.47400 6.76100 42.17000
N  42.98500 0.87800 46.38200
C  41.67100 0.58600 46.12000
C  41.54000 -0.87900 46.04900
C  42.80300 -1.50100 46.24900
C  43.67400 -0.30600 46.45900
C  40.25100 -1.52300 45.75700
C  43.09500 -3.02600 46.25000
O  42.13400 -3.83800 46.15800
C  44.48000 -3.57300 46.51200
N  45.73600 2.03500 46.71800
C  45.94600 0.73100 47.02700
C  47.28700 0.50700 47.68100
C  47.86400 1.95500 47.65900
C  46.80200 2.81800 46.99700
C  47.34400 -0.29500 49.01400
C  49.33000 2.06500 47.02600
C  50.43500 2.40600 47.91000
N  44.60200 4.71500 46.59000
C  45.91700 5.10800 46.54500
C  45.99200 6.55400 46.50600
C  44.67200 6.95100 46.24900
C  43.86000 5.73100 46.16300
C  47.18200 7.41900 46.62800
C  43.86700 8.11500 45.98800
O  44.16400 9.31000 45.88900
C  42.49900 7.46700 45.62000
C  41.47400 8.05100 46.47800
O  41.21800 7.62900 47.58000
O  40.79800 9.09300 45.87600
C  39.83800 9.79400 46.68600
H  39.63600 1.22500 45.89600
H  45.33300 -1.22200 47.35900
H  47.87100 4.60600 47.19700
H  39.70300 5.99200 45.63500
H  38.71900 3.34700 44.92700
H  38.29400 4.95900 46.95100
H  39.47600 3.84800 47.71600
H  38.01100 3.12400 46.96900
H  39.47000 4.87400 43.00300
H  41.08100 5.46500 43.15600
H  40.20300 7.64800 43.00000
H  39.00200 7.34700 44.14300
H  39.77700 -1.01900 44.91400
H  39.53400 -1.49500 46.57800
H  40.38700 -2.54700 45.40900
H  44.64100 -3.39500 47.57600
H  44.99900 -2.85700 45.87400
H  44.51400 -4.61700 46.20200
H  47.91900 -0.11500 47.04700
H  47.86700 2.35100 48.67400
H  46.36600 -0.19500 49.48500
H  48.06800 0.16800 49.68400
H  47.55900 -1.35700 48.89700
H  49.28100 2.89000 46.31600
H  49.56800 1.12100 46.53700
H  51.29700 1.77700 47.69000
H  50.24200 2.56900 48.97000
H  50.80600 3.38800 47.61800
H  47.42700 7.54900 47.68200
H  46.96400 8.43300 46.29100
H  47.98500 6.89900 46.10400
H  42.35600 7.61500 44.54900
H  38.93700 10.07300 46.14000
H  40.32000 10.71900 47.00100
H  39.43500 9.21100 47.51400

