158

Mg -1.55200 17.33200 25.56100
C  -2.14800 14.82900 28.10500
C  -1.94900 19.67000 27.90500
C  -1.01500 19.50000 23.10800
C  -1.19400 14.56300 23.18000
N  -2.19500 17.18200 27.74500
C  -2.39100 16.10700 28.58300
C  -2.66500 16.58500 30.03900
C  -2.69000 18.17400 29.88500
C  -2.26200 18.38300 28.42400
C  -4.02100 18.73900 30.44700
C  -1.75300 15.97200 31.05900
C  -1.33900 16.79900 32.30900
H  -0.86500 16.00500 33.50900
N  -1.35700 19.31200 25.54300
C  -1.61200 20.13500 26.60100
C  -1.60800 21.54900 26.11700
C  -1.33700 21.49000 24.70500
C  -1.19400 20.06100 24.38400
C  -1.96100 22.75900 26.99600
C  -1.23700 22.60300 23.67800
O  -0.73800 22.47700 22.55200
C  -1.59700 24.04500 24.21400
N  -1.39900 17.01500 23.38300
C  -1.10300 18.14000 22.64600
C  -0.75100 17.79700 21.24200
C  -0.62800 16.22500 21.23400
C  -1.09800 15.88900 22.65600
C  -1.66400 18.28900 20.11700
C  0.80500 15.79500 20.91300
C  1.92800 16.16900 21.92600
N  -1.78400 15.19800 25.50900
C  -1.57400 14.24500 24.48200
C  -1.85400 12.90200 25.06400
C  -2.06900 13.13600 26.44000
C  -1.94900 14.52900 26.71800
C  -1.83200 11.56900 24.33000
C  -2.25400 12.42000 27.61900
O  -2.35600 11.22900 27.87600
C  -2.38500 13.55200 28.78100
C  -1.28100 13.20400 29.69600
O  -0.11800 13.48800 29.59300
O  -1.87000 12.54200 30.78300
C  -0.96500 11.93900 31.80300
H  -1.95600 20.50000 28.61400
H  -0.71200 20.21100 22.33700
H  -1.14700 13.73500 22.47000
H  -3.59400 16.08300 30.31000
H  -1.90600 18.61700 30.49800
H  -4.05100 18.84600 31.53100
H  -4.90700 18.11900 30.31500
H  -4.30300 19.60100 29.84200
H  -0.81800 15.71200 30.56300
H  -2.13300 15.02700 31.44600
H  -2.14000 17.48800 32.57500
H  -0.49600 17.39700 31.96200
H  -2.91000 23.16400 26.64500
H  -1.23200 23.55700 26.85700
H  -1.96000 22.46600 28.04600
H  -1.22400 24.65800 23.39400
H  -1.09400 24.35500 25.13100
H  -2.67000 24.22900 24.26600
H  0.23900 18.24200 21.13700
H  -1.29100 15.85300 20.45200
H  -1.22100 19.22300 19.77000
H  -2.59400 18.56700 20.61400
H  -1.74300 17.67400 19.22000
H  1.10400 16.39800 20.05600
H  0.96700 14.75300 20.63700
H  2.43400 17.08600 21.62500
H  2.63100 15.37100 22.16300
H  1.37200 16.36200 22.84300
H  -1.04700 11.57800 23.57400
H  -2.74600 11.46000 23.74600
H  -1.65700 10.73700 25.01200
H  -3.30400 13.49600 29.36500
H  -1.24900 10.90300 31.98600
H  -1.00700 12.33500 32.81800
H  0.07300 11.94400 31.47100
Mg -0.88200 34.91300 25.71600
C  -2.54500 33.02000 28.20800
C  0.30600 36.92400 28.17200
C  0.27800 36.87200 23.35400
C  -2.51600 32.98800 23.36100
N  -1.16800 34.96200 27.92900
C  -1.80400 34.12300 28.72700
C  -1.62400 34.39500 30.25400
C  -0.85500 35.75700 30.12900
C  -0.46100 35.89000 28.63300
C  -1.56000 37.01000 30.74200
C  -0.80400 33.27200 31.04200
C  -1.39800 32.75700 32.29200
H  -0.44500 32.38200 33.43400
N  0.15500 36.69400 25.77800
C  0.62100 37.33700 26.83900
C  1.45300 38.38000 26.42300
C  1.55700 38.32900 25.03400
C  0.67200 37.24900 24.61500
C  2.12400 39.23600 27.41900
C  2.26900 39.19300 24.07400
O  2.27200 39.06500 22.84900
C  3.09900 40.33000 24.67300
N  -1.32700 35.10800 23.67500
C  -0.59600 35.89500 22.94500
C  -0.84600 35.72700 21.41500
C  -1.49500 34.34400 21.41500
C  -1.82300 34.12500 22.94800
C  -1.69300 36.84400 20.74200
C  -0.53000 33.13200 20.89200
C  0.62600 32.51600 21.71800
N  -2.38800 33.33100 25.74600
C  -3.00100 32.70700 24.69400
C  -3.91900 31.66900 25.18100
C  -3.63900 31.69600 26.62000
C  -2.82900 32.77300 26.87400
C  -4.56900 30.60800 24.47000
C  -3.93000 31.05400 27.95300
O  -4.60500 30.11500 28.30000
C  -3.32500 31.94500 28.97400
C  -4.46300 32.48400 29.73800
O  -5.07300 33.50200 29.48700
O  -4.61900 31.67600 30.81500
C  -5.40900 32.07900 31.94100
H  0.81800 37.41800 29.00100
H  0.88100 37.31800 22.56000
H  -2.91300 32.31700 22.59600
H  -2.67000 34.47800 30.55000
H  0.05000 35.73000 30.73700
H  -1.08800 37.20100 31.70600
H  -2.58500 36.67700 30.90800
H  -1.63100 37.91000 30.13100
H  0.15600 33.63000 31.41400
H  -0.72700 32.45400 30.32600
H  -1.84900 31.80400 32.01500
H  -2.09800 33.54800 32.56200
H  1.84400 40.25500 27.15200
H  3.19100 39.02100 27.35100
H  1.88400 39.03400 28.46300
H  3.67900 40.84300 23.90600
H  3.84200 40.08000 25.43000
H  2.46800 41.10000 25.11800
H  0.10600 35.72600 20.88500
H  -2.45600 34.31600 20.90200
H  -2.52000 36.55700 20.09200
H  -1.06800 37.42900 20.06800
H  -2.05700 37.52800 21.50800
H  -0.11500 33.58000 19.98900
H  -1.30900 32.43500 20.58300
H  0.40000 32.61300 22.77900
H  1.60900 32.92000 21.47600
H  0.67800 31.43100 21.61700
H  -4.08400 29.66000 24.70600
H  -4.52400 30.76500 23.39300
H  -5.63200 30.53800 24.69800
H  -2.71900 31.35300 29.66000
H  -6.28200 32.55600 31.49700
H  -4.83400 32.79500 32.52900
H  -5.65200 31.18800 32.52000

