158

Mg 2.65600 -1.53100 44.42400
C  6.00200 -0.83300 43.62800
C  1.64900 0.87900 42.33000
C  -0.52500 -2.55100 44.81400
C  3.76200 -4.70000 45.58700
N  3.72700 -0.09100 43.27400
C  5.09000 0.08300 43.06700
C  5.34100 1.12700 42.06400
C  3.90800 1.72700 41.78600
C  3.00900 0.76700 42.55700
C  3.67700 3.22900 42.16900
C  6.06400 0.54700 40.76000
C  6.92100 1.56800 40.10400
H  6.41900 2.07900 38.77000
N  0.83200 -0.83800 43.75200
C  0.61900 0.20400 42.93500
C  -0.73600 0.50000 42.78900
C  -1.47200 -0.59400 43.36700
C  -0.34700 -1.37500 44.06800
C  -1.15000 1.75700 41.98500
C  -2.93600 -0.75300 43.30700
O  -3.66300 0.10400 42.77200
C  -3.62500 -1.98200 43.87000
N  1.77100 -3.43000 45.04400
C  0.42100 -3.48000 45.22000
C  0.04500 -4.91000 45.79400
C  1.41800 -5.48300 46.23200
C  2.38100 -4.50000 45.61700
C  -1.03900 -5.01400 46.83800
C  1.69900 -6.93100 45.87000
C  2.46900 -7.84700 46.87700
N  4.47500 -2.58700 44.68300
C  4.74700 -3.79900 45.17500
C  6.14900 -3.99900 45.27600
C  6.72700 -2.82200 44.72800
C  5.63800 -2.04100 44.29700
C  6.84000 -5.21900 45.85600
C  7.91900 -2.12900 44.42000
O  9.07100 -2.43800 44.58000
C  7.48300 -0.83600 43.64400
C  8.10100 0.31300 44.37900
O  7.88800 0.56700 45.54500
O  8.66700 1.08000 43.40700
C  9.38300 2.34100 43.69500
H  1.43800 1.59700 41.53500
H  -1.54100 -2.94400 44.88900
H  4.09500 -5.70500 45.85600
H  5.97200 1.91300 42.47800
H  3.64200 1.79900 40.73100
H  4.68100 3.64300 42.26600
H  3.23100 3.35900 43.15500
H  3.10400 3.71800 41.38100
H  5.33300 0.12300 40.07100
H  6.65800 -0.33600 40.99000
H  7.90200 1.09800 40.03900
H  7.06100 2.48700 40.67300
H  -2.16300 2.12400 42.14700
H  -1.14600 1.57700 40.91000
H  -0.38500 2.46800 42.29600
H  -4.67800 -1.87100 43.61000
H  -3.38700 -1.85800 44.92600
H  -3.18800 -2.85900 43.39200
H  -0.16900 -5.63600 45.01000
H  1.49000 -5.25400 47.29600
H  -1.63500 -4.12000 46.65900
H  -0.83500 -5.23100 47.88600
H  -1.63800 -5.86800 46.52200
H  2.18600 -6.91100 44.89500
H  0.82000 -7.48400 45.53900
H  3.47400 -8.06300 46.51300
H  1.89800 -8.76700 46.99800
H  2.75900 -7.44600 47.84800
H  6.20200 -6.10200 45.88800
H  7.15400 -4.91700 46.85500
H  7.71000 -5.45200 45.24200
H  7.91800 -0.76900 42.64700
H  8.71800 3.16900 43.44900
H  10.20200 2.41600 42.97900
H  9.82100 2.36700 44.69300
Mg 9.29700 3.70000 27.37300
C  10.54200 2.11800 30.22000
C  7.32500 5.62000 29.33600
C  7.60800 4.66300 24.52600
C  10.88900 1.09600 25.50200
N  8.96700 3.83000 29.51900
C  9.64100 3.14800 30.51200
C  9.39700 3.77400 31.88700
C  8.25800 4.86500 31.56400
C  8.09800 4.75600 30.02800
C  6.89600 4.85500 32.34900
C  10.68700 4.50600 32.47600
C  11.47800 3.90400 33.59100
H  11.34200 4.60700 34.93300
N  7.81700 5.04700 26.96000
C  7.15700 5.79500 27.92800
C  6.32000 6.72300 27.21400
C  6.26900 6.33800 25.89700
C  7.24700 5.26600 25.73200
C  5.58800 7.86300 27.91500
C  5.34900 6.91300 24.82600
O  5.39400 6.49700 23.66800
C  4.42200 8.03800 25.02400
N  9.11700 2.89300 25.31200
C  8.46800 3.55600 24.30500
C  8.74600 2.96900 22.91900
C  9.85800 1.92600 23.29400
C  10.01200 2.02000 24.82700
C  7.49900 2.31000 22.14400
C  11.18900 2.16100 22.46600
C  11.64000 0.85800 21.73300
N  10.51500 1.95400 27.75500
C  11.09400 1.03900 26.87900
C  11.89400 0.11300 27.59100
C  11.73200 0.54900 28.95100
C  10.85700 1.59600 28.96900
C  12.70800 -0.97000 26.97400
C  12.13500 0.28400 30.27600
O  12.93500 -0.56200 30.67400
C  11.33100 1.28200 31.20900
C  10.58100 0.38900 32.16000
O  9.69200 -0.39500 31.87800
O  11.28200 0.51700 33.37700
C  10.46900 0.17700 34.61500
H  6.67700 6.31100 29.87900
H  7.12100 5.01700 23.61500
H  11.25500 0.43900 24.71000
H  9.05800 2.97400 32.54600
H  8.60300 5.88700 31.71800
H  6.12700 4.48200 31.67300
H  6.51100 5.84400 32.59500
H  6.92900 4.23800 33.24600
H  10.46300 5.55000 32.69300
H  11.39400 4.52600 31.64600
H  12.53300 4.02500 33.34400
H  11.26100 2.86500 33.84000
H  4.52300 7.63200 27.88200
H  5.67000 8.79900 27.36200
H  5.85800 8.03600 28.95700
H  3.86800 8.10100 24.08800
H  5.00100 8.91000 25.32700
H  3.65200 7.72100 25.72900
H  9.13900 3.75300 22.27100
H  9.50700 0.94100 22.98700
H  6.53400 2.32700 22.65100
H  7.65400 1.24700 21.96100
H  7.49300 2.98100 21.28500
H  12.02000 2.27600 23.16200
H  11.21000 3.02400 21.80100
H  12.44700 1.19200 21.08200
H  10.92000 0.49700 20.99800
H  12.04300 0.08700 22.38900
H  12.64000 -0.92600 25.88700
H  12.12700 -1.87900 27.12800
H  13.75500 -1.01900 27.27000
H  12.07300 1.88500 31.73100
H  11.10000 -0.48100 35.21300
H  9.45800 -0.22100 34.52500
H  10.49100 1.03900 35.28200

