158

Mg 46.85200 46.48000 43.91000
C  43.51900 46.40200 43.04500
C  47.19100 43.35200 42.30600
C  50.08700 46.64700 44.43200
C  46.49500 49.96900 44.39200
N  45.60700 45.23500 42.68600
C  44.21400 45.26900 42.64000
C  43.67700 44.25700 41.62800
C  44.79100 43.19200 41.68800
C  46.00500 43.98800 42.22200
C  44.33600 41.93500 42.56100
C  43.34000 44.91400 40.20300
C  42.05500 44.48900 39.56400
H  42.22900 43.42200 38.50500
N  48.40900 45.12800 43.48200
C  48.40900 43.90600 42.78200
C  49.74100 43.35500 42.75600
C  50.61500 44.31600 43.31200
C  49.70500 45.41100 43.80900
C  50.08200 41.97100 42.02000
C  52.11100 44.17100 43.50700
O  52.66300 43.19000 43.10900
C  52.95100 45.37400 43.95000
N  48.08600 48.09400 44.27100
C  49.43900 47.87300 44.60200
C  50.12700 49.24300 45.05200
C  48.95800 50.28100 44.80200
C  47.73800 49.41000 44.45900
C  50.60500 49.27200 46.50200
C  49.25400 51.29700 43.66600
C  49.02800 50.90600 42.18600
N  45.24900 48.00500 43.92600
C  45.26900 49.36600 44.06800
C  43.89700 49.81400 44.05800
C  43.15400 48.68800 43.66500
C  44.01400 47.61900 43.56200
C  43.48900 51.24100 44.23200
C  41.88700 48.16900 43.26900
O  40.89600 48.76700 43.06600
C  42.01400 46.68900 42.95000
C  41.05800 45.88500 43.74600
O  40.03200 45.49400 43.29500
O  41.46000 45.76400 45.06400
C  40.57100 44.99200 45.93900
H  47.25400 42.37500 41.82300
H  51.08800 46.71800 44.86200
H  46.46600 51.04100 44.59500
H  42.71400 43.86600 41.95700
H  45.09900 42.75300 40.74000
H  44.43200 41.01100 41.99100
H  43.29900 41.94700 42.89700
H  44.88700 41.97900 43.50100
H  44.06500 44.56300 39.46800
H  43.43700 45.99600 40.28800
H  41.58800 45.32900 39.04900
H  41.32100 44.07200 40.25400
H  49.18500 41.44700 41.69000
H  50.62300 41.27100 42.65800
H  50.70400 42.28000 41.18000
H  52.75000 46.27100 43.36400
H  54.00300 45.09100 43.96900
H  52.65500 45.55700 44.98300
H  51.00100 49.48900 44.44900
H  48.67100 50.87100 45.67300
H  51.67500 49.47900 46.49700
H  50.42400 48.33600 47.03100
H  50.14300 50.06200 47.09400
H  50.15500 51.91000 43.69300
H  48.52100 52.09400 43.78400
H  47.97800 50.74600 41.94300
H  49.58600 49.99200 41.98400
H  49.41700 51.69200 41.53800
H  44.29900 51.96900 44.20500
H  42.88600 51.29200 45.13800
H  42.97400 51.41600 43.28700
H  41.67800 46.55000 41.92300
H  40.86400 45.34300 46.92800
H  40.77200 43.93000 46.07500
H  39.52500 45.06600 45.64400
Mg 46.89400 35.15700 28.82500
C  45.67400 33.21400 31.34200
C  47.33300 37.76700 31.01800
C  47.40700 37.40500 26.24100
C  45.89600 32.78500 26.47200
N  46.38600 35.45900 30.84700
C  46.05800 34.49200 31.78400
C  46.24500 35.00300 33.21900
C  46.37100 36.52300 33.08300
C  46.63900 36.61500 31.52900
C  45.12000 37.33400 33.56000
C  47.50900 34.31900 33.84000
C  47.46300 34.08500 35.39100
H  46.98800 35.20900 36.29400
N  47.47300 37.25100 28.63800
C  47.72500 38.04300 29.69400
C  48.31200 39.30600 29.19600
C  48.31000 39.25200 27.77800
C  47.69900 37.93300 27.47200
C  48.91900 40.36400 30.10200
C  48.78400 40.29500 26.77100
O  48.79000 40.08600 25.59400
C  49.18700 41.70200 27.23400
N  46.57800 35.17900 26.68500
C  46.95400 36.13500 25.84500
C  47.01800 35.69700 24.39600
C  46.40900 34.19700 24.45200
C  46.34000 33.97700 25.92900
C  46.39400 36.62000 23.37000
C  47.19800 33.21100 23.53900
C  46.30800 32.17600 22.82800
N  46.03200 33.33400 28.88100
C  45.65400 32.49600 27.83900
C  45.23900 31.22500 28.41000
C  45.18600 31.50200 29.74800
C  45.62800 32.78900 29.99900
C  44.90500 30.03500 27.48500
C  44.89700 30.90000 31.03600
O  44.53400 29.81400 31.32100
C  45.01000 32.03400 32.07000
C  45.71700 31.34500 33.14700
O  46.93600 31.21100 33.27600
O  44.82800 30.94700 34.08000
C  45.29600 30.15400 35.19300
H  47.63000 38.51500 31.75600
H  47.72700 38.13300 25.49300
H  45.64600 31.99400 25.76200
H  45.35200 34.73000 33.78000
H  47.26100 36.87200 33.60700
H  44.83800 37.97800 32.72600
H  45.39000 38.02200 34.36100
H  44.25400 36.69500 33.73400
H  48.33800 35.02300 33.77600
H  47.67900 33.36400 33.34400
H  48.27500 33.49500 35.81700
H  46.60200 33.41700 35.39200
H  48.92200 40.09900 31.16000
H  48.51400 41.36900 29.98800
H  49.92800 40.61300 29.77300
H  50.12100 41.67000 27.79500
H  48.38500 41.97800 27.91700
H  49.25600 42.35400 26.36300
H  48.10200 35.67400 24.28700
H  45.39400 34.25500 24.05800
H  47.01700 37.45100 23.03900
H  45.50900 37.02100 23.86500
H  46.10800 36.02800 22.50100
H  47.90600 32.63100 24.13200
H  47.81900 33.76400 22.83400
H  45.68200 32.44300 21.97600
H  45.61100 31.99700 23.64700
H  46.70900 31.18900 22.59900
H  44.30600 30.34300 26.62800
H  44.52100 29.19200 28.05900
H  45.88800 29.98400 27.01600
H  43.99800 32.23300 32.42400
H  45.01800 30.60500 36.14600
H  46.36600 29.95200 35.23000
H  44.76800 29.20200 35.14900

