158

Mg 6.76200 52.82100 40.98700
C  6.05100 49.31900 41.03300
C  9.79900 52.24600 39.58600
C  7.14200 56.06200 40.53200
C  3.46900 53.32000 42.10000
N  7.70100 50.98500 40.31500
C  7.28500 49.66100 40.50400
C  8.41800 48.68900 39.91300
C  9.62200 49.60600 39.75800
C  9.03700 51.06100 39.91300
C  10.79700 49.46500 40.82000
C  7.99600 47.97300 38.63600
C  7.16200 48.73600 37.58400
H  7.83000 49.35600 36.32200
N  8.29500 53.97400 40.21300
C  9.48800 53.56600 39.72200
C  10.39800 54.67500 39.45600
C  9.70700 55.87200 39.73400
C  8.28100 55.38700 40.13500
C  11.85500 54.48600 39.01300
C  10.23700 57.24200 39.50500
O  11.40700 57.50600 39.06100
C  9.34200 58.46400 39.76700
N  5.45100 54.33600 40.97700
C  5.88400 55.65400 40.83400
C  4.85800 56.68100 41.24500
C  3.68500 55.77200 41.73000
C  4.20900 54.34300 41.50400
C  5.27300 57.75100 42.29300
C  2.39000 56.10900 40.99800
C  1.07600 55.69300 41.68600
N  5.03600 51.64600 41.45500
C  3.84700 52.01000 42.10000
C  3.12300 50.85900 42.63600
C  3.94700 49.77600 42.16200
C  5.04500 50.36500 41.43100
C  1.79400 50.85100 43.38600
C  4.08700 48.32600 42.15000
O  3.28800 47.48900 42.54600
C  5.42900 48.01700 41.47600
C  5.06400 47.18400 40.31000
O  4.59100 47.53700 39.19700
O  5.44500 45.91200 40.57100
C  5.32800 44.98000 39.41500
H  10.78100 51.92300 39.23300
H  7.27200 57.13700 40.39200
H  2.51200 53.42900 42.61500
H  8.58800 48.02700 40.76200
H  10.18600 49.54400 38.82800
H  10.92100 50.34800 41.44600
H  11.75100 49.22500 40.35100
H  10.60100 48.70700 41.57900
H  7.58900 46.99200 38.88200
H  8.98000 47.79000 38.20400
H  6.56800 49.54700 38.00600
H  6.55400 47.91700 37.20000
H  12.05700 55.06900 38.11400
H  12.21500 53.47400 38.82800
H  12.36600 54.86200 39.89900
H  9.84800 59.39000 39.49500
H  9.03900 58.38200 40.81100
H  8.51700 58.28600 39.07700
H  4.54400 57.33400 40.43000
H  3.55800 55.82500 42.81100
H  6.30200 57.61800 42.62700
H  4.66100 57.77800 43.19400
H  5.25700 58.70400 41.76400
H  2.27100 55.77200 39.96900
H  2.23600 57.16500 40.77900
H  1.13200 55.63900 42.77300
H  0.89900 54.69700 41.28000
H  0.28700 56.42100 41.49800
H  1.02200 50.63000 42.64900
H  1.69600 51.84600 43.81900
H  1.92500 50.19700 44.24800
H  6.10200 47.54300 42.19000
H  6.14800 45.03800 38.70000
H  4.43100 45.13400 38.81600
H  5.29300 43.97500 39.83400
Mg 17.55500 50.82900 26.63200
C  19.48200 49.27800 29.09100
C  15.21900 51.71800 28.93000
C  15.42500 51.45500 24.09300
C  19.72100 49.30700 24.14500
N  17.31000 50.39400 28.73700
C  18.35800 49.98500 29.57300
C  17.98100 50.18300 31.00000
C  16.45600 50.68800 30.88800
C  16.28900 50.99900 29.41800
C  15.43600 49.64900 31.47200
C  18.94900 51.24500 31.53700
C  18.74500 51.73400 32.95900
H  17.83700 50.89800 33.91200
N  15.74000 51.79000 26.50500
C  14.92500 52.03700 27.56800
C  13.76600 52.68400 27.13600
C  13.80900 52.64800 25.71900
C  15.05000 51.91900 25.37900
C  12.85800 53.36800 28.16700
C  12.88700 53.34100 24.76200
O  13.14400 53.54100 23.57600
C  11.60200 53.95900 25.24900
N  17.50200 50.27600 24.48200
C  16.46700 50.66300 23.70400
C  16.79800 50.46300 22.18000
C  18.25800 50.05300 22.26000
C  18.56200 49.88300 23.70100
C  15.78900 49.46200 21.45300
C  19.25100 51.04700 21.55100
C  20.24900 50.40300 20.51400
N  19.25800 49.54400 26.55200
C  20.02400 49.03300 25.53100
C  21.07700 48.18300 26.11700
C  20.93600 48.29000 27.48800
C  19.87800 49.16400 27.74200
C  22.18000 47.57000 25.20700
C  21.46200 47.77800 28.79100
O  22.41200 47.07600 29.02200
C  20.61200 48.52800 29.87800
C  20.10600 47.62200 30.95800
O  19.33400 46.69700 30.79400
O  20.73700 48.02400 32.16200
C  20.21300 47.30000 33.32400
H  14.61900 52.13400 29.74200
H  14.69500 51.54700 23.28500
H  20.42100 48.99300 23.36800
H  18.03200 49.23400 31.53400
H  16.34800 51.56500 31.52700
H  15.89300 48.83200 32.03100
H  14.97600 49.10200 30.64900
H  14.70400 50.07200 32.16000
H  18.81200 52.15000 30.94600
H  20.01400 51.05100 31.41500
H  18.34700 52.74300 32.85300
H  19.74000 51.82400 33.39500
H  13.31600 54.33500 28.37600
H  12.76800 52.83700 29.11400
H  11.83000 53.35300 27.80500
H  10.89200 53.29100 25.73700
H  11.19000 54.41000 24.34700
H  11.85800 54.77300 25.92800
H  16.73200 51.43400 21.68900
H  18.25300 49.07300 21.78200
H  14.98700 49.27900 22.16700
H  16.36100 48.56100 21.23000
H  15.43000 49.84300 20.49700
H  19.95700 51.55400 22.21000
H  18.73700 51.83300 20.99700
H  20.16400 50.76800 19.49100
H  19.95700 49.35600 20.43400
H  21.29300 50.35300 20.82300
H  23.00000 47.19600 25.81900
H  22.55300 48.34900 24.54200
H  21.70400 46.78700 24.61600
H  21.22500 49.27900 30.37600
H  20.01800 46.23600 33.19200
H  19.43000 47.84600 33.85200
H  21.13100 47.27700 33.91000

