158

Mg 35.75800 3.40700 29.64000
C  33.27200 3.98600 31.98800
C  38.11200 3.65600 32.30200
C  38.14800 2.65700 27.43200
C  33.42600 3.70000 27.06400
N  35.76300 3.91000 31.90900
C  34.55500 3.99900 32.59200
C  34.82200 4.11600 34.13200
C  36.43800 4.27900 34.16200
C  36.83300 3.91700 32.72400
C  36.93100 5.72300 34.45400
C  34.26700 2.88800 34.92500
C  33.86500 3.13700 36.38500
H  34.52300 4.15300 37.27700
N  37.81200 3.16500 29.80600
C  38.56900 3.25200 30.97400
C  39.94300 2.84300 30.71800
C  40.02700 2.50800 29.31600
C  38.66300 2.81600 28.77400
C  40.94000 2.90900 31.88300
C  41.16300 2.03200 28.48500
O  41.07600 1.74800 27.25400
C  42.53600 1.82100 29.08500
N  35.81200 3.42500 27.54000
C  36.90200 2.92500 26.89700
C  36.64900 2.63900 25.44500
C  35.12900 2.74800 25.45600
C  34.77600 3.38300 26.73200
C  37.29100 3.61300 24.44800
C  34.42200 1.37800 25.12400
C  33.27700 1.46200 24.15600
N  33.71600 3.81300 29.47900
C  32.92400 3.91400 28.35900
C  31.60200 4.24600 28.89600
C  31.67600 4.21300 30.28600
C  33.02900 3.93700 30.61900
C  30.32200 4.47500 28.11700
C  30.92400 4.43700 31.50800
O  29.74400 4.74400 31.64000
C  31.94000 4.25400 32.68700
C  31.88000 5.52100 33.44600
O  32.16700 6.64700 33.03500
O  31.40500 5.26400 34.68900
C  31.65500 6.34700 35.64100
H  38.79300 3.80900 33.14200
H  38.98600 2.40800 26.77800
H  32.67900 3.55700 26.27900
H  34.39500 5.04300 34.51200
H  36.85500 3.60000 34.90600
H  37.18600 6.28800 33.55700
H  37.91800 5.73600 34.91500
H  36.22500 6.22400 35.11600
H  35.03700 2.12600 34.80400
H  33.30300 2.62500 34.49100
H  34.00200 2.17400 36.87700
H  32.80000 3.34500 36.47900
H  41.94800 3.09600 31.51300
H  40.83600 1.93500 32.36200
H  40.68300 3.66100 32.62900
H  42.65900 1.21300 29.98100
H  42.88600 2.79900 29.41800
H  43.24100 1.44500 28.34500
H  37.11300 1.67300 25.24600
H  34.84800 3.37800 24.61200
H  38.04300 3.26900 23.73800
H  37.87500 4.36300 24.98100
H  36.58600 4.14900 23.81200
H  34.06000 0.98300 26.07400
H  35.09900 0.59600 24.78100
H  32.41300 0.91400 24.53100
H  33.66400 0.89300 23.31100
H  32.97300 2.48100 23.91400
H  30.29400 5.33100 27.44300
H  29.64700 4.77700 28.91800
H  30.03100 3.51400 27.69100
H  31.53400 3.47800 33.33600
H  32.60200 6.84000 35.42000
H  31.71500 5.97600 36.66400
H  30.81200 7.03700 35.61900
Mg 48.21000 35.09900 27.15200
C  46.25000 33.43800 29.75500
C  48.19600 37.77800 29.06300
C  49.60100 36.61300 24.63900
C  47.41100 32.27000 25.12700
N  47.35700 35.51700 29.19600
C  46.81100 34.68200 30.11300
C  46.79000 35.22500 31.54300
C  47.01600 36.77900 31.21900
C  47.51700 36.74000 29.76800
C  45.93000 37.65500 31.71600
C  47.96300 34.61600 32.45500
C  47.53900 34.15800 33.87500
H  46.37200 35.00200 34.44100
N  48.99200 36.92100 26.92900
C  48.84500 37.94800 27.81400
C  49.38200 39.19500 27.22300
C  49.81500 38.83400 25.94800
C  49.49400 37.42500 25.78500
C  49.43300 40.53800 27.94600
C  50.52200 39.67600 24.92400
O  50.94900 39.26200 23.85600
C  50.73200 41.18200 25.14100
N  48.22100 34.58000 25.10000
C  49.12000 35.31000 24.34000
C  49.53200 34.56600 23.10900
C  48.92200 33.14900 23.36300
C  48.15000 33.30300 24.62700
C  48.95700 35.16200 21.80300
C  50.00800 31.95800 23.48200
C  50.23300 31.08200 22.20400
N  47.05200 33.21500 27.30300
C  46.87000 32.19600 26.42900
C  46.05000 31.21100 27.03500
C  45.80000 31.65200 28.33900
C  46.47000 32.87900 28.50700
C  45.55400 30.00600 26.37500
C  45.02600 31.34100 29.50600
O  44.24900 30.43100 29.81700
C  45.36100 32.55400 30.45400
C  46.04900 31.93600 31.70000
O  47.16200 31.47800 31.78400
O  45.09700 31.83800 32.68500
C  45.34700 30.94400 33.76700
H  48.17400 38.74200 29.57600
H  50.15400 37.09400 23.82900
H  47.41800 31.37900 24.49600
H  45.81400 35.11000 32.01600
H  47.81400 37.11500 31.88000
H  45.78400 38.43400 30.96800
H  46.01400 38.12600 32.69500
H  45.00100 37.09400 31.82400
H  48.67100 35.40100 32.71900
H  48.48900 33.87900 31.84700
H  48.38100 34.38000 34.53000
H  47.40400 33.07600 33.85800
H  50.45600 40.90400 28.03500
H  49.14700 40.51800 28.99800
H  48.88500 41.36200 27.49000
H  51.21400 41.59200 24.25300
H  51.50700 41.06900 25.89900
H  49.77300 41.62800 25.40500
H  50.61100 34.66200 22.98300
H  48.15900 32.98900 22.60100
H  49.54500 36.00200 21.43300
H  47.92800 35.51100 21.88200
H  49.00600 34.44600 20.98200
H  49.82000 31.26600 24.30200
H  50.97100 32.44000 23.64600
H  50.35300 30.04700 22.52500
H  51.09900 31.31000 21.58300
H  49.33200 31.06000 21.59100
H  44.78300 29.53100 26.98100
H  46.49500 29.45700 26.40400
H  45.20800 30.22400 25.36400
H  44.43900 33.07800 30.70700
H  44.60200 31.04900 34.55600
H  46.33600 31.08500 34.20300
H  45.41500 29.92200 33.39300

