158

Mg 35.60700 1.66600 30.12300
C  33.24200 2.79500 32.30500
C  37.82300 1.61100 32.72900
C  38.02900 0.98500 27.98100
C  33.41800 2.29300 27.50600
N  35.56600 2.19800 32.23600
C  34.47700 2.62000 32.92700
C  34.71200 2.76000 34.45000
C  36.26400 2.60000 34.54700
C  36.62400 2.15400 33.10300
C  36.96200 3.93400 34.96300
C  34.01900 1.65800 35.32800
C  33.43100 2.08300 36.66200
H  34.06600 3.30700 37.40800
N  37.63500 1.23000 30.30400
C  38.33100 1.17000 31.47700
C  39.63100 0.59700 31.20300
C  39.70700 0.40200 29.78100
C  38.45000 0.93500 29.21700
C  40.61600 0.31900 32.36300
C  40.92700 -0.13000 29.00900
O  40.90500 -0.23800 27.76400
C  42.07300 -0.74700 29.72800
N  35.66700 1.68400 27.99200
C  36.78200 1.31500 27.40500
C  36.53400 1.01000 25.91300
C  35.08000 1.56800 25.69400
C  34.65000 1.86300 27.13300
C  37.57600 1.61600 24.91300
C  34.15000 0.48700 25.05200
C  33.59800 -0.77000 25.81300
N  33.67900 2.37100 29.92000
C  32.91500 2.45500 28.80100
C  31.59700 2.81600 29.19200
C  31.65300 2.96200 30.51500
C  32.95400 2.65100 30.92900
C  30.38200 3.00900 28.24800
C  30.90000 3.36500 31.66900
O  29.76200 3.74600 31.72000
C  31.87600 3.15400 32.93600
C  31.90900 4.46200 33.69100
O  32.49100 5.46700 33.29400
O  31.34900 4.40100 34.96300
C  31.09500 5.73600 35.59100
H  38.54000 1.64800 33.55200
H  38.75300 0.64100 27.24000
H  32.70400 2.47700 26.70000
H  34.42100 3.77200 34.73200
H  36.62500 1.85500 35.25600
H  36.35600 4.83700 34.89600
H  37.79600 4.13900 34.29200
H  37.37400 3.92200 35.97300
H  34.77100 0.90600 35.56700
H  33.29700 1.10100 34.73100
H  33.37400 1.26400 37.37800
H  32.47700 2.29900 36.18000
H  40.26400 0.67500 33.33200
H  41.55700 0.84200 32.19500
H  40.80400 -0.75400 32.39700
H  42.79100 -1.13700 29.00700
H  41.60900 -1.49400 30.37300
H  42.60100 0.03400 30.27400
H  36.42300 -0.06200 25.74900
H  35.06200 2.43000 25.02700
H  38.21800 2.38400 25.34400
H  37.17500 2.04300 23.99300
H  38.28800 0.84700 24.61400
H  34.53000 0.19200 24.07300
H  33.22100 1.03900 24.90700
H  34.02700 -0.75000 26.81500
H  33.94900 -1.66800 25.30400
H  32.51500 -0.89000 25.80700
H  30.28200 2.18700 27.53900
H  30.48000 3.91100 27.64400
H  29.44400 3.08100 28.79900
H  31.53300 2.34000 33.57500
H  32.04100 6.27500 35.53400
H  30.81800 5.64300 36.64100
H  30.31500 6.32600 35.11100
Mg 42.29700 41.70400 26.20300
C  41.83700 43.96000 28.75200
C  43.28300 39.41400 28.54900
C  43.19600 39.77200 23.68600
C  41.53100 44.22200 23.88700
N  42.49600 41.67500 28.46000
C  42.04300 42.70100 29.28200
C  41.97100 42.22900 30.72700
C  42.72800 40.86700 30.70100
C  42.80900 40.59200 29.16900
C  44.11000 40.85800 31.38600
C  40.46400 42.17100 31.24000
C  40.13600 43.19200 32.34200
H  39.71600 42.61400 33.72400
N  43.05600 39.81400 26.12700
C  43.38000 39.01300 27.16100
C  44.02500 37.75400 26.71700
C  44.01100 37.86500 25.25000
C  43.48900 39.18700 24.92700
C  44.57200 36.63500 27.61100
C  44.51100 36.78200 24.25600
O  44.73900 37.01200 23.07900
C  44.79600 35.46200 24.82500
N  42.17200 41.93800 24.08100
C  42.60100 40.95900 23.24900
C  42.29300 41.30300 21.75300
C  41.51100 42.60000 21.94400
C  41.80100 42.98900 23.38400
C  43.51400 41.50800 20.80800
C  39.96400 42.48100 21.71100
C  39.25400 41.34500 22.54600
N  41.80000 43.65100 26.25500
C  41.45300 44.53300 25.23800
C  41.02100 45.82200 25.78700
C  41.13500 45.57700 27.18700
C  41.62600 44.28100 27.42500
C  40.47300 47.01900 25.15500
C  40.92800 46.18000 28.44900
O  40.52600 47.31900 28.71300
C  41.28800 45.16200 29.50200
C  42.25500 45.67300 30.56500
O  43.48900 45.71700 30.45400
O  41.47800 46.22000 31.54700
C  42.09600 46.85300 32.73300
H  43.74400 38.68800 29.22100
H  43.46600 39.13200 22.84400
H  41.14300 44.94800 23.16900
H  42.51700 42.90800 31.38200
H  42.13500 40.03300 31.07600
H  44.87900 40.22300 30.94700
H  43.98200 40.65500 32.44900
H  44.44700 41.89300 31.32800
H  40.15200 41.20300 31.63100
H  39.83400 42.45600 30.39700
H  39.26900 43.77800 32.03900
H  41.01500 43.81100 32.52100
H  44.02000 35.70400 27.47900
H  44.56700 36.84800 28.68000
H  45.61000 36.42900 27.35200
H  43.94000 35.03600 25.34800
H  45.64800 35.48100 25.50400
H  45.17100 34.79100 24.05200
H  41.60200 40.58800 21.30600
H  41.76700 43.42000 21.27200
H  44.34200 41.10500 21.39100
H  43.75400 42.54800 20.58800
H  43.40800 40.91600 19.89900
H  39.87100 42.17000 20.67100
H  39.43600 43.43500 21.73500
H  39.93800 40.81300 23.20700
H  38.69100 40.66200 21.91000
H  38.53200 41.72200 23.27100
H  39.66000 47.44100 25.74600
H  40.33900 46.69900 24.12200
H  41.27400 47.75700 25.13600
H  40.38700 44.79800 29.99600
H  42.03300 46.00600 33.41600
H  41.55200 47.70900 33.13300
H  43.15100 47.10000 32.61600

