158

Mg 0.46000 8.17200 26.00600
C  1.38300 10.09800 28.97500
C  0.32400 5.43200 27.88900
C  0.20100 6.62800 23.06300
C  1.00400 11.25500 24.31100
N  0.78900 7.82900 28.13200
C  1.06200 8.74600 29.17300
C  0.93200 8.10400 30.55500
C  1.19300 6.59900 30.11600
C  0.67200 6.57800 28.60700
C  2.63100 6.07300 30.53900
C  -0.47000 8.41000 31.27200
C  -0.43400 8.55500 32.86500
H  0.74100 7.89300 33.68000
N  0.10500 6.32100 25.56000
C  0.10700 5.27600 26.47400
C  -0.24000 4.09500 25.78000
C  -0.17300 4.41500 24.34700
C  0.03700 5.87800 24.29100
C  -0.38500 2.73900 26.42600
C  -0.41700 3.46600 23.16000
O  -0.38400 3.76900 21.94200
C  -0.74600 2.00000 23.49600
N  0.50000 8.89000 24.08700
C  0.34100 8.04400 23.04200
C  0.45700 8.77400 21.70300
C  0.16800 10.21000 22.15300
C  0.71600 10.07900 23.56700
C  1.78800 8.69100 21.02900
C  -1.35400 10.68400 22.13600
C  -1.65200 11.71000 21.00900
N  1.22300 10.26500 26.46300
C  1.31300 11.39400 25.66400
C  1.67800 12.52300 26.41000
C  1.63800 12.03600 27.69500
C  1.37600 10.69700 27.70400
C  2.08000 13.91900 25.87100
C  1.75000 12.48000 29.04400
O  2.03100 13.63900 29.40400
C  1.52600 11.23700 29.92600
C  2.62100 11.05500 30.89300
O  3.63500 10.34800 30.85300
O  2.29600 11.87500 31.93000
C  3.11200 11.65500 33.13100
H  0.30500 4.63100 28.63000
H  0.16500 6.12400 22.09500
H  0.89500 12.12300 23.65600
H  1.67400 8.54600 31.22000
H  0.43700 6.05600 30.68500
H  3.09700 6.74400 31.26000
H  3.27700 6.05300 29.66000
H  2.51500 5.14400 31.09600
H  -1.23300 7.81300 30.77100
H  -0.79000 9.40800 30.97100
H  -1.32600 8.07800 33.27000
H  -0.37500 9.60000 33.17200
H  -1.42500 2.42200 26.35000
H  -0.07000 2.78400 27.46900
H  0.44700 2.14800 26.04200
H  -1.00700 1.48400 22.57200
H  -1.60900 2.04800 24.16000
H  0.07400 1.50200 24.01300
H  -0.38400 8.45700 21.08600
H  0.74300 10.93900 21.58300
H  2.53400 9.31700 21.51900
H  1.71500 9.05800 20.00600
H  2.06800 7.63800 20.98400
H  -1.49900 11.23300 23.06600
H  -2.09600 9.88700 22.09600
H  -0.97400 11.68000 20.15600
H  -1.58400 12.68900 21.48200
H  -2.66100 11.57700 20.61900
H  2.47300 13.66300 24.88700
H  2.91400 14.34200 26.43200
H  1.28200 14.64700 25.72600
H  0.59500 11.44500 30.45400
H  2.57800 11.75600 34.07500
H  3.96000 12.34000 33.11500
H  3.63700 10.70800 33.25300
Mg 5.93200 53.72800 41.39200
C  5.50000 50.24300 41.12400
C  9.18500 53.15400 40.13100
C  6.45300 56.98100 41.32100
C  2.77300 54.05900 42.60700
N  7.15800 51.91300 40.51400
C  6.71800 50.60900 40.57700
C  7.74700 49.74100 39.87700
C  9.03500 50.60200 39.84600
C  8.40900 52.01500 40.10700
C  9.99500 50.18300 40.97600
C  7.37500 49.24700 38.40800
C  6.61700 50.24700 37.44400
H  5.88400 49.61000 36.36400
N  7.63600 54.93300 40.85400
C  8.79100 54.48000 40.40800
C  9.67500 55.62700 40.32000
C  8.98600 56.75300 40.72500
C  7.63200 56.29500 40.95400
C  11.12400 55.57100 39.85300
C  9.49000 58.22200 40.86500
O  10.64900 58.58500 40.67200
C  8.60500 59.36200 41.39600
N  4.66700 55.30100 41.61600
C  5.17700 56.54200 41.65700
C  4.07100 57.52000 42.15300
C  2.85900 56.61300 42.54300
C  3.44000 55.25300 42.19500
C  4.55900 58.51400 43.30700
C  1.44000 56.88100 41.94700
C  0.85500 58.23400 42.31100
N  4.31400 52.44200 41.66300
C  3.12600 52.66800 42.28800
C  2.40800 51.47500 42.51600
C  3.35200 50.43700 42.13200
C  4.45000 51.13000 41.62500
C  0.98900 51.33800 43.18300
C  3.56800 49.06600 42.06400
O  2.87100 48.08500 42.27900
C  4.98600 48.89500 41.44400
C  4.75300 48.01300 40.27600
O  4.14900 48.33000 39.22100
O  5.33700 46.71600 40.52900
C  5.07500 45.67300 39.57200
H  10.15600 53.05600 39.64100
H  6.62000 58.05800 41.39200
H  1.89500 54.19900 43.24200
H  7.88200 48.89700 40.55300
H  9.48200 50.63500 38.85300
H  11.04200 50.19400 40.67200
H  9.80800 49.19800 41.40100
H  9.86900 50.78100 41.87900
H  6.90900 48.26100 38.41800
H  8.29100 48.97300 37.88400
H  7.36100 50.92000 37.01900
H  5.88100 50.83800 37.98900
H  11.74500 56.17800 40.51200
H  11.21700 55.88900 38.81400
H  11.58200 54.58300 39.80000
H  9.24300 60.23300 41.54700
H  8.24200 59.12400 42.39600
H  7.87300 59.56400 40.61400
H  3.74100 58.14900 41.32600
H  2.77400 56.68100 43.62700
H  4.85500 59.44400 42.82300
H  5.40000 58.04800 43.82100
H  3.80200 58.54300 44.09000
H  0.81200 56.01600 42.16300
H  1.49900 57.03600 40.87000
H  1.22600 58.63900 43.25200
H  -0.22300 58.11700 42.41700
H  0.95900 59.08000 41.63100
H  1.12400 51.14200 44.24600
H  0.43000 50.52400 42.72100
H  0.42400 52.26700 43.10700
H  5.70900 48.42600 42.11100
H  5.21000 44.70000 40.04400
H  5.80200 45.72000 38.76100
H  4.06800 45.66500 39.15700

