158

Mg 0.96700 -1.60400 44.35300
C  3.91200 -0.28100 43.22500
C  -0.72900 0.93000 42.70500
C  -1.99300 -3.29800 44.74400
C  2.80200 -4.37800 45.43200
N  1.55700 0.01300 43.00800
C  2.81100 0.44600 42.70900
C  2.83500 1.88800 42.16300
C  1.38200 2.32000 42.21000
C  0.66400 1.04800 42.71000
C  1.26000 3.53500 43.16200
C  3.61000 1.95300 40.73000
C  4.78100 2.91100 40.64200
H  5.71400 2.55900 39.56400
N  -1.07600 -1.19800 43.95000
C  -1.51700 -0.12800 43.24000
C  -2.95800 -0.19200 43.17700
C  -3.37200 -1.43800 43.70200
C  -2.14000 -2.06200 44.18300
C  -3.66500 0.84700 42.39200
C  -4.76400 -1.96200 43.71300
O  -5.65000 -1.31600 43.18700
C  -5.07000 -3.19800 44.49400
N  0.43400 -3.41400 45.20300
C  -0.80500 -3.97200 45.14900
C  -0.79200 -5.50400 45.29000
C  0.74500 -5.84700 45.40100
C  1.39400 -4.46300 45.38800
C  -1.65800 -6.06700 46.55600
C  1.33600 -6.80700 44.33600
C  2.58700 -7.65600 44.74600
N  2.93200 -2.24500 44.47000
C  3.57200 -3.26900 45.00300
C  4.99600 -3.18200 44.96800
C  5.18300 -1.96400 44.33100
C  3.86000 -1.47400 43.99100
C  6.02900 -4.22500 45.48500
C  6.18600 -1.09400 43.68700
O  7.41500 -1.18200 43.58700
C  5.35700 0.14600 43.12600
C  5.78000 1.26300 44.03300
O  5.43600 1.43900 45.24500
O  6.81400 2.12300 43.42000
C  7.19400 3.19400 44.27700
H  -1.30000 1.82500 42.44900
H  -2.75300 -4.08200 44.73900
H  3.45000 -5.20500 45.72800
H  3.36800 2.55600 42.84000
H  0.83800 2.60000 41.30700
H  0.21200 3.83000 43.11700
H  1.98000 4.27700 42.81600
H  1.52300 3.29600 44.19200
H  2.95900 2.31400 39.93500
H  3.93500 0.95800 40.42800
H  5.34900 2.81300 41.56700
H  4.42400 3.93200 40.50500
H  -3.83100 1.65200 43.10700
H  -4.59100 0.46200 41.96400
H  -3.07600 1.14800 41.52600
H  -4.72900 -4.00100 43.84100
H  -6.15300 -3.23900 44.60900
H  -4.54500 -3.05000 45.43800
H  -1.20800 -5.88200 44.35600
H  1.00300 -6.12000 46.42400
H  -2.02300 -5.22600 47.14500
H  -0.93300 -6.67100 47.10100
H  -2.50200 -6.71100 46.30900
H  1.64300 -6.18800 43.49300
H  0.47900 -7.42200 44.06100
H  3.40800 -7.39800 44.07700
H  2.32700 -8.68900 44.51400
H  2.92100 -7.44600 45.76200
H  7.02200 -3.86300 45.21800
H  5.91900 -5.21100 45.03300
H  5.87400 -4.22800 46.56300
H  5.75900 0.37700 42.14000
H  6.31200 3.67700 44.69700
H  7.80200 3.94800 43.77600
H  7.78000 2.80600 45.11000
Mg 46.67500 17.53100 29.30600
C  44.81600 16.80800 32.27200
C  48.95000 19.26000 31.35400
C  48.25200 18.63600 26.46200
C  44.23300 16.05800 27.51800
N  46.95400 17.73600 31.50000
C  46.03900 17.44100 32.53300
C  46.58200 17.91200 33.88100
C  47.72500 18.97200 33.55000
C  47.93100 18.60300 32.03400
C  47.38200 20.50000 33.87800
C  47.13500 16.76800 34.71700
C  47.38300 17.04800 36.21800
H  47.00500 18.36900 36.88500
N  48.34600 18.68200 28.96700
C  49.13600 19.31300 29.94600
C  50.16000 20.09500 29.19800
C  49.94700 20.01000 27.80200
C  48.82400 19.03700 27.67100
C  51.23300 20.91400 29.93900
C  50.73100 20.65400 26.65000
O  50.55200 20.48800 25.45300
C  51.99100 21.40800 26.87300
N  46.45200 17.12900 27.24800
C  47.12300 17.77100 26.23200
C  46.65500 17.32500 24.85200
C  45.40900 16.42500 25.23900
C  45.32100 16.57000 26.75400
C  46.35200 18.42900 23.71300
C  45.52400 14.91600 24.77300
C  46.47400 14.00900 25.62200
N  44.88700 16.58500 29.74200
C  43.97200 16.07900 28.88800
C  42.84000 15.54000 29.59900
C  43.13700 15.83200 30.93700
C  44.39300 16.44800 30.96600
C  41.67200 14.85600 28.98300
C  42.65400 15.68400 32.37900
O  41.67700 15.15600 32.90200
C  43.79300 16.31500 33.26700
C  43.18800 17.50500 34.01100
O  42.93400 18.57400 33.51200
O  42.97400 17.23500 35.33300
C  42.07300 18.16400 36.05900
H  49.73700 19.69000 31.97700
H  48.67900 18.93700 25.50300
H  43.52800 15.57100 26.84100
H  45.82500 18.49000 34.41200
H  48.57600 18.67900 34.16500
H  46.30800 20.66100 33.97300
H  47.64800 21.11700 33.02000
H  47.87300 20.77100 34.81300
H  48.03700 16.39500 34.23200
H  46.46400 15.90900 34.69600
H  48.44900 16.83100 36.28100
H  46.88000 16.32100 36.85400
H  51.72100 21.71200 29.37800
H  52.05900 20.26300 30.22600
H  50.85500 21.27300 30.89600
H  52.61700 20.86400 27.58000
H  51.81800 22.40800 27.27000
H  52.63000 21.42100 25.99000
H  47.37100 16.59500 24.47500
H  44.44300 16.85800 24.97900
H  45.27700 18.60800 23.73800
H  46.67000 18.16400 22.70500
H  46.77200 19.41200 23.92800
H  45.85600 14.85700 23.73600
H  44.58400 14.39300 24.94900
H  47.44300 14.50700 25.61200
H  46.56500 12.97800 25.27900
H  45.99000 13.87400 26.58900
H  41.10300 15.65100 28.50100
H  41.16700 14.25000 29.73500
H  42.03800 14.26200 28.14500
H  44.15400 15.56100 33.96700
H  41.13000 18.27300 35.52400
H  42.52200 19.15200 36.15900
H  41.86200 17.79700 37.06400

