158

Mg 0.87800 8.30800 27.22400
C  1.72500 10.17700 30.06400
C  0.82600 5.49000 29.31400
C  0.69300 6.47700 24.54700
C  1.59100 11.14100 25.31600
N  1.31400 7.94300 29.49000
C  1.33400 8.91900 30.45200
C  1.05500 8.29900 31.86100
C  1.13700 6.75000 31.54700
C  1.13900 6.67100 29.99300
C  2.27500 5.99200 32.23700
C  -0.32000 8.81300 32.48600
C  -0.68000 8.41600 33.91800
H  0.40600 8.17600 35.03200
N  0.72900 6.38000 27.00500
C  0.63000 5.38300 27.98200
C  0.30800 4.06400 27.29600
C  0.39500 4.33700 25.89200
C  0.54300 5.78600 25.74800
C  0.07300 2.66200 27.92300
C  0.37300 3.26600 24.73800
O  0.33600 3.66100 23.58700
C  0.34400 1.87000 25.00200
N  1.20900 8.74400 25.22900
C  0.91100 7.84100 24.26500
C  1.16200 8.35800 22.86000
C  1.15500 9.90000 23.14800
C  1.26000 9.94700 24.66400
C  2.54300 7.98000 22.21400
C  -0.07400 10.76700 22.73200
C  -1.43300 10.10000 22.67200
N  1.44600 10.27000 27.57700
C  1.78600 11.30000 26.68200
C  2.03200 12.52600 27.35200
C  2.14200 12.07700 28.68800
C  1.79900 10.69700 28.77100
C  2.22100 13.87600 26.83400
C  2.45800 12.53900 30.03400
O  2.87800 13.58500 30.46700
C  2.18700 11.32600 30.95500
C  3.34900 11.01400 31.88800
O  4.37300 10.36700 31.62700
O  3.14000 11.68400 33.07200
C  4.08100 11.46400 34.11500
H  0.62800 4.63800 29.96800
H  0.48400 5.86900 23.66400
H  1.70400 12.06300 24.74100
H  1.93000 8.48900 32.48300
H  0.27800 6.27300 32.01800
H  2.71400 6.63600 32.99900
H  2.96400 5.49400 31.55600
H  1.72600 5.18400 32.72000
H  -1.13400 8.57200 31.80200
H  -0.17300 9.89000 32.40400
H  -1.23900 7.48100 33.87400
H  -1.39100 9.12400 34.34200
H  0.82100 1.90100 27.70100
H  -0.80400 2.15900 27.51400
H  -0.08200 2.70300 29.00100
H  1.21700 1.45500 25.50500
H  0.43200 1.44700 24.00100
H  -0.58600 1.40200 25.32400
H  0.36800 8.07000 22.17000
H  2.00300 10.46800 22.76600
H  3.11700 8.80900 21.80000
H  2.28300 7.35300 21.36100
H  3.11500 7.37600 22.91800
H  0.13800 11.12200 21.72400
H  -0.29200 11.56700 23.43900
H  -1.84700 9.85000 21.69500
H  -2.20200 10.71200 23.14400
H  -1.33800 9.19100 23.26700
H  1.27400 14.41600 26.84400
H  2.68600 13.77100 25.85300
H  2.96400 14.39400 27.44000
H  1.32500 11.62000 31.55400
H  4.57100 12.42800 34.25100
H  4.78400 10.63200 34.14100
H  3.59500 11.31200 35.07800
Mg 42.05700 40.91400 26.51400
C  41.25200 43.08100 28.99300
C  42.74400 38.36900 28.85900
C  42.86600 38.78700 24.02300
C  41.56500 43.51500 24.12000
N  42.18200 40.82000 28.66300
C  41.75800 41.83700 29.50100
C  41.73300 41.35700 30.97100
C  42.50400 39.92000 30.87400
C  42.50400 39.67800 29.34600
C  43.93500 39.96000 31.42100
C  40.44300 41.35700 31.66600
C  40.36400 42.07400 33.09600
H  39.89300 41.13800 34.24700
N  42.67900 38.90500 26.47600
C  42.88400 37.99500 27.53800
C  43.32000 36.72900 27.09000
C  43.30500 36.83200 25.63900
C  42.93400 38.22300 25.30900
C  43.59700 35.51300 27.89900
C  43.38800 35.79100 24.60600
O  43.29000 36.03800 23.40300
C  43.67100 34.38100 24.92400
N  42.30800 41.21600 24.36500
C  42.57400 40.03600 23.56400
C  42.55000 40.51400 22.07700
C  41.84000 41.94400 22.12700
C  41.95600 42.27000 23.61200
C  43.94500 40.58400 21.48400
C  40.29900 41.86400 21.59100
C  39.30600 40.77600 22.10100
N  41.60400 42.92600 26.50500
C  41.40100 43.91700 25.48800
C  41.02200 45.16600 26.04500
C  40.85800 44.82100 27.38400
C  41.22800 43.48200 27.65800
C  40.78900 46.42200 25.41000
C  40.51500 45.39300 28.65800
O  39.91900 46.45200 28.94500
C  40.72300 44.33900 29.76800
C  41.51500 44.95800 30.86300
O  42.66500 45.29700 30.79100
O  40.68500 45.24400 31.89300
C  41.37600 45.91000 32.95000
H  42.88100 37.65600 29.67500
H  43.06400 38.20200 23.12200
H  41.39100 44.26400 23.34400
H  42.45200 41.97900 31.50400
H  41.96200 39.07400 31.29600
H  44.55800 40.70100 30.92000
H  44.23900 38.91300 31.41100
H  43.95400 40.18500 32.48700
H  40.21000 40.30100 31.80500
H  39.73000 41.82000 30.98400
H  39.57000 42.80100 32.92800
H  41.27900 42.58500 33.39900
H  42.88800 34.77000 27.53400
H  43.46600 35.61400 28.97600
H  44.60100 35.17900 27.63600
H  42.85200 33.83600 25.39400
H  44.57200 34.22700 25.51800
H  43.79100 33.71500 24.06900
H  41.90600 39.90100 21.44600
H  42.50100 42.67200 21.65500
H  43.78900 40.24500 20.46000
H  44.62900 39.86600 21.93800
H  44.45600 41.54700 21.49600
H  40.39100 41.70200 20.51700
H  39.87900 42.86200 21.71700
H  38.98700 40.17500 21.25000
H  38.41600 41.15500 22.60400
H  39.78100 40.18400 22.88300
H  41.28700 46.43000 24.44100
H  41.34700 47.14500 26.00400
H  39.75700 46.74600 25.27600
H  39.76900 44.06500 30.21700
H  42.19000 45.31600 33.36600
H  40.69500 46.04900 33.78900
H  41.72500 46.87100 32.57200

