158

Mg 30.22400 59.83200 40.01700
C  27.60100 57.94000 38.70700
C  32.44300 57.39400 38.87700
C  32.81700 61.93500 40.75800
C  27.91500 62.34100 40.72700
N  30.02400 57.93600 38.83700
C  28.87500 57.39100 38.46400
C  29.06600 56.06800 37.73700
C  30.54500 55.68100 38.16700
C  31.09300 57.07600 38.69600
C  30.63100 54.60300 39.25200
C  28.97300 56.27300 36.18800
C  28.47900 54.99400 35.30800
H  27.62800 55.32400 34.11400
N  32.36300 59.65400 39.95800
C  33.06400 58.55000 39.44300
C  34.47000 58.80500 39.61000
C  34.59200 60.07400 40.15700
C  33.20800 60.66400 40.28300
C  35.57500 57.88000 39.10100
C  35.90700 60.66400 40.58100
O  36.88300 59.93200 40.71300
C  36.10100 62.16200 40.80200
N  30.37600 61.83100 40.50100
C  31.50300 62.43300 40.90600
C  31.22500 63.87700 41.35900
C  29.64800 64.07600 41.35900
C  29.21000 62.63800 40.85800
C  31.91000 64.21500 42.65100
C  29.14700 65.19600 40.44100
C  28.05700 66.08400 41.09900
N  28.14900 60.11800 39.89500
C  27.34100 61.17200 40.20100
C  25.96000 60.80000 39.87000
C  26.03900 59.48900 39.38000
C  27.40000 59.18400 39.29800
C  24.78100 61.64400 40.27500
C  25.27200 58.34400 38.86000
O  24.03700 58.27200 38.71500
C  26.28200 57.35200 38.34600
C  25.94900 55.99900 38.97300
O  26.09400 55.67700 40.12100
O  25.56200 55.14200 37.98200
C  25.26700 53.78700 38.36100
H  33.02400 56.51100 38.60100
H  33.53900 62.71400 41.01000
H  27.22200 63.11100 41.07100
H  28.34600 55.27400 37.93400
H  31.11600 55.22400 37.35900
H  31.17000 53.74000 38.86100
H  29.61700 54.32000 39.53500
H  31.22500 54.85200 40.13100
H  29.99400 56.53200 35.90800
H  28.43800 57.19600 35.96700
H  27.93100 54.23700 35.86900
H  29.33600 54.44500 34.91800
H  36.09200 57.42900 39.94800
H  36.38800 58.35200 38.54900
H  35.18000 57.09700 38.45300
H  35.67000 62.79200 40.02400
H  37.18500 62.25600 40.85800
H  35.62700 62.40500 41.75300
H  31.74800 64.44300 40.58800
H  29.40200 64.17800 42.41600
H  32.93600 64.51900 42.44200
H  31.92700 63.36000 43.32600
H  31.42200 65.02200 43.19700
H  28.72300 64.80700 39.51500
H  30.06800 65.76800 40.32700
H  27.89000 66.00300 42.17300
H  27.18500 65.84800 40.48900
H  28.29700 67.13900 40.96800
H  23.93200 60.96800 40.37100
H  24.61400 62.38200 39.49200
H  25.03100 62.04800 41.25600
H  26.27900 57.33500 37.25600
H  24.20900 53.73500 38.62000
H  25.94000 53.44300 39.14600
H  25.34500 53.13000 37.49500
Mg -10.24000 38.80300 42.20300
C  -8.51900 35.73000 41.61600
C  -7.85100 40.34300 40.43900
C  -12.51100 41.32300 41.88100
C  -12.84400 36.76300 43.50100
N  -8.49000 38.04100 40.95900
C  -7.95000 36.79500 40.87100
C  -6.66900 36.75800 40.04400
C  -6.38800 38.25200 39.98000
C  -7.61600 38.95100 40.52900
C  -5.10200 38.83900 40.69500
C  -6.80400 36.03700 38.63300
C  -5.67300 35.07900 38.27400
H  -4.70600 35.42700 37.16600
N  -10.14600 40.71600 41.32400
C  -9.06200 41.20200 40.68100
C  -9.29300 42.58800 40.44400
C  -10.63300 42.92900 40.82500
C  -11.18700 41.66800 41.43600
C  -8.31900 43.40500 39.58900
C  -11.31100 44.28200 40.66900
O  -10.73400 45.21700 40.10900
C  -12.64200 44.57200 41.32000
N  -12.25700 39.05600 42.67000
C  -12.99100 40.16800 42.45900
C  -14.46900 40.08100 42.91200
C  -14.57300 38.53000 43.34300
C  -13.12500 38.04800 43.13200
C  -14.69600 41.08800 44.04000
C  -15.55800 37.54900 42.52900
C  -16.46700 36.73500 43.49600
N  -10.57700 36.73000 42.64600
C  -11.63600 36.07600 43.29500
C  -11.24600 34.68600 43.50100
C  -9.99800 34.47100 42.84500
C  -9.69100 35.77100 42.34800
C  -12.00600 33.67300 44.25600
C  -9.00500 33.53400 42.52800
O  -8.91600 32.38100 42.73800
C  -7.94900 34.32900 41.69900
C  -6.59500 34.18100 42.36200
O  -5.90300 33.17100 42.42800
O  -6.19100 35.40900 42.78800
C  -4.96300 35.46700 43.60400
H  -7.05600 40.86300 39.90100
H  -13.29000 42.07300 41.72300
H  -13.73100 36.24400 43.87000
H  -5.85700 36.30500 40.61400
H  -6.34800 38.49600 38.91800
H  -5.38900 39.74200 41.23300
H  -4.37000 39.10600 39.93300
H  -4.59100 38.18000 41.39800
H  -6.70100 36.80900 37.87100
H  -7.72900 35.46000 38.61900
H  -6.09300 34.11700 37.97900
H  -5.02100 34.76400 39.08800
H  -8.91100 44.07700 38.96700
H  -7.73600 42.86000 38.84600
H  -7.75100 44.12800 40.17400
H  -12.81900 44.18100 42.32200
H  -13.19800 44.02400 40.55900
H  -12.90500 45.62200 41.19300
H  -15.13500 40.30300 42.07800
H  -14.77200 38.39600 44.40600
H  -14.84000 42.13100 43.75900
H  -13.88200 40.91800 44.74400
H  -15.65000 40.85700 44.51400
H  -15.04500 36.87600 41.84100
H  -16.14800 38.38600 42.15700
H  -16.52400 35.69500 43.17400
H  -17.45600 37.16300 43.66000
H  -16.00000 36.77900 44.48000
H  -11.50300 32.71000 44.33900
H  -12.99200 33.70200 43.79300
H  -12.11000 34.01200 45.28700
H  -8.00900 33.85100 40.72100
H  -4.58600 34.49900 43.93600
H  -5.14900 35.95400 44.56100
H  -4.15600 36.01700 43.12000

