158

Mg 47.27300 15.60500 28.00800
C  45.07000 15.32000 30.79700
C  49.42400 17.36100 30.08600
C  49.02200 16.48300 25.25800
C  44.65200 14.57300 25.96100
N  47.32200 16.10600 30.22800
C  46.30100 15.87700 31.13000
C  46.77700 16.29500 32.49900
C  48.06600 17.15100 32.30500
C  48.29500 16.93300 30.77200
C  47.93200 18.68000 32.68600
C  47.02700 15.06800 33.41500
C  47.18200 15.29300 34.92700
H  46.78300 16.65900 35.47000
N  49.05500 16.45300 27.76800
C  49.77900 17.14400 28.71800
C  51.09700 17.61000 28.13600
C  50.97800 17.29300 26.76500
C  49.67400 16.67200 26.51100
C  52.16300 18.29100 28.98300
C  52.05100 17.63800 25.75200
O  51.95200 17.19300 24.57800
C  53.32800 18.42300 26.09500
N  46.83500 15.53300 25.87800
C  47.75400 15.92000 25.03700
C  47.16700 15.72600 23.59000
C  45.86200 14.88500 23.80300
C  45.81400 14.96400 25.27000
C  46.80900 17.10800 22.90400
C  45.85600 13.41000 23.42400
C  46.33000 13.04400 22.01800
N  45.29900 15.02400 28.27800
C  44.36300 14.61500 27.34300
C  43.16800 14.26800 28.00200
C  43.35400 14.46100 29.38300
C  44.72300 14.93700 29.50200
C  41.82300 13.77700 27.30900
C  42.65400 14.43900 30.74600
O  41.56700 13.95000 31.16100
C  43.85000 15.05400 31.70700
C  43.31300 16.25700 32.41900
O  43.65400 17.38700 32.18400
O  42.57400 15.83700 33.52100
C  41.94800 16.89000 34.33300
H  50.12900 17.78300 30.80500
H  49.64500 16.64300 24.37500
H  43.83300 14.27300 25.30400
H  46.03800 16.99600 32.88800
H  48.90600 16.63400 32.76800
H  48.69900 18.89800 33.42800
H  47.02000 18.93000 33.22800
H  47.99300 19.37100 31.84500
H  47.89300 14.56900 32.97800
H  46.20200 14.39800 33.17500
H  48.17500 14.92800 35.18800
H  46.46300 14.58800 35.34500
H  53.09900 17.75500 29.14200
H  51.72400 18.56700 29.94200
H  52.36300 19.26400 28.53400
H  53.82100 17.82700 26.86200
H  53.03600 19.45300 26.30300
H  53.99100 18.42200 25.23000
H  47.88700 15.27600 22.90600
H  44.99300 15.37000 23.36000
H  45.83400 17.05000 22.41900
H  47.56400 17.52100 22.23600
H  46.79900 17.84800 23.70500
H  44.81200 13.10100 23.37600
H  46.42100 12.89500 24.20100
H  47.34500 12.65000 21.95100
H  46.37700 13.94000 21.39900
H  45.64900 12.32700 21.56000
H  41.47500 12.86500 27.79500
H  42.00600 13.59800 26.24900
H  41.10600 14.59500 27.37600
H  44.10700 14.30000 32.45100
H  41.12900 17.30400 33.74600
H  42.59700 17.64300 34.78000
H  41.49200 16.43900 35.21400
Mg 47.86000 35.39400 27.92200
C  45.99800 33.54800 30.24300
C  47.96700 38.03700 30.18500
C  49.10600 37.23900 25.43300
C  47.18900 32.79400 25.68300
N  47.00100 35.75400 29.91100
C  46.50000 34.74100 30.74200
C  46.59200 35.24600 32.22700
C  46.81600 36.75300 32.09900
C  47.26500 36.90400 30.66100
C  45.55800 37.66100 32.39500
C  47.71000 34.54300 33.01000
C  47.57600 34.46800 34.53100
H  46.47400 35.27800 35.21100
N  48.57400 37.27900 27.88100
C  48.46500 38.24700 28.92800
C  49.13600 39.43500 28.46800
C  49.54000 39.16600 27.12200
C  49.11700 37.83100 26.76200
C  49.43200 40.70000 29.32500
C  50.33700 40.08300 26.24200
O  50.76000 39.71500 25.13300
C  50.65500 41.49900 26.63300
N  48.01100 35.11300 25.84300
C  48.60500 35.96000 25.01700
C  48.89700 35.45700 23.63300
C  48.42400 33.99200 23.74100
C  47.82300 33.94600 25.18400
C  48.34000 36.27100 22.46900
C  49.48000 32.93100 23.38600
C  50.26500 32.37000 24.58400
N  46.83200 33.49400 27.91300
C  46.65500 32.59400 26.92200
C  45.79300 31.51500 27.38700
C  45.55400 31.83100 28.71100
C  46.16200 33.09000 28.96200
C  45.35300 30.29900 26.67000
C  44.85500 31.37900 29.88300
O  44.18000 30.36400 30.08200
C  45.00700 32.56200 30.88600
C  45.43500 32.01700 32.16600
O  46.44300 31.38200 32.43800
O  44.43500 32.25900 33.08900
C  44.36500 31.26700 34.13400
H  47.90100 38.90300 30.84700
H  49.58800 37.81700 24.64100
H  47.00900 32.01900 24.93500
H  45.64000 34.99200 32.69400
H  47.61800 37.12400 32.73700
H  45.48300 38.33200 31.53900
H  45.67100 38.18500 33.34400
H  44.67700 37.02300 32.32600
H  48.62400 35.09800 32.79800
H  47.85500 33.52700 32.64200
H  48.53700 34.79500 34.92700
H  47.49600 33.40700 34.76900
H  50.51800 40.75900 29.40700
H  49.02700 40.66500 30.33700
H  49.01200 41.57600 28.83000
H  49.80400 42.18100 26.65700
H  51.37900 41.82000 25.88400
H  51.23200 41.69400 27.53600
H  49.97800 35.51900 23.51600
H  47.63100 33.77700 23.02600
H  47.66400 37.05200 22.81500
H  47.80300 35.56800 21.83300
H  49.22900 36.60400 21.93300
H  50.15900 33.39900 22.67400
H  49.06700 32.12700 22.77800
H  51.22500 32.04500 24.18200
H  49.69800 31.61600 25.13000
H  50.38600 33.15500 25.33100
H  44.70500 29.74100 27.34600
H  46.24300 29.73900 26.38200
H  44.87700 30.57600 25.72900
H  44.05400 33.08900 30.86900
H  44.57100 31.81800 35.05200
H  44.92300 30.33100 34.15700
H  43.33700 30.91300 34.21000

