158

Mg 35.96500 3.10400 30.44300
C  33.42000 4.14100 32.67300
C  38.02800 2.72800 33.32400
C  38.59200 2.42300 28.39200
C  33.94400 3.89800 27.80800
N  35.76100 3.58500 32.69600
C  34.64200 3.85100 33.31800
C  34.79000 3.66500 34.89500
C  36.35300 3.65800 35.04700
C  36.76300 3.23700 33.63900
C  37.00500 4.95200 35.48200
C  34.04100 2.33300 35.38400
C  33.15000 2.46500 36.67400
H  33.57100 3.43900 37.73900
N  38.02700 2.58300 30.74700
C  38.64000 2.48100 32.01800
C  40.00500 1.94100 31.81400
C  40.18300 1.87600 30.34900
C  38.90000 2.31400 29.74700
C  40.93500 1.56100 33.02800
C  41.38300 1.37400 29.54000
O  41.25800 1.21300 28.32700
C  42.71400 1.16600 30.23600
N  36.29900 3.39100 28.45900
C  37.45900 2.98000 27.77200
C  37.16600 2.98500 26.21500
C  35.62500 3.24700 26.14300
C  35.25200 3.55500 27.54000
C  37.97000 4.02500 25.40300
C  34.77800 2.08700 25.55200
C  34.04400 2.38000 24.24900
N  34.03100 3.92700 30.20600
C  33.32000 4.06000 29.00900
C  31.90000 4.35800 29.37800
C  31.91200 4.41800 30.81500
C  33.28100 4.15200 31.26700
C  30.66200 4.55200 28.55900
C  31.08300 4.76200 31.98500
O  29.82700 4.99300 32.11300
C  32.02500 4.51400 33.24800
C  31.95400 5.77300 33.97000
O  32.40600 6.84000 33.61000
O  31.29700 5.45200 35.15400
C  30.91800 6.58700 36.04300
H  38.71900 2.50300 34.13900
H  39.36900 2.32900 27.63100
H  33.39300 4.20500 26.91600
H  34.42200 4.58800 35.34300
H  36.64800 2.80000 35.65000
H  37.45700 4.84200 36.46800
H  36.39700 5.84700 35.34800
H  37.87100 5.09100 34.83500
H  34.78700 1.55900 35.56500
H  33.32500 2.12400 34.59000
H  33.11800 1.48300 37.14700
H  32.09200 2.54500 36.42400
H  41.05400 0.47900 32.98200
H  40.58600 1.87700 34.01100
H  41.80900 2.16700 32.78900
H  42.61600 0.42700 31.03200
H  43.08700 2.09800 30.66100
H  43.36500 0.74200 29.47200
H  37.40100 2.00200 25.80800
H  35.42700 4.18100 25.61700
H  37.34400 4.67100 24.78600
H  38.80000 3.55600 24.87400
H  38.28900 4.68200 26.21200
H  34.14600 1.78700 26.38700
H  35.38900 1.26100 25.18800
H  33.96700 3.46100 24.13100
H  33.07200 1.89000 24.30800
H  34.53500 1.90000 23.40300
H  30.87200 4.27100 27.52700
H  30.52200 5.63200 28.61500
H  29.77200 4.08100 28.97600
H  31.61400 3.67300 33.80600
H  30.73900 7.58100 35.63400
H  31.78700 6.76100 36.67700
H  30.07400 6.29800 36.67000
Mg 30.70800 57.94300 39.47000
C  28.05000 56.02900 38.45000
C  32.81200 55.24900 38.52600
C  33.34000 59.82100 40.01400
C  28.42400 60.61300 39.73600
N  30.44400 55.97100 38.36300
C  29.22600 55.34300 38.18300
C  29.36700 53.85400 37.77400
C  30.88000 53.61300 38.11100
C  31.42000 55.07200 38.34700
C  31.16200 52.70100 39.35000
C  28.98200 53.49800 36.32000
C  29.35700 54.51900 35.17400
H  28.21700 55.08300 34.34300
N  32.73900 57.61400 39.37200
C  33.42800 56.45100 38.90600
C  34.80900 56.69400 39.04200
C  35.00900 57.94300 39.64800
C  33.66600 58.52200 39.75700
C  35.73100 55.54400 38.82300
C  36.37900 58.49900 40.07100
O  37.41300 57.86600 39.88800
C  36.56100 59.85300 40.73800
N  30.79300 59.97800 39.89500
C  32.05700 60.52400 40.05000
C  31.94000 62.12000 40.11300
C  30.38100 62.26900 40.14500
C  29.79300 60.87900 39.85600
C  32.75300 62.81800 41.32400
C  29.89100 63.31500 39.10200
C  29.91000 62.84100 37.55900
N  28.61400 58.27500 39.31200
C  27.83700 59.38400 39.55300
C  26.47600 58.99700 39.47200
C  26.46100 57.69500 39.05000
C  27.83700 57.30600 38.93400
C  25.27100 59.77700 39.80100
C  25.62700 56.57200 38.63900
O  24.43800 56.49300 38.55400
C  26.64200 55.41100 38.20200
C  26.19700 54.29500 39.16000
O  26.82600 53.92700 40.13200
O  25.00100 53.81000 38.66900
C  24.37000 52.82800 39.51800
H  33.38600 54.32300 38.45700
H  34.11500 60.58200 40.12100
H  27.73300 61.45800 39.72900
H  28.65800 53.35400 38.43400
H  31.40600 53.14000 37.28200
H  30.22000 52.32600 39.75100
H  31.77400 53.18700 40.11000
H  31.69000 51.77800 39.10900
H  27.91500 53.28100 36.26700
H  29.53500 52.58200 36.11300
H  30.04000 53.98200 34.51500
H  30.00200 55.25600 35.65100
H  36.78300 55.79500 38.96000
H  35.62900 55.15100 37.81100
H  35.48600 54.84200 39.62000
H  35.74000 60.04400 41.42900
H  36.52300 60.62000 39.96500
H  37.55300 59.75100 41.17900
H  32.29400 62.60000 39.20000
H  30.04600 62.43200 41.16900
H  33.50000 62.19300 41.81300
H  32.06000 63.03700 42.13700
H  33.20700 63.72900 40.93600
H  30.48000 64.23200 39.12100
H  28.89400 63.50500 39.49900
H  30.12200 63.72400 36.95500
H  28.91700 62.41100 37.43400
H  30.69400 62.12000 37.32700
H  25.16200 60.68800 39.21300
H  25.19900 59.95900 40.87400
H  24.46200 59.11000 39.50500
H  26.47900 55.08400 37.17500
H  24.01200 52.05000 38.84400
H  23.62300 53.37200 40.09600
H  25.01200 52.34600 40.25500

