158

Mg 41.64400 7.44600 29.03800
C  42.96700 9.19800 31.63300
C  39.24100 6.25100 31.18300
C  40.53000 5.43600 26.58100
C  44.25700 8.33600 26.92700
N  41.36200 7.41800 31.31400
C  41.93900 8.41700 32.10600
C  41.25700 8.51600 33.54400
C  39.93200 7.63100 33.26900
C  40.13900 7.04100 31.85800
C  39.61900 6.57000 34.38500
C  40.70700 9.95700 34.03100
C  40.12000 9.89800 35.44600
H  40.46900 11.12700 36.29400
N  40.04500 6.10600 28.84100
C  39.16000 5.79700 29.86600
C  38.04500 5.22200 29.24900
C  38.34800 5.14300 27.86200
C  39.68900 5.52000 27.72300
C  36.79200 4.83800 30.05900
C  37.28000 4.77300 26.80400
O  37.62200 4.49500 25.64100
C  35.71800 4.77900 27.05300
N  42.34700 6.84700 27.09500
C  41.76100 5.93700 26.31200
C  42.33500 5.93700 24.93200
C  43.49400 6.92400 24.95800
C  43.39000 7.37900 26.43300
C  42.67400 4.52200 24.40200
C  43.46600 8.15900 23.95900
C  44.22500 7.81600 22.67600
N  43.28800 8.45300 29.18900
C  44.28600 8.75100 28.30400
C  45.31000 9.61400 28.95400
C  44.77200 9.86500 30.18900
C  43.57700 9.07600 30.32400
C  46.51300 10.12600 28.26500
C  44.97600 10.64000 31.39600
O  45.85500 11.38800 31.77100
C  43.77000 10.22100 32.32400
C  44.38800 9.77000 33.62200
O  44.92700 8.74400 33.80700
O  44.15000 10.70700 34.63400
C  44.63300 10.40100 35.97100
H  38.41000 5.93700 31.81900
H  40.13300 4.79600 25.79000
H  45.12500 8.66300 26.35100
H  41.85600 8.15300 34.37800
H  39.01100 8.21300 33.29200
H  38.74000 6.84000 34.97100
H  40.46300 6.65100 35.07000
H  39.56100 5.56200 33.97400
H  40.04200 10.42900 33.30700
H  41.55900 10.63700 34.02700
H  40.50500 9.04600 36.00700
H  39.04000 9.80100 35.33800
H  36.97100 4.70000 31.12600
H  36.39600 3.89800 29.67400
H  35.95000 5.51800 29.93000
H  35.19000 4.93100 26.11200
H  35.42800 5.59900 27.70900
H  35.69500 3.74900 27.41100
H  41.49700 6.37300 24.38700
H  44.49000 6.48200 24.92200
H  42.66100 3.74100 25.16300
H  43.63900 4.44300 23.90100
H  41.95100 4.30200 23.61700
H  43.87300 9.04200 24.45200
H  42.41400 8.37200 23.76900
H  44.66000 6.82200 22.58000
H  45.18900 8.31800 22.75600
H  43.72300 8.15300 21.76900
H  46.47800 10.21300 27.17900
H  47.35000 9.45200 28.44800
H  46.90000 11.06500 28.66200
H  43.24200 11.16300 32.47200
H  45.71800 10.29400 35.98700
H  44.13700 9.50900 36.35400
H  44.39200 11.29500 36.54600
Mg -2.19000 34.18100 27.67100
C  -3.50400 32.48500 30.47500
C  -0.72800 36.43200 29.77900
C  -1.62400 36.13400 25.06700
C  -3.83700 31.94500 25.63700
N  -2.09200 34.43600 29.84300
C  -2.70000 33.57300 30.78600
C  -2.35900 34.01300 32.18200
C  -1.44100 35.24100 31.96600
C  -1.39400 35.40600 30.46000
C  -1.75900 36.58900 32.70200
C  -1.80500 32.97100 33.19900
C  -2.46900 32.74600 34.56500
H  -1.52900 32.66500 35.72100
N  -1.29800 36.08800 27.43500
C  -0.65900 36.79700 28.38800
C  -0.12000 38.02900 27.86500
C  -0.52000 38.01800 26.48700
C  -1.11500 36.67400 26.25300
C  0.66800 38.95000 28.69100
C  -0.35300 39.16900 25.49800
O  -0.81200 38.98400 24.36600
C  0.30000 40.53200 25.78000
N  -2.84300 34.10900 25.54100
C  -2.32700 34.95800 24.72000
C  -2.43200 34.49800 23.30000
C  -3.06500 33.05800 23.42200
C  -3.28300 33.01100 24.95000
C  -3.30500 35.39700 22.38200
C  -2.12000 31.85000 22.80500
C  -0.82200 31.57100 23.53800
N  -3.39300 32.50800 27.93800
C  -3.97400 31.67500 27.01400
C  -4.65200 30.61300 27.65800
C  -4.44600 30.86100 29.00200
C  -3.78400 32.08000 29.15600
C  -5.47400 29.56600 27.07900
C  -4.88100 30.46000 30.34400
O  -5.68200 29.57300 30.74100
C  -4.26200 31.50700 31.31100
C  -5.45500 32.14500 31.99800
O  -6.46600 32.52400 31.46700
O  -5.27700 32.10100 33.34100
C  -6.43100 32.54500 34.16400
H  -0.23900 37.15300 30.43800
H  -1.36100 36.73700 24.19500
H  -4.23800 31.16800 24.98300
H  -3.24800 34.33900 32.72200
H  -0.39800 35.04500 32.21600
H  -0.84600 36.84400 33.24000
H  -2.49200 36.33400 33.46800
H  -1.94800 37.48400 32.10900
H  -0.73100 33.12300 33.30500
H  -1.84900 32.00500 32.69600
H  -3.03400 31.81900 34.47700
H  -3.06200 33.62400 34.82100
H  1.60000 38.97000 28.12700
H  0.95700 38.67800 29.70600
H  0.23700 39.94700 28.78000
H  1.33800 40.43800 26.10100
H  -0.28100 40.96400 26.59400
H  0.29800 41.24800 24.95700
H  -1.47000 34.30400 22.82700
H  -4.08600 33.00600 23.04500
H  -3.92800 34.82600 21.69400
H  -2.72100 36.07200 21.75500
H  -3.86600 36.16600 22.91400
H  -1.87600 32.10500 21.77400
H  -2.70400 30.93300 22.73300
H  -0.60300 32.29700 24.32100
H  0.05600 31.64400 22.89700
H  -0.85600 30.56800 23.96400
H  -5.60700 28.78000 27.82200
H  -4.99400 29.21200 26.16700
H  -6.46800 29.97100 26.88600
H  -3.61900 31.00800 32.03600
H  -7.19800 31.77900 34.27100
H  -6.85700 33.47300 33.78200
H  -6.11300 32.78600 35.17900

