158

Mg 47.43000 34.19900 26.65500
C  45.59400 32.93700 29.40900
C  47.78200 37.16100 28.37400
C  48.51800 35.57900 23.73900
C  46.27700 31.37300 24.75100
N  46.84800 34.87000 28.68500
C  46.19400 34.19900 29.58600
C  46.25800 34.94500 30.89700
C  46.69600 36.39000 30.51900
C  47.04500 36.17400 29.09100
C  45.76100 37.57200 30.82100
C  47.30200 34.33600 31.96000
C  46.99700 34.48100 33.39900
H  46.18000 35.65000 33.92900
N  48.21200 36.00100 26.17000
C  48.25000 37.10000 27.00000
C  49.07700 38.13100 26.41100
C  49.31100 37.71700 25.05400
C  48.64700 36.36500 24.95200
C  49.67200 39.32500 27.10300
C  50.14500 38.39400 23.93300
O  50.46800 37.78200 22.94800
C  50.57500 39.84700 24.18000
N  47.32300 33.60800 24.51400
C  47.99400 34.33400 23.58000
C  47.93700 33.62600 22.25100
C  47.39300 32.22200 22.58500
C  46.93800 32.40400 24.05600
C  47.14200 34.34800 21.08100
C  48.41000 31.01400 22.39700
C  49.47900 30.76200 23.46400
N  46.39500 32.43500 27.01700
C  46.06500 31.38400 26.15200
C  45.46500 30.39500 26.88500
C  45.11000 31.01100 28.15900
C  45.73900 32.24300 28.16000
C  45.16900 29.02200 26.37800
C  44.41700 30.80300 29.41400
O  43.75000 29.85300 29.88600
C  44.66600 32.03700 30.28900
C  45.29200 31.56900 31.47600
O  46.43500 31.14300 31.57100
O  44.39400 31.58900 32.54500
C  44.74800 30.89100 33.81400
H  47.87100 38.08700 28.94400
H  49.01700 35.99700 22.86100
H  45.87800 30.49500 24.23900
H  45.25400 34.93200 31.32100
H  47.65600 36.73300 30.90700
H  45.88500 38.31400 30.03200
H  46.08600 38.11400 31.71000
H  44.70900 37.29300 30.87700
H  48.27600 34.71800 31.65500
H  47.39600 33.30200 31.63100
H  47.91700 34.54200 33.98100
H  46.61200 33.51300 33.72100
H  50.73600 39.43300 26.89400
H  49.51100 39.20700 28.17400
H  49.18700 40.28000 26.90200
H  49.71700 40.43900 24.49800
H  50.97700 40.04000 23.18600
H  51.44300 39.95900 24.82900
H  49.00500 33.59600 22.03800
H  46.45000 31.92500 22.12600
H  47.70500 34.28300 20.15000
H  46.92300 35.37500 21.37600
H  46.18500 33.83300 20.99700
H  48.98800 31.10700 21.47700
H  47.85200 30.09300 22.22900
H  50.36300 30.48600 22.88900
H  49.10400 29.87800 23.98000
H  49.67600 31.65400 24.05900
H  44.17700 28.95900 25.92900
H  45.16600 28.40600 27.27700
H  45.99100 28.62100 25.78500
H  43.71700 32.48000 30.59100
H  45.77100 31.15000 34.08800
H  44.60100 29.82500 33.64200
H  44.01200 31.40600 34.43000
Mg 29.81900 58.65000 39.04000
C  27.02900 56.70100 38.14800
C  31.85600 56.01500 38.50900
C  32.38300 60.81100 39.13500
C  27.61700 61.35000 39.30200
N  29.46200 56.66000 38.02300
C  28.18700 56.03800 37.92000
C  28.40800 54.57500 37.51500
C  29.83100 54.25500 38.20400
C  30.46300 55.72700 38.25000
C  29.77300 53.57800 39.59100
C  28.41700 54.44700 35.96000
C  27.23300 53.67100 35.30200
H  26.21700 54.48700 34.43700
N  31.97000 58.40600 39.01700
C  32.59600 57.25900 38.73100
C  34.01500 57.46200 38.75700
C  34.26200 58.82400 39.05700
C  32.86800 59.42000 39.01900
C  34.96500 56.34700 38.67700
C  35.51000 59.52600 39.17500
O  36.59500 59.01800 38.99900
C  35.56000 60.92000 39.51100
N  30.02300 60.76300 39.45200
C  31.18200 61.43700 39.29300
C  30.95700 62.96400 39.45200
C  29.48000 63.11600 39.61400
C  29.01400 61.64300 39.45600
C  31.83700 63.58900 40.61200
C  28.75100 64.08000 38.64600
C  28.15300 65.29000 39.18800
N  27.73900 59.05700 38.82400
C  26.98800 60.15100 38.98600
C  25.64700 59.86200 38.85200
C  25.55000 58.56700 38.51900
C  26.87900 58.07300 38.51800
C  24.50900 60.74700 39.22100
C  24.69300 57.47200 38.28000
O  23.47200 57.41900 38.19300
C  25.58300 56.21300 38.01500
C  25.17400 55.10900 38.94400
O  25.32000 55.10700 40.15400
O  24.57700 54.12200 38.19100
C  23.89100 52.95100 38.78400
H  32.44600 55.09700 38.46400
H  33.17100 61.55100 39.28900
H  26.93600 62.16000 39.57400
H  27.57500 53.93100 37.79900
H  30.45000 53.53600 37.66800
H  30.47200 52.74500 39.66800
H  28.78500 53.11900 39.57100
H  29.90000 54.23200 40.45400
H  29.28500 53.84300 35.69700
H  28.55300 55.45500 35.56800
H  26.66300 53.11200 36.04500
H  27.66700 52.88100 34.68800
H  35.92100 56.65500 39.10000
H  35.16300 56.16400 37.62100
H  34.53800 55.47800 39.17800
H  36.57500 61.22700 39.76500
H  34.85800 61.27200 40.26700
H  35.38700 61.48000 38.59200
H  31.26400 63.40200 38.50300
H  29.18900 63.32200 40.64400
H  31.94100 64.66900 40.50300
H  32.82100 63.14000 40.48200
H  31.27300 63.34100 41.51100
H  27.94800 63.61900 38.07100
H  29.51400 64.40800 37.94000
H  28.64200 66.09000 38.63300
H  28.51800 65.42500 40.20700
H  27.07200 65.31900 39.05300
H  24.88700 61.44300 39.97000
H  23.61300 60.17900 39.47200
H  24.24400 61.45900 38.43900
H  25.47900 55.90900 36.97400
H  23.15500 52.46500 38.14300
H  23.31900 53.12500 39.69500
H  24.66500 52.23400 39.06100

