158

Mg 1.57100 7.95000 25.13700
C  2.76100 9.86600 27.89400
C  1.70100 5.16300 27.13500
C  1.13000 6.05100 22.35700
C  1.97600 10.79400 23.11100
N  2.52600 7.58600 27.24800
C  2.54200 8.55500 28.26500
C  2.31400 7.87000 29.70100
C  2.14100 6.34300 29.31300
C  2.13900 6.36800 27.76100
C  3.33100 5.42100 29.88600
C  1.21600 8.48500 30.55200
C  1.60700 8.94600 32.00400
H  2.65300 8.23900 32.80300
N  1.43300 5.95300 24.76000
C  1.51100 4.95000 25.73300
C  1.20300 3.69200 25.16800
C  0.98200 3.94100 23.78000
C  1.23000 5.38000 23.52800
C  1.05100 2.38400 25.95800
C  0.74200 2.89800 22.67800
O  0.90200 3.26200 21.52000
C  0.56300 1.41900 22.93500
N  1.80800 8.31700 22.98900
C  1.36000 7.40600 22.11100
C  1.26000 7.97500 20.72000
C  1.37300 9.48000 20.94100
C  1.73900 9.58000 22.43000
C  2.27800 7.26900 19.76200
C  0.15700 10.34400 20.58900
C  -1.04000 10.10900 21.51400
N  2.18600 9.95500 25.40000
C  2.20600 11.01000 24.47200
C  2.72900 12.21000 25.12300
C  2.84300 11.90100 26.51100
C  2.53000 10.47500 26.59200
C  2.92200 13.52300 24.46900
C  3.10800 12.31000 27.95400
O  3.33400 13.42900 28.38700
C  2.89900 11.05200 28.89400
C  4.04000 10.96200 29.89100
O  5.14100 10.54200 29.70300
O  3.56500 11.53400 31.13000
C  4.53200 11.66400 32.18200
H  1.39600 4.41000 27.86500
H  0.73800 5.55400 21.46700
H  2.06900 11.60900 22.39000
H  3.27500 7.97500 30.20300
H  1.17600 6.02500 29.70700
H  2.82900 4.57200 30.35100
H  3.99800 5.84800 30.63500
H  4.00800 5.06200 29.11100
H  0.34200 7.86900 30.76400
H  0.92100 9.35600 29.96700
H  0.70200 8.90500 32.61000
H  1.87100 10.00200 32.05600
H  0.09700 1.89600 25.75700
H  0.95500 2.69600 26.99800
H  1.87000 1.66900 25.89600
H  1.42700 0.86200 23.29700
H  0.08700 0.97800 22.05900
H  -0.25800 1.41000 23.65100
H  0.29300 7.78400 20.25500
H  2.17700 9.94300 20.36900
H  3.08500 7.97900 19.58000
H  1.84000 7.06500 18.78500
H  2.56900 6.29100 20.14500
H  0.03000 10.09200 19.53600
H  0.47300 11.38700 20.60300
H  -1.82600 9.57400 20.98100
H  -1.42900 11.08500 21.80200
H  -0.65600 9.56200 22.37500
H  3.60200 13.44200 23.62100
H  3.33800 14.25000 25.16600
H  2.02300 13.92400 24.00000
H  1.92900 11.30500 29.32000
H  4.25600 11.00700 33.00600
H  4.45000 12.66400 32.60900
H  5.50300 11.37300 31.78200
Mg -6.11300 25.26500 25.68100
C  -4.59200 26.66600 28.60200
C  -7.79200 22.95000 27.74500
C  -7.32200 23.81200 22.85000
C  -4.20500 27.52000 23.71400
N  -6.05100 24.83200 27.96300
C  -5.51000 25.67000 28.91200
C  -6.08500 25.26000 30.21100
C  -6.93100 23.93100 29.94500
C  -6.92800 23.86600 28.44600
C  -6.30600 22.66000 30.73000
C  -6.87400 26.43000 30.88700
C  -6.63900 26.56200 32.37600
H  -6.12400 25.35400 33.19700
N  -7.41800 23.70200 25.36300
C  -8.00200 22.87000 26.30100
C  -8.75800 21.85500 25.66200
C  -8.61800 22.06500 24.22200
C  -7.78900 23.29900 24.09500
C  -9.50400 20.85300 26.44800
C  -9.26400 21.30400 23.07800
O  -9.09300 21.65500 21.90900
C  -10.11400 20.06200 23.30000
N  -5.96600 25.71300 23.54300
C  -6.37000 24.87200 22.61700
C  -5.84300 25.22500 21.24400
C  -5.13200 26.58800 21.48500
C  -5.01700 26.62300 23.00600
C  -4.93800 24.18300 20.56300
C  -5.82000 27.86300 20.94000
C  -5.27900 28.22200 19.50600
N  -4.65500 26.72000 25.98100
C  -4.08900 27.63200 25.07900
C  -3.28600 28.60200 25.84100
C  -3.45400 28.28600 27.22500
C  -4.26800 27.08900 27.25300
C  -2.42100 29.63800 25.22500
C  -3.07400 28.67900 28.53500
O  -2.33100 29.56700 28.91100
C  -3.85800 27.64800 29.53500
C  -2.76700 27.12900 30.48300
O  -1.85900 26.41200 30.10200
O  -2.91100 27.54000 31.73700
C  -2.02200 26.99100 32.72300
H  -8.42600 22.33300 28.38500
H  -7.76400 23.42700 21.92900
H  -3.54800 28.06400 23.03200
H  -5.21700 25.00100 30.81800
H  -7.98800 23.94400 30.21200
H  -6.05600 21.81900 30.08300
H  -7.08500 22.22900 31.35900
H  -5.41300 22.95100 31.28300
H  -7.94700 26.25700 30.80700
H  -6.66200 27.33400 30.31600
H  -7.58100 26.77100 32.88300
H  -5.91400 27.36400 32.51600
H  -8.80900 20.33600 27.11000
H  -10.05300 20.13900 25.83500
H  -10.22900 21.30200 27.12700
H  -10.34800 19.71800 22.29300
H  -10.82500 20.44900 24.03000
H  -9.42300 19.37200 23.78500
H  -6.73700 25.27300 20.62200
H  -4.15100 26.39300 21.05200
H  -3.88700 24.45900 20.64700
H  -5.16800 24.07800 19.50200
H  -5.14700 23.29900 21.16400
H  -5.76300 28.67400 21.66500
H  -6.87700 27.72000 20.71600
H  -4.64000 27.41300 19.14900
H  -4.88400 29.23600 19.45500
H  -6.16000 28.22000 18.86500
H  -1.63900 30.03300 25.87300
H  -3.04400 30.50300 24.99400
H  -1.94700 29.19000 24.35100
H  -4.60900 28.22300 30.07700
H  -1.10100 27.55000 32.89300
H  -1.76800 25.93500 32.62600
H  -2.53700 27.04900 33.68200

