158

Mg 1.42600 -1.23800 44.03000
C  4.83600 -0.36500 43.78500
C  0.59300 1.59000 42.45900
C  -1.76000 -2.49100 43.93600
C  2.50400 -4.11800 45.95300
N  2.64100 0.37400 43.20000
C  4.00000 0.59700 43.25700
C  4.35500 2.00900 42.77100
C  2.96800 2.67100 42.57200
C  1.98100 1.52400 42.75000
C  2.67600 3.91300 43.50700
C  5.36500 2.15500 41.52400
C  5.45300 1.03700 40.49400
H  5.18600 1.36600 39.05400
N  -0.32800 -0.58300 43.14900
C  -0.45000 0.62100 42.50200
C  -1.81700 0.66800 41.99900
C  -2.58700 -0.45600 42.53500
C  -1.52800 -1.23700 43.18500
C  -2.28000 1.84800 41.12700
C  -4.05500 -0.76200 42.37000
O  -4.74300 0.11000 41.83600
C  -4.80100 -2.00800 42.82700
N  0.54000 -3.15200 44.69900
C  -0.87100 -3.25600 44.68000
C  -1.25500 -4.54800 45.47900
C  0.07500 -4.90300 46.32100
C  1.14300 -3.96700 45.66400
C  -2.57300 -4.43000 46.38800
C  0.53000 -6.36500 46.16000
C  0.89500 -6.85300 44.72800
N  3.27700 -2.07700 44.72900
C  3.53100 -3.29700 45.46800
C  4.89500 -3.39800 45.68600
C  5.50600 -2.25000 45.06100
C  4.45300 -1.53200 44.42600
C  5.59800 -4.56500 46.36500
C  6.75500 -1.59300 44.76400
O  7.91400 -1.93300 45.00300
C  6.35100 -0.30000 43.94100
C  6.78700 0.93200 44.65700
O  6.43800 1.30000 45.74100
O  7.74600 1.63800 43.96500
C  8.21000 2.87900 44.51200
H  0.29500 2.57300 42.08900
H  -2.83600 -2.61200 44.07800
H  2.75700 -4.92700 46.64100
H  4.83500 2.43500 43.65200
H  2.96500 3.10000 41.57000
H  2.64200 4.83200 42.92200
H  3.38000 4.04000 44.33000
H  1.70500 3.85900 43.99800
H  6.38400 2.12100 41.91100
H  5.19800 3.07800 40.96900
H  4.80600 0.19300 40.73400
H  6.45700 0.61400 40.45600
H  -2.77700 2.60400 41.73400
H  -3.08900 1.52700 40.47100
H  -1.50700 2.22700 40.45800
H  -5.80300 -2.22500 42.45600
H  -4.80400 -2.10900 43.91200
H  -4.35600 -2.93500 42.46600
H  -1.56100 -5.41000 44.88600
H  0.07200 -4.61500 47.37200
H  -3.20700 -5.29700 46.20000
H  -3.16900 -3.53500 46.21100
H  -2.38000 -4.37000 47.45900
H  -0.40600 -6.87700 46.37800
H  1.32500 -6.56200 46.88000
H  1.94900 -7.12700 44.77800
H  0.67900 -6.17700 43.90100
H  0.34000 -7.74600 44.44000
H  5.51300 -4.52500 47.45100
H  6.63700 -4.64900 46.04700
H  5.11400 -5.45100 45.95500
H  7.00300 -0.35800 43.06900
H  9.07500 3.17200 43.91700
H  8.45600 2.81700 45.57200
H  7.35600 3.55300 44.43900
Mg 35.66600 48.02300 25.50700
C  36.20400 46.20600 28.47700
C  34.08600 50.47700 27.22700
C  35.31800 49.63800 22.62000
C  37.32100 45.47700 23.78700
N  35.25400 48.31200 27.56900
C  35.59600 47.48400 28.63200
C  35.42300 48.13500 29.98600
C  34.49100 49.34300 29.56600
C  34.59200 49.43500 27.99800
C  32.97000 49.35500 29.98000
C  36.72000 48.64900 30.72400
C  36.64800 48.66100 32.27200
H  35.27600 48.52600 32.91200
N  34.99000 49.88400 24.99300
C  34.31900 50.77200 25.84600
C  33.87800 51.92600 25.12900
C  34.17100 51.72600 23.74700
C  34.78500 50.33200 23.67800
C  33.21000 53.08000 25.82800
C  33.87900 52.70500 22.58700
O  34.24500 52.39200 21.49500
C  33.24800 53.96800 22.84500
N  36.25600 47.58300 23.45500
C  36.02900 48.49200 22.49100
C  36.74900 48.08600 21.15600
C  37.57400 46.88400 21.61700
C  37.06200 46.64600 23.02200
C  35.63100 47.88800 20.06600
C  39.13800 47.12800 21.41800
C  39.90900 46.25900 20.45600
N  36.45000 46.17000 25.91100
C  37.04100 45.21700 25.14100
C  37.33100 44.05400 25.85400
C  37.05300 44.39800 27.22600
C  36.52400 45.71200 27.20200
C  38.03000 42.80000 25.36200
C  37.13800 43.94300 28.61500
O  37.58400 42.91400 29.11100
C  36.57900 45.14000 29.46500
C  35.37200 44.72600 30.25800
O  34.22800 44.67000 29.86900
O  35.79400 44.49900 31.57000
C  34.62300 43.96600 32.38600
H  33.39400 51.05000 27.84800
H  35.14600 50.20600 21.70400
H  37.96300 44.77100 23.25500
H  34.85300 47.46300 30.62800
H  34.76700 50.27900 30.05100
H  32.39500 49.07800 29.09700
H  32.59900 50.32500 30.30900
H  32.70800 48.71000 30.81900
H  36.95500 49.65800 30.38600
H  37.56400 47.99300 30.50800
H  37.13600 49.55600 32.65800
H  37.38400 47.91300 32.56400
H  32.29900 53.41200 25.33000
H  33.78200 54.00700 25.82400
H  32.92400 52.82400 26.84800
H  33.13900 54.42200 21.86100
H  33.89100 54.58400 23.47500
H  32.25200 53.84700 23.27000
H  37.35400 48.94300 20.85900
H  37.28900 45.99700 21.05000
H  34.70100 48.38500 20.34000
H  35.51500 46.80600 20.00500
H  35.91500 48.27300 19.08600
H  39.60900 47.01000 22.39400
H  39.36100 48.16700 21.17400
H  40.61300 45.66700 21.04200
H  40.53900 46.89600 19.83400
H  39.24900 45.59100 19.90400
H  37.26800 42.02600 25.26300
H  38.75200 42.50100 26.12100
H  38.53700 43.04200 24.42800
H  37.38700 45.34000 30.16800
H  34.93100 44.16100 33.41300
H  34.42000 42.89700 32.31400
H  33.70800 44.54900 32.28300

