158

Mg 43.05300 42.24400 26.24800
C  41.81700 44.60000 28.62200
C  43.52300 40.06600 28.66700
C  44.34200 40.31200 23.87400
C  42.50300 44.77200 23.75600
N  42.69700 42.39200 28.33200
C  42.19900 43.41900 29.18500
C  42.25700 43.02400 30.65700
C  42.91700 41.55400 30.68700
C  43.08900 41.31500 29.15700
C  44.19500 41.34000 31.49900
C  40.83700 43.05800 31.30500
C  40.63100 44.00200 32.47700
H  41.44600 43.87800 33.77700
N  43.75700 40.43700 26.29100
C  43.85700 39.62700 27.36600
C  44.40900 38.33600 27.01800
C  44.64300 38.42300 25.60400
C  44.26500 39.82200 25.18600
C  44.52300 37.19900 27.98200
C  45.14600 37.39000 24.62400
O  45.48900 37.62900 23.51200
C  45.52100 36.04000 25.25800
N  43.60700 42.56700 24.13400
C  44.00700 41.54200 23.42800
C  44.01000 41.92100 21.87300
C  43.42400 43.29400 21.80400
C  43.14800 43.64400 23.30800
C  45.35000 41.82900 21.13600
C  42.14100 43.32400 20.89100
C  40.93000 42.51000 21.38500
N  42.34000 44.24400 26.15000
C  42.19400 45.09700 25.03800
C  41.64100 46.39800 25.56100
C  41.47800 46.17700 26.92900
C  41.95000 44.90100 27.26900
C  41.43200 47.69000 24.76700
C  40.95800 46.82200 28.14200
O  40.33600 47.85900 28.33400
C  41.11300 45.73500 29.29600
C  41.90900 46.39600 30.35300
O  43.09900 46.28800 30.48200
O  41.01500 47.16200 31.04900
C  41.62400 47.72900 32.27900
H  43.70700 39.38800 29.50400
H  44.50800 39.66100 23.01400
H  42.31200 45.50600 22.97000
H  42.99400 43.71600 31.06300
H  42.22000 40.80000 31.05200
H  44.95800 40.81600 30.92300
H  43.93500 40.68800 32.33300
H  44.71200 42.25400 31.79000
H  40.54300 42.05400 31.60800
H  40.11100 43.34200 30.54300
H  39.56900 43.92100 32.70500
H  40.50900 45.01100 32.08300
H  44.22500 37.50700 28.98400
H  45.51000 36.73900 28.04000
H  43.79400 36.43600 27.71100
H  44.58200 35.64100 25.64200
H  46.26000 36.16400 26.05100
H  45.93000 35.36100 24.51100
H  43.26800 41.18900 21.55200
H  44.12700 44.05100 21.45500
H  45.58200 40.79900 20.86500
H  46.20200 42.24600 21.67300
H  45.27700 42.28800 20.15000
H  42.40700 43.09800 19.85800
H  41.85800 44.37500 20.83000
H  41.20800 42.11200 22.36100
H  40.69300 41.69700 20.69800
H  40.12800 43.22700 21.55600
H  41.99800 47.80600 23.84300
H  41.46700 48.51900 25.47300
H  40.37200 47.77400 24.52600
H  40.11500 45.52900 29.68300
H  42.60300 48.18800 32.13700
H  41.90600 46.93700 32.97300
H  40.92600 48.41800 32.75300
Mg -11.35600 15.79900 42.09500
C  -8.30900 14.11000 41.39200
C  -10.07800 18.55700 40.22300
C  -14.54100 17.15400 41.98200
C  -12.67000 12.81400 43.03800
N  -9.39800 16.32200 41.03100
C  -8.30300 15.41900 40.91700
C  -7.07600 16.08500 40.16200
C  -7.63800 17.55300 39.94800
C  -9.11100 17.51800 40.43000
C  -6.91100 18.69900 40.69400
C  -6.72900 15.33700 38.81400
C  -5.40200 14.64000 38.69100
H  -4.46200 15.30700 37.68200
N  -12.11000 17.78100 41.46600
C  -11.38900 18.66500 40.62100
C  -12.31700 19.79400 40.33500
C  -13.59300 19.42100 40.96800
C  -13.44900 18.02500 41.47800
C  -11.96000 21.10400 39.63300
C  -14.75500 20.37300 40.99500
O  -14.80200 21.50600 40.36900
C  -15.97700 19.95300 41.72700
N  -13.27700 15.10500 42.22400
C  -14.44100 15.83800 42.34600
C  -15.62700 14.98000 42.52500
C  -15.03000 13.66700 43.01500
C  -13.50800 13.87800 42.75900
C  -16.92700 15.44800 43.32200
C  -15.56600 12.29700 42.28900
C  -16.29700 11.30900 43.25000
N  -10.62900 13.87100 42.42600
C  -11.29300 12.80400 42.90900
C  -10.38600 11.65100 43.06100
C  -9.15500 12.11500 42.52100
C  -9.42800 13.49400 42.13900
C  -10.69300 10.33300 43.63000
C  -7.86700 11.76800 42.06700
O  -7.41600 10.62700 41.83400
C  -7.22900 13.05100 41.47200
C  -6.21000 13.52000 42.46900
O  -6.35100 13.79600 43.63400
O  -4.95700 13.62400 41.83500
C  -3.75100 13.96800 42.65500
H  -9.64000 19.41800 39.71400
H  -15.55300 17.54500 41.85600
H  -13.12900 11.89300 43.40200
H  -6.20000 16.11500 40.81000
H  -7.61700 17.71200 38.87000
H  -6.89700 19.60300 40.08500
H  -5.86200 18.43100 40.82300
H  -7.37100 18.91400 41.65800
H  -6.66700 16.00300 37.95300
H  -7.56600 14.65200 38.68100
H  -5.60300 13.65300 38.27600
H  -5.01100 14.61000 39.70800
H  -11.17800 20.95300 38.88900
H  -11.77400 21.90300 40.35100
H  -12.79000 21.46000 39.02200
H  -15.78600 19.53200 42.71400
H  -16.54400 19.30700 41.05700
H  -16.53300 20.88600 41.81600
H  -16.01600 14.83900 41.51700
H  -15.10700 13.51900 44.09200
H  -16.94600 15.00300 44.31700
H  -17.81500 15.16000 42.76100
H  -16.99200 16.53300 43.40300
H  -14.71200 11.77400 41.85800
H  -16.31300 12.50800 41.52400
H  -17.28200 11.03900 42.86800
H  -16.38200 11.75400 44.24100
H  -15.67400 10.41500 43.26000
H  -9.83200 9.72600 43.91100
H  -11.28600 9.88900 42.83100
H  -11.25500 10.35100 44.56300
H  -6.63600 12.88000 40.57300
H  -4.00000 14.46300 43.59300
H  -3.17300 14.62700 42.00800
H  -3.14500 13.07900 42.83000

