158

Mg 42.56700 41.19500 26.39500
C  41.48400 43.38400 28.95500
C  43.81900 39.02100 28.87300
C  43.92600 39.31400 23.91000
C  41.50700 43.57600 24.06500
N  42.86800 41.35400 28.67300
C  42.10200 42.19400 29.42900
C  42.07000 41.78900 30.91700
C  42.89000 40.39000 30.84200
C  43.29400 40.27100 29.39700
C  44.00500 40.25000 31.88200
C  40.67400 41.61600 31.55100
C  40.38400 42.19900 32.95000
H  39.83300 41.19800 34.02400
N  43.75400 39.52900 26.36300
C  44.11700 38.76500 27.45200
C  44.81900 37.60000 26.98500
C  44.89700 37.70800 25.54800
C  44.10400 38.94600 25.17200
C  45.48600 36.56200 27.90800
C  45.60900 36.67800 24.64700
O  45.59300 36.77900 23.43400
C  46.34100 35.51500 25.16800
N  42.85700 41.50900 24.36100
C  43.31100 40.49500 23.55000
C  43.13700 40.82900 22.08000
C  42.12300 42.01400 22.11600
C  42.09100 42.35700 23.62300
C  44.40300 41.16700 21.28900
C  40.75900 41.56500 21.46800
C  39.97500 40.38800 22.07200
N  41.69500 43.11700 26.39900
C  41.35800 43.96400 25.39800
C  40.98600 45.24200 25.96900
C  40.85600 45.01900 27.36500
C  41.40800 43.72700 27.57500
C  40.56400 46.43400 25.25300
C  40.48900 45.62700 28.63100
O  40.02400 46.74500 28.88900
C  40.84300 44.57600 29.68700
C  41.61500 45.25700 30.78400
O  42.65500 45.81600 30.72000
O  40.73100 45.37200 31.84700
C  41.28400 46.08500 33.06500
H  44.21000 38.34400 29.63500
H  44.14100 38.69600 23.03600
H  41.04600 44.21400 23.30800
H  42.64800 42.56600 31.41800
H  42.20200 39.59400 31.12600
H  44.99300 40.42800 31.45600
H  43.93100 39.28800 32.38800
H  43.83300 41.08800 32.55800
H  40.29300 40.59500 31.57100
H  39.95600 42.05000 30.85600
H  39.58900 42.91700 32.75000
H  41.28900 42.70800 33.28300
H  44.81400 35.70500 27.87200
H  45.48300 36.79400 28.97300
H  46.48200 36.51500 27.46700
H  47.25300 35.86300 25.65300
H  46.64300 34.84300 24.36500
H  45.75800 34.83500 25.78900
H  42.75100 39.99500 21.49400
H  42.46700 42.93600 21.64800
H  45.31200 40.94900 21.84900
H  44.43900 42.19400 20.92500
H  44.56100 40.41800 20.51400
H  40.92100 41.41400 20.40100
H  40.11700 42.43900 21.35800
H  39.53600 39.79900 21.26700
H  39.15500 40.85300 22.61900
H  40.63200 39.79700 22.71100
H  40.52200 47.31000 25.90000
H  39.69100 46.42900 24.60100
H  41.42600 46.59500 24.60600
H  39.83900 44.32700 30.03200
H  42.09500 46.78900 32.87700
H  41.57000 45.43700 33.89300
H  40.52300 46.82600 33.31000
Mg -13.50700 15.47000 41.81500
C  -10.51300 13.75100 41.54200
C  -12.08900 18.07200 40.07000
C  -16.57800 16.90700 41.32100
C  -14.86300 12.66500 43.42000
N  -11.56500 15.75600 40.84600
C  -10.47700 15.01400 40.91900
C  -9.29500 15.58000 40.09700
C  -9.70900 17.01100 39.89200
C  -11.24000 16.97000 40.26400
C  -8.86400 18.07500 40.51200
C  -8.99400 14.70700 38.82200
C  -7.54700 14.20900 38.58800
H  -6.75600 14.95800 37.47100
N  -14.20800 17.31600 40.87100
C  -13.45900 18.23900 40.22800
C  -14.31900 19.28600 39.71000
C  -15.63400 18.94000 40.03100
C  -15.53300 17.69500 40.82600
C  -13.75600 20.43400 38.85100
C  -16.88000 19.67500 39.56100
O  -16.85400 20.69600 38.90100
C  -18.30200 19.17500 39.81000
N  -15.43500 14.78000 42.19200
C  -16.53100 15.64100 41.95800
C  -17.82100 14.89600 42.41000
C  -17.24200 13.74300 43.33600
C  -15.76000 13.65700 42.93600
C  -18.94100 15.75500 43.09700
C  -18.04100 12.38300 43.29200
C  -17.74700 11.63100 42.00100
N  -12.86100 13.50000 42.41500
C  -13.51200 12.46700 43.05800
C  -12.64300 11.39100 43.24400
C  -11.39800 11.81800 42.69800
C  -11.58600 13.11200 42.22800
C  -12.93900 10.03200 43.85100
C  -9.98000 11.42600 42.45200
O  -9.34100 10.35400 42.61800
C  -9.34400 12.76800 41.75500
C  -8.20400 13.41000 42.61000
O  -8.29900 14.29700 43.45600
O  -6.96800 12.89100 42.18700
C  -5.81800 13.63700 42.64700
H  -11.58000 18.92100 39.61000
H  -17.54500 17.41400 41.30800
H  -15.29700 11.87400 44.03600
H  -8.49200 15.55700 40.83300
H  -9.61700 17.19700 38.82200
H  -8.62000 18.77700 39.71400
H  -7.89300 17.62300 40.71300
H  -9.31500 18.48100 41.41800
H  -9.36100 15.26200 37.95800
H  -9.68200 13.86200 38.80000
H  -7.49800 13.13300 38.42000
H  -6.85100 14.37900 39.40900
H  -14.11100 20.39300 37.82100
H  -12.67800 20.46100 38.69100
H  -14.02000 21.39700 39.28800
H  -18.40600 18.12800 39.52500
H  -18.98300 19.77100 39.20300
H  -18.56900 19.33900 40.85400
H  -18.13200 14.45200 41.46400
H  -17.31500 13.97000 44.39900
H  -19.23200 15.35600 44.06900
H  -19.86000 15.86900 42.52100
H  -18.54800 16.76300 43.22900
H  -19.06500 12.75700 43.27200
H  -17.70900 11.85100 44.18300
H  -18.70700 11.39800 41.54000
H  -17.35100 10.65200 42.27100
H  -17.31400 12.19700 41.17700
H  -13.35100 10.26900 44.83200
H  -12.01700 9.46300 43.73400
H  -13.71800 9.54300 43.26500
H  -8.93500 12.46500 40.79200
H  -6.04900 14.28300 43.49400
H  -5.47000 14.27500 41.83500
H  -5.06200 12.91800 42.96200

