158

Mg 45.51400 5.04000 47.01000
C  43.71200 7.89600 46.65400
C  42.75400 3.13000 46.48100
C  47.62400 2.35000 46.88200
C  48.47900 7.08800 46.97400
N  43.50400 5.45500 46.56800
C  42.96700 6.66000 46.44400
C  41.52100 6.58700 45.88100
C  41.09400 5.09300 46.14100
C  42.50700 4.50600 46.56600
C  40.09400 5.01700 47.33700
C  41.30700 7.05200 44.41300
C  39.93100 7.83300 44.17600
H  39.26200 7.43200 42.83600
N  45.18800 2.95900 46.77400
C  43.94900 2.35000 46.60100
C  44.17600 0.96000 46.39500
C  45.59800 0.68800 46.56900
C  46.24800 2.03000 46.77700
C  43.02000 0.03200 46.14500
C  46.22000 -0.70800 46.53300
O  45.68000 -1.70700 46.10400
C  47.67700 -0.93000 46.88000
N  47.79100 4.75000 46.98000
C  48.38600 3.48400 46.89000
C  49.92000 3.66200 47.02600
C  50.18600 5.17200 46.94700
C  48.74800 5.71700 46.95400
C  50.57500 2.96300 48.28800
C  50.77400 5.72100 45.66300
C  52.31800 5.95200 45.57100
N  46.03500 7.12000 46.87100
C  47.26500 7.77300 46.91800
C  46.95600 9.20900 46.89400
C  45.54100 9.29400 46.80900
C  45.05800 8.01800 46.87100
C  47.95500 10.30100 47.02200
C  44.44500 10.20300 46.68800
O  44.45100 11.40800 46.59200
C  43.15700 9.32000 46.57100
C  42.21100 9.66100 47.66000
O  42.16500 9.17300 48.72200
O  41.28500 10.48100 47.13400
C  40.21900 10.90600 48.06400
H  41.79900 2.60500 46.41000
H  48.33100 1.51900 46.92100
H  49.35900 7.73100 47.03600
H  40.86500 7.20100 46.49900
H  40.68500 4.61500 45.25100
H  39.77700 6.01500 47.64200
H  40.55100 4.44400 48.14500
H  39.22000 4.38800 47.17300
H  41.36500 6.21000 43.72400
H  42.19700 7.62800 44.15600
H  40.16800 8.88300 44.35100
H  39.28500 7.66000 45.03600
H  42.69300 -0.21700 47.15400
H  43.42700 -0.79100 45.55800
H  42.14600 0.45400 45.64800
H  47.94500 -0.28000 47.71300
H  48.35300 -0.72000 46.05100
H  47.83900 -1.90400 47.34000
H  50.50900 3.25500 46.20300
H  50.73100 5.53100 47.82000
H  51.48700 3.50400 48.54000
H  50.96000 1.97100 48.05200
H  49.91700 2.95100 49.15800
H  50.36200 6.70500 45.43700
H  50.40800 5.08900 44.85400
H  52.74600 5.89500 46.57200
H  52.59900 6.91700 45.14700
H  52.76800 5.10100 45.05900
H  48.80500 9.74100 47.41000
H  47.48600 10.89700 47.80500
H  48.04100 10.93400 46.14000
H  42.78700 9.55000 45.57200
H  39.30400 11.02200 47.48200
H  40.54700 11.76100 48.65500
H  39.97200 10.03500 48.67100
Mg 27.21900 51.02700 26.26000
C  25.23500 52.00600 29.12400
C  29.60800 50.04800 28.50300
C  29.16500 50.17200 23.50100
C  24.96700 52.56600 24.29000
N  27.36600 51.00800 28.49000
C  26.44800 51.33700 29.45600
C  26.88900 51.09700 30.89400
C  28.40700 50.72300 30.65800
C  28.50600 50.67800 29.09500
C  29.43400 51.65000 31.38100
C  26.00900 50.00900 31.60400
C  25.46700 50.36700 32.99600
H  26.45500 50.71600 34.15300
N  29.14800 50.22900 26.04800
C  29.93100 49.82100 27.18900
C  31.09100 49.10300 26.66900
C  31.04600 49.34500 25.23400
C  29.75400 49.99300 24.83300
C  32.04400 48.29200 27.51800
C  32.06900 48.96400 24.12200
O  31.97900 49.32700 22.94400
C  33.22000 48.19900 24.46600
N  27.16300 51.40200 24.11400
C  27.91900 50.84100 23.19500
C  27.34200 50.95000 21.83600
C  25.95500 51.65900 22.09700
C  26.02600 51.96700 23.59600
C  28.24900 51.61900 20.80400
C  24.77600 50.70800 21.72100
C  23.45700 51.39900 21.30800
N  25.48500 52.03100 26.61200
C  24.70000 52.59500 25.64700
C  23.50600 53.18700 26.24000
C  23.73800 52.96600 27.60000
C  24.93900 52.28900 27.77400
C  22.26600 53.86200 25.63200
C  23.14200 53.20800 28.95600
O  22.18100 53.85300 29.27600
C  24.16400 52.61500 29.96600
C  24.70900 53.67000 30.82300
O  25.73500 54.28600 30.66000
O  23.85400 53.81100 31.88800
C  24.23000 54.89700 32.78500
H  30.31300 49.64000 29.23000
H  29.74900 49.66000 22.73300
H  24.13200 52.83100 23.63800
H  26.84800 52.01600 31.47800
H  28.62100 49.73700 31.06900
H  29.05100 52.59600 31.76400
H  29.96100 52.01200 30.49700
H  30.09300 51.11100 32.06100
H  26.63900 49.12600 31.71500
H  25.23200 49.58500 30.96800
H  24.77700 49.55700 33.23700
H  24.76600 51.18600 32.83400
H  31.96800 47.24800 27.21600
H  31.70100 48.30400 28.55200
H  33.09800 48.55600 27.42700
H  32.88500 47.35900 25.07500
H  33.79900 48.88000 25.08900
H  33.69000 47.82800 23.55500
H  27.27800 49.95100 21.40500
H  25.84700 52.63500 21.62400
H  28.59500 50.88200 20.07900
H  28.99400 52.22200 21.32400
H  27.71200 52.27600 20.12000
H  24.56400 49.92000 22.44400
H  25.17000 50.26100 20.80800
H  23.11700 51.13700 20.30600
H  23.55800 52.48400 21.35700
H  22.78300 51.11400 22.11600
H  22.34400 54.94800 25.59400
H  21.48900 53.68000 26.37500
H  22.06200 53.41500 24.65900
H  23.75900 51.83500 30.61000
H  24.98900 54.48700 33.45100
H  23.39800 55.13900 33.44700
H  24.46500 55.81200 32.24200

