158

Mg 0.93200 -2.50700 43.57500
C  4.13400 -1.74900 42.93000
C  -0.04700 0.47000 42.16400
C  -2.29200 -3.55900 43.40200
C  1.86600 -5.82000 44.52000
N  1.95000 -0.94000 42.41600
C  3.28300 -0.78700 42.41700
C  3.65000 0.47600 41.66100
C  2.38200 1.40800 41.82400
C  1.30500 0.26900 42.14500
C  2.58300 2.42500 42.99500
C  3.89500 0.04300 40.12400
C  5.28900 0.30800 39.49600
H  5.99000 -0.79000 38.75200
N  -0.90200 -1.63400 43.08200
C  -1.02200 -0.39700 42.53300
C  -2.45600 -0.07600 42.32800
C  -3.14700 -1.22800 42.62900
C  -2.12800 -2.22400 43.05500
C  -2.83400 1.20900 41.68000
C  -4.57200 -1.43500 42.43300
O  -5.26200 -0.60100 41.94500
C  -5.31900 -2.61200 42.86500
N  -0.08400 -4.32700 44.01000
C  -1.37100 -4.55000 43.76700
C  -1.84200 -5.92000 44.39000
C  -0.50600 -6.58900 44.71600
C  0.50200 -5.50000 44.37600
C  -2.77900 -5.62200 45.56200
C  -0.26100 -7.94900 44.07800
C  -1.12400 -9.10400 44.60600
N  2.62300 -3.62700 43.68600
C  2.93600 -4.92200 44.16100
C  4.36100 -5.09800 44.21200
C  4.88800 -3.89600 43.69600
C  3.77300 -2.97400 43.43800
C  5.04700 -6.35100 44.75800
C  6.13900 -3.14800 43.48200
O  7.26900 -3.36400 43.74600
C  5.64500 -1.87300 42.76600
C  6.46500 -0.61700 43.23700
O  7.18000 0.10200 42.60200
O  5.89000 -0.19700 44.43500
C  6.57200 1.03700 44.97600
H  -0.26000 1.52000 41.95100
H  -3.27900 -4.01300 43.30000
H  2.24100 -6.79800 44.82800
H  4.49700 0.99600 42.10700
H  2.21200 1.92300 40.87900
H  3.61500 2.24400 43.29600
H  2.04500 2.12200 43.89300
H  2.36900 3.46400 42.74300
H  3.27200 0.65900 39.47600
H  3.64300 -1.01600 40.07400
H  5.98500 0.84300 40.14300
H  5.16900 1.08800 38.74400
H  -3.87400 1.53400 41.73000
H  -2.46300 1.27600 40.65700
H  -2.28100 2.04500 42.10800
H  -6.35000 -2.48500 42.53400
H  -5.19500 -2.79100 43.93300
H  -4.90800 -3.44900 42.30000
H  -2.29800 -6.60300 43.67400
H  -0.40400 -6.86400 45.76600
H  -2.45800 -5.98000 46.54100
H  -3.77400 -5.97500 45.28800
H  -3.03600 -4.57800 45.74100
H  0.76500 -8.30800 44.00300
H  -0.51600 -7.76900 43.03300
H  -1.69200 -8.88000 45.50900
H  -0.53200 -9.99600 44.80900
H  -1.91400 -9.40400 43.91700
H  5.99900 -6.08500 45.21900
H  5.20800 -7.09800 43.98100
H  4.50200 -6.74600 45.61600
H  5.96200 -1.94700 41.72600
H  7.65000 0.89900 45.06300
H  6.13900 1.35300 45.92500
H  6.43700 1.88700 44.30800
Mg 43.67800 5.36900 46.95800
C  41.81500 8.15200 45.90100
C  40.93800 3.34100 46.55000
C  45.73300 2.70800 47.28100
C  46.55800 7.46000 46.74900
N  41.61800 5.66300 46.14000
C  41.06900 6.96500 45.98400
C  39.58000 6.75500 45.65900
C  39.22900 5.32800 46.15300
C  40.65100 4.70900 46.27500
C  38.26400 5.21500 47.38800
C  39.15500 7.00600 44.21200
C  38.26900 8.15200 43.89200
H  38.72400 9.11100 42.66900
N  43.38300 3.22500 46.97700
C  42.12500 2.63000 46.82900
C  42.41900 1.23500 46.81300
C  43.77400 1.01400 47.07200
C  44.38900 2.32100 47.10600
C  41.40700 0.15300 46.64800
C  44.46900 -0.39300 47.09300
O  43.78400 -1.45100 47.00800
C  45.89000 -0.41600 47.22400
N  45.87300 5.11400 46.77100
C  46.43700 3.90400 47.10300
C  47.98100 3.92300 47.17700
C  48.24100 5.47400 47.19600
C  46.85700 6.16100 46.86500
C  48.65400 3.22400 48.38100
C  49.31200 6.00300 46.15600
C  50.07700 7.18900 46.77300
N  44.13200 7.32600 46.55700
C  45.30800 8.04700 46.56200
C  45.04200 9.42100 46.24100
C  43.65900 9.48700 46.04200
C  43.17200 8.20800 46.15900
C  45.96200 10.56500 46.30800
C  42.52200 10.32100 45.67300
O  42.55500 11.52600 45.48000
C  41.18200 9.51700 45.77900
C  40.40000 10.02100 46.89400
O  40.11400 9.39700 47.90300
O  39.80700 11.16700 46.61800
C  38.88100 11.61400 47.55100
H  40.04400 2.71400 46.51700
H  46.48000 1.92900 47.44400
H  47.46100 8.06900 46.66400
H  39.06700 7.45300 46.32100
H  38.89000 4.63300 45.38500
H  38.06500 6.19000 47.83400
H  38.85300 4.75800 48.18400
H  37.40600 4.57600 47.18000
H  38.60200 6.09900 43.96800
H  40.05200 7.13600 43.60800
H  38.14800 8.80600 44.75500
H  37.24600 7.83700 43.68300
H  41.51400 -0.53500 47.48600
H  41.54500 -0.34500 45.68800
H  40.43400 0.64500 46.64100
H  46.36800 0.13800 46.41600
H  46.25900 -1.43800 47.14400
H  46.08600 0.07400 48.17800
H  48.40600 3.46700 46.28300
H  48.37900 5.93100 48.17600
H  48.86100 2.18200 48.13800
H  47.92000 3.21500 49.18700
H  49.60800 3.65900 48.67700
H  48.75900 6.33500 45.27800
H  49.97200 5.16200 45.94300
H  50.20800 8.04500 46.11100
H  51.07400 6.85000 47.05200
H  49.71000 7.62100 47.70400
H  46.93800 10.22000 46.65000
H  45.66800 11.23700 47.11500
H  46.25300 11.00800 45.35600
H  40.68600 9.66300 44.81900
H  38.71200 12.67600 47.37500
H  39.11700 11.64700 48.61400
H  38.00600 10.96500 47.49800

