158

Mg 34.04900 48.50100 25.33200
C  34.42300 47.17300 28.64600
C  32.71500 51.42500 26.81600
C  33.53200 49.74100 22.21600
C  35.24300 45.61300 24.03800
N  33.61000 49.20300 27.43400
C  33.89900 48.50800 28.55600
C  33.70800 49.34300 29.84700
C  33.07400 50.70000 29.27800
C  33.15400 50.47900 27.75900
C  31.66100 50.97800 29.76500
C  35.07200 49.57400 30.62400
C  35.00900 49.43900 32.16000
H  33.59300 49.42300 32.84000
N  33.16200 50.32700 24.64600
C  32.67700 51.33200 25.43900
C  32.24300 52.39000 24.54000
C  32.46500 51.98700 23.18700
C  33.08500 50.59100 23.25600
C  31.78300 53.73400 25.16000
C  32.15800 52.69900 21.94600
O  32.25600 52.25400 20.81800
C  31.71500 54.08900 22.00200
N  34.21300 47.71000 23.38500
C  34.13700 48.48800 22.28400
C  34.60700 47.75800 21.02100
C  35.15300 46.42200 21.56700
C  34.89200 46.60600 23.13100
C  33.56500 47.43600 19.95600
C  36.61500 46.14200 21.21500
C  37.66600 46.91600 22.06500
N  34.67200 46.72200 26.09300
C  35.11000 45.61000 25.44600
C  35.49300 44.61600 26.39500
C  35.16600 45.15200 27.62300
C  34.73600 46.47900 27.42000
C  36.05700 43.21700 26.04000
C  35.17800 44.81300 29.05800
O  35.41200 43.72700 29.56500
C  34.70800 46.14000 29.74900
C  33.54000 45.67100 30.56400
O  32.39900 45.61000 30.16700
O  33.88300 45.22400 31.79600
C  32.83500 45.11800 32.86000
H  32.33600 52.29000 27.36500
H  33.46600 50.27100 21.26400
H  35.69800 44.64500 23.82000
H  32.89300 48.80800 30.33400
H  33.65500 51.60300 29.46300
H  31.59500 52.06000 29.87600
H  31.39100 50.53500 30.72300
H  30.92500 50.86400 28.96900
H  35.47900 50.58100 30.53200
H  35.74500 48.85700 30.15500
H  35.56600 50.26300 32.60500
H  35.46700 48.47100 32.36200
H  32.47300 54.49800 24.80100
H  31.80000 53.74800 26.25000
H  30.83000 54.16000 24.84600
H  30.67000 54.23000 22.27800
H  31.66200 54.61700 21.05000
H  32.36600 54.72800 22.59900
H  35.35100 48.35300 20.49100
H  34.56700 45.54200 21.30200
H  33.29800 48.39900 19.52200
H  32.68000 46.87500 20.25600
H  34.06300 46.83000 19.20000
H  36.66300 46.46700 20.17500
H  36.73400 45.06000 21.27600
H  37.20700 47.52700 22.84200
H  38.04700 47.61700 21.32200
H  38.47900 46.33100 22.49500
H  36.81500 43.00500 26.79400
H  36.60900 43.10500 25.10700
H  35.34800 42.38900 26.00800
H  35.49800 46.42000 30.44500
H  32.04600 45.82600 32.60700
H  33.20500 45.37600 33.85300
H  32.36900 44.13400 32.81500
Mg -9.67800 41.16600 42.44100
C  -8.94600 37.96800 41.39700
C  -6.81700 42.27500 41.04900
C  -11.03900 44.40300 42.32700
C  -12.98100 39.95900 43.07700
N  -8.21500 40.27400 40.93400
C  -8.04200 38.89800 40.81400
C  -6.68200 38.63200 40.33000
C  -5.90300 39.92400 40.67100
C  -7.00400 40.93800 40.82100
C  -4.84800 39.95500 41.81000
C  -6.63100 38.14400 38.81200
C  -5.95800 36.87300 38.44300
H  -4.94300 37.05400 37.25900
N  -8.92800 43.10000 42.02200
C  -7.70900 43.33800 41.45700
C  -7.42400 44.83300 41.49800
C  -8.65100 45.39900 41.93800
C  -9.62100 44.31800 42.08600
C  -6.21200 45.55600 40.96200
C  -8.83000 46.87200 42.16600
O  -7.96700 47.71200 42.01900
C  -10.08800 47.54300 42.77600
N  -11.70000 42.10900 42.64100
C  -12.01000 43.40800 42.57200
C  -13.48600 43.66000 42.72800
C  -14.02700 42.25700 42.98800
C  -12.84300 41.35000 42.89000
C  -14.02400 44.67900 43.72700
C  -15.12200 41.86200 41.95500
C  -16.45300 41.25100 42.42600
N  -10.71900 39.30200 42.62900
C  -11.97600 38.94800 43.01200
C  -12.12800 37.46200 42.98500
C  -10.94700 37.05600 42.38900
C  -10.13900 38.19900 42.11600
C  -13.33800 36.59900 43.27700
C  -10.23700 35.89200 41.92500
O  -10.50700 34.68500 41.94100
C  -8.86100 36.44700 41.34000
C  -7.85100 35.89800 42.19900
O  -7.45800 36.39400 43.28600
O  -7.18200 34.92500 41.42900
C  -5.83300 34.45700 41.96500
H  -5.83000 42.73600 40.96500
H  -11.36400 45.42500 42.12100
H  -14.00600 39.67400 43.32600
H  -6.25300 37.86600 40.97600
H  -5.20800 40.13600 39.85900
H  -4.26700 39.03300 41.80900
H  -5.39800 39.94800 42.75100
H  -4.22400 40.84600 41.74000
H  -6.35400 38.96000 38.14500
H  -7.70600 38.01200 38.68900
H  -6.74200 36.13700 38.26500
H  -5.55600 36.45300 39.36400
H  -6.49600 45.99300 40.00400
H  -5.39300 44.89800 40.67200
H  -5.83800 46.29900 41.66500
H  -10.49600 47.01400 43.63700
H  -10.89800 47.57000 42.04700
H  -9.79100 48.54900 43.07200
H  -13.82700 43.81100 41.70400
H  -14.46700 42.09800 43.97200
H  -14.18200 45.57500 43.12600
H  -13.40600 44.95100 44.58200
H  -15.05300 44.37200 43.91200
H  -14.51800 41.21300 41.32100
H  -15.45400 42.62600 41.25200
H  -17.21700 41.98700 42.17300
H  -16.44800 41.05300 43.49800
H  -16.69700 40.27300 42.01300
H  -14.00000 37.25400 43.84400
H  -13.09100 35.74000 43.90000
H  -13.84100 36.28100 42.36300
H  -8.79200 36.10900 40.30600
H  -5.01800 35.08500 41.60500
H  -5.60700 33.43400 41.66400
H  -5.80200 34.64200 43.03900

