158

Mg 2.30500 -2.44200 43.38800
C  5.46000 -1.05400 42.68200
C  0.85900 0.18200 41.69600
C  -0.62800 -4.06500 43.74500
C  3.96500 -5.18200 44.73600
N  3.13600 -0.73500 42.15800
C  4.41900 -0.31200 42.13800
C  4.63800 0.99700 41.40400
C  3.17600 1.42400 41.25300
C  2.26200 0.26200 41.79600
C  2.71500 2.81100 41.86200
C  5.42700 0.97900 40.06700
C  5.94000 2.38900 39.58700
H  5.87600 2.82800 38.14100
N  0.43200 -2.05100 42.69700
C  -0.00500 -0.85200 42.13800
C  -1.40100 -0.87000 41.86100
C  -1.86000 -2.14300 42.41400
C  -0.70300 -2.81700 43.01500
C  -2.13800 0.27200 41.15400
C  -3.33800 -2.57000 42.52200
O  -4.29400 -1.93400 42.05400
C  -3.69200 -3.83300 43.19400
N  1.77000 -4.52000 43.94000
C  0.46100 -4.85600 44.13700
C  0.33100 -6.17600 44.89300
C  1.81400 -6.53400 45.22000
C  2.56900 -5.32700 44.59000
C  -0.69900 -6.09600 46.09100
C  2.36500 -7.87800 44.78200
C  2.70400 -7.98100 43.32100
N  4.26300 -3.03600 43.67900
C  4.75600 -4.09400 44.35600
C  6.16000 -3.95900 44.52700
C  6.45800 -2.75700 43.92200
C  5.25700 -2.25000 43.38300
C  7.04900 -4.95800 45.26300
C  7.57400 -1.90800 43.63300
O  8.75900 -2.01600 43.92700
C  6.92700 -0.77300 42.89600
C  7.16700 0.38400 43.74900
O  6.57800 0.74400 44.74300
O  8.19300 1.11500 43.19000
C  8.47600 2.45000 43.81600
H  0.42800 1.06900 41.22600
H  -1.47700 -4.73800 43.88600
H  4.52600 -5.93500 45.29300
H  5.15100 1.65200 42.10800
H  3.06400 1.42100 40.16800
H  2.00700 3.32400 41.21200
H  3.57700 3.46100 42.01200
H  2.21200 2.64900 42.81500
H  4.81900 0.60100 39.24600
H  6.39700 0.51300 40.24400
H  7.00900 2.47200 39.78000
H  5.37400 3.08000 40.21100
H  -1.86400 0.28300 40.09900
H  -1.86700 1.26700 41.50800
H  -3.21800 0.24300 41.30200
H  -3.40900 -4.76500 42.70700
H  -4.77600 -3.88000 43.29800
H  -3.37600 -3.80800 44.23700
H  -0.10200 -6.79600 44.10800
H  1.92400 -6.57500 46.30400
H  -0.23500 -6.15600 47.07500
H  -1.17200 -7.07100 45.97700
H  -1.41200 -5.27100 46.06500
H  1.61800 -8.64700 44.97900
H  3.25300 -8.11200 45.36900
H  2.39600 -7.18400 42.64400
H  2.25200 -8.90400 42.95900
H  3.77300 -8.11300 43.15200
H  6.49100 -5.63100 45.91500
H  7.90800 -4.40300 45.64000
H  7.50900 -5.69200 44.60100
H  7.44900 -0.55300 41.96500
H  7.54300 2.99600 43.96000
H  9.03000 2.94900 43.02100
H  9.05400 2.29200 44.72700
Mg 0.53200 43.32100 26.01200
C  1.87500 43.18300 29.29200
C  -2.45100 42.13400 27.30500
C  -0.53600 42.58200 22.83800
C  3.71400 44.03600 24.77800
N  -0.24300 42.95000 28.05900
C  0.49000 43.00700 29.25200
C  -0.32500 42.59900 30.42900
C  -1.75000 42.19200 29.75300
C  -1.45400 42.39200 28.26100
C  -2.13000 40.68500 30.04000
C  -0.52500 43.82100 31.42400
C  -0.69600 43.44200 32.90200
H  -1.78900 42.47700 33.36800
N  -1.28900 42.53200 25.17300
C  -2.40700 42.15600 25.92800
C  -3.44200 41.82100 24.98500
C  -2.92900 41.97300 23.68600
C  -1.54500 42.35400 23.82500
C  -4.83000 41.49900 25.47600
C  -3.66500 41.99100 22.37600
O  -3.07300 42.19800 21.32900
C  -5.09600 41.70600 22.31400
N  1.44500 43.27600 24.11600
C  0.83000 42.87200 22.96700
C  1.71300 43.10300 21.74500
C  2.83000 44.04900 22.34000
C  2.67600 43.76900 23.88800
C  2.26000 41.88900 21.02400
C  2.71400 45.51100 21.99100
C  3.57300 46.02400 20.90800
N  2.46300 43.59300 26.77000
C  3.72700 43.84600 26.19900
C  4.77900 43.72100 27.26400
C  4.04000 43.57800 28.47600
C  2.63200 43.45800 28.13300
C  6.22400 43.87000 26.92500
C  4.27000 43.44200 29.87200
O  5.30000 43.27700 30.53400
C  2.86900 43.17200 30.52100
C  2.97300 41.75200 30.96700
O  2.70100 40.76000 30.28000
O  3.20100 41.79200 32.31400
C  2.85800 40.63100 32.99900
H  -3.43200 41.90900 27.72900
H  -0.83800 42.26600 21.83700
H  4.68100 44.36600 24.39100
H  0.10300 41.73500 30.93800
H  -2.61400 42.82900 29.94600
H  -1.80900 40.08600 29.18700
H  -3.21700 40.70700 30.12800
H  -1.69600 40.25700 30.94300
H  -1.28200 44.52400 31.07600
H  0.39800 44.40000 31.45600
H  -0.84700 44.31500 33.53700
H  0.29200 43.08500 33.19600
H  -5.48100 42.32100 25.77300
H  -4.81300 40.75800 26.27500
H  -5.40800 40.92700 24.75000
H  -5.16800 40.65400 22.59000
H  -5.44900 41.69600 21.28300
H  -5.62200 42.35000 23.01900
H  1.10500 43.67400 21.04300
H  3.78100 43.62500 22.01700
H  1.84700 40.93700 21.35800
H  3.34000 41.83600 21.16100
H  2.26600 42.11100 19.95700
H  2.83700 46.10900 22.89400
H  1.66200 45.66600 21.75300
H  3.02700 46.27000 19.99700
H  4.19300 45.21400 20.52400
H  4.25400 46.83900 21.15000
H  6.64000 43.11300 26.26000
H  6.66400 43.64800 27.89700
H  6.44700 44.87900 26.57800
H  2.51400 43.83100 31.31300
H  2.74900 41.01700 34.01300
H  3.64100 39.88300 32.86800
H  1.91200 40.18700 32.68800

