158

Mg -1.63400 17.64100 25.79900
C  -2.29100 15.51700 28.62000
C  -1.91100 20.32600 27.99600
C  -1.25300 19.65900 23.13900
C  -1.44100 14.78400 23.80200
N  -2.23900 17.88200 28.05300
C  -2.24500 16.87900 29.04100
C  -2.05800 17.43800 30.49800
C  -2.18500 18.97000 30.19500
C  -2.01700 19.09100 28.66500
C  -3.53500 19.63600 30.59100
C  -0.83600 16.94000 31.34800
C  -0.44600 17.80500 32.60100
H  -0.35900 17.05700 33.90800
N  -1.52300 19.73800 25.56400
C  -1.69200 20.66800 26.61100
C  -1.67200 21.99600 26.03000
C  -1.59000 21.76200 24.65100
C  -1.46200 20.33100 24.39800
C  -1.81100 23.29500 26.86800
C  -1.75000 22.73400 23.51800
O  -1.88600 22.48200 22.30200
C  -1.82100 24.23400 23.89500
N  -1.30900 17.28500 23.78600
C  -1.19400 18.27600 22.84800
C  -0.97100 17.72400 21.45500
C  -0.83300 16.16000 21.68700
C  -1.18300 16.03700 23.18000
C  -2.10400 18.17500 20.54800
C  0.61500 15.68600 21.33400
C  1.66400 16.04900 22.38900
N  -1.91700 15.56800 26.03800
C  -1.84700 14.53100 25.11000
C  -2.10200 13.25000 25.74800
C  -2.30500 13.57200 27.17400
C  -2.17900 15.03400 27.26500
C  -1.94700 11.97300 25.06300
C  -2.49100 13.06600 28.54200
O  -2.50300 11.88900 28.93000
C  -2.55200 14.30400 29.52700
C  -1.44900 14.06400 30.45300
O  -0.28100 14.04900 30.14600
O  -1.94400 13.70000 31.65300
C  -1.17200 12.96800 32.66300
H  -2.09100 21.20800 28.61500
H  -1.18900 20.26700 22.23400
H  -1.38000 13.89700 23.16700
H  -2.96100 17.12900 31.02500
H  -1.37500 19.52200 30.67200
H  -4.07700 18.88000 31.15900
H  -4.08800 20.09600 29.77100
H  -3.38900 20.49000 31.25200
H  0.01200 16.87300 30.66700
H  -1.20700 16.04500 31.84800
H  -1.14500 18.61400 32.81600
H  0.51600 18.25300 32.35100
H  -2.62800 23.94400 26.55200
H  -0.90500 23.88000 26.71000
H  -2.11300 23.16700 27.90700
H  -2.83500 24.43000 24.24400
H  -1.66100 24.78100 22.96600
H  -1.03000 24.50200 24.59600
H  -0.00900 18.13600 21.14800
H  -1.56500 15.51300 21.20400
H  -2.86200 18.63200 21.18400
H  -2.57300 17.33600 20.03300
H  -1.67400 18.96600 19.93300
H  0.94600 16.28600 20.48600
H  0.64100 14.60500 21.19500
H  1.33900 16.86100 23.04000
H  2.52400 16.40200 21.82100
H  1.95400 15.20800 23.01900
H  -1.14800 11.90900 24.32300
H  -2.77700 11.79700 24.37900
H  -2.00800 11.09600 25.70800
H  -3.51600 14.26300 30.03400
H  -0.38600 12.30600 32.29900
H  -1.86700 12.47700 33.34400
H  -0.58800 13.78600 33.08600
Mg 25.81100 0.23800 29.19200
C  27.59700 0.12300 32.24200
C  22.81900 0.24700 30.85900
C  24.22800 0.37500 26.23500
C  28.81500 -0.61800 27.58900
N  25.29700 0.20500 31.33700
C  26.22500 0.34700 32.39900
C  25.42900 0.51200 33.74800
C  23.97700 0.53500 33.22100
C  24.00500 0.33600 31.62100
C  23.02200 -0.51200 33.93100
C  25.92800 1.83100 34.46400
C  26.70200 1.68400 35.77900
H  26.12500 2.72300 36.74300
N  23.79000 0.20200 28.65300
C  22.68400 0.10700 29.46800
C  21.48600 0.19600 28.72400
C  21.87100 0.42100 27.34900
C  23.37000 0.29700 27.38000
C  20.05600 0.07700 29.34200
C  20.99400 0.73800 26.10100
O  21.50100 0.94400 24.99900
C  19.52500 0.76400 26.22500
N  26.46400 -0.10900 27.14800
C  25.65700 0.15500 26.14700
C  26.43700 0.24700 24.77600
C  27.87300 -0.01800 25.24600
C  27.74200 -0.27600 26.74800
C  25.93200 -0.74400 23.66800
C  28.94100 1.08300 24.90400
C  29.97200 0.58900 23.85600
N  27.75300 -0.19100 29.74800
C  28.86100 -0.55100 29.00800
C  30.08800 -0.74800 29.87700
C  29.62300 -0.46300 31.18300
C  28.23500 -0.15700 31.01300
C  31.32500 -1.31700 29.37900
C  30.03700 -0.34800 32.57500
O  31.11400 -0.46900 33.12900
C  28.69400 0.17400 33.34600
C  28.50900 -0.88500 34.38900
O  27.93900 -1.96500 34.21300
O  28.97600 -0.45600 35.59500
C  28.51700 -1.14500 36.82500
H  21.90400 0.43800 31.42300
H  23.73300 0.48900 25.26800
H  29.77200 -0.83100 27.10800
H  25.48000 -0.35600 34.40600
H  23.43000 1.47700 33.24700
H  22.73000 -1.32700 33.27000
H  22.12900 -0.04900 34.35100
H  23.28100 -1.07200 34.82900
H  24.99000 2.36400 34.61600
H  26.59800 2.29300 33.73900
H  27.70500 2.03400 35.53900
H  26.60300 0.64100 36.08000
H  20.04100 -0.01100 30.42800
H  19.37700 -0.58600 28.80300
H  19.52300 0.99500 29.09400
H  19.18800 0.65500 25.19500
H  19.23700 1.72400 26.65500
H  19.00400 -0.03700 26.75000
H  26.25000 1.22000 24.32200
H  28.29500 -0.95600 24.88400
H  25.25900 -1.35800 24.26500
H  26.71000 -1.37200 23.23400
H  25.40600 -0.17800 22.90000
H  29.55400 1.38700 25.75200
H  28.35700 1.90100 24.48300
H  29.81000 1.30400 23.05000
H  29.76200 -0.37000 23.38100
H  31.01500 0.60100 24.17200
H  31.69900 -0.66700 28.58800
H  31.09500 -2.32400 29.03200
H  32.04100 -1.28800 30.19900
H  28.87300 1.15200 33.79400
H  28.14300 -0.42200 37.54900
H  29.31300 -1.53600 37.45900
H  27.79700 -1.95700 36.72000

