158

Mg 40.91200 41.56600 26.93500
C  40.19000 43.89700 29.44400
C  41.96000 39.28100 29.48200
C  42.09800 39.61500 24.57700
C  40.20300 43.92800 24.51700
N  40.95500 41.59100 29.12800
C  40.64300 42.67900 29.95300
C  40.70500 42.23600 31.39500
C  41.57700 40.92300 31.44500
C  41.43200 40.52300 29.91100
C  43.07900 41.14400 31.84200
C  39.25500 42.17400 31.98000
C  39.09800 43.09500 33.22300
H  38.05100 42.71600 34.35400
N  41.82300 39.66900 27.02800
C  42.10000 38.87600 28.12200
C  42.66500 37.62700 27.64900
C  42.67200 37.65500 26.23100
C  42.18000 39.02300 25.84700
C  43.06500 36.43800 28.57000
C  43.05400 36.65600 25.27400
O  42.99000 36.83000 24.04900
C  43.66100 35.25900 25.69800
N  40.86500 41.61300 24.89300
C  41.54200 40.79400 24.11100
C  41.74500 41.14300 22.69400
C  40.81700 42.43200 22.59400
C  40.63300 42.72400 24.05500
C  43.16000 41.23600 22.08400
C  39.52000 42.13200 21.78300
C  38.33400 41.19600 22.14900
N  40.35000 43.49400 26.87800
C  40.05200 44.34200 25.84200
C  39.59900 45.59800 26.33900
C  39.71100 45.46200 27.74300
C  40.13700 44.14500 28.04400
C  39.11700 46.82500 25.60700
C  39.52100 46.16700 28.95600
O  39.27200 47.33800 29.19700
C  39.78300 45.13300 30.14200
C  40.91600 45.67100 30.92300
O  42.14600 45.57500 30.74900
O  40.44100 46.48400 31.85600
C  41.46900 46.94200 32.78400
H  42.36800 38.76500 30.35400
H  42.59400 39.05800 23.78000
H  39.95100 44.62400 23.71400
H  41.33600 42.95500 31.91800
H  41.08900 40.21700 32.11700
H  43.26600 42.12900 32.26900
H  43.64300 41.12500 30.91000
H  43.48700 40.41800 32.54500
H  39.02600 41.14700 32.26500
H  38.52900 42.39900 31.19900
H  38.75800 44.07100 32.87700
H  39.96800 43.20400 33.87100
H  44.13800 36.46900 28.38100
H  42.51600 35.54900 28.26100
H  42.89600 36.67800 29.62000
H  43.92000 34.75700 24.76600
H  42.94000 34.69500 26.29100
H  44.56400 35.46100 26.27400
H  41.21500 40.35800 22.15500
H  41.29700 43.23900 22.03900
H  43.21300 40.96300 21.03000
H  43.80300 40.54800 22.63200
H  43.47500 42.27700 22.15500
H  39.88800 41.95600 20.77200
H  39.01800 43.08100 21.59900
H  38.62500 40.64100 23.04200
H  38.32400 40.43400 21.37000
H  37.41800 41.78000 22.23600
H  38.66700 46.55900 24.65000
H  39.93900 47.48700 25.33200
H  38.47100 47.50500 26.16200
H  38.86100 44.94800 30.69300
H  42.17100 46.15000 33.04400
H  41.03500 47.32900 33.70600
H  42.02700 47.73200 32.28200
Mg -2.69500 34.98300 27.08500
C  -3.76500 33.02900 29.74300
C  -0.95700 37.02000 29.23900
C  -2.25200 37.05800 24.57100
C  -4.45200 32.88600 24.86400
N  -2.48200 34.93300 29.19000
C  -2.96000 34.10900 30.11900
C  -2.39300 34.38300 31.52300
C  -1.50900 35.65000 31.24600
C  -1.67400 35.94800 29.82200
C  -1.85200 36.84900 32.10100
C  -1.50000 33.30000 32.11300
C  -1.92700 32.54300 33.39200
H  -1.06800 32.51900 34.69400
N  -1.55600 36.66000 26.93200
C  -0.93000 37.42100 27.87300
C  -0.16600 38.44900 27.28500
C  -0.51000 38.44300 25.89100
C  -1.57600 37.37900 25.72000
C  0.94400 39.25600 28.12200
C  0.15500 39.21700 24.67800
O  -0.15500 39.10600 23.45900
C  1.29000 40.16400 24.93800
N  -3.26300 34.96100 25.04700
C  -3.06800 35.99100 24.28300
C  -3.47400 35.70400 22.83600
C  -3.82600 34.26000 22.91300
C  -3.79400 33.97000 24.32000
C  -4.62600 36.69100 22.52400
C  -3.11400 33.14500 21.92600
C  -1.73700 32.59600 22.41300
N  -3.97100 33.36900 27.24800
C  -4.45900 32.55100 26.23600
C  -5.21100 31.42400 26.85300
C  -4.91400 31.57800 28.24800
C  -4.12300 32.69900 28.41500
C  -6.04500 30.45100 26.15300
C  -5.12400 30.97800 29.57400
O  -5.73600 29.99600 29.98600
C  -4.41400 31.95600 30.50300
C  -5.37900 32.53700 31.38700
O  -6.25900 33.34200 31.16400
O  -5.16000 32.00800 32.61100
C  -6.28300 32.09700 33.53600
H  -0.34100 37.67100 29.86300
H  -2.07400 37.73100 23.73000
H  -4.91900 32.19100 24.16400
H  -3.17800 34.61700 32.24200
H  -0.44400 35.44600 31.35300
H  -2.40900 37.60300 31.54500
H  -0.94300 37.38300 32.37500
H  -2.26600 36.55500 33.06600
H  -0.45700 33.59500 32.23600
H  -1.46100 32.44300 31.44100
H  -2.08900 31.49600 33.13600
H  -2.91500 32.88700 33.69900
H  0.71700 40.32100 28.16800
H  1.77100 39.05400 27.44100
H  1.18200 38.92600 29.13300
H  2.20200 39.62200 25.18700
H  0.95700 40.89300 25.67800
H  1.50500 40.74800 24.04300
H  -2.66300 35.90500 22.13500
H  -4.91200 34.33200 22.85000
H  -4.99800 37.04800 23.48500
H  -5.51100 36.27300 22.04500
H  -4.20000 37.39800 21.81300
H  -2.97800 33.56100 20.92700
H  -3.89400 32.39100 21.82300
H  -1.31000 32.14800 21.51600
H  -1.84300 31.69400 23.01500
H  -1.02800 33.20700 22.97200
H  -5.55100 30.04100 25.27100
H  -6.94100 30.95300 25.78800
H  -6.19200 29.61300 26.83500
H  -3.70300 31.34000 31.05300
H  -6.27700 33.09700 33.96900
H  -6.36500 31.32000 34.29600
H  -7.18400 32.08600 32.92400

