158

Mg 17.25400 -1.54400 28.04800
C  15.99700 0.55300 30.55100
C  19.22100 -3.05400 30.43500
C  18.94100 -3.06600 25.48600
C  15.55900 0.37900 25.64500
N  17.46700 -1.27600 30.27500
C  16.86400 -0.42200 31.10500
C  17.12600 -0.75200 32.62700
C  18.40600 -1.69400 32.51200
C  18.39800 -2.03000 30.94800
C  19.67800 -0.98000 33.00300
C  15.91000 -1.58000 33.15900
C  15.58700 -1.24700 34.54400
H  16.44100 -0.35900 35.49500
N  18.67400 -3.05000 28.00300
C  19.37100 -3.53500 29.10500
C  20.25300 -4.52700 28.62000
C  20.26300 -4.48500 27.17100
C  19.22700 -3.52600 26.82400
C  21.20100 -5.24000 29.53600
C  21.18800 -5.20000 26.16000
O  21.20300 -5.08600 24.97800
C  22.39900 -6.02400 26.70200
N  17.49500 -1.20600 25.82900
C  18.11200 -2.02000 25.00200
C  17.99500 -1.66800 23.53200
C  16.68800 -0.75400 23.65100
C  16.57200 -0.41600 25.13200
C  19.23300 -0.91200 22.95700
C  15.45000 -1.39700 23.06700
C  14.88400 -0.79600 21.72700
N  16.00800 0.05200 28.08900
C  15.31500 0.65700 26.97600
C  14.47000 1.77600 27.52700
C  14.66700 1.68300 28.93600
C  15.69700 0.72100 29.19500
C  13.61700 2.76900 26.72900
C  14.41800 2.37400 30.24200
O  13.75400 3.36300 30.50800
C  15.30300 1.63700 31.29900
C  16.11800 2.62000 32.07100
O  17.23400 2.96200 31.88700
O  15.36200 3.05700 33.14400
C  15.93300 4.14100 33.97800
H  19.79400 -3.55400 31.21800
H  19.50400 -3.60600 24.72300
H  15.01400 0.92300 24.87100
H  17.35900 0.24100 33.00900
H  18.29000 -2.60900 33.09400
H  19.41000 -0.04700 33.49800
H  20.58100 -0.97400 32.39100
H  20.06500 -1.48600 33.88700
H  16.10700 -2.64900 33.08100
H  15.04100 -1.34800 32.54300
H  15.48700 -2.16300 35.12600
H  14.61400 -0.77100 34.43200
H  21.11900 -6.30400 29.31300
H  20.91700 -4.98300 30.55600
H  22.17800 -4.78600 29.37300
H  23.10000 -5.29100 27.10300
H  22.87800 -6.61500 25.92100
H  21.97400 -6.66600 27.47300
H  17.88200 -2.56200 22.91900
H  16.95600 0.15900 23.11900
H  20.17700 -1.12200 23.46100
H  19.08200 0.16700 22.99800
H  19.43900 -1.25300 21.94300
H  14.64500 -1.45000 23.80000
H  15.75400 -2.41200 22.81200
H  15.09200 0.26400 21.57800
H  13.81700 -0.94400 21.56700
H  15.29500 -1.29800 20.85200
H  12.70100 2.18700 26.61700
H  14.13200 3.09600 25.82600
H  13.48600 3.69700 27.28500
H  14.74900 1.18400 32.12100
H  16.25700 4.95300 33.32600
H  16.75800 3.73800 34.56500
H  15.18800 4.58000 34.64100
Mg 25.61000 0.73300 29.69400
C  27.44200 0.47100 32.56700
C  22.75200 1.40300 31.68000
C  23.69800 0.80600 26.89100
C  28.43400 -0.24300 27.82400
N  25.14900 0.79200 31.77700
C  26.16700 0.94000 32.74900
C  25.59600 1.28400 34.11200
C  24.03700 1.37700 33.93400
C  23.97700 1.16800 32.37200
C  23.20700 0.25000 34.73000
C  26.35500 2.56300 34.70500
C  27.12100 2.29800 35.95700
H  26.94300 3.35600 37.09200
N  23.56700 1.01300 29.30000
C  22.62500 1.21700 30.30100
C  21.35100 1.38300 29.61200
C  21.53500 1.25000 28.23200
C  23.01400 1.11100 28.05900
C  20.12700 1.77600 30.30500
C  20.48400 1.40000 27.07700
O  20.76100 1.16200 25.89100
C  19.07700 1.71200 27.44000
N  25.98000 0.51200 27.65600
C  25.08900 0.61800 26.65700
C  25.79100 0.37000 25.23400
C  27.26600 0.12700 25.57700
C  27.26000 0.13900 27.12100
C  25.11700 -0.86300 24.50800
C  28.21700 1.21900 24.97600
C  28.15900 1.62900 23.47900
N  27.48000 0.12100 30.08500
C  28.53800 -0.23100 29.23600
C  29.74600 -0.45500 30.02200
C  29.34500 -0.25200 31.30700
C  27.98700 0.10100 31.31400
C  31.09300 -0.95400 29.40300
C  29.80400 -0.29900 32.66800
O  30.86200 -0.57000 33.19400
C  28.58600 0.16100 33.56200
C  28.26600 -0.91300 34.58000
O  27.48500 -1.85700 34.40900
O  28.96400 -0.55900 35.68500
C  28.63900 -1.33200 36.89500
H  21.98500 1.76900 32.36600
H  23.06800 0.85300 26.00100
H  29.25700 -0.56200 27.18100
H  25.71300 0.37000 34.69300
H  23.67200 2.38000 34.15800
H  22.89700 -0.48800 33.99000
H  22.30700 0.69300 35.15800
H  23.88300 -0.09200 35.51400
H  25.62100 3.32100 34.97800
H  27.01600 2.89200 33.90300
H  28.17000 2.36400 35.67000
H  26.94700 1.28400 36.31900
H  19.45700 0.95300 30.55400
H  19.38800 2.46600 29.89800
H  20.33000 2.21600 31.28200
H  18.26800 1.62700 26.71400
H  19.19300 2.75500 27.73700
H  18.79600 1.04200 28.25200
H  25.63100 1.19500 24.53900
H  27.75000 -0.78500 25.22700
H  24.70300 -1.63700 25.15400
H  26.00300 -1.36400 24.11800
H  24.32800 -0.47800 23.86100
H  29.26800 0.96400 25.11300
H  28.10100 2.13500 25.55400
H  29.18200 1.64100 23.10200
H  27.76200 2.64300 23.51600
H  27.60500 0.96200 22.81900
H  31.35800 -0.48900 28.45400
H  30.86400 -1.98500 29.13300
H  31.99900 -0.91100 30.00800
H  28.88800 1.12000 33.98400
H  28.74100 -2.38800 36.64300
H  27.63800 -1.17200 37.29500
H  29.34500 -1.07500 37.68500

