158

Mg 7.60100 2.88000 27.27900
C  9.09600 1.61000 30.33500
C  5.61400 4.94300 29.21200
C  6.46100 4.20400 24.45000
C  9.47200 0.50400 25.47000
N  7.36600 3.16400 29.50700
C  8.10300 2.61700 30.52600
C  7.69100 3.23400 31.84800
C  6.53600 4.18600 31.47400
C  6.40900 4.09400 29.94200
C  5.24000 3.81200 32.22400
C  8.78300 4.01600 32.60700
C  8.41200 4.43900 33.97900
H  9.28200 4.06800 35.21500
N  6.26600 4.47300 26.87400
C  5.55800 5.23400 27.78800
C  4.87300 6.27600 27.07700
C  5.08000 6.07900 25.71100
C  5.93100 4.87400 25.65600
C  4.06900 7.28700 27.73800
C  4.50500 6.81900 24.50700
O  4.59900 6.46300 23.34000
C  3.61800 7.95200 24.70200
N  7.79300 2.30500 25.30600
C  7.28200 3.06700 24.32400
C  7.74900 2.65500 22.93900
C  8.78400 1.53300 23.24700
C  8.71900 1.43000 24.81100
C  6.60500 2.21000 22.09100
C  10.22700 1.88700 22.65900
C  11.10000 2.89600 23.35100
N  8.90000 1.26400 27.81000
C  9.64900 0.41400 26.91100
C  10.47900 -0.49400 27.74900
C  10.31700 0.00500 29.06300
C  9.31000 1.03600 29.08200
C  11.54000 -1.53100 27.32600
C  10.69300 -0.27600 30.41200
O  11.38200 -1.19300 30.84300
C  10.02100 0.82900 31.31400
C  9.15200 0.16300 32.35300
O  8.12900 -0.45700 32.15400
O  9.74200 0.42900 33.56700
C  8.91400 0.13900 34.77400
H  5.12500 5.63500 29.90100
H  6.18000 4.54900 23.45300
H  10.14700 -0.11300 24.87200
H  7.54500 2.34600 32.46300
H  6.70700 5.21700 31.78200
H  5.41500 2.92300 32.83100
H  4.53900 3.50600 31.44800
H  4.81100 4.63600 32.79400
H  8.89600 4.96600 32.08500
H  9.74500 3.50400 32.65000
H  7.56400 3.82000 34.27100
H  8.03500 5.46100 34.03700
H  4.04400 7.06200 28.80400
H  3.08400 7.07100 27.32400
H  4.36600 8.27900 27.39700
H  3.92800 8.73700 25.39200
H  2.63900 7.55200 24.96500
H  3.45100 8.53600 23.79800
H  8.25400 3.50100 22.47200
H  8.52700 0.52200 22.93300
H  6.39300 2.94500 21.31400
H  5.67300 2.18800 22.65500
H  6.72500 1.27700 21.53900
H  10.04800 2.25300 21.64800
H  10.76200 0.93700 22.64000
H  10.99700 2.81900 24.43400
H  10.77800 3.87000 22.98100
H  12.15400 2.79100 23.09700
H  12.39800 -1.22700 27.92600
H  11.63900 -1.65000 26.24700
H  11.21000 -2.53500 27.59100
H  10.69300 1.60700 31.67700
H  8.06900 0.82700 34.77900
H  9.53600 0.06700 35.66700
H  8.52300 -0.87800 34.80300
Mg 24.16800 -5.69900 46.32500
C  26.14400 -3.30500 44.60700
C  21.62600 -4.90100 43.99800
C  22.56800 -8.52000 47.23800
C  26.94900 -6.75100 47.94600
N  23.93900 -4.27700 44.44200
C  24.87400 -3.42000 43.99200
C  24.32200 -2.58900 42.87200
C  22.80700 -2.76100 43.06600
C  22.75200 -4.09100 43.81000
C  22.04600 -1.71300 43.90900
C  24.86900 -2.99600 41.45300
C  25.32300 -1.69100 40.68300
H  24.72100 -1.46600 39.20400
N  22.32200 -6.45100 45.86300
C  21.45700 -6.05600 44.86200
C  20.31100 -6.92900 44.87700
C  20.45800 -7.85800 45.89700
C  21.84000 -7.63600 46.44800
C  19.05100 -6.65300 43.93700
C  19.40700 -8.91300 46.29600
O  18.32600 -8.89600 45.72900
C  19.53000 -10.08500 47.28700
N  24.73500 -7.47600 47.33600
C  23.85100 -8.45700 47.70600
C  24.57400 -9.57200 48.65300
C  25.85300 -8.67500 49.11900
C  25.88600 -7.59400 48.05300
C  23.63600 -10.24900 49.76300
C  27.10400 -9.55300 49.29500
C  27.88400 -9.18900 50.57700
N  26.08400 -5.15800 46.37600
C  27.10500 -5.64100 47.08200
C  28.36100 -4.88900 46.89100
C  27.99500 -4.05200 45.93400
C  26.61900 -4.20700 45.60600
C  29.69600 -5.04200 47.52500
C  28.50300 -2.89900 45.15000
O  29.59400 -2.40700 45.07800
C  27.27800 -2.43900 44.25300
C  27.21300 -0.93000 44.38100
O  26.48300 -0.33700 45.15000
O  28.03700 -0.32000 43.47500
C  28.13600 1.13300 43.43100
H  20.89500 -4.52900 43.27700
H  21.95900 -9.38200 47.51800
H  27.72900 -6.99300 48.67000
H  24.50400 -1.55500 43.16400
H  22.34600 -2.84600 42.08200
H  21.57100 -2.15600 44.78500
H  21.23100 -1.32800 43.29700
H  22.66100 -0.83000 44.08400
H  24.24600 -3.54300 40.74500
H  25.79100 -3.55200 41.62200
H  26.41300 -1.66200 40.70500
H  25.07800 -0.82400 41.29700
H  18.91700 -7.53500 43.31100
H  19.16100 -5.72500 43.37500
H  18.18600 -6.33400 44.51900
H  20.01700 -9.65700 48.16300
H  20.13700 -10.90000 46.89500
H  18.54400 -10.46600 47.55400
H  24.94900 -10.44000 48.11100
H  25.56700 -8.16400 50.03800
H  22.64400 -9.79700 49.73700
H  23.94200 -10.03200 50.78600
H  23.61800 -11.33200 49.64000
H  27.74400 -9.37700 48.43100
H  26.73500 -10.57800 49.33900
H  28.90200 -8.84600 50.39200
H  27.92800 -10.12700 51.13100
H  27.31000 -8.45900 51.14800
H  30.47400 -4.85700 46.78500
H  29.66700 -6.05400 47.92900
H  29.97900 -4.34400 48.31200
H  27.55800 -2.62400 43.21600
H  27.47900 1.64800 44.13100
H  27.94000 1.45500 42.40800
H  29.15200 1.44600 43.66900

