158

Mg 8.35600 2.36100 27.93600
C  10.12400 1.25800 30.61900
C  6.45200 4.38300 29.90800
C  7.03300 3.57000 25.23900
C  10.03400 -0.09400 25.96900
N  8.21100 2.70500 30.08100
C  9.14000 2.21700 31.00900
C  8.89400 2.75100 32.39800
C  7.46800 3.53600 32.16400
C  7.40300 3.63100 30.65500
C  6.18500 2.92600 32.76500
C  9.99300 3.64900 32.89600
C  9.72000 4.39900 34.24500
H  10.60000 4.07700 35.50600
N  6.91900 3.82000 27.64800
C  6.16200 4.52800 28.57200
C  5.28800 5.47200 27.96800
C  5.58200 5.36800 26.55100
C  6.55100 4.20000 26.42200
C  4.23100 6.21800 28.78200
C  4.95000 6.16400 25.41000
O  5.33600 6.06400 24.29600
C  3.92800 7.33300 25.78200
N  8.54600 1.83800 25.89800
C  7.86900 2.55100 24.98300
C  7.96300 1.90700 23.53100
C  9.11300 0.91300 23.75200
C  9.13500 0.76800 25.27800
C  6.58800 1.22000 23.13000
C  10.54700 1.31700 23.14300
C  11.20700 0.16100 22.40000
N  9.66700 0.85500 28.19500
C  10.23000 -0.08400 27.34800
C  11.05800 -1.00700 28.02500
C  11.08600 -0.49300 29.35200
C  10.26900 0.63300 29.36600
C  11.80000 -2.21600 27.48000
C  11.80800 -0.62900 30.66900
O  12.75000 -1.29200 31.12400
C  11.10400 0.53000 31.59400
C  10.55400 -0.18600 32.71200
O  9.48900 -0.76500 32.67900
O  11.34200 -0.08800 33.81900
C  10.76800 -0.43400 35.11300
H  5.85900 5.01700 30.57100
H  6.56500 4.02500 24.36400
H  10.47600 -0.92700 25.41800
H  8.73300 1.98600 33.15800
H  7.57200 4.55300 32.54200
H  6.31700 2.31200 33.65600
H  5.66300 2.21300 32.12600
H  5.50600 3.72000 33.07600
H  10.17800 4.28700 32.03100
H  10.91300 3.08300 33.04300
H  8.68100 4.28100 34.55200
H  9.78100 5.46400 34.01900
H  4.12100 5.78300 29.77500
H  3.26200 6.06400 28.30700
H  4.39900 7.29500 28.74900
H  3.04100 6.89000 26.23300
H  3.53600 7.86900 24.91800
H  4.48900 8.00900 26.42700
H  8.34100 2.58800 22.76800
H  8.73000 -0.01800 23.33200
H  5.74600 1.49800 23.76400
H  6.47000 0.14300 23.24700
H  6.43700 1.66200 22.14500
H  11.22500 1.80200 23.84500
H  10.35900 2.00300 22.31700
H  12.13000 -0.05000 22.94000
H  11.55800 0.45000 21.40900
H  10.54000 -0.69000 22.26200
H  11.17400 -3.03100 27.11400
H  12.36600 -2.53600 28.35400
H  12.51900 -1.79700 26.77600
H  11.71700 1.30400 32.05400
H  10.03500 -1.23000 34.97900
H  10.45000 0.41500 35.71700
H  11.65700 -0.77100 35.64600
Mg 9.92600 47.28700 26.69400
C  8.00600 47.27700 29.55700
C  12.62500 48.38900 28.41600
C  11.64700 47.30300 23.75600
C  7.04900 46.42100 24.88800
N  10.23500 47.67600 28.80100
C  9.33200 47.57100 29.83600
C  9.99400 47.87400 31.16400
C  11.33900 48.68100 30.68700
C  11.39900 48.26000 29.21900
C  11.23700 50.23000 30.75100
C  10.24600 46.57500 32.08800
C  9.68800 46.78100 33.50700
H  9.67700 45.50000 34.37900
N  11.92500 47.56900 26.17900
C  12.90700 48.07800 27.03000
C  14.14800 48.18500 26.35000
C  13.87800 47.64400 25.01900
C  12.43800 47.55600 24.90500
C  15.40500 48.77300 26.97000
C  14.87100 47.36900 23.88100
O  14.53200 47.03400 22.76400
C  16.30800 47.50500 24.04400
N  9.46500 46.84800 24.62700
C  10.31800 46.96000 23.52700
C  9.72700 46.41000 22.23700
C  8.33700 45.98800 22.70600
C  8.22800 46.47100 24.12700
C  9.73100 47.49400 21.10200
C  8.15000 44.42600 22.64200
C  9.34700 43.56500 23.10400
N  7.86200 47.01500 27.10500
C  6.87300 46.67500 26.29000
C  5.63900 46.55300 27.05200
C  6.03800 46.83500 28.38500
C  7.39200 47.08100 28.32600
C  4.27100 46.18500 26.51100
C  5.64000 47.03200 29.72500
O  4.53000 47.02200 30.20600
C  6.92700 47.15500 30.59400
C  6.93000 45.88100 31.40300
O  7.49400 44.82400 31.12000
O  6.16000 46.15100 32.48500
C  5.85500 44.91500 33.25400
H  13.47200 48.78000 28.98400
H  12.12500 47.37600 22.77700
H  6.14700 45.94900 24.49400
H  9.42400 48.58700 31.76000
H  12.22700 48.39700 31.25000
H  11.52700 50.70400 29.81400
H  12.01300 50.47800 31.47500
H  10.27500 50.66800 31.01500
H  11.33400 46.50400 32.10500
H  9.69200 45.71600 31.71100
H  8.70400 47.22100 33.34800
H  10.33200 47.50900 34.00000
H  15.94100 49.21100 26.12800
H  15.96500 47.95300 27.41900
H  15.27400 49.50000 27.77100
H  16.69400 47.04800 24.95500
H  16.50000 48.54800 23.79200
H  16.76500 46.91300 23.25100
H  10.36600 45.56900 21.96800
H  7.55600 46.50000 22.14300
H  10.26800 47.12500 20.22900
H  10.21000 48.36600 21.54800
H  8.73800 47.82100 20.79100
H  7.81800 44.10800 21.65400
H  7.24200 44.15000 23.17900
H  10.01500 43.22300 22.31400
H  8.99900 42.69700 23.66500
H  9.88900 44.16900 23.83300
H  3.79700 47.03900 26.02900
H  3.65100 46.22400 27.40700
H  4.28500 45.26100 25.93200
H  6.89700 48.04900 31.21700
H  5.95900 44.00700 32.66000
H  4.83200 44.93400 33.63000
H  6.49800 44.69700 34.10700

