158

Mg 1.12400 7.65000 25.10500
C  1.84100 9.32000 28.06300
C  0.85700 4.73300 26.82900
C  0.70400 6.17400 22.17100
C  2.09900 10.57900 23.40300
N  1.34200 7.14100 27.21100
C  1.55000 7.99300 28.26400
C  1.45700 7.23600 29.61600
C  1.51700 5.72300 29.13400
C  1.16500 5.88000 27.63700
C  2.83500 5.00500 29.42300
C  0.28200 7.66800 30.43600
C  0.58500 8.03700 31.87700
H  1.80500 7.24500 32.48200
N  0.73100 5.73700 24.55100
C  0.64500 4.66600 25.38800
C  0.39600 3.44700 24.66800
C  0.43400 3.83000 23.21800
C  0.64800 5.31100 23.27200
C  0.22400 2.12700 25.32300
C  0.34000 2.98100 21.97700
O  0.49200 3.47300 20.87700
C  0.08700 1.51600 22.20300
N  1.26500 8.30800 23.08100
C  1.05400 7.49600 22.02600
C  1.03500 8.30400 20.74300
C  1.63100 9.63000 21.14800
C  1.64900 9.50600 22.64500
C  1.79500 7.56500 19.62500
C  0.85000 10.90300 20.57400
C  -0.46200 11.38800 21.25000
N  1.79300 9.67800 25.58900
C  2.16400 10.72400 24.77700
C  2.52100 11.86900 25.63400
C  2.33700 11.36900 26.91200
C  1.99100 10.04000 26.82900
C  2.96500 13.24600 25.10600
C  2.54500 11.75500 28.27000
O  3.06200 12.79000 28.75700
C  2.06500 10.46200 29.06500
C  3.13200 10.25100 30.08000
O  3.98300 9.37600 29.96300
O  3.03900 11.14400 31.12800
C  4.02900 11.10800 32.19000
H  0.88000 3.73900 27.28100
H  0.25600 5.73500 21.27800
H  2.34200 11.42500 22.75700
H  2.39900 7.52600 30.08000
H  0.71300 5.15000 29.59700
H  3.38500 5.65700 30.10200
H  3.42800 4.97600 28.50900
H  2.64500 4.01400 29.83500
H  -0.52400 6.93500 30.40700
H  -0.17300 8.54300 29.97200
H  -0.34800 7.85300 32.40900
H  0.64500 9.11800 32.00400
H  1.16600 1.57800 25.33400
H  -0.51600 1.53100 24.78700
H  -0.17900 2.29000 26.32200
H  -0.94000 1.25200 22.45200
H  0.85000 1.14000 22.88400
H  0.37900 1.00800 21.28400
H  -0.01200 8.42700 20.46700
H  2.64900 9.73000 20.77000
H  2.36600 6.77400 20.11100
H  2.42800 8.27700 19.09600
H  1.16100 6.95500 18.98200
H  0.65800 10.74800 19.51200
H  1.42400 11.82300 20.68200
H  -0.75800 10.69500 22.03800
H  -1.31000 11.46100 20.56800
H  -0.31600 12.34600 21.74900
H  3.60800 13.81700 25.77500
H  2.18700 13.82600 24.61000
H  3.58100 12.87000 24.28900
H  1.11700 10.81600 29.47000
H  3.63000 10.44000 32.95400
H  4.22400 12.07900 32.64500
H  4.95500 10.70700 31.77900
Mg 26.85400 50.58600 26.94700
C  24.68300 51.85500 29.43600
C  29.02100 49.82500 29.29500
C  29.04200 49.82200 24.32800
C  24.45300 51.68000 24.43400
N  26.78000 50.65700 29.12600
C  25.84100 51.26900 29.92100
C  26.21900 51.09500 31.35600
C  27.66900 50.55800 31.32100
C  27.81900 50.17600 29.83200
C  28.80400 51.58000 31.83500
C  25.23900 50.07300 32.08700
C  24.34700 50.66600 33.25800
H  24.21400 49.82800 34.53600
N  28.85700 50.14400 26.86200
C  29.60400 49.83400 28.01200
C  30.90200 49.56100 27.55800
C  30.88500 49.39400 26.15400
C  29.55200 49.75400 25.68700
C  32.00800 49.36400 28.64800
C  32.04900 48.99600 25.23200
O  31.92500 48.94500 24.02800
C  33.37600 48.74700 25.81000
N  26.72200 50.63800 24.66200
C  27.75500 50.25800 23.87500
C  27.31100 50.16700 22.36200
C  25.89200 50.86100 22.37600
C  25.63400 51.04600 23.91200
C  28.30500 50.81600 21.36300
C  24.72400 50.10400 21.55600
C  23.94800 50.95400 20.51900
N  24.89700 51.37800 26.87100
C  24.08400 51.83400 25.82400
C  22.87200 52.39300 26.37600
C  23.12200 52.52000 27.74300
C  24.33300 51.86600 28.05000
C  21.70500 53.08600 25.66100
C  22.53400 53.02500 29.02900
O  21.48100 53.62500 29.31900
C  23.56400 52.52000 30.13500
C  24.04100 53.53500 31.02500
O  24.86800 54.38700 30.79100
O  23.30800 53.48000 32.21300
C  23.56500 54.50300 33.24500
H  29.69800 49.49300 30.08400
H  29.71500 49.39900 23.57900
H  23.73200 51.99600 23.67700
H  26.19000 52.11200 31.74800
H  27.84600 49.65800 31.90900
H  28.25500 52.50200 32.02400
H  29.65200 51.70600 31.16200
H  29.19100 51.31100 32.81800
H  25.78700 49.17200 32.36200
H  24.45900 49.83300 31.36400
H  23.35200 50.81500 32.83900
H  24.65600 51.66800 33.55400
H  32.30900 48.32300 28.76400
H  31.80100 49.69200 29.66700
H  32.88800 49.87100 28.25200
H  33.29800 48.08800 26.67500
H  33.80100 49.71800 26.06500
H  34.08800 48.19400 25.19700
H  27.40400 49.10300 22.14400
H  26.00500 51.84700 21.92500
H  28.77700 49.99600 20.82000
H  29.03700 51.39200 21.92900
H  28.03500 51.47800 20.54000
H  23.96100 49.79800 22.27300
H  24.97700 49.19000 21.01800
H  23.66400 50.32800 19.67300
H  24.51400 51.82000 20.17600
H  23.00400 51.27300 20.96200
H  20.81100 52.47000 25.75200
H  21.95300 53.24800 24.61100
H  21.55100 54.01200 26.21500
H  23.05600 51.70800 30.65300
H  23.99600 55.37300 32.74900
H  24.23700 54.12100 34.01400
H  22.62800 54.83000 33.69500

