158

Mg 0.61200 7.53200 27.26400
C  0.81300 9.73000 29.96500
C  0.49400 4.94000 29.66400
C  0.32700 5.28800 24.81800
C  0.73000 10.19500 25.09500
N  0.74600 7.35100 29.59400
C  0.68500 8.41400 30.40800
C  0.44000 7.96000 31.89000
C  0.53900 6.39300 31.78100
C  0.63700 6.18300 30.28400
C  1.83600 5.79500 32.39400
C  -1.00400 8.38500 32.45200
C  -1.06800 8.45300 34.01100
H  0.15400 8.04100 34.83800
N  0.47100 5.38200 27.20700
C  0.29700 4.54200 28.31100
C  -0.01000 3.18500 27.82500
C  0.09100 3.26100 26.32600
C  0.27200 4.65000 26.06400
C  -0.37000 2.01300 28.76000
C  -0.05900 2.11100 25.38900
O  -0.16800 2.25700 24.17600
C  -0.17400 0.67400 25.93800
N  0.50200 7.74500 25.30500
C  0.47400 6.64300 24.41200
C  0.48900 7.17100 22.95500
C  0.28600 8.68700 23.09100
C  0.46300 8.90900 24.55600
C  1.77000 6.65500 22.22700
C  -1.08300 9.20700 22.54800
C  -0.99500 10.25100 21.44800
N  0.95700 9.51500 27.42800
C  0.91100 10.52200 26.45200
C  1.09800 11.80000 27.07400
C  1.06700 11.49500 28.47700
C  0.95900 10.11200 28.64400
C  1.19000 13.15500 26.41200
C  1.16100 12.15500 29.72400
O  1.43300 13.30200 29.93400
C  0.77800 10.97900 30.73400
C  1.78200 11.00400 31.85400
O  2.98900 10.72500 31.71800
O  1.18000 11.44400 32.99400
C  2.02500 11.50500 34.11800
H  0.29800 4.23400 30.47400
H  -0.00100 4.69400 23.96200
H  0.69400 11.02000 24.38100
H  1.29500 8.32900 32.45700
H  -0.28700 5.85400 32.24500
H  1.56500 4.87700 32.91500
H  2.30400 6.55600 33.01900
H  2.55600 5.44200 31.65500
H  -1.67000 7.62000 32.05500
H  -1.32600 9.35300 32.06800
H  -1.86900 7.80800 34.37300
H  -1.46900 9.43900 34.24800
H  -1.42300 1.78400 28.59600
H  -0.19000 2.30900 29.79300
H  0.16300 1.10100 28.49000
H  0.71700 0.54300 26.55200
H  -0.11300 0.01700 25.07100
H  -1.09100 0.56000 26.51500
H  -0.40700 6.75900 22.49000
H  1.18700 9.11800 22.65200
H  2.46200 6.15900 22.90700
H  2.29200 7.45800 21.70600
H  1.36500 5.96700 21.48500
H  -1.62100 9.56800 23.42400
H  -1.62000 8.33600 22.17200
H  -1.49400 9.92400 20.53500
H  0.03800 10.54800 21.27100
H  -1.57500 11.08800 21.83600
H  0.16800 13.34600 26.08200
H  1.83000 13.10000 25.53200
H  1.48900 13.92000 27.12800
H  -0.19900 11.16700 31.17900
H  2.47300 12.48900 34.26000
H  2.83600 10.77700 34.15600
H  1.39800 11.31500 34.98900
Mg 23.64800 -4.03200 45.87100
C  26.08300 -2.02200 44.16800
C  21.36400 -3.21300 43.49300
C  21.83000 -6.85800 46.75100
C  26.47700 -5.46700 47.52800
N  23.68600 -2.67000 44.16700
C  24.74000 -1.93500 43.66500
C  24.30800 -1.06900 42.51700
C  22.69900 -1.17000 42.64600
C  22.56300 -2.41000 43.49600
C  22.02700 0.06500 43.32200
C  24.90300 -1.51800 41.12100
C  25.76100 -0.48300 40.38700
H  25.53700 -0.44600 38.86900
N  21.77200 -4.73900 45.39600
C  20.98400 -4.26100 44.29800
C  19.81400 -4.95600 44.16900
C  19.95700 -5.95900 45.17000
C  21.23200 -5.92700 45.84900
C  18.58200 -4.48300 43.34800
C  18.87100 -6.98400 45.31800
O  17.92000 -7.03000 44.52100
C  18.99700 -8.04200 46.38900
N  24.10400 -5.93800 46.95400
C  23.17600 -6.84100 47.24800
C  23.78100 -7.99200 48.15500
C  25.10800 -7.32800 48.69800
C  25.26800 -6.26100 47.58200
C  22.78500 -8.50300 49.24100
C  26.32600 -8.23000 48.92000
C  27.10500 -8.14000 50.26000
N  25.77100 -3.73500 45.93200
C  26.74100 -4.32500 46.71500
C  27.98500 -3.65900 46.54400
C  27.78200 -2.74900 45.52600
C  26.42000 -2.83700 45.18200
C  29.25000 -3.97600 47.31400
C  28.37800 -1.75800 44.70400
O  29.55500 -1.34200 44.64400
C  27.27200 -1.24200 43.75200
C  27.09800 0.25800 43.83100
O  26.39400 0.85400 44.64000
O  27.97500 0.92000 43.05100
C  27.89200 2.36000 43.08200
H  20.57500 -2.90600 42.80200
H  21.27200 -7.66500 47.23000
H  27.29300 -5.74800 48.19800
H  24.63700 -0.05400 42.73700
H  22.13800 -1.37800 41.73400
H  22.76600 0.68200 43.83300
H  21.30500 -0.33500 44.03400
H  21.45900 0.72900 42.66900
H  24.05700 -1.64500 40.44500
H  25.38800 -2.49000 41.21400
H  26.77700 -0.85600 40.52100
H  25.58400 0.46700 40.89000
H  18.31800 -5.23800 42.60800
H  18.75600 -3.48800 42.93800
H  17.75700 -4.33300 44.04400
H  19.78500 -8.64400 45.93700
H  18.02900 -8.54200 46.43100
H  19.14400 -7.59600 47.37300
H  24.09700 -8.74800 47.43600
H  24.80400 -6.67000 49.51200
H  22.43600 -9.45300 48.83600
H  21.85600 -7.98800 49.48600
H  23.30600 -8.67600 50.18300
H  27.02300 -7.98200 48.12000
H  26.09200 -9.28700 48.79900
H  26.89400 -7.37600 51.00900
H  28.17500 -8.13500 50.05500
H  26.90300 -9.09500 50.74600
H  29.07400 -3.86100 48.38300
H  29.95800 -3.20100 47.01900
H  29.58700 -4.98900 47.09600
H  27.71800 -1.48200 42.78700
H  28.58900 2.73100 42.33200
H  28.10700 2.64100 44.11300
H  26.91800 2.77400 42.82000

