158

Mg 42.84800 41.63900 26.23400
C  41.74100 43.97100 28.62800
C  43.16800 39.31800 28.74000
C  43.81800 39.53300 23.86700
C  42.21400 44.10500 23.76900
N  42.48700 41.70800 28.49600
C  42.04100 42.77500 29.28300
C  41.99400 42.37200 30.78900
C  42.29600 40.84900 30.76500
C  42.73000 40.56700 29.26900
C  43.39200 40.35400 31.79200
C  40.53200 42.55300 31.29400
C  40.26300 41.99400 32.73100
H  39.54000 42.86300 33.80800
N  43.61200 39.69200 26.24900
C  43.58400 38.89100 27.39600
C  44.02600 37.50200 27.00400
C  44.06800 37.57000 25.52800
C  43.81800 38.94800 25.13700
C  44.18000 36.42000 28.00100
C  44.45900 36.44900 24.58500
O  44.57200 36.65300 23.39800
C  44.62700 35.06700 25.07700
N  42.94200 41.72900 24.18200
C  43.47500 40.78600 23.39700
C  43.46400 41.13500 21.89200
C  42.79000 42.53800 21.90500
C  42.66300 42.83800 23.39800
C  44.86800 41.12100 21.21300
C  41.35100 42.73500 21.14200
C  40.10700 42.10600 21.96000
N  42.17200 43.64300 26.15000
C  42.04300 44.54800 25.09300
C  41.41300 45.74900 25.53800
C  41.30300 45.66700 26.91500
C  41.75600 44.31700 27.22400
C  40.88500 46.83200 24.60200
C  40.85100 46.26900 28.15700
O  40.19500 47.29200 28.27800
C  41.11600 45.24800 29.28800
C  41.95800 45.87700 30.32500
O  43.00500 46.44500 30.12500
O  41.33800 45.75500 31.54300
C  42.15700 46.14100 32.72100
H  42.97800 38.42600 29.34000
H  44.17500 38.82000 23.12000
H  41.87700 44.83300 23.02700
H  42.82200 42.93300 31.22100
H  41.34100 40.34500 30.91000
H  44.20300 39.87800 31.24000
H  43.03500 39.59100 32.48400
H  43.72200 41.20500 32.38800
H  39.91200 42.07700 30.53500
H  40.26300 43.60200 31.42100
H  41.23100 41.83600 33.20600
H  39.76500 41.02500 32.69100
H  43.54300 35.54600 27.86000
H  44.11100 36.67200 29.05900
H  45.21100 36.09500 27.86000
H  43.88400 34.73800 25.80400
H  45.64800 35.05400 25.45800
H  44.54800 34.31100 24.29600
H  42.74600 40.55500 21.31200
H  43.55600 43.25100 21.60100
H  45.31800 42.09800 21.38800
H  44.74100 40.98700 20.13900
H  45.52800 40.37400 21.65600
H  41.54200 42.14300 20.24700
H  41.19300 43.79000 20.91800
H  40.34000 41.41400 22.76900
H  39.38500 41.56800 21.34600
H  39.56700 42.91600 22.44900
H  40.43800 47.59500 25.23900
H  40.18600 46.58900 23.80200
H  41.78000 47.31900 24.21300
H  40.13900 45.05700 29.73300
H  42.38800 47.19900 32.59600
H  43.13700 45.67500 32.82900
H  41.52300 46.08600 33.60600
Mg -9.86100 40.96000 42.02900
C  -9.21500 37.70700 40.80800
C  -7.09100 42.00400 40.21100
C  -10.89900 44.20200 42.32600
C  -13.10100 39.85900 42.71200
N  -8.34600 39.88800 40.66100
C  -8.20100 38.60600 40.47700
C  -6.87600 38.35500 39.69400
C  -6.15500 39.75300 39.74100
C  -7.23400 40.61500 40.25900
C  -4.86200 39.69800 40.54600
C  -6.99900 37.74000 38.26700
C  -6.42700 36.31300 38.09100
H  -5.30900 36.16200 37.06300
N  -9.09500 42.89800 41.43700
C  -7.91400 43.04400 40.75400
C  -7.69900 44.51600 40.53200
C  -8.79000 45.16600 41.11100
C  -9.62400 44.10400 41.69200
C  -6.43800 45.06100 39.93600
C  -9.07200 46.63100 41.17700
O  -8.44600 47.41000 40.47400
C  -10.18100 47.32600 41.91500
N  -11.69400 41.92500 42.38900
C  -11.88000 43.22900 42.59400
C  -13.34300 43.62600 42.93100
C  -14.07700 42.22000 42.97500
C  -12.85900 41.28300 42.69100
C  -13.65200 44.51100 44.23100
C  -15.26200 42.04800 42.00000
C  -16.33500 40.99700 42.49900
N  -10.93200 39.08400 42.05900
C  -12.21400 38.77600 42.33300
C  -12.48900 37.36400 42.13800
C  -11.27200 36.87300 41.56900
C  -10.42600 37.99400 41.45500
C  -13.75500 36.58200 42.46800
C  -10.55000 35.75500 41.06600
O  -10.87600 34.59300 41.02000
C  -9.21500 36.18700 40.49000
C  -8.12400 35.44200 41.07900
O  -7.67300 35.62900 42.20200
O  -7.71200 34.44900 40.23300
C  -7.01800 33.34900 41.05400
H  -6.17500 42.36000 39.73500
H  -11.38100 45.15800 42.53700
H  -14.14000 39.54400 42.83100
H  -6.22500 37.63900 40.19700
H  -5.85700 39.92200 38.70600
H  -3.97900 39.38300 39.99000
H  -4.99900 39.00600 41.37700
H  -4.71400 40.69600 40.95800
H  -6.52700 38.33300 37.48400
H  -8.08300 37.74300 38.15200
H  -7.25100 35.65400 37.81700
H  -5.98900 35.91900 39.00800
H  -6.59200 44.80400 38.88800
H  -5.58700 44.59800 40.43500
H  -6.30100 46.14100 39.98100
H  -10.21000 47.07000 42.97400
H  -11.02200 46.79200 41.47100
H  -10.21600 48.38000 41.64100
H  -13.72500 44.21600 42.09700
H  -14.47900 42.16700 43.98700
H  -14.07200 43.89300 45.02500
H  -14.36900 45.29400 43.98600
H  -12.82600 45.10700 44.61900
H  -14.89600 41.66000 41.05000
H  -15.69200 43.04600 41.91500
H  -17.30600 41.48300 42.59300
H  -15.98300 40.52700 43.41700
H  -16.53400 40.26600 41.71500
H  -13.53900 35.66600 43.01900
H  -14.23600 36.28500 41.53600
H  -14.38200 37.15900 43.14800
H  -9.25500 35.92800 39.43100
H  -6.07700 33.74300 41.43800
H  -6.77700 32.56100 40.34100
H  -7.72000 32.99600 41.81000

