158

Mg 26.52400 50.51900 26.44200
C  24.56000 51.85600 29.07700
C  28.92000 49.85500 28.89500
C  28.64300 49.68500 23.94100
C  24.48700 51.97200 24.17100
N  26.57100 50.66500 28.74300
C  25.62700 51.19400 29.56900
C  26.05600 51.07300 31.09300
C  27.60700 50.62300 30.97400
C  27.72300 50.33900 29.44700
C  28.75200 51.57300 31.51700
C  25.11800 50.09800 31.90000
C  24.75600 50.67300 33.23700
H  25.84900 50.75300 34.30800
N  28.35600 49.74200 26.46600
C  29.20700 49.56600 27.55800
C  30.50500 49.09600 27.02300
C  30.50400 49.14900 25.65900
C  29.10000 49.56400 25.32700
C  31.68900 48.67300 27.97300
C  31.72800 48.87800 24.63500
O  31.58100 48.91300 23.38500
C  33.12800 48.62500 25.12900
N  26.49100 50.65400 24.33400
C  27.51100 50.29900 23.53400
C  27.15700 50.61800 22.09700
C  25.74500 51.14700 22.13500
C  25.52600 51.20500 23.62600
C  28.16400 51.71000 21.54700
C  24.62500 50.41500 21.36800
C  24.20500 51.11800 19.99500
N  24.78700 51.60800 26.57200
C  24.02300 52.15100 25.51100
C  22.87200 52.85100 26.10700
C  23.04700 52.72700 27.44200
C  24.25400 52.06600 27.69300
C  21.85000 53.52100 25.28400
C  22.43600 53.06000 28.66100
O  21.36900 53.57800 28.82500
C  23.43100 52.56700 29.85500
C  23.91000 53.66200 30.69500
O  24.87300 54.40300 30.42100
O  23.22600 53.62900 31.85800
C  23.60700 54.52600 32.92800
H  29.68000 49.71700 29.66700
H  29.31100 49.47400 23.10400
H  23.71900 52.30400 23.46900
H  26.12100 52.08400 31.49600
H  27.67100 49.66600 31.49200
H  28.31600 52.40900 32.06300
H  29.28100 52.00600 30.66700
H  29.49800 51.14100 32.18400
H  25.59000 49.14700 32.14900
H  24.27600 49.91500 31.23200
H  23.90500 50.06100 33.53500
H  24.33700 51.67500 33.14100
H  31.44600 49.12700 28.93300
H  32.63700 49.09200 27.63600
H  31.71400 47.59200 28.10800
H  33.01400 47.87300 25.91100
H  33.63600 49.47800 25.57800
H  33.65700 48.17600 24.28900
H  27.23800 49.69500 21.52300
H  25.82900 52.13800 21.69000
H  28.53100 51.32000 20.59800
H  28.98600 51.86200 22.24700
H  27.83200 52.74200 21.43500
H  23.71800 50.24000 21.94700
H  24.97000 49.38300 21.29300
H  23.88800 50.26100 19.40000
H  24.96400 51.71300 19.48700
H  23.33300 51.71000 20.27500
H  22.21700 53.63500 24.26400
H  21.56900 54.52100 25.61500
H  20.92700 52.94200 25.28800
H  22.84200 51.84900 30.42700
H  23.04000 54.24700 33.81600
H  23.51700 55.53900 32.53700
H  24.67300 54.30600 32.98300
Mg 9.79300 47.61600 26.29600
C  7.89600 47.79700 29.21700
C  12.39400 49.18200 27.88000
C  11.61800 47.45700 23.58200
C  6.95500 46.44800 24.58500
N  10.00300 48.49200 28.28500
C  9.18300 48.34800 29.38100
C  9.86800 48.97700 30.66200
C  11.03800 49.80700 29.98300
C  11.20900 49.08400 28.65800
C  10.74500 51.32500 29.76800
C  10.30300 47.91100 31.66600
C  9.54700 47.97900 32.98900
H  9.82000 46.72200 33.86200
N  11.81500 48.19600 25.81100
C  12.68900 48.78600 26.59000
C  13.94500 48.83500 25.93500
C  13.76000 48.31600 24.61500
C  12.36200 47.95800 24.65700
C  15.29200 49.31500 26.65700
C  14.72200 48.20700 23.46300
O  14.52200 47.57800 22.41600
C  16.07200 48.84700 23.67800
N  9.35000 47.17800 24.38500
C  10.31200 47.07700 23.39700
C  9.75300 46.68700 22.02600
C  8.36600 46.14100 22.49100
C  8.21100 46.67500 23.89700
C  9.80700 47.82700 21.00600
C  8.06300 44.66400 22.31300
C  9.02800 43.55400 22.92700
N  7.78600 47.28700 26.79000
C  6.74900 46.85500 25.93600
C  5.55100 46.98000 26.74200
C  5.98900 47.24800 28.05100
C  7.33100 47.37400 28.00300
C  4.22100 46.82100 26.11800
C  5.57700 47.41400 29.42300
O  4.43700 47.34200 29.94400
C  6.81600 47.68100 30.22600
C  6.91400 46.40800 31.06500
O  7.37000 45.39800 30.65800
O  6.37200 46.61500 32.28000
C  6.61600 45.54200 33.27800
H  13.14100 49.79700 28.38600
H  12.17900 47.40900 22.64700
H  6.01200 46.13700 24.13100
H  9.23900 49.77500 31.05900
H  11.79000 49.75900 30.77000
H  11.59100 51.76700 29.24200
H  10.67100 51.67300 30.79800
H  9.75600 51.51700 29.35100
H  11.33400 48.13200 31.94400
H  10.31000 46.91700 31.22000
H  8.47600 48.18100 32.96300
H  10.05200 48.79900 33.49700
H  15.11700 49.19600 27.72600
H  15.38000 50.36300 26.37000
H  16.17400 48.73100 26.39500
H  16.63800 48.11100 24.24900
H  15.92300 49.84200 24.09800
H  16.42200 49.07600 22.67200
H  10.29200 45.82000 21.64300
H  7.66400 46.72300 21.89500
H  10.37700 48.65600 21.42500
H  8.80100 48.18200 20.78200
H  10.25600 47.47100 20.07800
H  8.08800 44.50000 21.23600
H  7.08400 44.33600 22.66100
H  10.08700 43.70400 22.71700
H  8.74900 42.60800 22.46200
H  8.86200 43.53200 24.00400
H  3.56700 46.73000 26.98500
H  4.01500 45.90100 25.57100
H  4.03800 47.73400 25.55000
H  6.74500 48.52600 30.91100
H  7.25000 45.84300 34.11100
H  6.91500 44.54700 32.94800
H  5.70300 45.34000 33.83900

