158

Mg 17.80400 -2.04200 28.04700
C  16.93600 -0.08500 30.83200
C  19.97600 -3.77300 29.94100
C  19.25900 -3.09700 25.25000
C  15.81200 0.26000 26.26800
N  18.31600 -1.87600 30.13400
C  17.87800 -1.06400 31.15600
C  18.31500 -1.54800 32.50500
C  19.36700 -2.62300 32.13700
C  19.19500 -2.87600 30.66200
C  20.84600 -2.33900 32.60200
C  17.00600 -2.10100 33.33300
C  17.06900 -1.71600 34.87200
H  18.49200 -1.92200 35.44000
N  19.29400 -3.44000 27.64200
C  20.03400 -4.04600 28.54000
C  20.75700 -5.08800 27.89900
C  20.52200 -5.05200 26.50100
C  19.70100 -3.79700 26.41400
C  21.63000 -6.11600 28.60500
C  20.89000 -5.97900 25.38400
O  20.60100 -5.68200 24.24900
C  21.76100 -7.16900 25.64400
N  17.56600 -1.51500 26.08500
C  18.35100 -2.00200 25.08100
C  17.87800 -1.45900 23.69200
C  16.70200 -0.53500 24.05100
C  16.68100 -0.63100 25.55400
C  18.95300 -0.64900 22.90600
C  15.35900 -0.92400 23.34700
C  14.56400 0.22200 22.79000
N  16.43800 -0.33500 28.42900
C  15.67700 0.44200 27.61700
C  14.87700 1.42900 28.33900
C  15.40300 1.35700 29.62800
C  16.27800 0.24900 29.62800
C  13.92500 2.37300 27.71100
C  15.36200 1.92000 30.97400
O  14.81400 2.90100 31.45900
C  16.44400 0.98000 31.78300
C  17.58000 1.90900 32.30500
O  18.62200 2.15500 31.79400
O  17.03500 2.49200 33.42700
C  17.88900 3.38900 34.15900
H  20.66200 -4.47400 30.42100
H  19.78300 -3.46900 24.36700
H  15.24500 0.95000 25.63800
H  18.85400 -0.71900 32.96400
H  19.16800 -3.54400 32.68500
H  20.86700 -1.86600 33.58400
H  21.44900 -1.76600 31.89900
H  21.41900 -3.24700 32.79100
H  16.88500 -3.14800 33.05300
H  16.14800 -1.56900 32.92400
H  16.41500 -2.33500 35.48600
H  16.71300 -0.70400 35.06500
H  22.53200 -6.41200 28.07000
H  21.07000 -7.04100 28.74700
H  21.98500 -5.67900 29.53800
H  22.71800 -6.85100 26.05800
H  21.83200 -7.57700 24.63600
H  21.28900 -7.87000 26.33100
H  17.53700 -2.32800 23.12900
H  16.82600 0.49600 23.71700
H  19.90100 -0.82600 23.41600
H  18.76000 0.41800 22.79900
H  19.07100 -1.13900 21.94000
H  14.73900 -1.31100 24.15600
H  15.50400 -1.75100 22.65100
H  14.96500 1.18900 23.09300
H  13.56000 0.24700 23.21300
H  14.40200 0.08100 21.72100
H  14.49200 3.26900 27.45500
H  13.12300 2.54400 28.42800
H  13.59900 1.85700 26.80700
H  15.86900 0.57500 32.61600
H  18.92600 3.35800 33.82400
H  17.80500 3.08300 35.20200
H  17.30400 4.28100 33.93500
Mg 26.56600 0.56500 28.75400
C  28.34100 -0.02000 31.73700
C  23.61000 0.17500 30.59300
C  24.91600 0.97100 25.94300
C  29.65100 0.12000 27.04400
N  26.11700 0.23800 30.90100
C  26.96000 0.18000 31.91700
C  26.21200 0.22800 33.24800
C  24.71700 0.14300 32.90200
C  24.76400 0.06500 31.35600
C  23.91000 -1.08100 33.53000
C  26.56000 1.53500 34.08900
C  26.57600 1.18900 35.62700
H  27.17300 2.12600 36.58600
N  24.50900 0.62700 28.28700
C  23.51600 0.48700 29.19900
C  22.20000 0.79000 28.48800
C  22.56200 0.98200 27.16900
C  24.00800 0.87500 27.05000
C  20.82300 0.76200 29.24600
C  21.68600 1.08400 25.94100
O  22.12800 0.95100 24.83100
C  20.16300 1.29300 26.06100
N  27.23400 0.37200 26.72700
C  26.35300 0.77000 25.73000
C  27.10200 0.99700 24.33600
C  28.64100 0.96100 24.85700
C  28.54800 0.46400 26.30800
C  26.68900 0.10600 23.15800
C  29.25500 2.38000 24.77300
C  29.68600 2.72300 23.35100
N  28.57000 0.09800 29.20900
C  29.70200 0.00800 28.44600
C  30.85500 -0.13800 29.23000
C  30.32700 -0.10600 30.51500
C  28.92300 -0.05800 30.43900
C  32.22600 -0.37700 28.79300
C  30.73600 -0.16200 31.87600
O  31.84200 -0.23100 32.32000
C  29.42600 -0.09500 32.78500
C  29.16300 -1.33700 33.64900
O  28.53600 -2.33700 33.32700
O  29.64400 -1.04100 34.88000
C  29.38500 -2.06200 35.92400
H  22.70800 0.17000 31.20700
H  24.39400 1.07800 24.99000
H  30.59600 0.27900 26.52000
H  26.70600 -0.53900 33.84500
H  24.12400 1.02000 33.16000
H  23.07600 -0.74100 34.14300
H  24.56000 -1.63400 34.20800
H  23.46900 -1.71300 32.76000
H  25.76400 2.24000 33.84800
H  27.49900 1.93900 33.70900
H  26.77600 0.15100 35.89000
H  25.53900 1.30400 35.94200
H  20.48700 1.79600 29.32400
H  20.85400 0.32900 30.24600
H  19.99200 0.18400 28.84200
H  19.83100 1.69600 25.10400
H  20.02500 2.03100 26.85200
H  19.79200 0.29100 26.27600
H  26.69800 1.93400 23.95200
H  29.19200 0.20100 24.30300
H  26.09100 0.75900 22.52300
H  26.02800 -0.72700 23.39700
H  27.48800 -0.25700 22.51100
H  30.16600 2.38500 25.37200
H  28.60800 3.16200 25.17000
H  29.12200 3.61000 23.06200
H  29.41100 1.92700 22.65900
H  30.75300 2.86300 23.17800
H  32.80000 0.30300 29.42300
H  32.41500 -0.16200 27.74100
H  32.58000 -1.38700 28.99900
H  29.58700 0.76000 33.44200
H  30.08000 -1.98600 36.76000
H  29.55400 -3.05800 35.51400
H  28.34900 -2.02700 36.26200

