158

Mg 35.10800 48.77000 25.53200
C  35.57700 46.89900 28.61500
C  33.87800 51.36000 27.66000
C  34.32300 50.43900 22.80500
C  36.11400 45.97100 23.76100
N  34.71700 49.05200 27.81400
C  35.06100 48.15500 28.83200
C  34.75500 48.70800 30.24500
C  34.02400 50.03700 29.83900
C  34.27900 50.16700 28.35200
C  32.53900 49.85700 30.05600
C  36.06500 49.04600 31.05100
C  35.92800 48.92400 32.58900
H  34.65400 48.92300 33.30500
N  34.22600 50.69700 25.25000
C  33.84800 51.60400 26.24300
C  33.57700 52.88300 25.52000
C  33.67700 52.64100 24.16500
C  34.12200 51.23900 23.99900
C  33.21600 54.06200 26.25600
C  33.50700 53.59700 23.01000
O  33.75500 53.28000 21.85100
C  33.02800 55.03200 23.10800
N  35.12500 48.20200 23.66400
C  34.80800 49.10400 22.65300
C  34.81500 48.46300 21.29200
C  35.30000 46.98200 21.61800
C  35.57900 47.03800 23.07500
C  33.38600 48.60000 20.61800
C  36.46400 46.42500 20.68800
C  36.47000 44.97700 20.45000
N  35.67600 46.77000 26.03900
C  36.12900 45.76900 25.19000
C  36.58300 44.66800 26.04100
C  36.37500 45.05300 27.35000
C  35.86800 46.33100 27.29100
C  36.96500 43.33700 25.39700
C  36.54800 44.62100 28.76400
O  37.01300 43.55100 29.20400
C  36.01700 45.87300 29.66000
C  35.04600 45.27800 30.59300
O  34.10200 44.59900 30.22200
O  35.26300 45.54100 31.96200
C  34.35600 45.02500 32.94700
H  33.58100 52.22300 28.26000
H  34.10400 50.97800 21.88000
H  36.63900 45.22300 23.16300
H  34.06300 48.01200 30.72100
H  34.30900 50.86500 30.48800
H  32.12600 49.48100 29.12000
H  32.03900 50.82000 30.16100
H  32.31900 49.26400 30.94400
H  36.19800 50.10200 30.81600
H  36.91600 48.42700 30.76500
H  36.62800 49.55500 33.13500
H  36.35200 47.94200 32.80000
H  32.13100 54.16400 26.24000
H  33.52600 54.92800 25.67200
H  33.43300 54.09300 27.32300
H  32.88000 55.45500 22.11400
H  33.82900 55.59100 23.59100
H  32.11900 55.07500 23.70800
H  35.54300 48.96000 20.65100
H  34.45200 46.29800 21.64600
H  33.14700 47.60900 20.23300
H  33.57200 49.30600 19.80800
H  32.65700 49.05100 21.29200
H  37.40000 46.53600 21.23500
H  36.53400 47.03500 19.78700
H  36.79000 44.78000 19.42700
H  35.46600 44.57100 20.56700
H  37.04200 44.44000 21.20700
H  37.88700 43.35500 24.81600
H  36.19300 43.12100 24.65700
H  36.87100 42.58500 26.18100
H  36.82800 46.28900 30.25700
H  34.67700 45.23600 33.96700
H  34.36700 43.93500 32.92000
H  33.31100 45.32900 32.88200
Mg 26.53600 49.66900 27.06000
C  24.49100 51.12500 29.60300
C  28.38100 48.11300 29.39600
C  28.51800 48.70800 24.52300
C  24.57300 51.43000 24.71700
N  26.28000 49.57800 29.21100
C  25.41800 50.24700 30.09400
C  25.67100 49.77400 31.54700
C  27.11900 49.06100 31.42200
C  27.22400 48.80400 29.88000
C  28.37500 49.75300 32.06400
C  24.49700 48.93100 32.17500
C  23.95800 49.38400 33.51500
H  24.17200 48.54000 34.74500
N  28.20500 48.56300 26.93200
C  28.89900 48.00700 28.05400
C  30.08800 47.34300 27.58500
C  30.19900 47.55900 26.18500
C  28.94300 48.29500 25.78200
C  30.99900 46.64700 28.43200
C  31.26600 47.21200 25.20100
O  31.21700 47.50700 24.02500
C  32.41600 46.35200 25.52800
N  26.50100 49.97500 24.94800
C  27.34900 49.35900 24.09500
C  27.06800 49.63100 22.57800
C  25.61300 50.18700 22.70000
C  25.51400 50.53600 24.22400
C  27.97800 50.75900 21.97600
C  24.45200 49.24700 22.21400
C  23.41600 49.78300 21.25100
N  24.87000 51.02100 27.11000
C  24.23600 51.67100 26.09000
C  23.19100 52.62400 26.70700
C  23.25400 52.36500 27.99600
C  24.28700 51.45000 28.24700
C  22.26800 53.54800 25.94300
C  22.61300 52.67200 29.24700
O  21.65100 53.36600 29.50100
C  23.41000 51.90100 30.38900
C  23.83100 52.96400 31.26400
O  24.84200 53.70200 31.15100
O  22.98100 52.93000 32.35100
C  23.26100 53.91100 33.40500
H  28.97200 47.67400 30.20300
H  29.16000 48.42100 23.68700
H  23.88000 51.84800 23.98400
H  25.90700 50.71500 32.04400
H  26.91000 48.08300 31.85500
H  28.90000 50.51400 31.48600
H  29.09500 48.99800 32.37800
H  28.12000 50.40500 32.89900
H  24.71100 47.86900 32.29600
H  23.66600 48.96000 31.47000
H  22.92800 49.73000 33.43000
H  24.42200 50.31600 33.84000
H  31.91700 47.23200 28.48800
H  31.11800 45.70400 27.89800
H  30.51700 46.47500 29.39400
H  32.02200 45.34000 25.62600
H  32.89200 46.67100 26.45500
H  33.08500 46.41900 24.67100
H  26.95600 48.66900 22.07900
H  25.54600 51.13800 22.17300
H  28.96300 50.64500 22.42800
H  27.58000 51.72200 22.29600
H  28.04500 50.56800 20.90600
H  24.13900 48.79400 23.15500
H  25.01100 48.49200 21.66200
H  23.56900 50.84900 21.08600
H  22.38100 49.65600 21.56900
H  23.44900 49.28400 20.28200
H  21.52800 52.98300 25.37600
H  22.90700 54.09500 25.25000
H  21.83700 54.24900 26.65800
H  22.74900 51.20900 30.91200
H  22.39600 53.88900 34.06700
H  23.24500 54.92000 32.99300
H  24.21300 53.78100 33.92000

