158

Mg 8.52100 2.41100 27.95000
C  10.10100 1.18900 30.85200
C  6.42100 4.28500 29.87300
C  7.19300 3.70600 25.15800
C  10.61700 0.29100 26.05700
N  8.38700 2.66800 30.13800
C  9.08800 2.10500 31.11800
C  8.69100 2.61300 32.49300
C  7.44600 3.49600 32.07900
C  7.35300 3.51400 30.63300
C  6.12900 3.22400 32.89100
C  9.76800 3.44800 33.23400
C  9.30900 4.13300 34.60300
H  10.04300 3.64600 35.92200
N  6.96100 3.80900 27.58200
C  6.27100 4.49600 28.49300
C  5.26400 5.25500 27.84200
C  5.46300 5.08300 26.45300
C  6.67700 4.24400 26.33800
C  4.13500 5.96100 28.54300
C  4.71800 5.68300 25.29300
O  5.01200 5.49500 24.12800
C  3.61500 6.62800 25.57600
N  8.83100 2.00700 25.96400
C  8.21500 2.79900 25.01900
C  8.66500 2.34500 23.58200
C  9.83700 1.43000 23.91200
C  9.67200 1.13100 25.38200
C  7.50200 1.63300 22.76400
C  11.21200 2.06100 23.53700
C  11.67600 3.20600 24.44000
N  10.00300 0.89200 28.37500
C  10.73900 0.13900 27.47400
C  11.62000 -0.66700 28.23400
C  11.44100 -0.31900 29.57200
C  10.44600 0.68600 29.60600
C  12.56700 -1.62100 27.63600
C  11.82100 -0.56000 30.94600
O  12.52900 -1.43300 31.38300
C  10.95900 0.49600 31.84200
C  10.21700 -0.27600 32.91000
O  9.40400 -1.15400 32.77400
O  10.78400 0.03300 34.09400
C  10.22400 -0.74200 35.24600
H  5.79000 4.99400 30.41100
H  6.99500 4.10200 24.16000
H  11.35800 -0.29000 25.50400
H  8.46900 1.72200 33.08100
H  7.61200 4.53700 32.35800
H  5.74200 4.11900 33.37800
H  6.44600 2.54800 33.68500
H  5.30400 2.78900 32.32700
H  10.10800 4.11200 32.43900
H  10.65100 2.85000 33.45900
H  8.22400 4.05100 34.67300
H  9.43500 5.20600 34.45600
H  4.36900 7.02400 28.50100
H  3.99000 5.61400 29.56600
H  3.19200 5.83400 28.01100
H  4.04900 7.33800 26.28000
H  2.64400 6.28300 25.92900
H  3.54700 7.14600 24.62000
H  9.00100 3.25200 23.08000
H  9.64600 0.48700 23.40000
H  7.34000 2.14800 21.81600
H  6.54900 1.80200 23.26600
H  7.51100 0.55500 22.60700
H  11.15100 2.57500 22.57800
H  11.98000 1.29400 23.43900
H  11.45600 4.18700 24.02000
H  12.73200 3.10700 24.69100
H  11.24300 3.17000 25.44000
H  12.97500 -1.35100 26.66200
H  12.08200 -2.59300 27.55300
H  13.36300 -1.57000 28.37900
H  11.61100 1.23600 32.30400
H  9.36600 -1.34300 34.94500
H  9.93200 0.02100 35.96800
H  11.02900 -1.36500 35.63700
Mg 46.65000 16.66200 28.23900
C  44.76000 16.62800 31.06700
C  48.99100 18.78100 29.86900
C  48.10100 17.37800 25.26400
C  44.03400 15.17200 26.54700
N  46.77900 17.73400 30.19000
C  45.97400 17.30800 31.25200
C  46.55800 17.74600 32.61900
C  47.65100 18.79400 32.12400
C  47.88500 18.42000 30.69500
C  47.34800 20.30300 32.31700
C  47.06700 16.50500 33.38100
C  47.13200 16.56500 34.91200
H  47.16600 17.91000 35.62200
N  48.38200 17.72000 27.69000
C  49.18600 18.48000 28.51200
C  50.33300 18.88300 27.74200
C  49.95700 18.72100 26.39500
C  48.80600 17.87100 26.40400
C  51.62000 19.46800 28.35100
C  50.63200 19.19100 25.12300
O  50.24700 18.95100 23.98200
C  51.78900 20.15700 25.26800
N  46.28500 16.04500 26.17700
C  46.99600 16.51400 25.16400
C  46.29400 16.28000 23.81400
C  45.14100 15.28100 24.29600
C  45.14300 15.52300 25.80200
C  45.89800 17.46900 22.95800
C  45.40400 13.86600 23.83400
C  44.80900 13.40000 22.51400
N  44.78600 15.92300 28.67100
C  43.86000 15.27000 27.94500
C  42.65400 14.93400 28.75100
C  42.93800 15.47900 30.01800
C  44.25000 16.06800 29.90400
C  41.57100 14.08400 28.27400
C  42.49200 15.62100 31.33200
O  41.44100 15.21400 31.79200
C  43.68200 16.29600 32.14200
C  43.11300 17.55400 32.73500
O  42.95000 18.62000 32.19800
O  42.64000 17.16500 33.96900
C  41.55900 17.94900 34.52400
H  49.84200 19.32200 30.28900
H  48.33600 17.60000 24.22100
H  43.20400 14.81100 25.93600
H  45.70500 18.11200 33.19000
H  48.56100 18.77400 32.72300
H  46.34100 20.40900 32.72100
H  47.42100 20.93300 31.43000
H  47.99500 20.67200 33.11300
H  48.05400 16.37200 32.93700
H  46.52200 15.63000 33.02700
H  48.00700 15.96600 35.16500
H  46.35100 16.01200 35.43500
H  52.42000 18.74000 28.21700
H  51.52600 19.73100 29.40400
H  51.75100 20.43500 27.86500
H  51.44100 21.14400 25.57100
H  52.26900 20.22600 24.29200
H  52.52900 19.80900 25.99000
H  46.94600 15.62100 23.24000
H  44.17500 15.56700 23.87900
H  46.50200 18.36300 23.11000
H  44.88700 17.72200 23.28000
H  45.99600 17.23100 21.89900
H  44.93000 13.26800 24.61200
H  46.45700 13.58600 23.86500
H  45.69400 13.29600 21.88600
H  44.06000 14.02400 22.02700
H  44.42600 12.40400 22.73500
H  40.65600 14.66300 28.15100
H  41.37300 13.27000 28.97200
H  41.89000 13.74800 27.28700
H  43.94000 15.51800 32.86100
H  40.85000 18.21900 33.74200
H  41.98800 18.87600 34.90600
H  41.09100 17.48800 35.39400

