158

Mg 49.03300 34.93400 27.33600
C  46.78200 33.47300 29.66900
C  49.57300 37.28700 29.37000
C  50.18600 36.58400 24.62600
C  48.21200 32.24600 25.14500
N  48.26900 35.27100 29.26600
C  47.43100 34.60500 30.08800
C  47.54600 35.12800 31.52300
C  48.09000 36.52600 31.39700
C  48.78500 36.34600 29.97800
C  47.08700 37.62700 31.37400
C  48.50000 34.24100 32.36600
C  48.19000 34.22400 33.87700
H  49.18500 34.89900 34.83200
N  49.80400 36.75200 27.06400
C  50.01300 37.59000 28.03000
C  50.60200 38.80400 27.51100
C  50.76800 38.65300 26.10400
C  50.22600 37.27900 25.86000
C  51.02400 39.91400 28.42600
C  51.34800 39.58700 25.03300
O  51.35900 39.35400 23.84500
C  51.91600 40.90600 25.46700
N  49.14700 34.47400 25.13800
C  49.70500 35.34700 24.27800
C  49.57900 34.68200 22.88600
C  49.37500 33.18800 23.15900
C  48.86400 33.26500 24.58200
C  48.44200 35.44900 22.08300
C  50.66800 32.29000 23.11900
C  50.62400 31.04600 22.22000
N  47.84500 33.10100 27.36800
C  47.68100 32.13400 26.41400
C  46.73800 31.16100 26.91800
C  46.36800 31.69000 28.23300
C  47.04100 32.87500 28.37000
C  46.40700 29.88700 26.16700
C  45.45900 31.43900 29.36500
O  44.82000 30.41800 29.61600
C  45.70100 32.63400 30.40600
C  46.00300 32.06800 31.73200
O  46.89200 31.28100 32.05900
O  45.09600 32.62500 32.57600
C  45.15400 32.26500 33.91400
H  49.78300 38.12600 30.03800
H  50.59200 37.11500 23.76300
H  47.98600 31.48400 24.39600
H  46.49800 35.09500 31.82300
H  48.73200 36.86000 32.21300
H  47.12300 38.20100 32.30000
H  46.04900 37.30200 31.30300
H  47.22500 38.22600 30.47400
H  49.48600 34.70600 32.35200
H  48.54800 33.27100 31.87200
H  48.30700 33.17700 34.15500
H  47.15500 34.51100 34.06400
H  50.33800 40.75800 28.50300
H  51.97400 40.31900 28.07500
H  51.27700 39.46700 29.38700
H  51.23000 41.61900 25.92500
H  52.25200 41.44300 24.58000
H  52.69100 40.74600 26.21700
H  50.52400 34.68800 22.34100
H  48.57600 32.88700 22.48100
H  47.55700 34.81400 22.03600
H  48.77900 35.53900 21.05100
H  48.30800 36.42800 22.54400
H  50.82700 31.86800 24.11200
H  51.59900 32.84800 23.01800
H  51.58500 30.79400 21.77100
H  49.82500 31.13900 21.48500
H  50.36800 30.21400 22.87500
H  46.26300 30.18900 25.12900
H  45.35500 29.65800 26.33800
H  47.18500 29.16400 26.41100
H  44.80900 33.25800 30.46700
H  45.06400 33.22800 34.41500
H  46.16100 31.96200 34.19800
H  44.48700 31.48700 34.28600
Mg -12.39500 37.92900 42.79700
C  -10.03400 35.46600 41.67400
C  -10.35100 40.26400 41.21100
C  -14.88600 40.00400 43.00900
C  -14.32300 35.22600 43.99100
N  -10.47700 37.80100 41.51000
C  -9.62000 36.71000 41.30200
C  -8.37200 37.04400 40.52200
C  -8.50700 38.60800 40.53200
C  -9.83000 38.94300 41.19400
C  -7.31500 39.26500 41.25700
C  -8.39000 36.32600 39.12500
C  -7.27400 35.30300 38.78100
H  -6.30600 35.56000 37.59000
N  -12.55400 39.91700 42.29400
C  -11.65000 40.75700 41.62800
C  -12.28400 42.13300 41.53800
C  -13.59200 42.02600 42.14000
C  -13.72700 40.60800 42.46200
C  -11.60500 43.34600 40.96400
C  -14.62300 43.13400 42.37300
O  -14.23000 44.27100 42.09400
C  -16.01200 43.03300 42.83500
N  -14.37800 37.60900 43.27300
C  -15.16700 38.66700 43.38000
C  -16.54900 38.16900 43.74100
C  -16.29400 36.78400 44.46300
C  -14.92500 36.45600 43.89300
C  -17.39200 39.14700 44.57600
C  -17.44700 35.73900 44.46200
C  -17.84500 35.40200 45.93100
N  -12.24000 35.75200 42.95000
C  -13.11200 34.81300 43.47600
C  -12.49800 33.47600 43.39500
C  -11.30800 33.69100 42.68400
C  -11.19900 35.09300 42.42000
C  -13.13000 32.20900 43.94300
C  -10.13800 33.01700 42.13200
O  -9.79800 31.88100 42.18900
C  -9.24600 34.15800 41.55200
C  -7.95300 34.17300 42.26200
O  -6.99300 33.52500 41.97200
O  -7.92300 35.14600 43.28700
C  -6.65500 35.59600 43.87300
H  -9.71000 40.97800 40.68800
H  -15.76200 40.65500 42.98200
H  -14.85900 34.38900 44.44200
H  -7.58600 36.63500 41.15700
H  -8.58600 38.92900 39.49400
H  -6.39300 38.69800 41.12600
H  -7.58900 39.35100 42.30800
H  -7.16500 40.19000 40.70000
H  -8.36400 37.08200 38.34000
H  -9.39600 35.90400 39.11900
H  -7.79300 34.36100 38.60500
H  -6.67900 35.17900 39.68600
H  -11.94600 43.71800 39.99800
H  -10.55000 43.10000 40.84200
H  -11.66000 44.10100 41.74800
H  -16.68500 42.64300 42.07200
H  -16.42100 44.02800 43.00800
H  -16.01900 42.52400 43.79900
H  -17.15500 37.86800 42.88700
H  -15.97000 36.95600 45.49000
H  -16.80700 40.05800 44.70400
H  -17.67900 38.69700 45.52600
H  -18.33700 39.46500 44.13500
H  -17.18900 34.79900 43.97300
H  -18.39100 36.18300 44.14800
H  -17.69100 34.35000 46.16900
H  -18.89800 35.43300 46.21300
H  -17.32900 36.04900 46.64000
H  -14.17200 32.41400 44.18700
H  -12.44900 31.86900 44.72300
H  -13.06000 31.40300 43.21200
H  -9.00800 33.91300 40.51700
H  -5.84300 34.87500 43.78600
H  -6.78000 35.85800 44.92400
H  -6.48700 36.56900 43.41100

