158

Mg 36.13300 1.90300 30.01400
C  33.77700 3.07900 32.32600
C  38.48200 1.68300 32.35700
C  38.28000 1.08700 27.55000
C  33.59300 2.42400 27.44200
N  36.07300 2.18200 32.19900
C  34.96200 2.65900 32.91900
C  35.30200 2.69400 34.37400
C  36.92300 2.56400 34.35400
C  37.20300 2.11700 32.90700
C  37.75800 3.82700 34.60400
C  34.62400 1.57400 35.20000
C  34.09200 1.82300 36.68100
H  34.61000 3.07600 37.33200
N  38.05500 1.29600 30.02300
C  38.93100 1.31000 31.12600
C  40.20400 0.84900 30.71200
C  40.12600 0.54500 29.30000
C  38.79200 1.04200 28.84900
C  41.28800 0.60200 31.77200
C  41.13800 -0.12300 28.45100
O  40.87000 -0.51400 27.28900
C  42.47500 -0.48200 28.97500
N  35.99300 1.64200 27.76600
C  37.01200 1.35400 26.99200
C  36.66200 1.47700 25.49600
C  35.16000 1.53000 25.51600
C  34.86500 1.95800 26.97800
C  37.23900 2.85900 25.00000
C  34.46700 0.11200 25.22400
C  33.59800 0.08900 24.00400
N  34.15000 2.43300 29.94600
C  33.24700 2.58800 28.83300
C  31.99200 3.05100 29.30000
C  32.15900 3.17200 30.67300
C  33.50100 2.87700 30.97100
C  30.81200 3.38100 28.48600
C  31.44200 3.63600 31.82900
O  30.32000 4.08200 32.05400
C  32.45000 3.58900 32.99900
C  32.45200 4.89600 33.62300
O  33.12900 5.85000 33.25900
O  31.70000 4.93200 34.77600
C  32.03300 6.07600 35.70200
H  39.23100 1.64900 33.15100
H  39.07500 0.83200 26.84700
H  32.81300 2.55300 26.68900
H  35.07400 3.66900 34.80500
H  37.34200 1.75100 34.94700
H  38.75400 3.60800 34.99000
H  37.32700 4.57200 35.27200
H  37.84200 4.32200 33.63700
H  35.32100 0.73600 35.17800
H  33.84900 1.17100 34.54700
H  34.25200 1.09600 37.47700
H  33.02300 1.91100 36.48600
H  40.95600 0.65500 32.80900
H  41.97800 1.43100 31.61800
H  41.83000 -0.32300 31.57400
H  42.76900 0.28600 29.69100
H  43.13200 -0.43300 28.10600
H  42.55000 -1.52500 29.28100
H  37.05000 0.62400 24.93800
H  34.75000 2.37500 24.96200
H  38.18100 2.66800 24.48600
H  37.34200 3.68800 25.70000
H  36.66400 3.33500 24.20600
H  33.74300 -0.08000 26.01500
H  35.19100 -0.70100 25.18200
H  32.68000 -0.49100 24.09900
H  34.03900 -0.36900 23.11900
H  33.32100 1.11800 23.77500
H  31.10400 4.26800 27.92300
H  30.01900 3.68900 29.16700
H  30.65600 2.45700 27.93000
H  31.96400 2.86200 33.64900
H  31.70800 7.02500 35.27400
H  33.07200 6.05500 36.03200
H  31.46400 5.87800 36.61100
Mg 9.57700 47.23000 26.75300
C  7.51700 47.63800 29.44900
C  12.17100 48.51300 28.63900
C  11.48400 46.89500 23.99700
C  6.75100 47.09600 24.59900
N  9.78800 48.28800 28.71900
C  8.84500 47.99800 29.72600
C  9.40300 48.36000 31.10100
C  10.68400 49.16400 30.71800
C  10.96800 48.70100 29.24400
C  10.71100 50.74500 30.93800
C  9.72000 47.09100 31.95500
C  9.26500 47.15400 33.46500
H  9.44900 45.84900 34.33500
N  11.58900 47.53100 26.44000
C  12.50000 48.10300 27.27100
C  13.89900 47.91000 26.65800
C  13.62100 47.21900 25.36400
C  12.16800 47.24800 25.18100
C  15.11200 48.24400 27.32100
C  14.65600 46.62500 24.43100
O  14.31100 46.06800 23.37200
C  16.13100 46.71800 24.81400
N  9.07800 46.95700 24.60700
C  10.12300 46.89100 23.75200
C  9.66900 46.78900 22.35100
C  8.06700 46.79500 22.40400
C  7.94300 46.96500 23.94300
C  10.32100 47.83100 21.31600
C  7.42800 45.45800 21.95600
C  7.17500 45.43600 20.41700
N  7.57600 47.21200 26.97000
C  6.58600 47.11600 26.02000
C  5.30100 47.03700 26.75900
C  5.63200 47.13400 28.09000
C  7.02500 47.38100 28.20700
C  3.87400 46.91000 26.12100
C  5.10400 47.10000 29.45300
O  3.95800 46.86300 29.83500
C  6.30400 47.57300 30.32500
C  6.41500 46.48000 31.42000
O  6.98800 45.41400 31.34100
O  5.76100 46.91100 32.56600
C  5.34500 45.87800 33.50000
H  13.00700 48.91200 29.21700
H  12.11200 46.68000 23.12900
H  5.84000 46.90200 24.02800
H  8.75200 49.06100 31.62400
H  11.43700 48.75900 31.39400
H  9.75700 51.24600 31.10400
H  11.05400 51.18700 30.00300
H  11.33200 51.05000 31.78100
H  10.76600 46.78600 31.98700
H  9.31000 46.22800 31.43100
H  8.26300 47.57800 33.52600
H  9.96600 47.85200 33.92300
H  14.90200 48.28900 28.38900
H  15.32500 49.26900 27.01800
H  15.96100 47.56300 27.38200
H  16.78600 46.41900 23.99600
H  16.20400 46.00600 25.63600
H  16.35000 47.74600 25.10400
H  9.90300 45.76300 22.06700
H  7.72100 47.74400 21.99400
H  11.25700 47.42500 20.93000
H  10.68800 48.67500 21.90000
H  9.65100 48.17400 20.52800
H  6.48000 45.35200 22.48400
H  8.07500 44.67700 22.35500
H  6.11700 45.50600 20.16400
H  7.54100 44.56800 19.86800
H  7.75000 46.27500 20.02600
H  3.96300 46.77000 25.04400
H  3.21300 47.76300 26.27600
H  3.38900 46.02200 26.52700
H  5.88800 48.54700 30.58400
H  5.15900 44.95500 32.95100
H  4.34100 46.21500 33.76000
H  6.06000 45.75500 34.31300

