158

Mg 52.75100 24.28000 44.27300
C  49.86500 26.14000 44.01200
C  50.92000 21.38500 43.70700
C  55.63100 22.73000 43.44500
C  54.54800 27.34700 44.62100
N  50.62300 23.83100 43.70500
C  49.66200 24.68300 43.78800
C  48.28300 23.96800 43.74100
C  48.64100 22.48800 44.06900
C  50.11300 22.53200 43.83200
C  48.35200 22.03700 45.53900
C  47.44700 24.09100 42.42400
C  48.05700 23.45600 41.15600
H  47.92200 24.23200 39.78600
N  53.17600 22.32900 43.70800
C  52.28300 21.28600 43.66100
C  53.03000 20.09200 43.37700
C  54.37500 20.40100 43.24100
C  54.44600 21.87600 43.46500
C  52.31500 18.73300 43.41400
C  55.51700 19.42400 43.05000
O  55.28400 18.19200 43.10200
C  56.90100 19.81400 42.76500
N  54.77000 24.93900 43.77000
C  55.79700 24.06900 43.64800
C  57.21200 24.79100 43.66600
C  56.82800 26.30800 43.92100
C  55.28800 26.22600 44.09800
C  58.25300 24.09300 44.61700
C  57.25900 27.25300 42.84200
C  58.17000 28.31700 43.27700
N  52.32900 26.32300 44.46900
C  53.11800 27.41700 44.72300
C  52.18300 28.63400 44.93200
C  50.95400 28.17200 44.56000
C  51.08400 26.81000 44.28000
C  52.64900 30.01300 45.25100
C  49.55100 28.52300 44.49000
O  48.81400 29.45600 44.81100
C  48.83600 27.22800 44.03100
C  48.31900 27.58900 42.70100
O  48.82800 27.24600 41.62100
O  47.02700 28.08500 42.77900
C  46.28300 28.41300 41.56900
H  50.45000 20.40800 43.57500
H  56.56700 22.20700 43.23600
H  55.12100 28.27500 44.67000
H  47.69700 24.35100 44.57700
H  48.21100 21.84100 43.30500
H  48.94600 22.55700 46.29000
H  48.60800 20.97900 45.60700
H  47.30700 22.32300 45.65700
H  47.21200 25.15400 42.36600
H  46.49600 23.56400 42.49100
H  47.76200 22.41700 41.00700
H  49.13900 23.48700 41.28100
H  52.91600 17.87600 43.10900
H  51.45600 18.74900 42.74300
H  51.82200 18.51700 44.36100
H  57.52200 18.97100 42.46100
H  57.43300 20.32000 43.57000
H  56.83400 20.49900 41.92000
H  57.65000 24.71000 42.67000
H  57.25200 26.52100 44.90200
H  59.05500 23.61800 44.05200
H  57.82300 23.33300 45.27000
H  58.79400 24.85500 45.17700
H  56.35300 27.68400 42.41500
H  57.64600 26.67800 42.00100
H  57.70900 29.26000 42.98600
H  59.21600 28.33800 42.96900
H  58.13200 28.35400 44.36600
H  53.00300 30.55100 44.37200
H  53.38600 29.90300 46.04700
H  51.79600 30.59900 45.59400
H  48.08300 27.04100 44.79700
H  45.21700 28.26400 41.74000
H  46.53600 27.94200 40.61900
H  46.34800 29.47900 41.35000
Mg 6.46500 56.95000 42.38700
C  5.67200 53.46100 42.16400
C  9.23600 56.37800 40.57000
C  6.88800 60.19800 42.34900
C  3.22100 57.38000 43.71700
N  7.19100 55.13400 41.28800
C  6.82100 53.83800 41.43100
C  7.77800 52.87800 40.60600
C  9.08400 53.79700 40.57900
C  8.51600 55.23800 40.78200
C  10.18400 53.56200 41.66800
C  7.30200 52.57700 39.17300
C  7.69900 51.19700 38.56200
H  6.85200 50.54600 37.53500
N  7.78300 58.23500 41.40700
C  8.94700 57.74800 40.77100
C  9.80000 58.83900 40.59900
C  9.16700 59.98600 41.08800
C  7.87600 59.55800 41.67100
C  11.05800 58.79700 39.72000
C  9.59900 61.47800 40.90800
O  10.57400 61.74000 40.25700
C  8.81900 62.63600 41.43000
N  5.11500 58.56300 42.72800
C  5.59400 59.79200 42.68300
C  4.57900 60.80500 43.03300
C  3.38100 59.92300 43.46400
C  3.87500 58.49700 43.21800
C  5.03800 61.77800 44.14400
C  2.10200 60.28400 42.74000
C  0.88500 60.49500 43.58800
N  4.83100 55.69100 43.05700
C  3.67700 56.03900 43.63600
C  3.07300 54.80900 44.15700
C  3.82100 53.70800 43.60400
C  4.89100 54.31400 42.90600
C  1.82800 54.71700 44.90600
C  3.92200 52.24900 43.45800
O  3.19100 51.39100 43.88400
C  5.19100 52.06500 42.58000
C  4.85400 51.18100 41.44300
O  4.13500 51.48800 40.53500
O  5.29300 49.90400 41.63500
C  4.94800 48.78800 40.81000
H  10.20300 56.20800 40.09100
H  7.16400 61.23700 42.54400
H  2.23000 57.38400 44.17500
H  7.98100 51.94900 41.14000
H  9.58600 53.77000 39.61200
H  11.08100 53.15800 41.19900
H  9.84800 52.82500 42.39700
H  10.55400 54.47800 42.12900
H  7.83600 53.25500 38.50700
H  6.23800 52.81500 39.15600
H  7.70300 50.57600 39.45800
H  8.75500 51.28600 38.30600
H  11.04700 59.57600 38.95700
H  11.13100 57.92500 39.07000
H  12.02000 58.90300 40.22200
H  8.76500 62.56700 42.51700
H  7.87300 62.42000 40.93400
H  9.30000 63.54300 41.06400
H  4.42600 61.23400 42.04300
H  3.15300 60.02200 44.52500
H  5.98700 61.58000 44.64100
H  4.27600 62.04900 44.87500
H  5.05200 62.71500 43.58700
H  1.68100 59.42600 42.21700
H  2.17000 61.15000 42.08100
H  0.46000 61.48600 43.42400
H  1.27900 60.46300 44.60400
H  0.07900 59.78100 43.41600
H  1.97800 53.97800 45.69200
H  1.04600 54.19800 44.35100
H  1.44300 55.60000 45.41700
H  5.90000 51.40600 43.08200
H  3.99500 48.28200 40.96300
H  5.64000 47.95300 40.91400
H  5.09600 49.07900 39.77000

