158

Mg -1.99300 17.21300 26.46400
C  -2.20200 14.92700 29.08600
C  -2.87100 19.69100 28.63400
C  -2.10000 19.35800 23.88800
C  -1.67800 14.54200 24.19900
N  -2.63000 17.27200 28.62900
C  -2.51500 16.27000 29.53300
C  -2.54600 16.81100 30.96600
C  -3.02300 18.34600 30.70100
C  -2.89400 18.49000 29.23100
C  -4.43000 18.66900 31.23400
C  -1.14900 16.63400 31.64600
C  -1.02200 17.50600 32.95900
H  -1.09100 16.70800 34.29700
N  -2.30600 19.28700 26.37800
C  -2.63500 20.11500 27.30100
C  -2.56700 21.46200 26.88600
C  -2.45100 21.41300 25.45000
C  -2.29200 19.94900 25.19200
C  -2.65200 22.68500 27.68700
C  -2.38100 22.47200 24.39700
O  -2.34500 22.22200 23.19800
C  -2.34000 23.96200 24.82900
N  -1.99800 16.90600 24.34400
C  -2.00500 18.04000 23.51100
C  -1.95600 17.59600 21.99200
C  -1.49600 16.02900 22.20500
C  -1.64300 15.81600 23.72400
C  -3.37000 17.77700 21.36000
C  -0.07700 15.87300 21.66500
C  1.10900 16.45800 22.45500
N  -2.01700 15.18800 26.61700
C  -1.84800 14.21700 25.57400
C  -1.96100 12.87500 26.09300
C  -2.04500 13.11600 27.51100
C  -2.07200 14.55600 27.72700
C  -1.82900 11.68200 25.27000
C  -2.13900 12.44000 28.82800
O  -2.06500 11.21900 29.16900
C  -2.30200 13.64300 29.95700
C  -1.31200 13.35300 30.94400
O  -0.09100 13.42800 30.83600
O  -1.91800 12.84500 32.06200
C  -1.04800 12.54700 33.19600
H  -3.05900 20.47500 29.37000
H  -2.07300 19.91200 22.94800
H  -1.41800 13.78500 23.45600
H  -3.28100 16.29500 31.58300
H  -2.25300 19.05200 31.01200
H  -4.41700 19.16200 32.20700
H  -4.99700 17.80100 31.56900
H  -4.99600 19.36300 30.61200
H  -0.42600 16.95600 30.89500
H  -0.90700 15.60800 31.92200
H  -1.93500 18.07200 33.14600
H  -0.18700 18.20500 33.00700
H  -2.50000 22.51800 28.75400
H  -3.63000 23.16000 27.62400
H  -1.83600 23.35100 27.40600
H  -1.44800 24.13300 25.43200
H  -3.28100 24.15900 25.34300
H  -2.07900 24.58600 23.97500
H  -1.17600 18.08400 21.40800
H  -2.16500 15.46800 21.55200
H  -3.28900 18.43900 20.49800
H  -4.01100 18.27100 22.09000
H  -3.79600 16.81700 21.06800
H  0.08300 16.22200 20.64500
H  0.00300 14.79000 21.57200
H  1.76000 17.02000 21.78600
H  1.78300 15.72200 22.89400
H  0.78300 17.15000 23.23200
H  -1.30100 11.85600 24.33200
H  -2.89000 11.49100 25.10600
H  -1.31600 10.92400 25.86200
H  -3.30700 13.41900 30.31400
H  -1.65900 12.04700 33.94800
H  -0.83100 13.54700 33.57200
H  -0.10200 12.03100 33.02800
Mg -8.87600 18.45000 42.11700
C  -5.36700 17.91400 42.18400
C  -8.34500 21.65000 41.24900
C  -12.11200 18.65800 41.64500
C  -9.25200 14.94200 42.42600
N  -7.03100 19.63400 41.76000
C  -5.75800 19.18200 41.72100
C  -4.85400 20.38700 41.30000
C  -5.74800 21.60400 40.96800
C  -7.12200 20.95600 41.38100
C  -5.44000 22.88700 41.86800
C  -3.79300 19.96700 40.34100
C  -4.32700 19.20400 39.03200
H  -4.12900 19.76000 37.64500
N  -10.09100 20.00500 41.66000
C  -9.71400 21.28000 41.33500
C  -10.84400 22.08900 41.21600
C  -11.98200 21.28000 41.44700
C  -11.46200 19.90900 41.51800
C  -10.86300 23.60200 41.06700
C  -13.49300 21.67900 41.47300
O  -13.84900 22.81300 41.31700
C  -14.59700 20.74500 42.03400
N  -10.44300 17.00600 41.98000
C  -11.67600 17.34100 41.80800
C  -12.58800 16.17300 41.88400
C  -11.69600 14.95100 42.16100
C  -10.31400 15.65000 42.22800
C  -13.65300 16.37300 42.99800
C  -11.78600 13.73700 41.19300
C  -13.16200 13.36400 40.60600
N  -7.58000 16.74300 42.35800
C  -7.92500 15.44100 42.53300
C  -6.70500 14.64700 42.69500
C  -5.66700 15.59500 42.58900
C  -6.24300 16.83000 42.37100
C  -6.50100 13.22300 42.79100
C  -4.23800 15.78800 42.59500
O  -3.35600 14.95000 42.78600
C  -3.93000 17.33000 42.43300
C  -3.40000 17.78100 43.72100
O  -2.25200 18.14200 43.91700
O  -4.38100 17.54700 44.66400
C  -3.81200 17.51900 45.99300
H  -8.05600 22.64500 40.90400
H  -13.16700 18.76900 41.38700
H  -9.40600 13.86200 42.47200
H  -4.29600 20.67500 42.19100
H  -5.60000 21.81900 39.91000
H  -4.49300 22.78400 42.39800
H  -6.22900 23.00000 42.61100
H  -5.42700 23.79400 41.26200
H  -2.88700 19.62900 40.84300
H  -3.46500 20.92900 39.94600
H  -5.39700 19.01400 39.12100
H  -3.82800 18.23600 39.07000
H  -11.66600 23.99000 40.44000
H  -9.90900 23.81400 40.58500
H  -10.90200 24.15000 42.00800
H  -14.25300 20.20700 42.91700
H  -14.99600 20.05200 41.29300
H  -15.45400 21.34800 42.33500
H  -13.06300 16.05700 40.91000
H  -11.81300 14.61100 43.19000
H  -14.59300 16.41100 42.44700
H  -13.47100 17.32000 43.50500
H  -13.75400 15.58300 43.74200
H  -11.61900 12.85600 41.81200
H  -10.99300 13.72300 40.44500
H  -13.16700 13.59500 39.54100
H  -13.89100 13.92600 41.19100
H  -13.36800 12.33900 40.91300
H  -5.62800 13.12800 42.14500
H  -7.35700 12.70800 42.35600
H  -6.37600 12.93200 43.83400
H  -3.24200 17.65000 41.65000
H  -2.93900 16.87600 45.88300
H  -4.53100 17.12900 46.71400
H  -3.44000 18.49000 46.32000

