158

Mg 24.44200 -6.29500 45.62400
C  26.46100 -3.62300 44.68100
C  21.90100 -4.90600 43.82600
C  22.67300 -9.10600 46.07500
C  27.08100 -7.55100 47.41300
N  24.26900 -4.47300 44.41500
C  25.24600 -3.60100 44.06900
C  24.62700 -2.43000 43.24800
C  23.09500 -2.81200 43.20400
C  23.07600 -4.18400 43.79400
C  22.16600 -1.81200 43.91800
C  25.34100 -2.11400 41.83000
C  24.78900 -0.97200 40.99000
H  24.10600 -1.27500 39.67200
N  22.56600 -6.89800 45.06200
C  21.66300 -6.16900 44.42300
C  20.44300 -6.95200 44.39600
C  20.66200 -8.17900 44.96700
C  22.05900 -8.08800 45.41900
C  19.28400 -6.42500 43.68400
C  19.52200 -9.27800 45.01000
O  18.40000 -9.08900 44.55300
C  19.92600 -10.70600 45.54300
N  24.97400 -8.17900 46.39600
C  24.01800 -9.14800 46.57600
C  24.59000 -10.38300 47.22400
C  25.83000 -9.79500 47.93700
C  25.96000 -8.41400 47.18500
C  23.59300 -11.13100 48.13000
C  27.08100 -10.57000 47.76400
C  28.10400 -10.36700 48.93800
N  26.39800 -5.74100 45.98700
C  27.36700 -6.32000 46.79600
C  28.52600 -5.41700 46.89500
C  28.28300 -4.37200 46.02000
C  26.93900 -4.64000 45.52400
C  29.74200 -5.65200 47.72900
C  28.74800 -3.05100 45.41300
O  29.79900 -2.45300 45.54500
C  27.60000 -2.64600 44.49000
C  27.20500 -1.17300 44.76900
O  26.34300 -0.80400 45.53100
O  27.91600 -0.41500 43.89200
C  27.49100 1.00400 43.79200
H  21.06900 -4.36200 43.37300
H  22.16700 -10.07000 46.15900
H  27.74300 -7.93900 48.18900
H  24.69600 -1.53500 43.86500
H  22.75900 -3.02000 42.18800
H  21.65400 -2.31300 44.73900
H  21.50500 -1.40600 43.15200
H  22.58900 -0.91000 44.36100
H  25.41300 -2.97000 41.15800
H  26.39600 -1.90800 42.00800
H  25.66300 -0.36900 40.74100
H  24.04700 -0.41900 41.56600
H  19.20900 -5.35300 43.50100
H  18.35300 -6.56900 44.23200
H  19.04300 -6.93800 42.75300
H  19.06100 -11.36500 45.46500
H  20.19000 -10.65200 46.60000
H  20.78000 -11.12700 45.01200
H  24.93900 -10.92900 46.34800
H  25.58900 -9.53100 48.96700
H  23.46900 -12.16200 47.79800
H  22.70400 -10.52100 48.28600
H  24.08800 -11.35100 49.07600
H  27.55300 -10.21200 46.84900
H  26.89700 -11.64100 47.68500
H  29.13000 -10.16400 48.62900
H  28.27800 -11.28300 49.50300
H  27.79600 -9.65900 49.70700
H  29.42700 -5.60700 48.77100
H  30.57400 -4.98000 47.51600
H  29.99800 -6.70700 47.63200
H  27.91700 -2.73500 43.45100
H  26.50200 1.09500 43.34200
H  28.17600 1.56900 43.16000
H  27.59200 1.33600 44.82600
Mg -10.47800 38.43800 41.91400
C  -8.78600 35.68400 40.63400
C  -8.29600 40.43100 39.93500
C  -12.33900 41.20600 42.58600
C  -12.98900 36.45600 43.12800
N  -8.80200 38.11200 40.31800
C  -8.29400 36.86000 40.06700
C  -7.18000 36.93400 38.88100
C  -6.98800 38.49000 38.84600
C  -8.04400 39.10300 39.79700
C  -5.50500 38.93000 39.27400
C  -7.49800 36.17500 37.59200
C  -6.24300 35.43300 36.99200
H  -5.66100 36.08500 35.75800
N  -10.20400 40.51600 41.54000
C  -9.23300 41.10000 40.71400
C  -9.33500 42.51000 40.89500
C  -10.55700 42.79300 41.60500
C  -11.08400 41.50100 41.96300
C  -8.26100 43.42900 40.33100
C  -11.11100 44.19400 41.79300
O  -10.43500 45.14200 41.34000
C  -12.48600 44.56800 42.24000
N  -12.45200 38.76100 42.53200
C  -12.94700 40.01700 42.87700
C  -14.30400 39.91700 43.44600
C  -14.48100 38.40300 43.75200
C  -13.20100 37.83900 43.15100
C  -14.74900 40.81300 44.61800
C  -15.83100 37.71000 43.28200
C  -16.86500 37.46600 44.42400
N  -10.82800 36.49000 42.01500
C  -11.85600 35.82900 42.58400
C  -11.49300 34.41400 42.55900
C  -10.28100 34.33700 41.89300
C  -9.96200 35.62600 41.48500
C  -12.40000 33.29400 42.94600
C  -9.32100 33.41600 41.31300
O  -9.19200 32.20400 41.36900
C  -8.30100 34.26000 40.49900
C  -6.99500 33.94600 41.30900
O  -6.36400 32.91900 41.18700
O  -6.70900 35.06000 42.11400
C  -5.49400 34.93900 42.86900
H  -7.61500 41.01700 39.31500
H  -13.04000 41.96700 42.93700
H  -13.60900 35.71100 43.63100
H  -6.30200 36.49700 39.35600
H  -7.14300 38.89500 37.84600
H  -4.95400 38.08200 39.68100
H  -5.56700 39.75900 39.97900
H  -4.95700 39.29200 38.40400
H  -7.82900 36.91400 36.86200
H  -8.28600 35.45900 37.82400
H  -6.42400 34.37800 36.78600
H  -5.44800 35.42700 37.73800
H  -8.56600 43.89200 39.39200
H  -7.34000 42.84700 40.34200
H  -8.17800 44.15100 41.14300
H  -12.60700 44.59500 43.32300
H  -13.26000 43.91800 41.83200
H  -12.68500 45.56400 41.84600
H  -14.89800 40.17100 42.56700
H  -14.42700 38.33800 44.83900
H  -13.89600 41.19200 45.18000
H  -15.47000 40.25700 45.21700
H  -15.28500 41.67800 44.22500
H  -15.60700 36.76300 42.79200
H  -16.24800 38.35500 42.50900
H  -16.89000 36.41200 44.70100
H  -17.85400 37.87700 44.22200
H  -16.54100 37.99000 45.32300
H  -13.28500 33.14100 42.32900
H  -12.59800 33.26800 44.01700
H  -11.79700 32.39300 42.82600
H  -8.25900 33.93700 39.45900
H  -4.86200 35.79100 42.62000
H  -4.89000 34.05100 42.68100
H  -5.91800 34.92600 43.87300

