158

Mg 17.02800 -1.29100 27.57500
C  16.00500 0.83800 30.12900
C  19.11100 -2.90300 29.68900
C  18.50800 -2.73900 24.84100
C  15.30300 0.87700 25.28700
N  17.64100 -0.90800 29.56500
C  17.00200 -0.08800 30.51800
C  17.29000 -0.51300 31.94000
C  18.46900 -1.52900 31.74100
C  18.54500 -1.73900 30.17900
C  19.85500 -1.05000 32.31800
C  16.06400 -1.21800 32.68200
C  15.81500 -0.69800 34.12600
H  16.90100 0.15100 34.82900
N  18.49900 -2.75600 27.34200
C  19.14400 -3.34000 28.35100
C  19.96300 -4.36800 27.81100
C  19.84900 -4.33300 26.34700
C  18.93900 -3.21700 26.10600
C  20.84100 -5.34400 28.60000
C  20.54200 -5.18500 25.31100
O  20.28200 -5.04800 24.11100
C  21.53300 -6.30300 25.69100
N  16.97000 -0.89200 25.37400
C  17.65000 -1.69700 24.52600
C  17.61000 -1.08800 23.11100
C  16.31700 -0.24400 23.18100
C  16.17100 -0.07600 24.66400
C  18.88400 -0.31400 22.70400
C  15.11900 -0.94400 22.62500
C  14.96600 -0.63000 21.07100
N  15.78600 0.48900 27.63600
C  15.14000 1.24600 26.71200
C  14.32800 2.19400 27.41700
C  14.59600 2.05600 28.76900
C  15.56000 1.10300 28.82400
C  13.42100 3.24300 26.82700
C  14.31100 2.56100 30.07800
O  13.53400 3.45200 30.41400
C  15.30000 1.89400 31.05200
C  16.17600 3.07300 31.50400
O  16.77800 3.85900 30.76600
O  16.16900 3.20800 32.88800
C  16.74700 4.47600 33.34700
H  19.70200 -3.35200 30.48900
H  18.92500 -3.18200 23.93400
H  14.70500 1.48700 24.60600
H  17.77600 0.33400 32.42300
H  18.19200 -2.47900 32.19800
H  20.37200 -0.42100 31.59300
H  20.39900 -1.97400 32.51000
H  19.62600 -0.50600 33.23500
H  16.10400 -2.27500 32.94500
H  15.19000 -1.03500 32.05700
H  15.68600 -1.53700 34.80900
H  14.87500 -0.14700 34.13000
H  21.87700 -5.12200 28.34400
H  20.66200 -6.36800 28.27200
H  20.64800 -5.32700 29.67200
H  21.12100 -7.05200 26.36700
H  22.42800 -5.91000 26.17200
H  21.67300 -6.78500 24.72300
H  17.36600 -1.91400 22.44200
H  16.36800 0.76000 22.76000
H  19.75800 -0.29900 23.35500
H  18.57400 0.69300 22.42500
H  19.29700 -0.72000 21.78100
H  14.20900 -0.81200 23.21000
H  15.29200 -2.01500 22.73500
H  14.02200 -0.10700 20.91600
H  15.04000 -1.57000 20.52500
H  15.89500 -0.16000 20.75000
H  12.86400 2.82300 25.99000
H  13.97800 4.06500 26.37800
H  12.70500 3.49300 27.61000
H  14.71700 1.36400 31.80500
H  17.65400 4.76700 32.81800
H  16.77600 4.55100 34.43400
H  16.06100 5.28400 33.08800
Mg 47.48100 16.06300 29.00300
C  45.22600 15.63500 31.57100
C  49.44400 18.02200 31.07700
C  49.17800 17.21700 26.35700
C  44.96800 14.89200 26.76500
N  47.26000 16.85400 31.06300
C  46.41100 16.32600 31.95800
C  46.66800 16.87200 33.38900
C  47.94800 17.79200 33.19800
C  48.23400 17.63200 31.70700
C  47.75500 19.25300 33.63200
C  46.99800 15.67500 34.34000
C  46.16600 15.72900 35.63300
H  45.90600 17.04500 36.38000
N  49.25300 17.14000 28.82300
C  49.92900 17.78800 29.77500
C  51.23200 18.16200 29.24000
C  51.13800 17.94200 27.83600
C  49.82400 17.31200 27.59800
C  52.28300 18.72400 30.00900
C  52.20100 18.37600 26.72300
O  51.89500 18.33900 25.54800
C  53.62000 18.73600 27.15700
N  47.14500 16.01900 26.94800
C  47.92500 16.66900 26.08000
C  47.44200 16.55100 24.68100
C  46.35500 15.43200 24.73100
C  46.10300 15.44200 26.25000
C  46.77100 17.85100 24.21200
C  46.77000 14.04100 24.00800
C  46.37000 12.69500 24.66700
N  45.53600 15.28700 29.06900
C  44.64600 14.90100 28.14300
C  43.46800 14.36000 28.72700
C  43.66400 14.64900 30.09100
C  44.92500 15.15300 30.25800
C  42.20800 13.94900 28.08600
C  42.97000 14.55600 31.39000
O  41.87500 14.14800 31.69900
C  43.97200 15.28100 32.43500
C  43.18100 16.44800 32.97800
O  43.06800 17.55800 32.47500
O  42.69400 16.15300 34.18600
C  41.95400 17.18200 34.83800
H  49.86100 18.69700 31.82700
H  49.70600 17.57100 25.46900
H  44.21100 14.63400 26.02100
H  45.77600 17.42400 33.68700
H  48.75000 17.38200 33.81300
H  48.70100 19.49600 34.11600
H  46.96500 19.55800 34.31800
H  47.65200 19.81900 32.70600
H  48.04800 15.55200 34.60600
H  46.72900 14.71500 33.90000
H  46.76500 15.09500 36.28700
H  45.25400 15.19100 35.37300
H  52.68400 19.61700 29.52900
H  53.10900 18.07200 30.29500
H  51.89100 18.99700 30.98800
H  53.93700 18.00000 27.89500
H  53.63300 19.71100 27.64500
H  54.23800 18.77000 26.26000
H  48.20400 16.29400 23.94500
H  45.46500 15.73300 24.18000
H  47.19300 18.65700 24.81400
H  45.70500 17.93300 24.42500
H  47.01800 17.94800 23.15500
H  47.85300 13.99900 23.89300
H  46.37700 13.98300 22.99300
H  45.37400 12.76900 25.10300
H  46.97800 12.20100 25.42600
H  46.30400 12.07900 23.77100
H  42.08100 14.58100 27.20700
H  41.38000 14.00600 28.79200
H  42.27400 12.88400 27.86200
H  44.31600 14.53900 33.15500
H  42.53800 18.10100 34.78200
H  41.92300 16.80800 35.86100
H  40.93900 17.19200 34.43900

