158

Mg 30.63100 59.09400 40.90800
C  28.19500 57.13700 39.45700
C  33.02000 56.85000 39.64200
C  33.13500 61.39200 41.47900
C  28.28700 61.56800 41.35600
N  30.62200 57.18800 39.68500
C  29.48100 56.63600 39.27300
C  29.82200 55.46500 38.38000
C  31.34900 55.15900 38.67400
C  31.72900 56.42000 39.43000
C  31.71200 53.97900 39.64500
C  29.56700 55.72900 36.90800
C  28.67200 54.67600 36.11700
H  27.69500 55.38600 35.11400
N  32.68500 59.05900 40.71400
C  33.48900 58.00700 40.23100
C  34.93200 58.29000 40.46100
C  34.97700 59.58600 41.08000
C  33.56000 60.05400 41.14600
C  35.95900 57.26600 40.02000
C  36.27700 60.29700 41.56600
O  37.38800 59.72500 41.48700
C  36.21500 61.54100 42.33800
N  30.74100 61.34400 41.13300
C  31.85900 61.98200 41.64400
C  31.48900 63.35400 42.31800
C  29.95400 63.37600 42.15700
C  29.62800 61.99500 41.51600
C  32.06800 63.39300 43.70700
C  29.24700 64.57200 41.35500
C  29.31900 64.62700 39.83800
N  28.59300 59.31800 40.64800
C  27.73600 60.35000 40.92500
C  26.36500 59.92300 40.57800
C  26.50300 58.65000 39.93900
C  27.90800 58.35200 40.05800
C  25.21700 60.80800 40.71700
C  25.78500 57.59400 39.29500
O  24.57200 57.44200 38.98900
C  26.93400 56.47500 39.02100
C  26.51000 55.22700 39.72200
O  26.97700 54.92500 40.81900
O  25.45900 54.64100 39.07800
C  25.02800 53.30100 39.64400
H  33.75000 56.10300 39.32300
H  33.96100 62.09000 41.63200
H  27.48100 62.29400 41.48100
H  29.18400 54.61900 38.63600
H  32.02600 55.23600 37.82400
H  32.19700 53.15600 39.12000
H  30.76000 53.68500 40.08800
H  32.44600 54.32300 40.37300
H  30.51900 55.81200 36.38400
H  29.34400 56.77800 36.71200
H  28.01700 54.02100 36.69100
H  29.35400 54.02600 35.56800
H  36.97500 57.56400 40.27700
H  35.94300 57.21400 38.93200
H  35.64900 56.27400 40.35100
H  37.22300 61.83900 42.62700
H  35.47000 61.61100 43.13100
H  35.91800 62.34700 41.66700
H  31.92800 64.24600 41.87100
H  29.52900 63.33600 43.16000
H  31.59700 62.66700 44.36900
H  31.68200 64.29000 44.19100
H  33.15700 63.38900 43.74900
H  29.70700 65.45200 41.80600
H  28.19500 64.54500 41.63900
H  29.50300 65.67300 39.59300
H  28.38300 64.20600 39.47100
H  30.16500 64.08100 39.42200
H  24.39600 60.22300 40.30200
H  25.20400 61.70700 40.10100
H  25.08400 61.21100 41.72100
H  26.94200 56.28900 37.94700
H  24.19400 52.93400 39.04400
H  24.76100 53.43400 40.69200
H  25.74300 52.48100 39.70600
Mg -10.73800 38.38800 40.59000
C  -8.84400 35.73900 39.53000
C  -8.18200 40.47300 39.24400
C  -12.80700 41.15800 40.59800
C  -13.15600 36.33900 41.76600
N  -8.72600 38.05700 39.45500
C  -8.24100 36.87700 39.05900
C  -6.76800 37.00900 38.54300
C  -6.56300 38.57300 38.63800
C  -7.91400 39.12000 39.15700
C  -5.33300 39.03600 39.41000
C  -6.70500 36.38800 37.07300
C  -5.36300 35.75200 36.68300
H  -4.87600 36.16200 35.26100
N  -10.43700 40.61600 40.10200
C  -9.31400 41.22700 39.69300
C  -9.55300 42.52200 39.48300
C  -10.94900 42.81100 39.77500
C  -11.49000 41.47600 40.14800
C  -8.47600 43.52900 39.08100
C  -11.66000 44.11700 39.61000
O  -11.08100 45.19000 39.50500
C  -13.17200 44.15500 39.71000
N  -12.58600 38.68700 40.94600
C  -13.24700 39.89100 40.93600
C  -14.76000 39.67200 41.26000
C  -14.85000 38.17200 41.53700
C  -13.40300 37.71200 41.49500
C  -15.37900 40.67500 42.23900
C  -15.76200 37.31600 40.59800
C  -17.17600 37.11200 41.08300
N  -10.92400 36.47300 40.81000
C  -11.93300 35.74300 41.36900
C  -11.51400 34.36000 41.53300
C  -10.30200 34.27900 40.72000
C  -9.98500 35.60700 40.28200
C  -12.21800 33.23300 42.29100
C  -9.25300 33.37300 40.26400
O  -9.03900 32.16600 40.37100
C  -8.31600 34.28600 39.40900
C  -6.93200 34.03500 40.05100
O  -6.07400 33.38700 39.48900
O  -6.74900 34.76100 41.18900
C  -5.32600 34.69900 41.70100
H  -7.43600 41.16400 38.84600
H  -13.42300 42.04600 40.75400
H  -13.95800 35.73600 42.19800
H  -6.16600 36.38700 39.20600
H  -6.29700 38.94200 37.64700
H  -4.76200 39.74600 38.81200
H  -4.65200 38.18600 39.46500
H  -5.73000 39.51800 40.30300
H  -6.88300 37.27800 36.47000
H  -7.51800 35.72100 36.78600
H  -5.44800 34.66500 36.67500
H  -4.60100 36.03600 37.40900
H  -8.28600 43.27300 38.03900
H  -7.60300 43.34600 39.70700
H  -8.69500 44.59300 39.17600
H  -13.34800 44.04500 40.78000
H  -13.58400 43.40100 39.04000
H  -13.58100 45.12600 39.43000
H  -15.30400 39.87600 40.33800
H  -15.22600 37.92600 42.53000
H  -15.75700 40.23500 43.16200
H  -16.17300 41.23100 41.74000
H  -14.63400 41.41200 42.54000
H  -15.28900 36.37000 40.33600
H  -15.98600 37.80400 39.64900
H  -17.52500 36.25500 40.50600
H  -17.76800 38.00600 40.88800
H  -17.23700 36.89300 42.14900
H  -11.89100 33.27300 43.33000
H  -11.79600 32.31100 41.89100
H  -13.28900 33.39300 42.16800
H  -8.36600 33.86000 38.40700
H  -4.90700 35.52100 42.28200
H  -4.63700 34.72600 40.85700
H  -5.19500 33.75300 42.22700

