158

Mg 17.30600 -1.43900 27.90900
C  16.40700 0.57000 30.55800
C  19.14500 -3.41900 30.20900
C  18.65700 -3.09700 25.36500
C  16.07800 0.92100 25.80900
N  17.80300 -1.35200 30.10800
C  17.26100 -0.47900 31.01000
C  17.63800 -0.80100 32.40800
C  18.65900 -1.96400 32.20600
C  18.52400 -2.27700 30.74000
C  20.09900 -1.60500 32.57700
C  16.58000 -1.05300 33.53500
C  16.80200 -0.37800 34.90200
H  18.12600 0.02200 35.38000
N  18.48100 -3.09200 27.82900
C  19.18800 -3.74500 28.81300
C  19.81800 -4.88700 28.28400
C  19.59300 -4.86500 26.91200
C  18.90000 -3.59700 26.65200
C  20.71100 -5.82100 29.09800
C  20.00200 -5.95900 25.85100
O  19.77900 -5.86200 24.66300
C  20.69500 -7.27100 26.37700
N  17.23000 -1.19900 25.82400
C  17.96500 -1.97200 25.00800
C  17.98200 -1.28500 23.58700
C  16.84900 -0.19800 23.61000
C  16.70300 -0.12200 25.13400
C  19.38000 -0.85000 23.07000
C  15.47600 -0.52800 22.91300
C  15.41000 -0.19300 21.38200
N  16.43800 0.34400 28.09700
C  15.94000 1.16800 27.18100
C  15.38100 2.42700 27.76300
C  15.55000 2.16700 29.11500
C  16.16500 0.90600 29.30500
C  14.61500 3.58000 27.10700
C  15.21900 2.72300 30.42000
O  14.55500 3.71000 30.73300
C  15.78300 1.70300 31.39000
C  16.77500 2.52100 32.23100
O  17.73500 3.07500 31.78400
O  16.33400 2.70100 33.56900
C  17.07200 3.65500 34.41600
H  19.74800 -4.02500 30.88900
H  19.13200 -3.63600 24.54200
H  15.67200 1.63600 25.09000
H  18.18300 0.10900 32.65700
H  18.42900 -2.87700 32.75600
H  20.56000 -2.41300 33.14500
H  20.13400 -0.70200 33.18600
H  20.76800 -1.47300 31.72600
H  16.33400 -2.10900 33.64500
H  15.67700 -0.60500 33.12000
H  16.32500 -1.03800 35.62700
H  16.34000 0.60700 34.96500
H  20.11600 -6.52300 29.68100
H  21.15000 -5.19300 29.87300
H  21.54400 -6.40900 28.71000
H  21.70600 -7.01400 26.69400
H  20.78100 -8.08100 25.65200
H  20.03400 -7.65500 27.15400
H  17.61800 -2.00400 22.85300
H  17.16300 0.77400 23.22900
H  19.38700 0.20200 22.78500
H  19.78300 -1.44200 22.24800
H  20.11200 -0.95000 23.87200
H  14.57700 -0.16400 23.40900
H  15.52000 -1.60800 23.05100
H  16.39400 0.15900 21.07100
H  14.58600 0.49200 21.18500
H  15.23100 -1.08500 20.78100
H  13.60100 3.27800 26.84800
H  15.06700 3.84400 26.15100
H  14.64600 4.47300 27.73200
H  15.03300 1.39900 32.12000
H  16.90200 4.67200 34.06100
H  18.12400 3.37700 34.35100
H  16.80900 3.51300 35.46400
Mg -2.81200 34.77700 25.73000
C  -3.95000 33.09100 28.78800
C  -1.48500 37.16500 27.90600
C  -2.17500 36.47300 23.03800
C  -4.66700 32.45900 24.00800
N  -2.56600 35.01500 28.14700
C  -3.18900 34.22400 29.14500
C  -2.73300 34.66300 30.50300
C  -2.16100 36.10700 30.19900
C  -1.97900 36.05500 28.67300
C  -3.11500 37.31300 30.67700
C  -1.70600 33.70500 31.24500
C  -2.29000 33.02700 32.62300
H  -1.30000 32.92600 33.79900
N  -1.98800 36.58600 25.52100
C  -1.43700 37.35700 26.51400
C  -0.70400 38.45500 25.85600
C  -0.92700 38.28700 24.41900
C  -1.65500 37.07900 24.26500
C  0.08300 39.52000 26.61400
C  -0.35200 39.08700 23.30900
O  -0.73500 38.96500 22.15900
C  0.68800 40.12100 23.58900
N  -3.53100 34.63200 23.82300
C  -3.12400 35.47100 22.77900
C  -3.50600 34.96200 21.46300
C  -4.31600 33.68100 21.76100
C  -4.10600 33.50900 23.28500
C  -4.35600 35.96300 20.51200
C  -3.84200 32.38100 20.98700
C  -2.69000 31.54500 21.67300
N  -4.00500 33.07600 26.22200
C  -4.57600 32.16000 25.36600
C  -5.15000 31.04200 26.06200
C  -4.85900 31.41300 27.42800
C  -4.29300 32.66300 27.46600
C  -5.79200 29.80900 25.48500
C  -5.07500 30.97700 28.79700
O  -5.59200 29.93700 29.17500
C  -4.49700 32.04500 29.80300
C  -5.65800 32.48600 30.57400
O  -6.67500 33.09000 30.20600
O  -5.38700 32.15600 31.83200
C  -6.35200 32.34600 32.85800
H  -1.06800 37.94900 28.54200
H  -1.79600 36.88600 22.10100
H  -4.87500 31.55500 23.43100
H  -3.63700 34.62100 31.11100
H  -1.21000 36.20600 30.72200
H  -4.04700 36.80600 30.92600
H  -3.14400 38.03000 29.85600
H  -2.66200 37.76900 31.55700
H  -0.74600 34.13400 31.53100
H  -1.46900 32.97200 30.47400
H  -2.84300 32.12000 32.37600
H  -3.01000 33.79900 32.89400
H  -0.43700 40.47500 26.53400
H  1.07400 39.46100 26.16400
H  0.13300 39.27800 27.67600
H  1.17300 40.29100 22.62800
H  1.42800 39.76900 24.30800
H  0.25500 41.09100 23.83400
H  -2.63200 34.68800 20.87300
H  -5.36600 33.83800 21.51600
H  -4.61300 36.84100 21.10400
H  -5.25900 35.48800 20.12800
H  -3.85700 36.32200 19.61200
H  -3.47000 32.76200 20.03600
H  -4.66900 31.71400 20.74400
H  -2.54000 31.71100 22.74000
H  -1.76900 31.80700 21.15300
H  -2.90300 30.49900 21.45300
H  -6.87800 29.89200 25.51800
H  -5.66400 28.85600 25.99800
H  -5.63700 29.68000 24.41400
H  -3.60200 31.73700 30.34300
H  -7.25200 32.89500 32.58300
H  -6.06300 32.69900 33.84800
H  -6.65600 31.32300 33.07900

