158

Mg 24.15200 -5.45400 45.29800
C  26.40300 -3.09500 43.85200
C  21.70500 -4.26300 43.12800
C  22.37500 -8.17300 45.96400
C  26.95800 -6.94200 46.86700
N  24.13600 -3.92700 43.70200
C  25.11800 -3.05100 43.27400
C  24.62300 -2.24500 42.04600
C  23.08100 -2.31400 42.27600
C  22.91000 -3.59000 43.04600
C  22.49700 -1.04900 42.82200
C  25.02900 -2.84300 40.68100
C  25.52100 -1.80000 39.64000
H  24.91600 -1.92500 38.24000
N  22.33400 -6.13700 44.64400
C  21.45200 -5.42300 43.86600
C  20.17200 -6.13300 43.85300
C  20.31900 -7.24100 44.69200
C  21.70000 -7.21900 45.16100
C  18.99900 -5.68600 43.07500
C  19.18300 -8.20500 45.15100
O  18.09900 -8.24300 44.69300
C  19.40800 -9.13400 46.26500
N  24.54100 -7.23900 46.28600
C  23.64900 -8.20800 46.49600
C  24.24700 -9.43100 47.20000
C  25.73600 -9.09100 47.44900
C  25.76200 -7.67200 46.77500
C  23.49500 -9.93100 48.51300
C  26.65800 -10.14500 46.84800
C  28.09900 -10.17100 47.33700
N  26.22000 -4.95600 45.68400
C  27.20400 -5.65100 46.34400
C  28.46700 -4.91600 46.17900
C  28.19200 -3.89800 45.18800
C  26.82700 -4.00000 44.90100
C  29.78800 -5.23200 46.82600
C  28.79000 -2.88800 44.36100
O  29.94900 -2.50200 44.33700
C  27.60800 -2.22700 43.43000
C  27.44100 -0.92700 43.93100
O  26.62900 -0.54300 44.79300
O  28.27700 -0.06900 43.25300
C  28.40400 1.28000 43.89400
H  20.91700 -3.86100 42.48600
H  21.97500 -9.18100 46.09500
H  27.74000 -7.38500 47.48600
H  24.96500 -1.23300 42.26500
H  22.43400 -2.40100 41.40300
H  23.29600 -0.45200 43.26200
H  21.76900 -1.22900 43.61300
H  22.04600 -0.51300 41.98700
H  24.29700 -3.54300 40.27900
H  25.97900 -3.36200 40.80200
H  26.59800 -1.87700 39.49000
H  25.18100 -0.80000 39.91000
H  18.09200 -6.29100 43.09200
H  19.24200 -5.56900 42.01900
H  18.74400 -4.69800 43.45700
H  18.42200 -9.30800 46.69500
H  19.98500 -8.68800 47.07500
H  19.81900 -10.05900 45.86000
H  24.16900 -10.31400 46.56500
H  25.89800 -8.93000 48.51500
H  23.08400 -10.92600 48.34100
H  22.69400 -9.24500 48.79000
H  24.17300 -10.03700 49.36000
H  26.74100 -9.91600 45.78500
H  26.27100 -11.16100 46.92400
H  28.23400 -11.24200 47.48400
H  28.09800 -9.65000 48.29400
H  28.91800 -10.00100 46.63700
H  30.38400 -6.09800 46.53800
H  29.70500 -5.37200 47.90400
H  30.28500 -4.26900 46.71600
H  27.85000 -2.36100 42.37500
H  28.98300 1.98600 43.29800
H  28.85100 1.09400 44.87100
H  27.45000 1.68300 44.23200
Mg -2.00200 33.77200 26.33300
C  -3.48900 32.25700 28.94000
C  -0.30300 35.78900 28.50600
C  -0.41800 35.15600 23.72300
C  -3.83800 31.84500 24.14100
N  -2.06400 34.05200 28.44400
C  -2.58500 33.28700 29.31900
C  -2.35400 33.62500 30.82400
C  -1.49000 34.92000 30.60300
C  -1.29400 34.96100 29.07000
C  -2.16100 36.24600 31.05800
C  -1.75900 32.44600 31.60900
C  -2.43700 32.12900 32.98500
H  -1.61500 31.91300 34.22400
N  -0.60700 35.39200 26.12200
C  0.07500 36.01200 27.15900
C  1.01400 36.96900 26.58900
C  0.92700 36.86100 25.11300
C  -0.05100 35.78800 24.94300
C  1.92400 37.86700 27.36600
C  1.58200 37.70000 23.98200
O  1.63000 37.33600 22.77800
C  2.28600 39.03100 24.39600
N  -2.16500 33.62900 24.25300
C  -1.39700 34.23600 23.40400
C  -1.70500 33.79200 21.95100
C  -2.48500 32.50600 22.17900
C  -2.87300 32.66500 23.63700
C  -2.35100 34.97600 21.18100
C  -1.56000 31.27000 21.94500
C  -2.26100 30.19700 21.07800
N  -3.44100 32.34000 26.43300
C  -4.11900 31.63500 25.45200
C  -4.97800 30.63900 26.14000
C  -4.82400 30.95000 27.51500
C  -3.85700 31.87600 27.61900
C  -5.94400 29.69600 25.41000
C  -5.23800 30.57600 28.81800
O  -6.13900 29.85300 29.20000
C  -4.44200 31.43800 29.83900
C  -5.39800 32.42200 30.52600
O  -5.68500 33.57900 30.18500
O  -5.97300 31.79800 31.61000
C  -6.64100 32.69200 32.47300
H  0.30800 36.41100 29.16400
H  0.28200 35.36200 22.91100
H  -4.22000 31.09900 23.44200
H  -3.29600 33.85500 31.32100
H  -0.58300 34.88500 31.20700
H  -1.57500 36.68500 31.86500
H  -3.13700 36.04600 31.49900
H  -2.21900 36.97800 30.25200
H  -0.69800 32.58000 31.82200
H  -1.69800 31.60300 30.92000
H  -2.99900 31.23300 32.72200
H  -3.18000 32.85400 33.31800
H  1.63700 38.91800 27.34000
H  2.91300 37.69800 26.93900
H  1.98600 37.49300 28.38800
H  2.68800 39.45200 23.47400
H  3.08800 38.97300 25.13200
H  1.44600 39.63900 24.73200
H  -0.77100 33.68200 21.39900
H  -3.37200 32.40800 21.55200
H  -3.36700 34.77100 20.84300
H  -1.81200 35.23300 20.26900
H  -2.39600 35.85600 21.82300
H  -1.39300 30.78500 22.90700
H  -0.60800 31.51400 21.47300
H  -2.09100 29.22000 21.53100
H  -1.93400 30.02200 20.05300
H  -3.33100 30.34300 20.93400
H  -6.17800 30.27900 24.51900
H  -6.76900 29.50400 26.09600
H  -5.53700 28.69900 25.24300
H  -4.05500 30.62500 30.45300
H  -7.53900 33.18100 32.09500
H  -6.10400 33.49000 32.98500
H  -7.11500 32.01600 33.18500

