158

Mg 16.06700 -1.95700 27.46000
C  15.07600 0.36700 29.87900
C  18.14400 -3.51300 29.78800
C  17.65900 -3.45100 25.04500
C  14.36600 0.11400 25.15400
N  16.70400 -1.40600 29.50800
C  16.01000 -0.54400 30.37500
C  16.47800 -0.81000 31.78000
C  17.68600 -1.82000 31.61600
C  17.46200 -2.33900 30.23400
C  19.07500 -1.22400 31.89300
C  15.37000 -1.40500 32.76300
C  15.67600 -1.12100 34.27000
H  16.92800 -0.41300 34.78800
N  17.48600 -3.51300 27.46200
C  18.26700 -3.96300 28.48000
C  19.15100 -5.03700 27.97600
C  18.90800 -5.08300 26.53500
C  17.99800 -4.00500 26.31300
C  19.94300 -5.95100 28.86400
C  19.38600 -6.14200 25.42900
O  18.91200 -6.17200 24.33300
C  20.40000 -7.25800 25.77100
N  15.99300 -1.67600 25.41100
C  16.79400 -2.42100 24.63700
C  16.64700 -2.00200 23.18400
C  15.31100 -1.14500 23.15200
C  15.14100 -0.91500 24.65300
C  17.87100 -1.10900 22.66000
C  14.08900 -1.79000 22.39000
C  13.32600 -0.85600 21.32000
N  14.77100 -0.20000 27.43400
C  14.15600 0.46600 26.46400
C  13.37900 1.55300 27.02000
C  13.61300 1.53200 28.37700
C  14.54700 0.47200 28.55000
C  12.53700 2.45000 26.20400
C  13.39800 2.15400 29.69100
O  12.56700 3.01200 29.92900
C  14.22300 1.33300 30.72800
C  15.02300 2.34400 31.43200
O  16.07600 2.85700 31.12600
O  14.33000 2.52700 32.61600
C  14.82600 3.48900 33.54400
H  18.82300 -4.06600 30.44100
H  18.17400 -3.84500 24.16600
H  13.78500 0.80700 24.54200
H  16.85200 0.14300 32.15400
H  17.62400 -2.69200 32.26700
H  18.89200 -0.15000 31.94800
H  19.68000 -1.50100 31.03000
H  19.43900 -1.53800 32.87200
H  15.35000 -2.48300 32.60700
H  14.45500 -0.99100 32.34000
H  15.75100 -2.14000 34.65100
H  14.86300 -0.57100 34.74300
H  19.56300 -6.96000 28.70600
H  19.91600 -5.66400 29.91500
H  20.96200 -6.00100 28.48000
H  20.55500 -7.75800 24.81500
H  19.99900 -8.05200 26.40100
H  21.27600 -6.82600 26.25500
H  16.55700 -2.93600 22.62900
H  15.52800 -0.17500 22.70500
H  18.65300 -0.93700 23.40000
H  17.53700 -0.14000 22.29100
H  18.28600 -1.68100 21.83000
H  13.41700 -2.12300 23.18000
H  14.40600 -2.69600 21.87400
H  13.43300 -1.36400 20.36100
H  13.85000 0.09300 21.21000
H  12.26700 -0.67900 21.50500
H  13.24900 3.20000 25.86000
H  11.74000 2.83000 26.84300
H  12.11900 1.96600 25.32100
H  13.51100 0.80000 31.35800
H  13.98200 4.14800 33.74800
H  15.72300 3.99700 33.19100
H  15.09600 2.93700 34.44400
Mg 27.08000 50.00900 26.63100
C  25.05400 51.14500 29.23900
C  29.27800 49.11800 28.85000
C  29.30300 49.67000 23.97100
C  24.98900 51.83300 24.33300
N  27.06300 50.13600 28.79600
C  26.15600 50.47700 29.75600
C  26.66500 50.29000 31.17900
C  28.13300 50.01100 30.91000
C  28.16500 49.76800 29.37100
C  29.03200 51.23800 31.27300
C  25.85200 49.25800 32.00100
C  25.11600 49.81300 33.19500
H  25.87400 50.08500 34.52200
N  28.98500 49.32400 26.49100
C  29.70100 48.86300 27.49700
C  30.96500 48.34700 26.99200
C  31.03300 48.57000 25.58100
C  29.75400 49.24300 25.29500
C  31.99700 47.67200 27.85700
C  32.11400 48.06000 24.64300
O  31.97200 48.31700 23.42000
C  33.35200 47.28200 25.18800
N  27.12400 50.64600 24.42000
C  28.09800 50.25900 23.53400
C  27.73600 50.44600 22.03000
C  26.36700 51.18600 22.25400
C  26.09300 51.18400 23.73800
C  28.69700 51.17800 21.13300
C  25.15300 50.68000 21.44100
C  24.37800 49.48800 22.00800
N  25.35000 51.16000 26.71500
C  24.58700 51.77900 25.68100
C  23.45600 52.54800 26.33200
C  23.60100 52.26500 27.68100
C  24.79300 51.47700 27.87500
C  22.42500 53.31100 25.59100
C  22.98400 52.51500 28.95800
O  21.96700 53.07400 29.21300
C  24.01400 51.90100 30.02700
C  24.66600 53.10200 30.66600
O  25.84100 53.46800 30.49400
O  23.90500 53.48000 31.71600
C  24.62200 54.47400 32.59600
H  29.94800 48.70600 29.60700
H  29.98400 49.46300 23.14300
H  24.29500 52.13700 23.54700
H  26.56300 51.23400 31.71300
H  28.52000 49.11300 31.39000
H  29.10300 51.94800 30.44900
H  30.01600 51.03700 31.69600
H  28.52600 51.78700 32.06700
H  26.53000 48.47900 32.35000
H  25.15800 48.73500 31.34300
H  24.32700 49.09900 33.42800
H  24.55100 50.72700 33.01500
H  32.01300 46.65200 27.47300
H  31.79900 47.58800 28.92500
H  32.87000 48.31700 27.76200
H  33.99700 47.20900 24.31300
H  32.93100 46.34600 25.55500
H  33.82400 47.91800 25.93700
H  27.58200 49.44500 21.62700
H  26.37700 52.25700 22.05500
H  28.32000 52.10500 20.70200
H  28.76300 50.59400 20.21500
H  29.60400 51.40100 21.69500
H  25.52600 50.51800 20.43000
H  24.37000 51.42900 21.32000
H  24.96800 48.94800 22.74900
H  24.28600 48.84700 21.13100
H  23.46600 49.86800 22.46800
H  22.28600 54.33700 25.93400
H  21.52700 52.69800 25.66700
H  22.70200 53.36400 24.53800
H  23.46600 51.46400 30.86200
H  25.50100 53.98500 33.01700
H  23.92800 54.85500 33.34500
H  24.93200 55.31700 31.98000

