158

Mg 44.60100 2.89200 47.26600
C  42.70400 5.69500 46.69300
C  41.92000 0.82000 46.53500
C  46.64800 0.19000 46.82400
C  47.49300 4.92100 47.13700
N  42.66600 3.30200 46.60000
C  41.96800 4.48700 46.60600
C  40.47100 4.33900 46.36800
C  40.28000 2.78400 46.50300
C  41.70300 2.22200 46.52800
C  39.53400 2.42200 47.92800
C  39.96400 4.93600 45.01200
C  40.53700 4.28000 43.70500
H  41.44900 5.12700 42.75700
N  44.35000 0.78000 46.88000
C  43.11600 0.16100 46.58600
C  43.33200 -1.27500 46.33900
C  44.70500 -1.53900 46.39100
C  45.35000 -0.16800 46.69800
C  42.22100 -2.32000 46.00700
C  45.38800 -2.82400 46.19500
O  44.84200 -3.90600 46.07300
C  46.88600 -3.02600 46.22500
N  46.77900 2.59700 47.07300
C  47.27900 1.41100 46.93500
C  48.75700 1.48900 47.18900
C  49.08300 2.93500 46.97500
C  47.72000 3.52000 47.07900
C  49.30800 0.95600 48.49800
C  49.89800 3.35300 45.71800
C  51.38200 3.68000 45.91600
N  45.02200 4.94300 47.15400
C  46.24700 5.60700 47.03600
C  46.00700 7.02200 46.95800
C  44.59700 7.15600 46.78200
C  44.07000 5.82100 46.87000
C  47.01300 8.17000 46.93100
C  43.47200 8.00100 46.49000
O  43.38100 9.25400 46.48100
C  42.21400 7.05900 46.60600
C  41.24800 7.46800 47.64800
O  41.23300 7.02800 48.82300
O  40.30600 8.30800 47.11000
C  39.02800 8.62100 47.81400
H  41.03100 0.18600 46.50300
H  47.27400 -0.68500 46.63800
H  48.35700 5.58500 47.20300
H  40.03400 4.95900 47.15100
H  39.72000 2.25200 45.73400
H  39.17900 3.29700 48.47300
H  40.14600 2.00000 48.72500
H  38.69700 1.77600 47.66200
H  40.14300 6.01000 44.95900
H  38.88800 4.77300 44.95900
H  39.74000 4.24200 42.96200
H  40.91300 3.27000 43.86900
H  41.29500 -1.85500 45.67000
H  41.91700 -2.88700 46.88600
H  42.32400 -3.03500 45.19100
H  47.47300 -2.46100 45.50100
H  47.15100 -4.06500 46.03300
H  47.14700 -2.70700 47.23400
H  49.17700 0.86400 46.40100
H  49.64800 3.23600 47.85800
H  48.43400 0.80500 49.13200
H  50.00700 1.52300 49.11300
H  49.69200 -0.02600 48.22100
H  49.40300 4.27500 45.41200
H  49.98700 2.48500 45.06400
H  51.60300 3.70900 46.98300
H  51.66100 4.64700 45.49600
H  52.07800 2.98800 45.44100
H  47.24300 8.33900 47.98300
H  46.57900 9.07800 46.51300
H  47.95100 7.86300 46.46900
H  41.61100 7.15800 45.70300
H  38.27700 8.14500 47.18300
H  38.76600 9.67900 47.81000
H  38.99500 8.30100 48.85600
Mg -10.27700 39.81300 42.51600
C  -9.27600 36.57400 41.50700
C  -7.30100 41.00800 41.32900
C  -11.55700 42.88900 42.53900
C  -13.44700 38.37800 42.85400
N  -8.67200 38.88900 41.30100
C  -8.41800 37.59800 41.08400
C  -6.95700 37.29800 40.45900
C  -6.33900 38.77100 40.49100
C  -7.51100 39.60000 41.18900
C  -4.95700 38.83900 41.16900
C  -6.90900 36.53000 39.08700
C  -5.66200 35.66400 38.90500
H  -4.83200 36.10000 37.73400
N  -9.48800 41.69500 42.09300
C  -8.21200 42.00200 41.65900
C  -7.97600 43.40200 41.73700
C  -9.16300 43.94200 42.21600
C  -10.13000 42.84500 42.30300
C  -6.70200 44.06400 41.30900
C  -9.39900 45.35000 42.66600
O  -8.50100 46.22400 42.55300
C  -10.67500 45.76200 43.39600
N  -12.21600 40.52700 42.75300
C  -12.49800 41.82200 42.63700
C  -14.02200 42.05100 42.83300
C  -14.65200 40.65600 43.00300
C  -13.40200 39.77600 42.78400
C  -14.37100 43.04900 43.94300
C  -15.77000 40.44800 41.95900
C  -16.91100 39.48400 42.32000
N  -11.19900 37.88600 42.56400
C  -12.47600 37.44200 42.87000
C  -12.49900 35.94500 43.00500
C  -11.24400 35.59600 42.52400
C  -10.52700 36.80400 42.20600
C  -13.66700 35.05500 43.16500
C  -10.32500 34.44400 42.14600
O  -10.51000 33.28300 42.17600
C  -9.02600 35.07300 41.53600
C  -7.83000 34.74100 42.43900
O  -7.52600 35.29600 43.46100
O  -7.06500 33.79500 41.79800
C  -5.79900 33.45600 42.56600
H  -6.28300 41.28500 41.04800
H  -11.97000 43.88500 42.36900
H  -14.44600 37.93700 42.87700
H  -6.48700 36.70900 41.24700
H  -6.27500 39.15300 39.47200
H  -4.26300 39.13700 40.38300
H  -4.67000 37.85500 41.53700
H  -4.84700 39.54000 41.99600
H  -6.80000 37.25100 38.27700
H  -7.74200 35.87600 38.83000
H  -5.98200 34.63200 38.75900
H  -5.15000 35.61100 39.86500
H  -6.66900 45.02000 40.78600
H  -6.31200 43.38900 40.54700
H  -5.93000 44.14800 42.07300
H  -11.44100 45.99600 42.65700
H  -10.42000 46.66100 43.95700
H  -10.94200 45.05700 44.18400
H  -14.29100 42.54100 41.89700
H  -15.04000 40.38100 43.98400
H  -13.68800 43.18000 44.78200
H  -15.18400 42.50800 44.42700
H  -14.71500 43.98700 43.50800
H  -15.29700 40.12600 41.03100
H  -16.31300 41.38700 41.85300
H  -17.89500 39.95200 42.34600
H  -16.81000 39.19700 43.36700
H  -16.99100 38.64100 41.63400
H  -13.41100 34.49600 44.06500
H  -13.83900 34.36700 42.33700
H  -14.53300 35.64700 43.45900
H  -8.91500 34.67700 40.52700
H  -5.17800 34.30400 42.27400
H  -5.28100 32.57700 42.18200
H  -5.99400 33.45100 43.63800

