158

Mg -2.20500 17.33600 25.98900
C  -2.61400 15.11200 28.58300
C  -2.77300 19.90900 28.09700
C  -2.02800 19.50100 23.29900
C  -1.84800 14.63600 23.80500
N  -2.64000 17.50900 28.08100
C  -2.77600 16.47900 28.96400
C  -3.27900 16.94100 30.35000
C  -3.21500 18.50700 30.16300
C  -2.89000 18.67300 28.68100
C  -4.46900 19.37900 30.61300
C  -2.47500 16.51900 31.58500
C  -2.60100 17.40700 32.85300
H  -2.70200 16.50800 34.10700
N  -2.34100 19.44900 25.75500
C  -2.64700 20.31000 26.74800
C  -2.55400 21.68900 26.28700
C  -2.09300 21.52800 24.92600
C  -2.18200 20.14600 24.64300
C  -2.87800 22.86500 27.19500
C  -1.67400 22.62300 24.00000
O  -1.32800 22.53000 22.82600
C  -1.58400 24.03600 24.49100
N  -2.16800 17.07300 23.80200
C  -2.00500 18.14600 22.94100
C  -1.86400 17.73400 21.50600
C  -1.59900 16.13300 21.69500
C  -1.83200 15.92600 23.22900
C  -3.05800 18.04200 20.59200
C  -0.20000 15.68700 21.23200
C  0.93400 15.75800 22.24200
N  -2.31200 15.27500 26.08900
C  -2.13200 14.28800 25.14400
C  -2.08600 13.02500 25.74300
C  -2.28800 13.25500 27.10800
C  -2.44300 14.65800 27.27800
C  -1.68900 11.69900 25.06700
C  -2.40500 12.62000 28.47100
O  -2.33300 11.45800 28.81000
C  -2.55200 13.84600 29.45300
C  -1.30600 13.85600 30.21800
O  -0.44300 14.72200 30.04600
O  -1.24400 12.81600 31.10100
C  -0.16700 12.89200 32.10800
H  -2.95100 20.66000 28.86900
H  -1.88100 20.21800 22.48800
H  -1.53800 13.86400 23.09700
H  -4.25500 16.53700 30.61900
H  -2.36300 18.91400 30.70700
H  -5.09600 19.59500 29.74800
H  -4.01300 20.27800 31.02600
H  -5.04800 18.85100 31.37000
H  -1.40800 16.43100 31.38100
H  -2.81200 15.49000 31.71200
H  -3.59600 17.85200 32.88600
H  -1.81700 18.16100 32.77200
H  -3.42000 23.61000 26.61200
H  -1.91500 23.20700 27.57600
H  -3.43900 22.63100 28.09900
H  -2.52100 24.59000 24.55400
H  -1.02300 24.62900 23.76900
H  -1.08800 23.93100 25.45600
H  -0.95000 18.21000 21.15100
H  -2.34500 15.46800 21.25900
H  -3.38600 17.11700 20.11800
H  -2.68300 18.67200 19.78400
H  -3.88400 18.50400 21.13300
H  0.15900 16.44200 20.53300
H  -0.25000 14.73900 20.69600
H  0.65200 16.20800 23.19400
H  1.87800 16.09400 21.81200
H  1.13400 14.72100 22.51300
H  -1.20100 11.80300 24.09800
H  -2.51100 11.04400 24.77800
H  -0.97600 11.27500 25.77500
H  -3.33700 13.79900 30.20900
H  -0.30900 13.71800 32.80500
H  0.74900 13.08800 31.55000
H  0.06800 12.00100 32.69000
Mg -1.71700 34.83100 26.81300
C  -3.21600 32.93500 29.38500
C  -0.67600 37.08300 29.13200
C  -0.57000 36.69500 24.25900
C  -3.25000 32.65800 24.46400
N  -1.91800 34.99200 28.98700
C  -2.52300 34.07100 29.83300
C  -2.37000 34.52100 31.34900
C  -1.67300 35.88700 31.16700
C  -1.42900 36.00400 29.65400
C  -2.45900 37.04600 31.75000
C  -1.41900 33.51300 32.07000
C  -1.90200 32.88200 33.37300
H  -0.85800 32.79500 34.48900
N  -0.66500 36.61600 26.66500
C  -0.29500 37.39100 27.77100
C  0.44800 38.51900 27.32800
C  0.46500 38.41200 25.87900
C  -0.28800 37.22600 25.49600
C  0.99400 39.59500 28.18000
C  1.13300 39.45400 24.87200
O  1.19000 39.18300 23.64800
C  1.92300 40.61100 25.38000
N  -1.94000 34.78300 24.60400
C  -1.31100 35.63900 23.80100
C  -1.53400 35.24000 22.34900
C  -2.33200 33.88000 22.41600
C  -2.52500 33.75200 23.94700
C  -2.31200 36.38300 21.53200
C  -1.81100 32.54600 21.73600
C  -0.50800 32.08600 22.29400
N  -3.03300 33.21300 26.81400
C  -3.58800 32.44500 25.81600
C  -4.38600 31.37500 26.40600
C  -4.27900 31.52700 27.78600
C  -3.42400 32.58200 28.06100
C  -5.18900 30.32600 25.60000
C  -4.68900 30.92500 29.11400
O  -5.38200 29.99400 29.37300
C  -3.87200 31.81400 30.18800
C  -4.96500 32.23900 31.12900
O  -5.52700 33.35300 31.08000
O  -5.10800 31.31700 32.17300
C  -6.08700 31.59400 33.20000
H  -0.50600 37.88400 29.85400
H  -0.05200 37.13400 23.40300
H  -3.73500 31.97400 23.76500
H  -3.39600 34.57600 31.71100
H  -0.65200 35.96500 31.54200
H  -3.31900 36.60400 32.25300
H  -2.88400 37.58300 30.90200
H  -1.80700 37.60500 32.42000
H  -0.42000 33.89900 32.27300
H  -1.25100 32.69200 31.37300
H  -2.05200 31.82300 33.16600
H  -2.83500 33.30200 33.75200
H  2.06000 39.65500 27.95900
H  0.88400 39.34500 29.23500
H  0.53700 40.54900 27.91900
H  1.14300 41.27200 25.75800
H  2.48000 40.96100 24.51100
H  2.61000 40.28600 26.16100
H  -0.56500 34.90600 21.97900
H  -3.31700 34.14600 22.03300
H  -2.73900 37.01800 22.30800
H  -3.07100 35.87000 20.94100
H  -1.55600 36.93300 20.97200
H  -1.67000 32.65300 20.66100
H  -2.57700 31.78700 21.89700
H  0.26200 32.08000 21.52200
H  -0.54100 31.06300 22.66900
H  -0.15800 32.73600 23.09600
H  -6.04300 30.70500 25.04000
H  -5.55300 29.51200 26.22700
H  -4.47500 29.87400 24.91100
H  -3.13300 31.23700 30.74400
H  -5.76200 32.43400 33.81500
H  -6.13600 30.73600 33.87100
H  -7.05300 31.90700 32.80300

