158

Mg 31.12600 58.45200 40.29600
C  28.18800 56.88500 39.44400
C  32.84500 55.58600 39.40200
C  33.96800 60.20100 39.86700
C  29.26600 61.38600 40.54300
N  30.60600 56.46300 39.47400
C  29.32100 56.03900 39.24800
C  29.37300 54.55100 38.83800
C  30.76000 54.13900 39.28000
C  31.48500 55.49500 39.37600
C  30.73900 53.45600 40.66100
C  29.07300 54.37600 37.31800
C  27.78000 53.77500 36.80000
H  27.04600 54.59100 35.74900
N  33.15400 57.94100 39.74300
C  33.64500 56.70600 39.43100
C  35.07500 56.78100 39.17300
C  35.40000 58.14400 39.28600
C  34.16300 58.80600 39.69000
C  35.89100 55.54000 38.81000
C  36.76000 58.75100 39.11800
O  37.72000 58.05300 38.81500
C  37.00800 60.16300 39.51800
N  31.56400 60.46800 40.27500
C  32.82000 60.96500 40.12600
C  32.77800 62.53600 40.03200
C  31.24600 62.88100 40.08300
C  30.61600 61.53500 40.44000
C  33.70600 63.36900 40.94200
C  30.60800 63.54300 38.75900
C  29.84800 64.87600 38.93800
N  29.05300 59.05800 40.22400
C  28.43700 60.25000 40.45600
C  27.03300 60.07600 40.34400
C  26.88200 58.75700 39.96000
C  28.15300 58.16600 39.95600
C  26.04900 61.18700 40.49700
C  25.94700 57.78300 39.47300
O  24.75700 57.97400 39.21200
C  26.72900 56.45000 39.26800
C  26.05600 55.45700 40.18900
O  26.13200 55.41500 41.37900
O  25.35900 54.55200 39.47200
C  24.57800 53.53900 40.18200
H  33.35500 54.63800 39.21900
H  34.74800 60.92500 39.62000
H  28.71800 62.28900 40.81800
H  28.64200 53.98400 39.41400
H  31.16800 53.51400 38.48600
H  30.01400 52.64500 40.72900
H  30.52900 54.15800 41.46700
H  31.72300 53.01000 40.81000
H  29.86000 53.77200 36.86600
H  29.26800 55.28800 36.75200
H  27.15600 53.75200 37.69300
H  28.04600 52.77900 36.44600
H  36.25400 55.79400 37.81500
H  35.36000 54.59200 38.73500
H  36.69400 55.44700 39.54200
H  36.67800 60.81900 38.71300
H  38.08800 60.30800 39.53500
H  36.69700 60.44000 40.52600
H  33.04000 62.71100 38.98800
H  31.00000 63.54100 40.91500
H  33.97300 62.70000 41.76000
H  33.18900 64.12800 41.52900
H  34.45600 63.98200 40.44200
H  29.91600 62.87800 38.24200
H  31.39400 63.78200 38.04300
H  29.94400 65.20800 39.97200
H  28.85500 64.81500 38.49300
H  30.38100 65.64100 38.37300
H  25.04700 60.84900 40.76100
H  26.04700 61.74000 39.55800
H  26.33500 61.73400 41.39500
H  26.66900 56.06700 38.24900
H  23.82200 53.83800 40.90900
H  25.29900 52.93200 40.72900
H  24.14600 52.87800 39.43100
Mg -5.31600 25.07300 25.66900
C  -4.09000 26.84100 28.55800
C  -6.87000 22.93100 28.00700
C  -6.22700 23.19000 23.07700
C  -3.26000 27.03600 23.73000
N  -5.55500 24.97300 28.05600
C  -4.88500 25.72300 28.94900
C  -5.27800 25.31600 30.39400
C  -5.95900 23.87600 30.16600
C  -6.10300 23.88500 28.68600
C  -5.24400 22.60000 30.68100
C  -6.25000 26.37000 30.99200
C  -6.73100 26.16100 32.37700
H  -6.23200 24.96700 33.20500
N  -6.41000 23.28700 25.54400
C  -7.14200 22.70600 26.55300
C  -8.04400 21.69500 25.96600
C  -7.78700 21.69400 24.55600
C  -6.80200 22.73800 24.31600
C  -9.10500 20.91100 26.80700
C  -8.40700 20.85400 23.47600
O  -7.98400 20.94000 22.33500
C  -9.48200 19.76900 23.86700
N  -4.79200 25.07000 23.74000
C  -5.29300 24.19900 22.79700
C  -4.85300 24.53000 21.34500
C  -4.05300 25.90900 21.66200
C  -3.98900 26.02800 23.11200
C  -4.04700 23.36600 20.64200
C  -4.74200 27.20400 21.19800
C  -3.79400 28.16300 20.47200
N  -3.88500 26.67200 25.98900
C  -3.16000 27.38300 25.09400
C  -2.54700 28.49600 25.72900
C  -2.77700 28.24000 27.13100
C  -3.62200 27.11000 27.28600
C  -1.84400 29.63300 24.99300
C  -2.50100 28.68400 28.43700
O  -1.81900 29.59000 28.95400
C  -3.33800 27.80900 29.44000
C  -2.36900 27.13700 30.43400
O  -1.43800 26.44600 30.03500
O  -2.79200 27.20700 31.71100
C  -1.94700 26.61000 32.78700
H  -7.36100 22.18000 28.63000
H  -6.56700 22.63400 22.20000
H  -2.67200 27.77100 23.17700
H  -4.34300 25.17000 30.93500
H  -6.89800 23.94100 30.71500
H  -4.52900 22.16200 29.98400
H  -5.93000 21.82800 31.03200
H  -4.69800 22.77200 31.60900
H  -7.14500 26.30600 30.37300
H  -5.81300 27.36400 30.88900
H  -7.81800 26.08300 32.34400
H  -6.47800 27.07100 32.92100
H  -9.35700 21.51100 27.68100
H  -8.67800 19.98700 27.19700
H  -10.10200 20.76900 26.38900
H  -9.04000 19.32500 24.75900
H  -9.58700 18.99800 23.10300
H  -10.42400 20.27300 24.08000
H  -5.67300 24.77500 20.67000
H  -3.01500 25.87100 21.32900
H  -2.97000 23.52000 20.58100
H  -4.36800 23.19900 19.61400
H  -4.22100 22.44200 21.19300
H  -5.21200 27.70500 22.04400
H  -5.54100 26.97200 20.49400
H  -4.28200 28.53300 19.57100
H  -2.89700 27.61800 20.18000
H  -3.45300 29.02000 21.05300
H  -1.83300 30.58700 25.52000
H  -2.30400 29.81900 24.02300
H  -0.78000 29.53400 24.77700
H  -4.03700 28.48700 29.92800
H  -2.06100 25.53200 32.67400
H  -2.24200 26.96900 33.77300
H  -0.92000 26.91300 32.58000

