158

Mg 16.78200 -0.97900 27.63600
C  16.11000 1.00200 30.54100
C  18.80900 -2.93400 29.72400
C  18.13500 -2.24900 24.93300
C  15.06500 1.37900 25.79300
N  17.39300 -0.88000 29.74800
C  16.96500 -0.01900 30.85100
C  17.45500 -0.42100 32.22300
C  18.45200 -1.60000 31.82700
C  18.23800 -1.83300 30.34100
C  19.90300 -1.44100 32.21700
C  16.31500 -0.71800 33.30800
C  16.33400 0.10400 34.66800
H  17.75700 0.63900 35.17300
N  18.22200 -2.42300 27.31400
C  18.80700 -3.22800 28.33800
C  19.58500 -4.23000 27.69100
C  19.40800 -4.09900 26.23100
C  18.54100 -2.88300 26.07700
C  20.32500 -5.33300 28.48900
C  19.91700 -4.83100 24.97800
O  19.62000 -4.62100 23.82500
C  21.04600 -5.87600 25.21300
N  16.66300 -0.52700 25.57700
C  17.38000 -1.14500 24.67900
C  17.16200 -0.49200 23.26800
C  15.98400 0.54900 23.56000
C  15.83700 0.42200 25.05200
C  18.48400 0.18300 22.65900
C  14.64700 0.19300 22.82200
C  14.73200 0.23900 21.23600
N  15.70200 0.74100 28.01700
C  15.03100 1.58800 27.19800
C  14.44700 2.66700 28.01100
C  14.80800 2.41800 29.30400
C  15.66600 1.32300 29.26300
C  13.68500 3.89500 27.43600
C  14.64200 2.85200 30.66200
O  13.91300 3.74600 31.04100
C  15.58000 2.03100 31.49400
C  16.44600 3.07700 32.08500
O  17.44500 3.55200 31.54600
O  15.90300 3.54100 33.24700
C  16.57700 4.64000 33.96600
H  19.45700 -3.55900 30.34100
H  18.76000 -2.58900 24.10400
H  14.45700 2.09100 25.23000
H  18.11100 0.32300 32.67400
H  18.19400 -2.59200 32.19700
H  20.58300 -1.90800 31.50500
H  20.16000 -2.05800 33.07800
H  20.11700 -0.38900 32.41000
H  16.41000 -1.80000 33.40100
H  15.42700 -0.41200 32.75500
H  15.88700 -0.51500 35.44600
H  15.62700 0.91400 34.49000
H  20.27900 -6.30000 27.98800
H  19.84700 -5.36600 29.46800
H  21.37100 -5.06000 28.63300
H  20.64800 -6.77100 25.69100
H  21.87200 -5.55200 25.84600
H  21.41800 -6.15900 24.22800
H  16.82900 -1.31500 22.63500
H  16.32300 1.50300 23.15500
H  18.40800 1.26800 22.72600
H  18.56900 -0.13200 21.61900
H  19.40800 -0.18200 23.10800
H  13.84500 0.77900 23.27100
H  14.40800 -0.83800 23.08300
H  14.95100 1.30100 21.12500
H  13.77700 0.09500 20.73200
H  15.54600 -0.36500 20.83600
H  13.79100 4.10800 26.37300
H  14.16000 4.75100 27.91500
H  12.65400 3.81200 27.78300
H  14.89600 1.62300 32.23800
H  16.80700 5.52500 33.37200
H  17.54800 4.21800 34.22700
H  16.10000 4.88400 34.91500
Mg -11.84900 15.65300 42.03300
C  -8.92400 13.81800 41.94400
C  -10.13900 18.29000 40.69100
C  -14.78700 17.23300 40.94800
C  -13.64500 12.76100 42.74100
N  -9.73600 15.97300 41.37900
C  -8.70600 15.09900 41.49000
C  -7.44900 15.63100 40.86600
C  -7.82600 17.12400 40.82000
C  -9.31100 17.16700 40.97000
C  -7.08100 17.97600 41.88600
C  -7.24300 14.93200 39.46200
C  -5.87400 14.38500 39.16400
H  -5.08800 14.80900 38.00700
N  -12.37400 17.50500 41.10500
C  -11.50100 18.44300 40.73100
C  -12.17100 19.63100 40.20600
C  -13.54500 19.26700 40.06000
C  -13.62600 17.92500 40.69500
C  -11.41000 20.89600 39.84600
C  -14.54100 19.94400 39.18000
O  -14.34500 21.02400 38.61600
C  -15.80800 19.13200 38.76800
N  -13.93300 15.11700 41.90000
C  -15.01800 15.94900 41.51700
C  -16.35200 15.17800 41.51100
C  -15.92100 13.76300 41.98300
C  -14.37500 13.86400 42.18400
C  -17.45900 15.84100 42.39100
C  -16.36600 12.60600 41.10700
C  -17.84200 12.14500 41.42700
N  -11.44500 13.67900 42.49000
C  -12.23600 12.60900 42.82900
C  -11.41800 11.49500 43.10500
C  -10.09700 11.87100 42.71000
C  -10.15700 13.25200 42.33400
C  -11.93900 10.07200 43.54100
C  -8.66300 11.46600 42.72900
O  -8.10300 10.53000 43.18400
C  -7.87600 12.71100 42.13600
C  -6.80100 13.12300 43.02600
O  -6.97000 13.40600 44.21000
O  -5.60400 13.28700 42.38200
C  -4.62000 14.15200 43.11400
H  -9.61000 19.21800 40.46300
H  -15.70300 17.78300 40.72100
H  -14.24300 11.86900 42.94200
H  -6.61700 15.48200 41.55500
H  -7.61900 17.56200 39.84300
H  -6.42600 17.38900 42.53000
H  -7.86000 18.54400 42.39500
H  -6.44200 18.70600 41.38900
H  -7.42600 15.57900 38.60400
H  -8.01400 14.16400 39.39100
H  -5.84600 13.30100 39.06200
H  -5.19100 14.60400 39.98500
H  -12.02600 21.76600 39.62000
H  -10.75300 20.77700 38.98500
H  -10.69000 21.21800 40.59900
H  -15.57800 18.08800 38.55000
H  -15.90700 19.44500 37.72800
H  -16.70300 19.42500 39.31700
H  -16.73500 15.12700 40.49200
H  -16.29600 13.53000 42.97900
H  -18.37200 15.82000 41.79600
H  -17.12600 16.82600 42.71700
H  -17.64200 15.27000 43.30100
H  -15.87100 11.67800 41.39300
H  -16.26300 12.79400 40.03800
H  -17.87300 11.51000 42.31300
H  -18.45000 11.67800 40.65200
H  -18.33600 13.06500 41.73800
H  -11.90500 9.32200 42.75200
H  -12.97800 10.16000 43.86000
H  -11.31000 9.79200 44.38600
H  -7.55800 12.31500 41.17200
H  -3.83200 13.55100 43.56800
H  -4.98600 14.88900 43.82800
H  -4.01700 14.64700 42.35200

