158

Mg 17.23200 -2.12200 27.41500
C  15.98200 -0.01400 30.07700
C  19.21700 -3.54800 29.82500
C  18.66900 -3.98600 24.96200
C  15.60400 -0.10900 25.19400
N  17.58300 -1.76800 29.69100
C  16.90600 -0.91500 30.54500
C  17.32500 -1.14400 32.00100
C  18.52900 -2.12000 31.82000
C  18.54000 -2.44100 30.33900
C  19.91600 -1.54500 32.17900
C  16.15300 -1.79300 32.83800
C  16.23600 -1.63000 34.39200
H  17.44000 -0.82300 35.02100
N  18.62200 -3.69700 27.42700
C  19.39300 -4.09100 28.52300
C  20.16500 -5.28800 28.13900
C  19.92800 -5.51100 26.72900
C  19.05000 -4.42000 26.31500
C  21.01100 -6.09300 29.14100
C  20.52800 -6.58000 25.72000
O  20.10800 -6.58100 24.55500
C  21.50800 -7.63200 26.13700
N  17.12000 -2.08500 25.34200
C  17.92000 -2.86600 24.51900
C  17.61400 -2.58900 23.04900
C  16.53400 -1.44600 23.13500
C  16.34400 -1.21800 24.66300
C  18.92500 -2.28700 22.32600
C  15.27600 -1.85400 22.30900
C  13.93000 -2.13000 23.10500
N  16.01000 -0.47400 27.53000
C  15.34200 0.20300 26.51900
C  14.55300 1.23900 27.04600
C  14.72900 1.17800 28.44200
C  15.58000 0.07900 28.70200
C  13.88900 2.34300 26.25400
C  14.43200 1.79500 29.73500
O  13.71400 2.82500 29.92400
C  15.17700 0.93600 30.82400
C  15.98100 1.82200 31.68400
O  17.10600 2.21100 31.50600
O  15.23300 2.17800 32.76900
C  15.84600 3.17700 33.67700
H  19.96600 -3.83300 30.56700
H  19.16700 -4.55900 24.17800
H  15.08000 0.54100 24.49000
H  17.64000 -0.17600 32.39100
H  18.36100 -3.04100 32.37900
H  19.74600 -0.52400 32.52300
H  20.51600 -1.42900 31.27600
H  20.39900 -2.06100 33.00900
H  16.09100 -2.82900 32.50400
H  15.23200 -1.28800 32.54900
H  16.29600 -2.66400 34.73100
H  15.25100 -1.26400 34.68300
H  20.61600 -6.15700 30.15500
H  22.03500 -5.72500 29.06900
H  21.19200 -7.10600 28.78100
H  21.07500 -8.38500 26.79600
H  22.36000 -7.10300 26.56400
H  21.91100 -8.09500 25.23600
H  17.27500 -3.47500 22.51300
H  17.03800 -0.54300 22.79000
H  19.76100 -2.40200 23.01600
H  18.92600 -1.25300 21.98200
H  19.12000 -2.93800 21.47400
H  15.41100 -2.74600 21.69700
H  15.12100 -1.01100 21.63600
H  14.20300 -2.38900 24.12800
H  13.59200 -3.05100 22.63100
H  13.14600 -1.37300 23.07100
H  13.34100 3.04500 26.88400
H  13.27100 1.88300 25.48300
H  14.67000 2.97500 25.83300
H  14.44100 0.37500 31.40100
H  15.80800 4.15200 33.19100
H  16.88400 2.91200 33.87900
H  15.30500 3.26600 34.61900
Mg -4.87900 24.81000 26.54900
C  -3.34800 26.46200 29.00100
C  -5.76400 22.32700 28.73700
C  -6.52900 23.18600 24.00800
C  -3.28900 26.83100 24.08000
N  -4.52200 24.39400 28.64000
C  -3.98200 25.31500 29.46400
C  -4.19700 24.82900 30.92200
C  -4.60300 23.38200 30.78800
C  -4.98500 23.35000 29.32400
C  -3.58400 22.36600 31.12100
C  -5.23000 25.76200 31.71300
C  -4.98800 25.86900 33.27900
H  -5.00100 24.54300 34.02000
N  -6.13500 23.11700 26.42300
C  -6.29600 22.19400 27.44500
C  -7.27900 21.24300 27.06900
C  -7.57400 21.46400 25.65500
C  -6.77000 22.64300 25.28300
C  -7.94400 20.15300 28.00800
C  -8.51200 20.73600 24.73600
O  -8.77100 21.23800 23.61000
C  -9.29700 19.50600 25.14400
N  -4.93100 24.99900 24.39200
C  -5.71800 24.21200 23.59500
C  -5.50400 24.47900 22.08400
C  -4.47300 25.66000 22.08400
C  -4.26400 25.85100 23.58500
C  -5.00200 23.17600 21.35000
C  -4.77300 26.79500 21.18300
C  -3.98800 26.72100 19.97700
N  -3.45500 26.23300 26.50500
C  -2.91100 26.96900 25.44100
C  -2.05500 27.96400 26.02900
C  -2.25600 27.87800 27.38400
C  -3.05600 26.74000 27.64600
C  -1.33100 29.05000 25.30800
C  -1.94700 28.44500 28.71900
O  -1.23700 29.42800 28.95400
C  -2.60400 27.55900 29.82500
C  -1.51400 27.10700 30.74500
O  -0.42000 26.72100 30.48100
O  -1.92700 27.34800 32.04400
C  -0.87000 27.08500 33.05900
H  -6.12300 21.58600 29.45400
H  -6.98100 22.64300 23.17500
H  -2.70400 27.39000 23.34600
H  -3.21200 24.89500 31.38400
H  -5.42800 23.13800 31.45800
H  -4.20200 21.57600 31.54600
H  -2.86600 22.69300 31.87300
H  -3.18200 21.86900 30.23900
H  -6.19800 25.28200 31.57100
H  -5.34600 26.78600 31.35700
H  -5.85200 26.41400 33.66100
H  -4.02300 26.35800 33.40500
H  -9.00900 20.35600 28.12400
H  -7.60900 20.07500 29.04300
H  -7.94800 19.15400 27.57100
H  -10.15500 19.19100 24.55000
H  -9.80100 19.79900 26.06600
H  -8.50500 18.79200 25.36900
H  -6.46300 24.79100 21.67000
H  -3.51400 25.16500 21.93100
H  -4.39400 22.55900 22.01200
H  -4.35100 23.30300 20.48500
H  -5.92500 22.64000 21.12700
H  -4.39700 27.62200 21.78600
H  -5.81800 26.91600 20.89700
H  -3.38600 25.81900 19.87100
H  -3.33300 27.58700 20.06900
H  -4.63300 26.93200 19.12400
H  -0.38700 28.68300 24.90600
H  -1.12400 29.84100 26.02900
H  -1.87300 29.50800 24.48000
H  -3.35700 28.20400 30.27700
H  -1.18000 27.44600 34.03900
H  0.09900 27.57500 32.96500
H  -0.86800 26.02200 33.30300

