158

Mg 47.43700 34.88000 27.18700
C  45.80100 33.28700 29.83600
C  47.50800 37.66200 29.23700
C  48.59800 36.50900 24.67400
C  46.53700 32.12000 25.08400
N  46.71100 35.36900 29.32200
C  46.32900 34.50500 30.25000
C  46.58000 35.01500 31.71800
C  46.60200 36.52200 31.40000
C  46.97000 36.56000 29.94100
C  45.35400 37.32600 31.75200
C  47.93300 34.39400 32.20400
C  48.12900 34.27400 33.72100
H  47.40100 35.23300 34.69300
N  47.95500 36.81200 26.97100
C  47.99000 37.80700 27.93400
C  48.75400 38.93800 27.43000
C  49.01900 38.65200 26.05300
C  48.47600 37.29300 25.81300
C  48.97200 40.21100 28.24600
C  49.81300 39.48100 25.07600
O  49.99200 39.07800 23.95600
C  50.42900 40.84600 25.42200
N  47.36300 34.47400 25.23700
C  48.07700 35.26400 24.38100
C  48.41600 34.53400 23.06900
C  47.55800 33.21900 23.15400
C  47.10500 33.23500 24.57700
C  48.10000 35.38700 21.77800
C  48.38400 31.90700 22.84900
C  49.33700 31.35600 23.93600
N  46.42400 33.01100 27.40400
C  46.14600 32.01200 26.43200
C  45.45600 30.96900 27.13200
C  45.27400 31.47200 28.38800
C  45.89300 32.67900 28.56400
C  45.09500 29.68700 26.64000
C  44.64800 31.10800 29.59200
O  44.03500 30.17900 29.92300
C  44.84800 32.35000 30.58800
C  45.28100 31.92000 31.94000
O  46.36100 31.51300 32.28300
O  44.24700 31.98900 32.82000
C  44.59200 31.81800 34.24900
H  47.57800 38.52700 29.89900
H  49.17700 36.97000 23.87100
H  46.23600 31.22000 24.54300
H  45.75800 34.63500 32.32400
H  47.38900 37.07500 31.91400
H  45.23500 38.23900 31.16900
H  45.61100 37.61600 32.77100
H  44.35600 36.89300 31.68400
H  48.79100 35.00800 31.93300
H  47.97600 33.37300 31.82400
H  49.19800 34.45500 33.83400
H  48.11300 33.23700 34.05500
H  49.06100 39.98000 29.30700
H  48.14200 40.90700 28.11800
H  49.85400 40.72700 27.86700
H  49.77700 41.53900 25.95400
H  50.54300 41.31100 24.44300
H  51.40600 40.74600 25.89500
H  49.47100 34.26300 23.04100
H  46.69900 33.27500 22.48600
H  49.01700 35.86500 21.43100
H  47.36900 36.16700 21.99100
H  47.64500 34.84500 20.94900
H  48.88500 32.03800 21.89000
H  47.67000 31.13600 22.56000
H  49.13300 30.29800 24.09900
H  49.33700 31.95100 24.84900
H  50.32400 31.30200 23.47700
H  44.07300 29.60700 26.26900
H  45.23900 29.04500 27.50900
H  45.75400 29.48800 25.79500
H  43.89900 32.84700 30.79100
H  45.28900 32.53700 34.68000
H  44.98800 30.81800 34.42500
H  43.65700 31.93800 34.79700
Mg 6.45200 53.97800 42.69000
C  5.62200 50.69400 42.19600
C  9.31300 53.58600 40.69000
C  6.86400 57.42600 42.53800
C  3.10600 54.55400 43.83400
N  7.39000 52.33100 41.70800
C  6.86100 51.11000 41.54400
C  7.83200 50.19700 40.78500
C  9.16500 51.03800 40.72700
C  8.67000 52.41700 41.14900
C  10.39900 50.49800 41.57500
C  7.32400 49.64900 39.41100
C  6.52900 50.69900 38.50300
H  6.59200 50.54700 36.93400
N  8.01700 55.30000 41.93500
C  9.07000 54.91100 41.15300
C  9.89300 56.09500 40.97300
C  9.30200 57.19200 41.54600
C  7.99300 56.72000 42.08300
C  11.26000 56.03000 40.27200
C  9.92700 58.62300 41.59800
O  11.06200 58.84600 41.19600
C  9.26400 59.79700 42.40900
N  5.16100 55.68800 43.06800
C  5.55800 56.99800 42.96100
C  4.53000 58.01400 43.44000
C  3.25200 57.12600 43.47500
C  3.82500 55.71900 43.48400
C  5.03400 58.75200 44.82700
C  2.16400 57.32500 42.31700
C  0.99500 58.19700 42.64000
N  4.73000 52.92600 43.05300
C  3.53600 53.19400 43.69000
C  2.85200 51.96100 44.01200
C  3.57600 50.98500 43.32400
C  4.74800 51.60900 42.82000
C  1.60000 51.84400 44.80600
C  3.56900 49.52900 43.20600
O  2.88400 48.61000 43.59400
C  5.04600 49.22700 42.42400
C  4.59000 48.63600 41.10600
O  3.79000 49.16100 40.32800
O  5.27300 47.44900 40.82000
C  4.64500 46.61500 39.78900
H  10.19200 53.52200 40.04500
H  7.04400 58.50200 42.51100
H  2.05600 54.45800 44.12100
H  8.01200 49.23300 41.26200
H  9.59700 51.07300 39.72600
H  10.71000 51.29300 42.25200
H  11.18700 50.30200 40.84800
H  10.26900 49.56100 42.11700
H  6.72900 48.77300 39.67000
H  8.19600 49.30800 38.85300
H  6.85700 51.73100 38.62800
H  5.53000 50.73900 38.93700
H  11.42700 56.98500 39.77400
H  11.27000 55.33700 39.43000
H  12.04600 55.77700 40.98400
H  8.58400 60.23300 41.67800
H  10.04900 60.52000 42.63000
H  8.70000 59.42000 43.26300
H  4.43600 58.77400 42.66500
H  2.75500 57.33000 44.42400
H  4.74800 59.79800 44.94100
H  6.12100 58.67400 44.81500
H  4.68300 58.16100 45.67200
H  1.87100 56.29900 42.09600
H  2.70200 57.54600 41.39500
H  1.20400 58.71500 43.57600
H  0.13600 57.52900 42.70000
H  0.82200 58.80800 41.75400
H  1.33100 52.74300 45.36100
H  1.68700 51.09300 45.59100
H  0.78000 51.61000 44.12700
H  5.74000 48.53300 42.89800
H  4.35200 45.76000 40.39800
H  5.37700 46.31000 39.04100
H  3.74500 47.07000 39.37600

