158

Mg 25.93600 51.64200 25.52900
C  23.75800 52.63500 28.02500
C  28.26700 50.80800 27.72900
C  28.12000 51.18500 22.92500
C  23.48300 52.70500 23.13900
N  25.94800 51.76000 27.75500
C  24.98300 52.19100 28.50800
C  25.38200 51.87400 30.00600
C  26.83700 51.28100 29.93600
C  27.06100 51.26600 28.39000
C  27.92600 52.01600 30.71700
C  24.43200 50.81300 30.69100
C  23.49900 51.23200 31.85500
H  23.32300 50.44000 33.12200
N  27.84800 50.99700 25.38100
C  28.67000 50.72000 26.39600
C  29.97200 50.30900 25.95000
C  29.94700 50.39800 24.55800
C  28.59000 50.87400 24.20100
C  31.10900 49.90800 26.89400
C  31.06300 50.18000 23.55600
O  30.88300 50.16800 22.37200
C  32.52100 49.86200 24.04900
N  25.82700 51.93300 23.30400
C  26.85100 51.48900 22.49200
C  26.43900 51.62000 20.99200
C  25.04100 52.28800 21.04100
C  24.68500 52.21400 22.55600
C  27.43800 52.32600 20.04300
C  23.88300 51.44300 20.18800
C  23.77500 52.07700 18.77800
N  24.04200 52.65900 25.47600
C  23.16100 52.86500 24.51100
C  21.92400 53.38500 25.06500
C  22.03600 53.17300 26.47900
C  23.37900 52.75900 26.63200
C  20.80500 53.93000 24.23900
C  21.40500 53.31500 27.77700
O  20.23100 53.52200 28.07700
C  22.48700 52.96400 28.83700
C  22.74600 54.15500 29.78000
O  23.57500 55.01300 29.56400
O  21.95000 54.10800 30.91700
C  22.38000 54.86900 32.10900
H  28.91200 50.36200 28.48900
H  28.73700 51.00900 22.04200
H  22.71100 53.10000 22.47600
H  25.40600 52.74100 30.66600
H  26.85800 50.27700 30.36200
H  28.36300 52.78600 30.08200
H  28.66700 51.29500 31.06200
H  27.53400 52.48100 31.62100
H  24.98600 49.99300 31.14800
H  23.73800 50.43400 29.94200
H  22.47500 51.30600 31.48800
H  23.82300 52.24000 32.11300
H  31.42000 48.89000 26.65900
H  30.78900 49.92700 27.93600
H  31.94700 50.60200 26.82300
H  32.68300 48.83000 24.36000
H  32.88900 50.59900 24.76300
H  33.11300 49.97900 23.14200
H  26.38700 50.60600 20.59600
H  25.11000 53.31600 20.68500
H  27.04300 53.29700 19.74500
H  27.52200 51.62400 19.21300
H  28.38900 52.57100 20.51600
H  22.92400 51.40700 20.70300
H  24.17600 50.41100 19.99400
H  24.23800 51.36600 18.09400
H  24.30000 53.03100 18.72600
H  22.72600 52.31800 18.60500
H  21.16500 54.33200 23.29200
H  20.35200 54.86300 24.57600
H  20.18400 53.13300 23.83100
H  22.03400 52.17600 29.43900
H  23.28000 54.36500 32.46100
H  21.52600 54.96000 32.78000
H  22.82100 55.85800 31.97700
Mg 6.60600 53.81500 41.47100
C  5.86800 50.38800 41.50100
C  9.50500 53.13900 39.72800
C  6.94000 57.13100 40.79800
C  3.52000 54.45500 42.92500
N  7.48100 51.97000 40.50800
C  6.97000 50.64700 40.70800
C  7.99500 49.67600 40.01200
C  9.30100 50.58700 39.87400
C  8.78700 52.00600 40.04500
C  10.43200 50.27500 40.90400
C  7.53800 48.94200 38.64200
C  6.14500 49.31200 37.99400
H  5.90100 48.53600 36.64400
N  7.95800 55.00600 40.33900
C  9.10100 54.53300 39.86400
C  9.95700 55.68000 39.49600
C  9.34200 56.83300 39.84600
C  7.95100 56.33400 40.32700
C  11.37500 55.38600 38.96100
C  9.94000 58.20600 39.76700
O  11.02300 58.35800 39.20800
C  9.29000 59.40400 40.35100
N  5.31100 55.45100 41.65000
C  5.68600 56.73900 41.32600
C  4.52900 57.77300 41.61700
C  3.50800 56.94100 42.42600
C  4.14900 55.55000 42.32300
C  5.00400 59.04000 42.41000
C  2.05900 56.90300 41.86700
C  0.95600 56.91500 42.88900
N  5.02400 52.69400 42.18700
C  3.94600 53.11600 42.89900
C  3.31600 51.89500 43.44300
C  4.06600 50.74200 42.94400
C  4.99100 51.30800 42.14200
C  2.20600 51.76600 44.42600
C  4.09800 49.34300 42.90100
O  3.43500 48.51200 43.53100
C  5.34600 49.04000 42.08000
C  5.10000 47.91500 41.11200
O  4.10000 47.89000 40.37800
O  6.03100 46.91500 41.32100
C  5.84200 45.78500 40.41500
H  10.39700 52.86400 39.16100
H  7.03600 58.21100 40.67000
H  2.57000 54.58800 43.44700
H  8.25600 48.91800 40.75100
H  9.74700 50.57700 38.87900
H  11.27800 50.02000 40.26600
H  10.06400 49.59200 41.67000
H  10.70300 51.16300 41.47500
H  7.44400 47.92800 39.03100
H  8.46000 49.12600 38.09100
H  6.17000 50.37900 37.77400
H  5.30300 49.07400 38.64400
H  11.70800 54.45100 38.51100
H  12.14300 55.57400 39.71100
H  11.53800 56.08500 38.14100
H  8.88200 59.13000 41.32400
H  8.56900 59.89100 39.69500
H  10.08000 60.09100 40.65500
H  3.93700 57.93600 40.71700
H  3.44500 57.29700 43.45400
H  4.98700 59.93900 41.79400
H  6.03300 58.87600 42.72800
H  4.33400 59.23100 43.24800
H  1.93600 56.00300 41.26500
H  1.92500 57.82300 41.29900
H  0.20700 56.12700 42.81000
H  0.45300 57.88200 42.87200
H  1.28300 56.90500 43.92800
H  2.12800 50.79500 44.91600
H  1.30300 51.85600 43.82200
H  2.20400 52.61000 45.11600
H  6.11500 48.60900 42.72000
H  4.75500 45.69700 40.43200
H  6.30000 44.85100 40.74000
H  6.18900 45.91500 39.39000

