158

Mg 1.09600 6.84800 26.21600
C  1.32900 8.99900 29.08400
C  1.47300 4.17400 28.39400
C  0.78200 4.84400 23.61200
C  1.20100 9.70600 24.19500
N  1.39600 6.63200 28.49700
C  1.26400 7.61700 29.38500
C  1.31000 7.08300 30.82500
C  1.54600 5.55500 30.63300
C  1.53200 5.43200 29.07100
C  2.86100 5.01700 31.28100
C  -0.01200 7.38500 31.61200
C  -0.04900 7.46000 33.17000
H  1.25200 7.19800 33.92800
N  1.06400 4.79600 26.00800
C  1.28900 3.82200 27.02900
C  1.15700 2.50300 26.45700
C  0.89500 2.68500 25.08100
C  0.92200 4.15200 24.82400
C  1.29800 1.17500 27.22400
C  0.57300 1.61400 24.04900
O  0.34000 1.86300 22.88300
C  0.55500 0.12300 24.44100
N  1.02800 7.23400 24.21500
C  0.79600 6.23200 23.36300
C  0.62300 6.80900 21.89900
C  0.47200 8.35800 22.05100
C  0.89100 8.44500 23.60400
C  1.72500 6.31500 20.98700
C  -0.99100 8.82200 21.88200
C  -1.17300 10.00000 20.84200
N  1.32500 8.93600 26.47800
C  1.32700 9.93900 25.54000
C  1.57300 11.21500 26.18100
C  1.55700 10.86700 27.55000
C  1.43000 9.50200 27.71100
C  1.61200 12.61100 25.52600
C  1.56200 11.46700 28.92400
O  1.63700 12.67000 29.28500
C  1.38600 10.32500 29.86000
C  2.55300 10.32200 30.80900
O  3.68500 9.92000 30.68200
O  2.15900 11.04800 31.91200
C  3.16800 11.22500 32.98300
H  1.43400 3.35700 29.11700
H  0.64100 4.30000 22.67600
H  1.07300 10.55600 23.52100
H  2.14600 7.53000 31.36200
H  0.68100 5.05000 31.06300
H  3.44100 5.79300 31.78000
H  3.57500 4.42900 30.70400
H  2.42700 4.30700 31.98500
H  -0.77500 6.67200 31.30100
H  -0.35700 8.36000 31.26900
H  -0.68200 6.63500 33.49700
H  -0.33900 8.48600 33.40000
H  0.31100 0.72300 27.12700
H  1.39000 1.39500 28.28700
H  2.20800 0.67600 26.89000
H  -0.30900 -0.04800 25.08400
H  1.46000 -0.24100 24.92700
H  0.45600 -0.44100 23.51300
H  -0.34600 6.43100 21.57300
H  1.25200 8.89400 21.51000
H  2.53000 5.81200 21.52300
H  2.19100 7.13300 20.43900
H  1.28600 5.60300 20.28800
H  -1.41800 9.18900 22.81600
H  -1.64800 8.02500 21.53400
H  -0.15200 10.32400 20.64000
H  -1.68700 10.88200 21.22600
H  -1.76700 9.74200 19.96500
H  1.13400 13.27700 26.24500
H  0.93400 12.64300 24.67300
H  2.60900 13.01100 25.34200
H  0.42500 10.31000 30.37400
H  3.98500 11.89500 32.71600
H  3.62500 10.26000 33.20500
H  2.78100 11.63100 33.91800
Mg 37.29100 50.21400 24.18400
C  36.79100 48.69500 27.46400
C  36.87400 53.19500 25.88100
C  37.37400 51.65600 21.17100
C  37.67400 47.10100 22.96600
N  36.65000 50.83200 26.44900
C  36.55300 50.05700 27.51800
C  36.57700 50.91500 28.88200
C  36.44900 52.38300 28.37000
C  36.64000 52.10800 26.81200
C  35.09900 53.10700 28.69200
C  37.83000 50.69100 29.84900
C  37.49800 50.20400 31.30600
H  36.12100 50.65600 31.86100
N  37.16900 52.16100 23.63000
C  37.06100 53.20400 24.44300
C  37.02900 54.33400 23.59500
C  37.14500 53.96300 22.25300
C  37.21300 52.53200 22.26600
C  36.78300 55.78000 24.11200
C  37.16500 54.84800 21.01500
O  37.29800 54.34500 19.84300
C  37.10100 56.34500 21.11700
N  37.17100 49.47700 22.32300
C  37.46400 50.25400 21.20500
C  37.62800 49.38900 19.91900
C  38.11800 48.05500 20.58300
C  37.58600 48.19900 22.03800
C  36.40500 49.25300 18.93000
C  39.66400 47.68500 20.38900
C  39.87500 46.32300 19.66400
N  37.15900 48.20800 24.90600
C  37.32700 47.02600 24.31300
C  37.31800 45.94400 25.29300
C  37.16700 46.56200 26.52200
C  37.03600 47.96800 26.25900
C  37.53500 44.52000 25.04700
C  37.02300 46.28700 27.90700
O  37.16500 45.25200 28.55400
C  36.76000 47.66000 28.62100
C  35.46900 47.56300 29.30800
O  34.40000 47.88800 28.81300
O  35.53300 47.00500 30.51900
C  34.29300 46.75400 31.29400
H  36.88100 54.18300 26.34600
H  37.40300 51.99900 20.13400
H  38.09100 46.19300 22.52700
H  35.68200 50.69100 29.46300
H  37.33800 52.94800 28.64900
H  35.38900 54.07000 29.11400
H  34.51800 52.63100 29.48200
H  34.42900 53.31800 27.85900
H  38.44500 51.59000 29.88700
H  38.50200 50.00100 29.33900
H  38.22000 50.58500 32.02800
H  37.48100 49.11400 31.33000
H  36.22900 55.81100 25.05100
H  36.05900 56.19300 23.41000
H  37.64300 56.44700 24.16800
H  36.15200 56.69800 21.52000
H  37.15000 56.71400 20.09200
H  37.98000 56.87900 21.47600
H  38.46700 49.75100 19.32600
H  37.59100 47.21400 20.13100
H  35.59300 49.94700 19.14900
H  35.99900 48.24400 18.86000
H  36.89000 49.59300 18.01600
H  40.05800 47.80700 21.39800
H  40.24200 48.35900 19.75800
H  39.89000 45.53000 20.41200
H  40.88300 46.31900 19.24900
H  39.16500 46.28500 18.83900
H  37.94600 44.36700 24.04900
H  36.53300 44.09300 25.00400
H  38.10400 44.26100 25.94000
H  37.69900 47.79600 29.15900
H  33.63900 47.61300 31.14000
H  34.50600 46.55200 32.34300
H  33.67000 45.99600 30.81900

