158

Mg 0.80900 8.01900 27.04600
C  1.70100 10.05200 29.73400
C  0.71900 5.37100 29.25000
C  0.58600 6.02900 24.32300
C  1.09100 10.72500 24.92000
N  1.17300 7.78100 29.18900
C  1.31000 8.76000 30.11600
C  1.08200 8.28200 31.57800
C  1.17400 6.72900 31.29000
C  0.95900 6.65000 29.78400
C  2.49100 6.03400 31.79600
C  -0.20100 8.79700 32.31200
C  -0.22000 8.91700 33.81800
H  1.00700 8.55400 34.66100
N  0.72600 5.94400 26.81400
C  0.68100 5.06100 27.87200
C  0.73000 3.70700 27.23500
C  0.62100 3.86300 25.83000
C  0.64000 5.33500 25.61900
C  0.72000 2.40600 27.98700
C  0.46400 2.90700 24.75400
O  0.45100 3.31200 23.60700
C  0.30400 1.43100 24.96600
N  1.01200 8.33200 24.88900
C  0.63900 7.39800 24.00300
C  0.61100 7.93800 22.53300
C  0.38300 9.49200 22.88400
C  0.78600 9.50700 24.33200
C  1.91000 7.69400 21.72100
C  -1.05800 9.87300 22.45000
C  -1.21500 10.86100 21.23200
N  1.45200 10.01400 27.20100
C  1.50600 10.98500 26.31000
C  1.99100 12.15300 26.90900
C  2.14000 11.83600 28.30600
C  1.78800 10.53500 28.42800
C  1.99800 13.57000 26.33700
C  2.44000 12.44300 29.58000
O  2.83300 13.51900 30.05700
C  2.10800 11.30500 30.59000
C  3.33900 11.16400 31.45700
O  4.34300 10.58200 31.16400
O  3.05600 11.79000 32.61300
C  4.04400 11.80300 33.67900
H  0.66600 4.57500 29.99500
H  0.38600 5.42700 23.43400
H  0.95300 11.58800 24.26600
H  1.99600 8.50600 32.12900
H  0.35500 6.18000 31.75400
H  3.06600 6.77200 32.35600
H  3.14800 5.85800 30.94500
H  2.19900 5.14200 32.35000
H  -1.00200 8.13000 31.99500
H  -0.39100 9.79200 31.91000
H  -0.99300 8.20000 34.09300
H  -0.63100 9.89600 34.06500
H  0.95300 2.63800 29.02600
H  1.47900 1.78400 27.51200
H  -0.25700 1.92300 27.99400
H  -0.04200 0.88600 24.08700
H  -0.37500 1.22100 25.79200
H  1.25900 1.02700 25.30200
H  -0.25200 7.51700 22.01600
H  1.15000 10.01200 22.31000
H  2.41200 8.62400 21.45200
H  1.69100 7.23700 20.75600
H  2.61600 7.12500 22.32600
H  -1.53900 10.25700 23.34900
H  -1.68000 9.02200 22.17100
H  -0.28500 10.92300 20.66700
H  -1.64400 11.83400 21.46900
H  -1.98900 10.36900 20.64300
H  2.65700 14.30700 26.79500
H  0.97700 13.93900 26.43800
H  2.20100 13.55300 25.26600
H  1.21400 11.64600 31.11300
H  4.53600 12.77500 33.72200
H  4.83600 11.05500 33.67000
H  3.52400 11.73400 34.63400
Mg 35.59200 48.22900 26.03000
C  35.98400 46.35700 28.93500
C  34.37100 50.80000 27.94900
C  35.39800 50.06200 23.23800
C  36.70200 45.48600 24.18300
N  35.29600 48.53600 28.22900
C  35.53400 47.63800 29.25100
C  35.29000 48.23900 30.58100
C  34.50900 49.53100 30.20300
C  34.71300 49.68300 28.67700
C  32.96800 49.49700 30.55900
C  36.59200 48.48900 31.42500
C  36.47800 48.33800 32.88800
H  36.00700 49.58700 33.62200
N  34.95000 50.15600 25.69200
C  34.48700 51.09600 26.60300
C  34.32200 52.38000 25.99700
C  34.60900 52.13200 24.61700
C  34.95400 50.69300 24.43400
C  33.92400 53.67300 26.72600
C  34.57400 53.17900 23.47300
O  34.90800 53.04000 22.30900
C  34.07700 54.57300 23.81200
N  35.97500 47.78600 23.99900
C  35.86700 48.75600 22.96600
C  36.14100 48.10700 21.58300
C  36.66500 46.70100 21.97200
C  36.43700 46.63100 23.42200
C  34.87200 48.03200 20.64700
C  38.20700 46.64200 21.69500
C  38.52800 46.09100 20.36500
N  36.02300 46.29200 26.44200
C  36.47900 45.28000 25.58600
C  36.76500 44.08400 26.35500
C  36.61200 44.45600 27.68000
C  36.15200 45.78000 27.67100
C  37.28700 42.80200 25.89400
C  36.69800 43.99400 29.01700
O  37.03800 42.88900 29.44200
C  36.35800 45.17700 29.86900
C  35.29700 44.81500 30.97300
O  34.13100 44.62500 30.81100
O  35.97100 44.64200 32.12800
C  35.11600 44.34000 33.30800
H  34.05800 51.68900 28.50100
H  35.41500 50.67800 22.33700
H  36.90000 44.61200 23.56000
H  34.74900 47.44000 31.08700
H  34.85100 50.41500 30.74100
H  32.71100 50.17200 31.37600
H  32.76200 48.54400 31.04500
H  32.25200 49.54000 29.73900
H  36.78300 49.52100 31.13100
H  37.42700 47.94200 30.98800
H  37.51800 48.28200 33.21000
H  35.87700 47.46100 33.12900
H  34.82300 54.28400 26.64000
H  33.81700 53.62300 27.80900
H  33.13100 54.21300 26.20900
H  33.02500 54.51600 24.09200
H  34.15000 55.16200 22.89800
H  34.63900 55.18400 24.51800
H  36.93100 48.63800 21.05200
H  36.14800 45.87700 21.47900
H  34.44100 47.03100 20.65000
H  35.21700 48.36700 19.66900
H  34.03600 48.61700 21.02900
H  38.63100 45.98000 22.45000
H  38.76300 47.55900 21.89100
H  38.66300 45.02100 20.52200
H  39.41300 46.54800 19.92100
H  37.68200 46.33600 19.72300
H  38.32300 42.83500 26.23000
H  37.26500 42.73500 24.80600
H  36.82800 41.92200 26.34300
H  37.33500 45.40800 30.29200
H  34.07600 44.65400 33.22500
H  35.55200 44.89400 34.13900
H  35.12800 43.26100 33.46300

