158

Mg 25.31600 1.78000 30.04100
C  27.59200 1.63700 32.94400
C  22.71200 2.18700 32.36500
C  23.33200 1.36300 27.60300
C  28.13600 1.18000 28.07400
N  25.26100 2.00300 32.31900
C  26.25500 1.91900 33.20300
C  25.73800 2.35900 34.65700
C  24.16000 2.39800 34.57600
C  24.02000 2.22000 32.98600
C  23.41400 1.27100 35.40800
C  26.48400 3.71000 35.06000
C  27.02000 3.71300 36.50500
H  26.40700 4.65400 37.55500
N  23.26200 1.94300 29.98000
C  22.33500 2.10500 31.02800
C  21.05700 2.10100 30.54200
C  21.15400 1.80500 29.11900
C  22.59100 1.66200 28.80400
C  19.85900 2.37000 31.38700
C  20.07700 1.58500 28.09800
O  20.24500 1.28300 26.96500
C  18.69300 1.72100 28.46100
N  25.71600 1.50600 28.11800
C  24.66800 1.35800 27.26300
C  25.12400 1.41500 25.67900
C  26.70000 1.59700 25.90500
C  26.89000 1.49600 27.44500
C  24.71400 0.14100 24.90700
C  27.22500 2.98000 25.43700
C  26.66800 3.51800 24.12800
N  27.40600 1.41800 30.37800
C  28.41300 1.14400 29.47600
C  29.63000 0.87600 30.15500
C  29.38000 1.09100 31.50400
C  28.02000 1.41600 31.60000
C  30.92900 0.64500 29.43000
C  29.96600 1.18500 32.82700
O  31.12300 0.99800 33.21800
C  28.82600 1.64200 33.80400
C  28.73200 0.63900 34.88000
O  28.20200 -0.48000 34.92700
O  29.30500 1.18500 36.03700
C  29.15300 0.35700 37.18000
H  22.03300 2.39900 33.19400
H  22.64100 1.33800 26.75800
H  28.93600 1.08700 27.33700
H  25.99000 1.60100 35.39800
H  23.62200 3.30800 34.83800
H  24.14100 0.90100 36.13200
H  23.15700 0.46700 34.71800
H  22.49800 1.60000 35.89800
H  25.74800 4.51100 34.98100
H  27.25400 3.95200 34.32800
H  28.09500 3.88200 36.56500
H  26.81300 2.76600 37.00400
H  19.90600 2.47700 32.47100
H  19.18100 1.52100 31.30100
H  19.30200 3.24800 31.06100
H  18.54700 2.71400 28.88800
H  18.51800 0.92100 29.18000
H  18.11600 1.65100 27.53900
H  24.61500 2.22300 25.15400
H  27.28700 0.83200 25.39700
H  24.13600 0.28900 23.99500
H  23.97200 -0.32500 25.55500
H  25.50200 -0.60200 24.78300
H  28.29400 2.94300 25.23000
H  26.91800 3.63600 26.25100
H  27.36800 4.21900 23.67300
H  25.82500 4.14900 24.40800
H  26.42000 2.75300 23.39200
H  31.52900 0.00600 30.07800
H  31.47100 1.54200 29.13100
H  30.66100 0.04300 28.56200
H  28.90200 2.64300 34.22900
H  30.06800 0.60000 37.72000
H  29.18900 -0.69500 36.89500
H  28.25800 0.61100 37.74800
Mg -12.93700 16.03400 42.80900
C  -10.13300 14.03000 42.00600
C  -11.48700 18.58900 41.19400
C  -15.94400 17.49200 42.72400
C  -14.43200 12.90900 43.81300
N  -10.99400 16.18700 41.66200
C  -10.00300 15.32100 41.51500
C  -8.77600 16.05900 40.84000
C  -9.19300 17.52800 40.87700
C  -10.65600 17.43500 41.18500
C  -8.32300 18.59100 41.62400
C  -8.35100 15.43000 39.48900
C  -6.88300 15.08200 39.22600
H  -6.16200 15.84600 38.07300
N  -13.58700 17.93300 42.09900
C  -12.84400 18.83000 41.54100
C  -13.61700 20.02600 41.36600
C  -14.92500 19.78600 41.91300
C  -14.88500 18.36400 42.25700
C  -13.12600 21.25000 40.63000
C  -16.05500 20.75900 42.16700
O  -15.82100 21.90000 41.96300
C  -17.41800 20.33700 42.67600
N  -14.91400 15.32600 43.13300
C  -15.99000 16.14600 43.00000
C  -17.22500 15.39400 43.43100
C  -16.73500 13.88700 43.59000
C  -15.21400 14.04800 43.58900
C  -17.93500 15.91200 44.69600
C  -17.26400 12.83100 42.60700
C  -17.55500 11.48300 43.17700
N  -12.31700 13.98100 43.26500
C  -13.03000 12.81100 43.63900
C  -12.11900 11.69200 43.77100
C  -10.98700 12.14200 43.14000
C  -11.18400 13.52000 42.79300
C  -12.37400 10.31400 44.39500
C  -9.66500 11.77800 42.76900
O  -9.01500 10.82200 43.07100
C  -9.05900 12.95600 41.92400
C  -7.88000 13.39800 42.64000
O  -7.88500 13.87000 43.77900
O  -6.77700 13.15400 41.83200
C  -5.45900 13.44600 42.38500
H  -11.06400 19.47300 40.71300
H  -16.93600 17.94900 42.72000
H  -14.99900 11.99600 44.00700
H  -7.99400 15.96000 41.59200
H  -9.09800 17.98800 39.89400
H  -7.93700 19.30300 40.89400
H  -7.47200 18.03600 42.01800
H  -8.85200 19.09300 42.43300
H  -8.67600 16.10500 38.69700
H  -8.92500 14.52700 39.28000
H  -6.88600 14.05000 38.87700
H  -6.23600 15.19100 40.09700
H  -12.23900 21.60200 41.15600
H  -13.88800 22.03000 40.62200
H  -12.86900 20.95300 39.61300
H  -17.99300 19.67900 42.02500
H  -18.02500 21.20900 42.92000
H  -17.29500 19.84200 43.64000
H  -17.90200 15.44000 42.57800
H  -17.01100 13.58000 44.59900
H  -17.11600 16.27700 45.31600
H  -18.54600 15.28600 45.34700
H  -18.52000 16.79100 44.42700
H  -16.48400 12.73900 41.85100
H  -18.15400 13.23600 42.12500
H  -17.62000 11.44300 44.26400
H  -16.76200 10.82000 42.83000
H  -18.45200 11.14700 42.65700
H  -13.07100 10.43100 45.22500
H  -11.37800 10.00500 44.71300
H  -12.84800 9.59800 43.72300
H  -8.76300 12.62000 40.93000
H  -5.30300 14.49500 42.13400
H  -4.66100 12.82500 41.97900
H  -5.46400 13.37900 43.47300

