158

Mg 9.04200 4.24300 27.93500
C  10.23200 2.41300 30.55000
C  7.09100 6.19000 29.99200
C  7.92300 6.00700 25.14200
C  10.46000 1.82200 25.74800
N  8.67100 4.29200 30.04700
C  9.37100 3.49800 30.94400
C  8.93400 3.94100 32.42300
C  7.80000 5.03200 32.21300
C  7.84700 5.17400 30.63600
C  6.38900 4.58100 32.72000
C  10.16300 4.41600 33.29300
C  9.83500 5.08800 34.70900
H  10.28200 4.37900 36.00300
N  7.65700 5.93000 27.63700
C  7.05900 6.64200 28.58200
C  6.33300 7.74500 28.02200
C  6.51700 7.70500 26.63200
C  7.43800 6.55100 26.37400
C  5.58800 8.72100 28.83100
C  5.94800 8.65100 25.61700
O  6.24400 8.62600 24.44000
C  4.93500 9.70000 25.95100
N  9.02700 3.88200 25.82100
C  8.61400 4.74200 24.89700
C  9.05700 4.35600 23.47200
C  9.57400 2.99600 23.69800
C  9.73000 2.87300 25.22500
C  7.91300 4.40500 22.45600
C  10.79600 2.61500 22.83100
C  10.65100 1.36600 21.93900
N  10.05800 2.51200 28.05400
C  10.65700 1.68300 27.10700
C  11.45900 0.66100 27.71900
C  11.46400 0.99300 29.08300
C  10.54800 2.08100 29.24400
C  12.17600 -0.55900 26.99600
C  11.94500 0.55500 30.38100
O  12.70100 -0.30400 30.68400
C  11.20500 1.49500 31.36900
C  10.51100 0.73600 32.46000
O  9.42000 0.13500 32.40800
O  11.27700 0.81600 33.56600
C  10.60300 0.33200 34.73600
H  6.53400 6.63900 30.81800
H  7.70500 6.71800 24.34200
H  10.87000 1.13000 25.01000
H  8.41100 3.07100 32.82200
H  7.99100 6.04600 32.56300
H  6.41900 3.55000 33.07100
H  5.65900 4.68300 31.91700
H  6.05000 5.25400 33.50900
H  10.69900 5.03900 32.57700
H  10.81900 3.55000 33.37700
H  8.79300 5.39500 34.79200
H  10.29500 6.07600 34.75500
H  5.74400 9.75200 28.51400
H  5.85900 8.70000 29.88700
H  4.54300 8.42800 28.73600
H  4.57600 10.05900 24.98600
H  5.44900 10.48200 26.51100
H  4.16800 9.24500 26.57700
H  9.94400 4.95900 23.28000
H  8.73800 2.36700 23.39100
H  7.17300 5.18600 22.63200
H  7.45700 3.47800 22.10900
H  8.39500 4.73100 21.53400
H  11.64200 2.48700 23.50600
H  10.93900 3.45900 22.15700
H  11.34700 0.56200 22.17900
H  10.62200 1.63400 20.88300
H  9.68900 0.87800 22.09900
H  12.95500 -1.03300 27.59300
H  12.47700 -0.16600 26.02500
H  11.38500 -1.30100 26.88100
H  11.99700 2.12800 31.77100
H  9.74100 0.87300 35.12600
H  11.22900 0.48000 35.61500
H  10.34800 -0.72700 34.71600
Mg 16.78200 -0.97900 27.63600
C  16.11000 1.00200 30.54100
C  18.80900 -2.93400 29.72400
C  18.13500 -2.24900 24.93300
C  15.06500 1.37900 25.79300
N  17.39300 -0.88000 29.74800
C  16.96500 -0.01900 30.85100
C  17.45500 -0.42100 32.22300
C  18.45200 -1.60000 31.82700
C  18.23800 -1.83300 30.34100
C  19.90300 -1.44100 32.21700
C  16.31500 -0.71800 33.30800
C  16.33400 0.10400 34.66800
H  17.75700 0.63900 35.17300
N  18.22200 -2.42300 27.31400
C  18.80700 -3.22800 28.33800
C  19.58500 -4.23000 27.69100
C  19.40800 -4.09900 26.23100
C  18.54100 -2.88300 26.07700
C  20.32500 -5.33300 28.48900
C  19.91700 -4.83100 24.97800
O  19.62000 -4.62100 23.82500
C  21.04600 -5.87600 25.21300
N  16.66300 -0.52700 25.57700
C  17.38000 -1.14500 24.67900
C  17.16200 -0.49200 23.26800
C  15.98400 0.54900 23.56000
C  15.83700 0.42200 25.05200
C  18.48400 0.18300 22.65900
C  14.64700 0.19300 22.82200
C  14.73200 0.23900 21.23600
N  15.70200 0.74100 28.01700
C  15.03100 1.58800 27.19800
C  14.44700 2.66700 28.01100
C  14.80800 2.41800 29.30400
C  15.66600 1.32300 29.26300
C  13.68500 3.89500 27.43600
C  14.64200 2.85200 30.66200
O  13.91300 3.74600 31.04100
C  15.58000 2.03100 31.49400
C  16.44600 3.07700 32.08500
O  17.44500 3.55200 31.54600
O  15.90300 3.54100 33.24700
C  16.57700 4.64000 33.96600
H  19.45700 -3.55900 30.34100
H  18.76000 -2.58900 24.10400
H  14.45700 2.09100 25.23000
H  18.11100 0.32300 32.67400
H  18.19400 -2.59200 32.19700
H  20.58300 -1.90800 31.50500
H  20.16000 -2.05800 33.07800
H  20.11700 -0.38900 32.41000
H  16.41000 -1.80000 33.40100
H  15.42700 -0.41200 32.75500
H  15.88700 -0.51500 35.44600
H  15.62700 0.91400 34.49000
H  20.27900 -6.30000 27.98800
H  19.84700 -5.36600 29.46800
H  21.37100 -5.06000 28.63300
H  20.64800 -6.77100 25.69100
H  21.87200 -5.55200 25.84600
H  21.41800 -6.15900 24.22800
H  16.82900 -1.31500 22.63500
H  16.32300 1.50300 23.15500
H  18.40800 1.26800 22.72600
H  18.56900 -0.13200 21.61900
H  19.40800 -0.18200 23.10800
H  13.84500 0.77900 23.27100
H  14.40800 -0.83800 23.08300
H  14.95100 1.30100 21.12500
H  13.77700 0.09500 20.73200
H  15.54600 -0.36500 20.83600
H  13.79100 4.10800 26.37300
H  14.16000 4.75100 27.91500
H  12.65400 3.81200 27.78300
H  14.89600 1.62300 32.23800
H  16.80700 5.52500 33.37200
H  17.54800 4.21800 34.22700
H  16.10000 4.88400 34.91500

