158

Mg -2.02100 34.81800 27.12000
C  -3.81100 33.48800 29.83900
C  -0.27500 36.84100 29.18300
C  -1.35300 36.83500 24.51200
C  -3.92200 32.72900 24.95600
N  -1.96500 34.98300 29.25900
C  -2.84800 34.44100 30.22100
C  -2.49100 34.97600 31.63200
C  -1.33600 35.98300 31.40300
C  -1.13100 35.91800 29.86800
C  -1.62400 37.46200 31.91900
C  -2.23400 33.93900 32.69000
C  -2.99500 34.16400 33.96300
H  -2.34100 33.83400 35.30600
N  -0.72400 36.43600 26.77400
C  -0.04000 37.05600 27.77000
C  0.69200 38.19300 27.25200
C  0.32600 38.23200 25.88300
C  -0.62000 37.13600 25.64200
C  1.55800 39.12300 28.06400
C  0.83000 39.18100 24.77400
O  0.57200 39.02700 23.61800
C  1.68400 40.31600 25.11700
N  -2.58200 34.77500 25.07900
C  -2.07600 35.68100 24.18400
C  -2.55100 35.34200 22.70100
C  -2.82700 33.79800 22.86800
C  -3.12400 33.74600 24.39100
C  -3.88500 36.17800 22.37400
C  -1.71300 32.90800 22.43900
C  -1.50500 32.36800 20.96700
N  -3.58200 33.39300 27.33500
C  -4.21300 32.66100 26.33300
C  -5.11400 31.70600 26.95000
C  -5.03400 31.96900 28.38700
C  -4.08800 33.03000 28.53300
C  -5.86100 30.57700 26.17800
C  -5.49500 31.62300 29.67400
O  -6.32400 30.81100 30.09000
C  -4.79500 32.62000 30.61300
C  -5.79500 33.43500 31.34500
O  -6.17100 34.53500 31.04700
O  -6.22300 32.75900 32.44400
C  -7.20800 33.39800 33.28000
H  0.22800 37.54900 29.84600
H  -1.07000 37.41200 23.62800
H  -4.39300 32.03800 24.25400
H  -3.39400 35.55100 31.83700
H  -0.43500 35.64900 31.91800
H  -1.80500 38.20300 31.14000
H  -0.81500 37.94300 32.46700
H  -2.53000 37.40200 32.52200
H  -1.19700 33.69600 32.92400
H  -2.59000 32.99800 32.27200
H  -3.87400 33.52600 33.86500
H  -3.37800 35.17600 34.09200
H  1.13700 40.10900 27.86600
H  2.58700 39.24100 27.72400
H  1.40700 39.01700 29.13900
H  2.52700 40.05800 25.75800
H  1.01800 41.08100 25.51600
H  2.11200 40.66500 24.17700
H  -1.82700 35.57200 21.92000
H  -3.66500 33.47500 22.25000
H  -3.67000 36.79500 21.50100
H  -4.14600 36.94900 23.09900
H  -4.77300 35.56300 22.22700
H  -1.86800 32.00800 23.03300
H  -0.73300 33.31300 22.69300
H  -1.89800 31.35200 20.92400
H  -0.44500 32.35700 20.71300
H  -2.01400 32.98400 20.22600
H  -6.86900 30.54100 26.59000
H  -5.44200 29.57800 26.30400
H  -5.82200 30.77100 25.10600
H  -4.19100 32.05500 31.32200
H  -8.19900 33.25300 32.84800
H  -7.09700 34.48200 33.25800
H  -7.23600 32.96600 34.28100
Mg -5.41800 26.20600 26.01500
C  -3.89600 27.51000 28.91200
C  -7.07000 24.02800 27.92800
C  -6.54900 24.65300 23.26100
C  -3.32500 28.28200 24.08400
N  -5.34400 25.75700 28.14700
C  -4.75100 26.46900 29.14800
C  -5.24100 26.03200 30.57200
C  -6.05500 24.75100 30.20700
C  -6.19700 24.83700 28.67200
C  -5.31600 23.48800 30.82800
C  -6.11500 27.12500 31.29600
C  -6.16500 26.99400 32.82700
H  -5.54100 25.79700 33.46500
N  -6.80600 24.71700 25.59200
C  -7.39400 23.95500 26.50700
C  -8.28000 22.92000 25.90300
C  -8.08200 23.07800 24.52100
C  -7.13000 24.15100 24.40500
C  -9.14700 22.00600 26.72200
C  -8.66600 22.35700 23.31900
O  -8.29900 22.45800 22.15900
C  -9.78500 21.40200 23.65500
N  -4.95300 26.39100 23.97300
C  -5.57200 25.64000 23.07100
C  -5.13800 26.10300 21.66900
C  -4.12000 27.27200 21.87100
C  -4.17000 27.42800 23.38300
C  -4.72000 25.06500 20.63500
C  -4.49600 28.54700 21.14500
C  -4.21100 28.59700 19.65600
N  -3.93900 27.58300 26.33500
C  -3.13100 28.26000 25.43100
C  -2.19700 29.16800 26.22300
C  -2.46300 28.86300 27.59100
C  -3.54000 27.90800 27.60100
C  -1.33000 30.22400 25.66400
C  -2.12800 29.16300 28.95100
O  -1.26300 29.87200 29.43300
C  -3.03500 28.26800 29.88600
C  -2.17000 27.38800 30.79700
O  -1.86600 26.22500 30.58000
O  -1.96500 27.93400 31.98900
C  -1.28400 27.16700 33.02300
H  -7.44300 23.25100 28.59900
H  -6.98200 24.31200 22.31900
H  -2.75700 29.03200 23.52900
H  -4.39200 25.78100 31.20700
H  -7.05300 24.73000 30.64400
H  -4.33200 23.75600 31.21300
H  -5.08700 22.78200 30.02900
H  -5.95300 22.99500 31.56200
H  -7.14800 26.83500 31.10200
H  -5.88000 28.10600 30.88500
H  -7.22000 27.09900 33.08000
H  -5.68500 27.89700 33.20400
H  -10.10400 21.96900 26.20200
H  -9.29400 22.39900 27.72800
H  -8.75000 20.99300 26.65900
H  -10.57000 21.96600 24.16000
H  -9.45600 20.54300 24.23900
H  -10.14800 20.95100 22.73100
H  -6.01600 26.58600 21.23900
H  -3.16700 26.84000 21.56400
H  -3.66200 25.13100 20.38100
H  -5.24300 25.10200 19.67900
H  -4.92500 24.08000 21.05400
H  -3.84400 29.29700 21.59400
H  -5.56300 28.72600 21.28000
H  -5.03700 28.60200 18.94500
H  -3.62100 27.74200 19.32400
H  -3.65800 29.53500 19.60200
H  -2.04500 31.04200 25.74600
H  -0.99100 29.93100 24.67000
H  -0.35800 30.43700 26.11000
H  -3.68300 28.87200 30.52200
H  -0.21500 27.11200 32.82000
H  -1.77000 26.21600 33.23900
H  -1.39600 27.82500 33.88500

