158

Mg 2.00000 -1.74900 43.35200
C  5.37300 -0.62400 42.68300
C  0.76500 0.84700 41.57800
C  -1.05200 -3.36300 43.26800
C  3.53700 -4.87000 44.24200
N  2.98300 -0.23500 42.08200
C  4.31000 0.15400 42.10000
C  4.51500 1.44900 41.28600
C  3.08800 2.08700 41.34600
C  2.21000 0.82000 41.51400
C  2.88400 3.11200 42.49900
C  4.87900 1.11500 39.81800
C  6.09200 1.88400 39.26400
H  6.07800 2.15500 37.79300
N  0.08800 -1.24600 42.65800
C  -0.20900 -0.08800 42.00100
C  -1.63100 -0.07300 41.75400
C  -2.27300 -1.24100 42.28200
C  -1.07900 -2.03800 42.73400
C  -2.36000 1.12700 40.93700
C  -3.74000 -1.56400 42.31700
O  -4.48600 -0.77600 41.69500
C  -4.28800 -2.72200 43.11300
N  1.36100 -3.70700 43.65300
C  0.02600 -4.14600 43.63300
C  -0.07500 -5.63900 43.88500
C  1.37500 -6.12400 43.88600
C  2.14900 -4.80300 43.92700
C  -0.97800 -6.18300 45.03300
C  1.61500 -7.11000 42.75500
C  2.18400 -8.50800 43.09700
N  4.05500 -2.52800 43.73900
C  4.44500 -3.86300 44.04400
C  5.87300 -3.89100 44.19000
C  6.29900 -2.62400 43.57900
C  5.13500 -1.87700 43.32600
C  6.73100 -4.95100 44.83000
C  7.42000 -1.78200 43.25200
O  8.59600 -2.06500 43.25200
C  6.83200 -0.37700 42.82500
C  7.15500 0.56100 43.90300
O  7.16900 0.23400 45.09000
O  7.21600 1.85900 43.45700
C  7.48900 2.85600 44.56900
H  0.37900 1.71900 41.04500
H  -2.01400 -3.87100 43.17400
H  3.94400 -5.82600 44.57900
H  5.19100 2.15000 41.77600
H  2.73100 2.55300 40.42800
H  3.77900 3.73400 42.51200
H  2.88300 2.53100 43.42200
H  2.02000 3.77300 42.43900
H  4.03500 1.39200 39.18600
H  5.16000 0.06200 39.82600
H  6.97200 1.25700 39.40300
H  6.25900 2.86400 39.71100
H  -1.82300 1.31200 40.00700
H  -2.12800 2.06800 41.43400
H  -3.37900 0.94400 40.59700
H  -5.28400 -2.55400 43.52300
H  -3.61400 -2.89100 43.95300
H  -4.34800 -3.65600 42.55500
H  -0.52100 -6.03200 42.97100
H  1.69000 -6.60400 44.81300
H  -1.81900 -6.70700 44.57900
H  -1.39900 -5.48600 45.75700
H  -0.56000 -6.98400 45.64200
H  2.46400 -6.73100 42.18700
H  0.83700 -7.31200 42.01900
H  3.18500 -8.55200 42.66600
H  1.48700 -9.21400 42.64600
H  2.17200 -8.70300 44.16900
H  6.13800 -5.37900 45.63800
H  7.59200 -4.40100 45.20900
H  6.94400 -5.82100 44.21000
H  7.24300 0.01700 41.89600
H  7.46300 3.87100 44.17300
H  8.53500 2.78400 44.87000
H  6.69300 2.67000 45.29000
Mg 48.26200 16.60400 28.33200
C  46.10100 16.57300 31.19900
C  50.44300 18.62400 30.14300
C  50.11300 16.78100 25.52400
C  45.68700 15.09900 26.59000
N  48.24900 17.52900 30.42100
C  47.36400 17.21700 31.45400
C  47.89200 17.67300 32.81200
C  49.13200 18.58100 32.37600
C  49.31100 18.17400 30.88900
C  48.97700 20.15200 32.56400
C  48.46900 16.46700 33.62000
C  48.03000 16.36400 35.10800
H  47.57000 17.65200 35.80000
N  50.10800 17.58100 27.87500
C  50.86400 18.35700 28.78400
C  52.05700 18.73400 28.07700
C  51.99400 18.16500 26.75100
C  50.67900 17.53300 26.61400
C  53.09000 19.44100 28.76900
C  53.08100 18.14000 25.63700
O  52.87400 17.63400 24.53400
C  54.44700 18.61000 25.99600
N  47.91700 16.10700 26.34700
C  48.92000 16.10400 25.46400
C  48.52100 15.44400 24.14000
C  47.06000 15.03100 24.37300
C  46.85500 15.40800 25.87000
C  48.49700 16.55300 23.04400
C  46.68700 13.51700 23.92900
C  45.47000 13.43900 22.95500
N  46.36600 15.90000 28.77200
C  45.39300 15.29100 27.98900
C  44.20200 15.00700 28.68700
C  44.44300 15.44000 29.98800
C  45.73100 15.98900 29.99900
C  43.01400 14.30500 28.05200
C  43.95600 15.51300 31.32900
O  42.93300 15.05700 31.74900
C  45.04200 16.36100 32.23200
C  44.46400 17.61500 32.85700
O  44.43800 18.70000 32.28500
O  43.99400 17.27100 34.02800
C  42.71600 17.80700 34.50400
H  51.19000 19.13400 30.75400
H  50.77100 16.66400 24.66000
H  44.99600 14.48800 26.00600
H  47.11500 18.20600 33.36000
H  50.11600 18.41700 32.81500
H  49.68900 20.68200 33.19500
H  47.99400 20.37200 32.98000
H  48.99300 20.61700 31.57800
H  49.55600 16.51000 33.55700
H  48.01800 15.55100 33.23900
H  48.91100 16.10300 35.69400
H  47.28200 15.57100 35.08800
H  53.97400 18.82000 28.91300
H  52.85100 19.92500 29.71700
H  53.42600 20.14900 28.01200
H  54.45600 19.69900 26.04000
H  55.01200 18.45600 25.07700
H  54.92700 18.17800 26.87500
H  49.17000 14.58000 23.99200
H  46.32700 15.63600 23.83900
H  48.89300 17.54300 23.27000
H  47.53600 16.66200 22.54200
H  49.12400 16.08600 22.28500
H  46.43200 12.91200 24.79900
H  47.56700 13.05000 23.48700
H  45.80000 13.52500 21.92000
H  44.72100 14.19300 23.20000
H  45.02100 12.44700 22.99200
H  43.55100 13.40200 27.76200
H  42.74200 14.75000 27.09500
H  42.15400 14.17400 28.70800
H  45.38600 15.72200 33.04600
H  42.94200 18.49800 35.31500
H  42.03400 17.03400 34.85900
H  42.16100 18.29100 33.70100

