158

Mg -2.00700 16.79800 26.91000
C  -2.55600 14.53200 29.61400
C  -2.60300 19.31600 29.00100
C  -1.79100 18.79600 24.26200
C  -2.24100 14.02000 24.73700
N  -2.55900 16.85600 29.09000
C  -2.53500 15.89500 30.01600
C  -2.59500 16.44200 31.43300
C  -2.58800 18.01700 31.20800
C  -2.61000 18.05200 29.64000
C  -3.61800 18.81600 32.06200
C  -1.53100 15.92300 32.35900
C  -0.92600 16.69400 33.51700
H  -0.66000 15.91900 34.92400
N  -2.21700 18.79800 26.69300
C  -2.39300 19.69900 27.72000
C  -2.36100 20.98800 27.12700
C  -2.09400 20.88100 25.74400
C  -1.99300 19.39300 25.49900
C  -2.77700 22.16900 27.99100
C  -1.90000 21.90100 24.64600
O  -1.75900 21.73100 23.40800
C  -1.70500 23.42500 25.03500
N  -1.82000 16.44500 24.78000
C  -1.81600 17.44600 23.90300
C  -1.91700 16.89500 22.49500
C  -1.73900 15.42600 22.64300
C  -1.99300 15.28900 24.11800
C  -3.29800 17.34900 21.92600
C  -0.33100 14.84900 22.26200
C  -0.31100 13.39300 21.73900
N  -2.24400 14.73900 27.04900
C  -2.32900 13.76000 26.07400
C  -2.59400 12.48100 26.68400
C  -2.64900 12.73400 28.03300
C  -2.42600 14.10700 28.21400
C  -2.76700 11.17300 25.95200
C  -2.85100 12.07900 29.29800
O  -3.21200 10.96600 29.54600
C  -2.82800 13.22000 30.44100
C  -1.80700 12.72100 31.31500
O  -0.58300 12.85600 31.18700
O  -2.40000 12.03300 32.33500
C  -1.42800 11.60000 33.31600
H  -2.76500 20.15600 29.68000
H  -1.90200 19.49400 23.43000
H  -2.50600 13.24300 24.01700
H  -3.50000 16.06800 31.91100
H  -1.65100 18.48700 31.50800
H  -3.14400 19.65500 32.57200
H  -4.03300 18.26300 32.90500
H  -4.47400 19.11300 31.45600
H  -0.71000 15.70800 31.67500
H  -1.79700 14.96900 32.81400
H  -1.50400 17.60800 33.65200
H  0.08200 16.93400 33.18000
H  -3.16800 22.91300 27.29600
H  -1.88100 22.51200 28.50800
H  -3.50700 21.94200 28.76800
H  -2.66200 23.91300 25.21600
H  -1.34400 23.96500 24.16000
H  -1.01500 23.44600 25.87900
H  -1.08900 17.20000 21.85500
H  -2.47800 14.97300 21.98200
H  -4.09800 17.12300 22.63100
H  -3.40700 16.80800 20.98600
H  -3.19700 18.41500 21.72500
H  0.28300 14.92200 23.16100
H  0.06300 15.53200 21.51000
H  0.19900 13.30500 20.77900
H  -1.31300 13.02100 21.52600
H  0.25100 12.73100 22.39800
H  -2.19300 11.07900 25.03000
H  -3.80200 11.12200 25.61500
H  -2.64500 10.30200 26.59700
H  -3.73800 13.52400 30.95800
H  -0.74300 10.90200 32.83400
H  -1.98600 11.09400 34.10300
H  -0.88400 12.39900 33.82000
Mg 17.60100 51.46300 26.70400
C  19.62500 49.91800 29.20400
C  15.26100 52.29900 28.93000
C  15.89900 52.54500 24.04600
C  20.22300 50.25900 24.37900
N  17.40500 50.97700 28.83100
C  18.39400 50.50400 29.69500
C  18.02300 50.82400 31.21100
C  16.49800 51.34600 31.03400
C  16.34800 51.58700 29.45700
C  15.32000 50.38100 31.59400
C  18.96400 51.89600 31.80300
C  19.35500 51.71000 33.26600
H  18.55200 50.79300 34.22000
N  15.82200 52.18300 26.53700
C  14.96000 52.52500 27.58600
C  13.74500 53.02900 26.98900
C  13.91600 53.24300 25.57800
C  15.24500 52.67000 25.32600
C  12.45300 53.23400 27.80300
C  12.94700 53.86800 24.50800
O  13.30500 54.03300 23.32800
C  11.59200 54.25700 24.86400
N  17.99000 51.32500 24.51700
C  17.14800 51.96400 23.68600
C  17.58000 51.93700 22.24700
C  19.07100 51.37900 22.39400
C  19.09300 50.95500 23.85600
C  16.66400 51.06500 21.30600
C  20.14000 52.51800 22.16700
C  21.50500 52.06300 21.62200
N  19.51700 50.29700 26.69300
C  20.38800 49.89000 25.75200
C  21.48400 49.12100 26.29900
C  21.24000 49.13900 27.65600
C  20.04500 49.84600 27.86600
C  22.73100 48.69500 25.48500
C  21.69100 48.75200 28.99100
O  22.65100 48.02800 29.31200
C  20.70200 49.31700 30.01300
C  20.20200 48.25900 30.84700
O  19.68100 47.26700 30.37400
O  20.51900 48.45700 32.19500
C  20.33400 47.24600 33.11300
H  14.52800 52.63100 29.66900
H  15.29200 52.80800 23.17800
H  20.99900 49.92700 23.68600
H  17.97100 49.86300 31.72400
H  16.37200 52.31200 31.52200
H  14.63000 50.98300 32.18600
H  15.73200 49.57300 32.20000
H  14.81100 49.97500 30.72000
H  18.45500 52.85900 31.76500
H  19.90200 52.12800 31.29900
H  19.40000 52.64600 33.82200
H  20.37300 51.32300 33.24700
H  11.66600 52.68500 27.28600
H  12.26100 54.30200 27.90900
H  12.59500 52.78700 28.78700
H  11.14800 54.98600 24.18600
H  11.36800 54.76600 25.80100
H  10.93700 53.38800 24.92800
H  17.53800 52.94100 21.82300
H  19.27500 50.46300 21.83900
H  15.73700 50.86300 21.84200
H  17.16300 50.12900 21.05300
H  16.33700 51.53100 20.37700
H  20.48400 52.73200 23.17900
H  19.83400 53.42900 21.65200
H  21.67200 52.76100 20.80100
H  21.44900 50.99700 21.40400
H  22.33400 52.24200 22.30800
H  23.01400 49.46400 24.76600
H  22.56400 47.71800 25.03300
H  23.51400 48.67500 26.24300
H  21.21100 50.02900 30.66200
H  20.89700 47.33900 34.04200
H  20.48200 46.24800 32.69900
H  19.29100 47.35000 33.41300

