158

Mg -3.23300 17.26500 25.56500
C  -3.24600 14.82100 28.20100
C  -3.95500 19.57000 27.92100
C  -3.35700 19.41900 23.09200
C  -2.77800 14.68500 23.33000
N  -3.55300 17.13600 27.91500
C  -3.39300 16.11200 28.73000
C  -3.50500 16.53600 30.20100
C  -4.04400 18.00500 30.08100
C  -3.87200 18.30600 28.53100
C  -5.43500 18.42800 30.61200
C  -2.08500 16.32900 30.85500
C  -1.52600 17.08200 32.06300
H  -1.30600 16.17800 33.29500
N  -3.63900 19.21100 25.47100
C  -3.82700 19.99300 26.57000
C  -4.08300 21.29500 26.11600
C  -3.83300 21.38600 24.75000
C  -3.63000 19.96600 24.35700
C  -4.47400 22.45400 27.09700
C  -3.71600 22.66500 23.82500
O  -3.68500 22.56600 22.62200
C  -3.55400 24.03300 24.50500
N  -2.74600 17.11600 23.51200
C  -2.97700 18.16700 22.70800
C  -2.76700 17.82200 21.20600
C  -2.85700 16.28200 21.36800
C  -2.66600 15.98800 22.80200
C  -3.77100 18.36500 20.12400
C  -1.97000 15.43000 20.36900
C  -2.56900 14.24400 19.64100
N  -3.16400 15.23800 25.71000
C  -3.05200 14.31800 24.69100
C  -3.14700 12.97900 25.15000
C  -3.19500 13.17100 26.48800
C  -3.22400 14.56200 26.83800
C  -3.06000 11.67800 24.43800
C  -3.26200 12.39900 27.72400
O  -3.16600 11.19500 27.89300
C  -3.26100 13.49300 28.89100
C  -2.03900 13.12200 29.71500
O  -0.86100 13.31500 29.42900
O  -2.47800 12.56700 30.90900
C  -1.47700 12.48000 31.93200
H  -4.35400 20.26100 28.66700
H  -3.39400 20.10100 22.24000
H  -2.81000 13.91600 22.55600
H  -4.23500 15.84400 30.62100
H  -3.37400 18.65500 30.64300
H  -5.93700 17.59300 31.10100
H  -6.08900 18.70900 29.78700
H  -5.43500 19.23000 31.35000
H  -1.34000 16.51800 30.08200
H  -2.02100 15.24700 30.97500
H  -2.28500 17.83400 32.27900
H  -0.52100 17.43600 31.83400
H  -4.88100 22.04300 28.02100
H  -5.25900 22.96600 26.54200
H  -3.58700 23.06600 27.26300
H  -3.50800 24.80800 23.73900
H  -2.60300 24.07500 25.03700
H  -4.38600 24.22700 25.18200
H  -1.77000 18.08400 20.85000
H  -3.81800 15.80700 21.17300
H  -4.72300 18.60400 20.59700
H  -3.81500 17.66700 19.28700
H  -3.32500 19.31200 19.82100
H  -1.14900 15.05500 20.98000
H  -1.56400 16.13500 19.64400
H  -3.56800 14.09200 20.05000
H  -1.91100 13.37800 19.70700
H  -2.63600 14.54600 18.59600
H  -4.07300 11.37600 24.17000
H  -2.51500 10.87700 24.93600
H  -2.39000 11.71600 23.57900
H  -4.13100 13.29300 29.51600
H  -0.65300 13.19300 31.95100
H  -1.05500 11.48100 31.82900
H  -2.11300 12.65400 32.80100
Mg -6.71800 25.72600 25.40000
C  -5.35000 27.14200 28.39200
C  -8.66300 23.74300 27.39300
C  -7.90500 24.11700 22.61600
C  -4.70600 27.75500 23.51400
N  -6.91100 25.44400 27.62900
C  -6.27500 26.12300 28.69100
C  -6.79800 25.62800 29.98900
C  -7.69700 24.44600 29.60200
C  -7.73200 24.46800 28.10100
C  -7.29900 23.00700 30.21700
C  -7.50200 26.76900 30.88200
C  -8.18300 26.29900 32.19900
H  -7.55500 25.12700 33.03600
N  -8.18700 24.24300 25.01200
C  -8.88600 23.57400 26.00100
C  -9.81200 22.59600 25.39600
C  -9.60100 22.70600 23.96400
C  -8.53400 23.71200 23.80800
C  -10.68400 21.64400 26.21900
C  -10.22300 21.85800 22.84700
O  -9.89200 22.05100 21.63000
C  -11.08500 20.71600 23.13200
N  -6.31100 25.86500 23.37500
C  -6.85000 25.05600 22.38500
C  -6.37100 25.43100 20.95700
C  -5.36800 26.62100 21.25400
C  -5.42500 26.73500 22.80100
C  -5.80100 24.23000 20.09300
C  -5.52800 27.97700 20.47000
C  -6.68900 29.04200 20.93000
N  -5.29600 27.19300 25.85500
C  -4.55300 27.92600 24.96000
C  -3.75200 28.84200 25.73100
C  -3.95400 28.55400 27.05900
C  -4.89500 27.47600 27.12100
C  -2.92900 29.95900 25.13200
C  -3.66100 28.89200 28.46700
O  -2.89800 29.77400 28.91300
C  -4.51600 27.93900 29.41400
C  -3.54100 27.15500 30.24400
O  -2.69800 26.34600 29.90900
O  -3.70900 27.47300 31.55600
C  -2.81100 26.75600 32.47400
H  -9.26200 23.08500 28.02600
H  -8.15200 23.51900 21.73600
H  -3.99300 28.26200 22.86000
H  -5.90900 25.26000 30.50200
H  -8.68000 24.67100 30.01600
H  -6.22200 22.85900 30.28500
H  -7.52900 22.14900 29.58500
H  -7.75900 22.97400 31.20500
H  -8.33700 27.26000 30.38100
H  -6.74900 27.50100 31.17500
H  -9.24600 26.14700 32.01200
H  -8.12300 27.19500 32.81600
H  -10.40900 20.64100 25.89200
H  -11.71400 21.81700 25.90800
H  -10.55700 21.67400 27.30100
H  -11.95700 21.10000 23.66200
H  -10.70500 19.88200 23.72200
H  -11.51700 20.30000 22.22200
H  -7.20100 25.86600 20.39900
H  -4.37200 26.25600 21.00400
H  -5.91200 23.26800 20.59300
H  -4.72300 24.35300 19.99500
H  -6.24900 24.20000 19.09900
H  -5.82800 27.66300 19.47000
H  -4.56200 28.48100 20.43400
H  -7.26700 28.61000 21.74700
H  -7.34800 29.03800 20.06200
H  -6.49600 30.09100 21.15500
H  -3.65000 30.44100 24.47100
H  -2.03100 29.68700 24.57700
H  -2.58200 30.68000 25.87200
H  -4.98800 28.64700 30.09600
H  -2.87800 27.22100 33.45700
H  -1.80400 26.75200 32.05800
H  -3.07200 25.69800 32.44300

