158

Mg 9.34800 47.80600 26.46400
C  7.29500 48.16900 29.12500
C  11.99900 49.02100 28.32400
C  11.42300 47.34700 23.74400
C  6.68700 47.47800 24.29800
N  9.60400 48.49900 28.53900
C  8.60000 48.47800 29.49600
C  9.17800 48.91600 30.85000
C  10.56300 49.53000 30.43700
C  10.80600 48.96800 29.01100
C  10.65500 51.08500 30.41400
C  9.38100 47.79300 31.93900
C  8.62500 48.02000 33.29400
H  8.58800 46.84900 34.26000
N  11.43400 48.08400 26.12100
C  12.37600 48.61900 27.03100
C  13.70200 48.60700 26.46300
C  13.47100 48.07700 25.10100
C  12.04500 47.83200 24.93200
C  14.99600 48.94100 27.33500
C  14.60800 47.88800 24.10200
O  14.41100 47.29000 22.99100
C  15.98500 48.14900 24.54900
N  9.10200 47.56400 24.29500
C  10.11200 47.18100 23.44700
C  9.56300 47.07200 22.02400
C  8.00200 47.12900 22.19200
C  7.92300 47.39900 23.72000
C  10.07500 48.22000 21.13900
C  7.33200 45.79400 21.73400
C  6.48900 45.88100 20.45900
N  7.36900 47.75200 26.63500
C  6.40900 47.59900 25.72400
C  5.14900 47.51800 26.38000
C  5.43400 47.84400 27.73800
C  6.81100 47.98700 27.84100
C  3.87200 47.38200 25.76400
C  4.82200 48.11100 28.99200
O  3.65700 48.16500 29.21400
C  6.02400 48.21600 30.02900
C  5.94200 47.01700 30.94700
O  6.20900 45.85700 30.63900
O  5.40600 47.43800 32.13100
C  5.10900 46.39500 33.14900
H  12.80500 49.51100 28.87400
H  12.04700 47.12400 22.87600
H  5.78000 47.19600 23.75800
H  8.45500 49.66700 31.16900
H  11.40700 49.06400 30.94500
H  11.05700 51.50900 29.49500
H  11.35200 51.49500 31.14600
H  9.73400 51.65200 30.54900
H  10.43500 47.58300 32.11500
H  9.10600 46.84600 31.47400
H  7.62100 48.32800 33.00400
H  9.07600 48.86500 33.81400
H  14.74300 48.93100 28.39500
H  15.37300 49.90200 26.98600
H  15.80900 48.23700 27.15600
H  16.65500 47.85900 23.73900
H  16.08700 47.28000 25.20000
H  16.28700 49.08300 25.02200
H  9.88800 46.18900 21.47300
H  7.47500 47.94600 21.69900
H  10.71000 48.89900 21.70800
H  9.26700 48.82900 20.73400
H  10.65300 47.83700 20.29700
H  6.67100 45.51100 22.55300
H  8.10600 45.02700 21.69400
H  5.61600 45.24800 20.61900
H  7.17200 45.54300 19.67900
H  6.15200 46.87900 20.17900
H  3.12300 47.83000 26.41700
H  3.58100 46.33600 25.66700
H  3.82900 47.83300 24.77200
H  6.04500 49.13700 30.61200
H  5.03700 45.39300 32.72700
H  4.22000 46.73400 33.68100
H  5.83200 46.35400 33.96400
Mg -12.00500 16.45300 41.30200
C  -8.81000 15.12100 40.93500
C  -11.04000 19.37300 39.81700
C  -15.25400 17.40300 41.34900
C  -13.11400 13.23600 42.44000
N  -10.17300 17.06800 40.29400
C  -8.93600 16.42100 40.30800
C  -7.83000 17.22200 39.62400
C  -8.54500 18.62100 39.26200
C  -10.03100 18.33000 39.78600
C  -7.93300 19.87000 39.84500
C  -7.04200 16.48300 38.48500
C  -6.03700 17.33600 37.69600
H  -6.06700 17.27100 36.15200
N  -13.04700 18.17900 40.70300
C  -12.45400 19.31100 40.23400
C  -13.42900 20.39600 40.25100
C  -14.58800 19.82500 40.82500
C  -14.34500 18.44000 41.05800
C  -13.13400 21.86500 39.87300
C  -15.83000 20.62300 41.24200
O  -15.98000 21.84500 40.96400
C  -16.94300 19.95600 42.03100
N  -13.91900 15.33400 41.75900
C  -15.10300 15.99000 41.62800
C  -16.33400 15.18700 42.03200
C  -15.59100 13.87200 42.56100
C  -14.10200 14.14000 42.26200
C  -17.32000 15.80000 43.03800
C  -16.10300 12.54600 41.81300
C  -16.04900 11.23000 42.63300
N  -11.19300 14.50600 41.57700
C  -11.68800 13.33600 42.16900
C  -10.65900 12.40000 42.34600
C  -9.55100 13.01600 41.83200
C  -9.88900 14.28100 41.34000
C  -10.76400 10.95500 42.86500
C  -8.14400 12.95900 41.63800
O  -7.38500 12.02600 41.86600
C  -7.63500 14.24600 41.03300
C  -6.65500 14.77400 41.99700
O  -6.89900 15.54700 42.91600
O  -5.37400 14.21300 41.76200
C  -4.43900 14.59600 42.81900
H  -10.76900 20.35700 39.42900
H  -16.32100 17.63300 41.36700
H  -13.46200 12.26200 42.79000
H  -7.07900 17.33600 40.40700
H  -8.55700 18.72600 38.17700
H  -8.56100 20.30200 40.62400
H  -7.83400 20.56600 39.01200
H  -6.97000 19.67200 40.31500
H  -7.72400 15.83100 37.94000
H  -6.42200 15.74400 38.99300
H  -5.08600 16.98600 38.09800
H  -6.15900 18.34800 38.08300
H  -13.66300 22.31100 39.03000
H  -12.08300 21.99300 39.61400
H  -13.32300 22.46700 40.76200
H  -17.56400 20.79200 42.35000
H  -16.51600 19.53600 42.94200
H  -17.45600 19.32300 41.30700
H  -16.80200 15.01000 41.06400
H  -15.68600 13.72100 43.63700
H  -17.87700 14.86600 43.11500
H  -17.81500 16.69800 42.66900
H  -16.70000 16.07100 43.89300
H  -15.54600 12.43600 40.88300
H  -17.13000 12.79200 41.54400
H  -17.09500 10.97700 42.80700
H  -15.54200 11.39600 43.58400
H  -15.63800 10.43200 42.01400
H  -11.71800 10.53800 42.54500
H  -10.68200 11.05500 43.94800
H  -9.96800 10.33700 42.45000
H  -7.11000 14.02500 40.10400
H  -4.14200 15.63400 42.66800
H  -3.52900 13.99900 42.75700
H  -4.73800 14.54300 43.86500

