158

Mg 53.67400 23.30400 45.77000
C  51.41500 25.87800 44.93200
C  51.52000 21.02200 44.41700
C  56.15600 21.06300 45.86600
C  55.79800 25.82800 47.01800
N  51.79200 23.50600 44.60900
C  50.94600 24.61100 44.51600
C  49.69200 24.27700 43.65900
C  49.64900 22.75100 43.93300
C  51.03900 22.34800 44.40800
C  48.37500 22.28500 44.74500
C  49.98400 24.61400 42.12800
C  48.74800 24.99300 41.24200
H  48.35400 23.90200 40.18400
N  53.83000 21.23400 45.30800
C  52.76900 20.51800 44.68700
C  53.19800 19.22200 44.45800
C  54.60000 19.09700 44.88500
C  54.92800 20.48000 45.37400
C  52.26700 18.11400 43.79600
C  55.39900 17.80700 44.83600
O  54.95900 16.74800 44.49600
C  56.76900 17.79300 45.46500
N  55.69600 23.43600 46.11600
C  56.49200 22.39200 46.22300
C  57.81400 22.74800 46.93600
C  57.82400 24.28400 47.19300
C  56.34300 24.52200 46.78400
C  58.05600 22.02400 48.24700
C  58.96000 25.00100 46.44600
C  59.48500 26.27600 47.18000
N  53.58300 25.43100 46.12100
C  54.56300 26.31000 46.62100
C  54.04200 27.60200 46.66400
C  52.72800 27.52300 46.08300
C  52.51200 26.17800 45.69100
C  54.75600 28.85800 47.04500
C  51.58000 28.27500 45.61200
O  51.32400 29.49500 45.60700
C  50.68800 27.22200 44.90100
C  50.55700 27.72500 43.49900
O  51.50000 27.93300 42.73500
O  49.27600 28.15300 43.30400
C  48.89400 28.65200 42.00800
H  50.67300 20.44800 44.03400
H  57.02700 20.40800 45.93000
H  56.41500 26.56200 47.54000
H  48.91000 24.90500 44.08500
H  49.62100 22.18800 43.00000
H  48.69400 21.83600 45.68600
H  47.89600 21.45500 44.22600
H  47.68800 23.10000 44.97400
H  50.33600 23.65900 41.73700
H  50.78100 25.35400 42.04600
H  49.01500 25.87000 40.65200
H  47.84100 25.08600 41.83900
H  51.43400 18.59500 43.28400
H  51.81000 17.43700 44.51700
H  52.91600 17.63200 43.06400
H  57.40200 18.59100 45.07600
H  57.19600 16.81600 45.23900
H  56.78700 18.01900 46.53100
H  58.58300 22.50100 46.20400
H  57.95000 24.48300 48.25800
H  58.27000 22.64600 49.11600
H  58.97900 21.44500 48.20900
H  57.19800 21.41800 48.54000
H  58.55300 25.27200 45.47200
H  59.84900 24.38300 46.32100
H  58.95000 27.11500 46.73500
H  60.50200 26.38000 46.80000
H  59.40000 26.26500 48.26700
H  54.24000 29.72100 46.62300
H  55.77500 28.83500 46.65700
H  54.81500 29.01600 48.12200
H  49.76800 27.17600 45.48400
H  48.50200 29.66300 42.12100
H  48.03600 28.07000 41.67300
H  49.70000 28.75100 41.28100
Mg 47.62800 34.84100 28.33100
C  46.15000 33.02500 30.85900
C  47.70500 37.64900 30.60700
C  48.54600 36.87800 25.79000
C  46.80100 32.37400 26.01300
N  46.86100 35.30200 30.51000
C  46.51600 34.31600 31.36400
C  46.40500 34.87200 32.77100
C  46.61800 36.38700 32.62400
C  47.14200 36.49200 31.16800
C  45.28200 37.19800 32.79100
C  47.51000 34.25100 33.72800
C  47.11300 34.05900 35.25400
H  48.00400 34.83800 36.18100
N  48.17200 36.86100 28.28400
C  48.21600 37.82900 29.32600
C  48.76000 39.07700 28.79700
C  49.07800 38.77800 27.41400
C  48.56000 37.41200 27.10300
C  48.85500 40.33600 29.67700
C  49.67300 39.71300 26.36300
O  49.97700 39.39800 25.25300
C  50.06000 41.19800 26.73800
N  47.69100 34.64700 26.17800
C  48.10900 35.62300 25.37300
C  48.10200 35.18000 23.86900
C  47.54600 33.71500 23.94300
C  47.41200 33.49100 25.51400
C  47.12600 36.12800 23.00400
C  48.39800 32.59100 23.18700
C  49.64300 32.04500 23.91000
N  46.85600 32.98200 28.43200
C  46.49800 32.14800 27.39600
C  45.77100 30.97500 27.94500
C  45.70900 31.28400 29.35300
C  46.28500 32.55600 29.51600
C  45.24400 29.77300 27.19800
C  45.12800 30.79400 30.54700
O  44.60500 29.71000 30.81200
C  45.23300 32.04100 31.56300
C  45.77500 31.62800 32.87200
O  46.82700 31.03500 33.05300
O  44.68700 31.77100 33.76400
C  44.97800 31.25600 35.16300
H  47.82400 38.46100 31.32700
H  48.86000 37.44600 24.91200
H  46.42800 31.62100 25.31600
H  45.38500 34.66900 33.09600
H  47.23100 36.64700 33.48600
H  45.01300 37.34000 33.83800
H  44.43400 36.66100 32.36600
H  45.42300 38.20500 32.39800
H  48.40600 34.87100 33.70600
H  47.85700 33.34200 33.23700
H  47.12900 32.99200 35.47700
H  46.09100 34.27100 35.56900
H  49.59200 40.33100 30.47900
H  47.89500 40.44200 30.18100
H  49.09900 41.30000 29.23000
H  50.56000 41.69600 25.90700
H  50.90200 41.08300 27.42000
H  49.25300 41.77700 27.18700
H  49.10800 35.33300 23.47900
H  46.58700 33.61500 23.43500
H  47.10900 37.00200 23.65600
H  46.14900 35.67100 22.84600
H  47.70800 36.23400 22.08900
H  48.72900 33.00200 22.23300
H  47.76200 31.71000 23.09700
H  49.58000 31.08400 24.42000
H  49.81800 32.76600 24.70800
H  50.53800 31.98700 23.29000
H  44.80700 30.06200 26.24200
H  44.46500 29.42200 27.87600
H  45.97700 28.97100 27.10700
H  44.20000 32.37700 31.65500
H  44.70600 30.21100 35.31400
H  44.56400 31.98200 35.86300
H  46.03600 31.24000 35.42700

