158

Mg 36.06000 48.41300 25.96800
C  35.89500 46.63000 29.07300
C  35.37900 51.25100 27.56800
C  35.79200 49.87800 23.00800
C  36.74000 45.40200 24.44200
N  35.71200 48.87600 28.11700
C  35.75300 48.09200 29.20000
C  35.55700 48.85400 30.54200
C  35.27300 50.32800 30.00500
C  35.40900 50.18100 28.46500
C  33.83300 50.76800 30.57400
C  36.83900 48.75900 31.46200
C  36.58600 48.08100 32.81400
H  35.51200 48.67900 33.84800
N  35.69700 50.28000 25.35700
C  35.47700 51.33800 26.19600
C  35.24300 52.50900 25.46400
C  35.18400 52.11000 24.08700
C  35.53400 50.67000 24.09800
C  35.06900 53.95100 26.17500
C  34.88900 52.91800 22.86800
O  34.84100 52.47000 21.73900
C  34.73100 54.33000 23.06800
N  36.15200 47.72700 24.03800
C  36.01800 48.51800 22.94200
C  36.42600 47.80900 21.66700
C  36.96200 46.44700 22.18000
C  36.63300 46.54200 23.63800
C  35.23700 47.74400 20.67100
C  38.49100 46.23900 22.00400
C  38.80800 45.06600 21.09600
N  36.39100 46.43200 26.57000
C  36.66100 45.28100 25.83300
C  36.78400 44.16600 26.71900
C  36.47100 44.68500 27.99000
C  36.17300 46.00100 27.82400
C  37.17700 42.76800 26.38300
C  36.48700 44.27400 29.38800
O  36.77100 43.27400 29.96000
C  35.99400 45.59400 30.16200
C  34.65900 45.29400 30.69000
O  33.75900 44.78300 30.01100
O  34.68000 45.38100 32.09300
C  33.52900 44.78700 32.81100
H  35.07700 52.16600 28.08200
H  35.68900 50.31900 22.01400
H  37.06500 44.46300 23.98800
H  34.81100 48.29300 31.10500
H  36.07800 50.97800 30.34900
H  33.87100 51.81100 30.89200
H  33.43900 50.10400 31.34300
H  33.13200 50.68800 29.74300
H  37.22300 49.76100 31.65400
H  37.53400 48.13300 30.90200
H  37.54500 48.03900 33.33100
H  36.44900 47.00500 32.70800
H  35.42600 54.84000 25.65500
H  35.54500 53.95600 27.15500
H  34.03100 54.25700 26.31400
H  34.67200 54.78900 22.08100
H  35.61200 54.72300 23.57500
H  33.79600 54.52600 23.59300
H  37.25200 48.30900 21.16200
H  36.30700 45.67500 21.77600
H  34.32200 47.74300 21.26400
H  35.30600 46.83800 20.06900
H  35.25800 48.54300 19.93000
H  38.86000 45.97900 22.99600
H  39.02100 47.14700 21.71500
H  38.02400 44.31500 20.99400
H  39.67600 44.60400 21.56700
H  39.17600 45.34300 20.10800
H  36.91900 42.31600 25.42500
H  36.84500 42.15100 27.21900
H  38.26600 42.73000 26.40300
H  36.65500 45.85100 30.98900
H  33.15300 43.94600 32.22900
H  32.69300 45.47700 32.93400
H  33.84100 44.39600 33.77900
Mg -10.57000 17.27100 40.92400
C  -7.24300 16.77300 40.95500
C  -10.09000 20.61600 40.46400
C  -13.90200 17.62800 40.63100
C  -10.98000 13.78100 40.37400
N  -8.88900 18.51900 40.76900
C  -7.64600 18.08800 40.76300
C  -6.62600 19.20700 40.35400
C  -7.49200 20.54000 40.55400
C  -8.94000 19.88300 40.55100
C  -7.25300 21.38900 41.80900
C  -6.12200 19.11200 38.88500
C  -4.70000 18.64100 38.53600
H  -4.55000 17.30100 37.75100
N  -11.88800 18.88300 40.71700
C  -11.50200 20.20400 40.50000
C  -12.53500 21.10800 40.53500
C  -13.75800 20.32500 40.48800
C  -13.26800 18.85100 40.63500
C  -12.31900 22.59800 40.33400
C  -15.19200 20.84600 40.22100
O  -15.42100 22.02600 39.91600
C  -16.35300 19.96400 40.56300
N  -12.14800 15.92000 40.58900
C  -13.41600 16.31200 40.52800
C  -14.39900 15.17100 40.37600
C  -13.47500 14.04400 39.82200
C  -12.10900 14.59700 40.26300
C  -15.12100 14.85300 41.72600
C  -13.51900 13.83900 38.34000
C  -13.94600 12.42300 37.95600
N  -9.41800 15.56100 40.81000
C  -9.70700 14.17700 40.75700
C  -8.44200 13.39600 40.81900
C  -7.48800 14.37900 40.88200
C  -8.07100 15.64300 41.04800
C  -8.21900 11.92300 40.74500
C  -6.00900 14.61200 40.89500
O  -5.09400 13.85300 40.78500
C  -5.86400 16.22800 41.10100
C  -5.22600 16.40100 42.46400
O  -5.58200 15.88700 43.50800
O  -4.18000 17.29900 42.31600
C  -3.48000 17.55000 43.63900
H  -9.85200 21.66300 40.26200
H  -14.99100 17.70700 40.63000
H  -11.07400 12.72800 40.10100
H  -5.77300 19.23800 41.03200
H  -7.37700 21.22900 39.71800
H  -8.13700 21.53600 42.43000
H  -6.91700 22.35900 41.44200
H  -6.45500 20.92200 42.38600
H  -6.28000 20.06100 38.37200
H  -6.73400 18.32400 38.44600
H  -4.12200 18.57600 39.45900
H  -4.17400 19.36000 37.90800
H  -11.84400 22.94800 41.25100
H  -13.13400 23.20200 39.93500
H  -11.54500 22.79900 39.59300
H  -16.64500 19.24400 39.79900
H  -17.26700 20.54200 40.69800
H  -16.17800 19.39400 41.47500
H  -15.16700 15.55900 39.70700
H  -13.74500 13.11800 40.33000
H  -16.19000 14.78200 41.52600
H  -14.80900 15.60500 42.45100
H  -14.94700 13.88600 42.19800
H  -12.57700 14.13400 37.87700
H  -14.18200 14.60900 37.94400
H  -14.84500 12.60800 37.36700
H  -14.23500 11.78600 38.79100
H  -13.11000 11.93500 37.45400
H  -7.18800 11.63400 40.94800
H  -8.42300 11.64300 39.71100
H  -8.75100 11.39200 41.53400
H  -5.17000 16.61100 40.35300
H  -2.79900 18.37900 43.44600
H  -2.85100 16.70600 43.92500
H  -4.11600 17.85400 44.47000

