158

Mg 52.62400 24.87200 44.27700
C  49.61300 26.71200 43.94300
C  50.85500 22.05600 44.06300
C  55.52400 23.32800 44.09800
C  54.36400 28.00500 44.32000
N  50.38500 24.54000 44.10000
C  49.35200 25.37500 44.02000
C  48.09000 24.63800 43.78100
C  48.43700 23.19700 44.19400
C  49.98800 23.20000 44.08900
C  47.87800 22.83800 45.63600
C  47.56500 24.90700 42.32800
C  48.58200 24.65800 41.11900
H  48.28300 25.41300 39.83000
N  53.13100 23.00200 44.22800
C  52.23600 21.94600 43.99200
C  53.05700 20.76500 43.77800
C  54.37500 21.03200 44.06600
C  54.37200 22.56200 44.14000
C  52.44000 19.41600 43.42500
C  55.45100 20.03300 44.26900
O  55.20500 18.80800 44.15600
C  56.83800 20.41000 44.71900
N  54.65600 25.61900 43.85900
C  55.65100 24.73300 44.07000
C  57.02900 25.36400 44.06300
C  56.73500 26.87600 44.15900
C  55.15000 26.86200 44.11300
C  58.04700 24.65800 45.02000
C  57.32800 27.73300 43.01100
C  58.03300 29.03000 43.51000
N  52.16100 26.99700 44.25000
C  52.97900 28.11400 44.23300
C  52.10900 29.27800 44.20200
C  50.81400 28.78500 44.03300
C  50.85400 27.37300 44.01000
C  52.43200 30.66200 44.15000
C  49.37400 29.20600 44.03500
O  48.86300 30.29800 44.16600
C  48.60800 27.91800 43.66400
C  48.31800 28.25200 42.24200
O  49.11000 28.10600 41.26200
O  47.03600 28.69900 42.08600
C  46.48000 29.14100 40.77300
H  50.29300 21.12700 43.94100
H  56.43500 22.73200 44.00900
H  54.93300 28.93400 44.39700
H  47.43700 25.05800 44.54600
H  47.98200 22.51300 43.47700
H  48.33600 23.46700 46.40000
H  48.06300 21.79600 45.89700
H  46.83000 23.13700 45.63900
H  46.95600 25.79200 42.14300
H  46.86800 24.08600 42.15600
H  48.48200 23.64000 40.74200
H  49.60900 24.73700 41.47700
H  53.12100 18.86200 42.77900
H  51.44100 19.56800 43.01500
H  52.26900 18.86800 44.35100
H  57.40800 19.58400 45.14500
H  56.84600 21.28600 45.36800
H  57.42800 20.69600 43.84800
H  57.34000 25.09000 43.05500
H  56.98600 27.21200 45.16500
H  58.61900 23.94100 44.43200
H  57.48500 24.21600 45.84300
H  58.65900 25.44800 45.45600
H  56.66500 28.08100 42.21900
H  58.11300 27.18000 42.49500
H  58.08000 29.20600 44.58500
H  57.66000 29.94600 43.05200
H  59.04900 29.10600 43.12100
H  52.17600 31.14300 43.20600
H  53.52000 30.68900 44.09800
H  52.10400 31.21800 45.02900
H  47.63500 27.88100 44.15400
H  46.79700 28.53600 39.92400
H  46.77200 30.19100 40.76900
H  45.39400 29.11900 40.87000
Mg 47.68200 25.68700 28.36600
C  48.65500 27.86500 31.01900
C  46.86700 23.33200 30.76500
C  46.94700 23.73900 25.85600
C  49.26700 27.89800 26.14900
N  47.73800 25.65700 30.67700
C  48.18600 26.59500 31.49400
C  47.66900 26.34100 32.90200
C  47.14200 24.87300 32.84300
C  47.25000 24.60400 31.34400
C  47.86200 23.71300 33.63100
C  46.65900 27.39100 33.56100
C  46.91000 28.03500 34.92500
H  45.68700 28.51600 35.71900
N  47.12500 23.80700 28.26100
C  46.80400 22.98400 29.32400
C  46.36300 21.74000 28.87600
C  46.40700 21.79800 27.37200
C  46.87900 23.19200 27.08100
C  45.96200 20.58300 29.77100
C  46.19800 20.69800 26.37500
O  46.48400 20.82100 25.20600
C  45.64400 19.39400 26.82500
N  48.10400 25.82800 26.34000
C  47.53000 24.94100 25.50000
C  47.69300 25.26600 24.08300
C  48.52300 26.51300 24.05800
C  48.67400 26.76400 25.58300
C  47.92800 24.09300 23.14400
C  47.94900 27.62400 23.24500
C  48.25700 27.49400 21.75500
N  48.53700 27.65900 28.47900
C  49.19800 28.36300 27.48700
C  49.71800 29.54500 28.09100
C  49.51800 29.42100 29.43400
C  48.83500 28.23600 29.62900
C  50.57100 30.59600 27.37900
C  49.69300 30.05500 30.73100
O  50.27300 31.06900 31.07600
C  49.07100 29.04300 31.80300
C  50.10800 28.86000 32.86800
O  50.83300 27.86300 32.86400
O  49.88000 29.80200 33.83800
C  50.60800 29.45400 35.07900
H  46.46000 22.62400 31.49000
H  46.62100 23.08900 25.04200
H  49.68600 28.59900 25.42400
H  48.59700 26.37600 33.47300
H  46.06700 24.93100 33.01500
H  48.17800 22.91200 32.96300
H  47.11100 23.28200 34.29300
H  48.70300 24.09300 34.21100
H  45.71400 26.87400 33.73000
H  46.44700 28.22600 32.89400
H  47.61400 28.86700 34.90900
H  47.35600 27.26400 35.55400
H  46.53000 19.71000 29.45100
H  44.91900 20.27200 29.71300
H  46.26500 20.58900 30.81800
H  45.36700 18.88400 25.90300
H  44.73200 19.48300 27.41500
H  46.39000 18.87900 27.43100
H  46.69400 25.58400 23.78400
H  49.58100 26.35700 23.84500
H  48.13400 23.17100 23.68900
H  48.67800 24.24200 22.36800
H  46.95100 23.98700 22.67200
H  48.34100 28.61300 23.48300
H  46.87100 27.78100 23.25700
H  47.31800 27.63900 21.22200
H  48.60400 26.46400 21.67500
H  48.98500 28.24300 21.44400
H  51.40000 29.89100 27.31700
H  50.76100 31.46000 28.01600
H  50.23900 30.76600 26.35500
H  48.23400 29.47600 32.35000
H  50.07600 28.57700 35.44700
H  50.81500 30.38200 35.61200
H  51.59200 29.14300 34.72700

