158

Mg 16.48300 -2.97700 28.01300
C  15.89300 -0.92900 30.74300
C  18.26200 -5.04600 30.24700
C  17.71100 -4.76700 25.40100
C  15.36200 -0.49400 25.92700
N  17.02800 -2.94300 30.26100
C  16.54900 -2.08400 31.17700
C  16.90000 -2.49000 32.58900
C  17.65900 -3.78700 32.42800
C  17.74700 -3.89800 30.85200
C  19.09100 -3.96500 33.12700
C  15.66000 -2.73300 33.53000
C  15.67400 -1.93100 34.84600
H  17.03100 -1.58800 35.44600
N  17.64400 -4.76700 27.86600
C  18.28100 -5.47500 28.87200
C  18.82900 -6.59900 28.31900
C  18.78500 -6.48200 26.91200
C  18.03700 -5.29300 26.66400
C  19.40100 -7.56200 29.24200
C  19.51000 -7.38500 25.95800
O  19.44900 -7.22400 24.74100
C  20.31600 -8.51100 26.45100
N  16.59700 -2.60600 26.05100
C  17.11500 -3.49900 25.07700
C  17.10900 -2.90300 23.63600
C  16.20600 -1.65800 23.85700
C  16.01200 -1.56400 25.36900
C  18.51800 -2.45100 23.08000
C  14.87800 -1.56400 22.95300
C  13.61400 -1.99500 23.71100
N  15.47100 -1.21000 28.24200
C  15.12400 -0.25600 27.33500
C  14.47700 0.79600 27.94400
C  14.72800 0.57300 29.30500
C  15.42900 -0.66300 29.44900
C  13.74500 1.96400 27.27000
C  14.62400 1.12900 30.63300
O  14.15300 2.21500 30.95900
C  15.28500 0.17300 31.61100
C  16.32000 0.88100 32.38600
O  17.50800 1.04900 32.13000
O  15.71500 1.50900 33.38200
C  16.47800 2.47100 34.18400
H  18.76000 -5.62800 31.02600
H  17.92800 -5.28700 24.46600
H  15.08500 0.31200 25.24400
H  17.53100 -1.66900 32.92900
H  17.07400 -4.62600 32.80400
H  19.83800 -3.76100 32.36100
H  19.07300 -4.95500 33.58300
H  19.20600 -3.31700 33.99600
H  15.60100 -3.80400 33.72200
H  14.85800 -2.37900 32.88200
H  15.18300 -2.54200 35.60300
H  15.02900 -1.06200 34.71900
H  18.75000 -7.85500 30.06600
H  20.26800 -7.20400 29.79600
H  19.62000 -8.52000 28.76900
H  21.13000 -8.24000 27.12400
H  20.82500 -8.96600 25.60100
H  19.72500 -9.31100 26.89700
H  16.51000 -3.49300 22.94200
H  16.74200 -0.73500 23.63400
H  19.12700 -2.36600 23.98000
H  18.60600 -1.45200 22.65200
H  19.08000 -3.08900 22.40000
H  14.95700 -2.11400 22.01500
H  14.73100 -0.50700 22.73200
H  13.81500 -2.87100 24.32800
H  12.93900 -2.29500 22.91000
H  13.17900 -1.23000 24.35500
H  12.94000 1.65500 26.60400
H  14.48600 2.45800 26.64100
H  13.37500 2.57500 28.09300
H  14.53400 -0.11300 32.34700
H  16.51400 3.49000 33.79900
H  17.52700 2.23000 34.35200
H  16.01300 2.56100 35.16600
Mg -1.83700 34.23100 26.43600
C  -3.08900 32.54300 29.12900
C  -0.40900 36.53200 28.62900
C  -0.88700 36.03100 23.75200
C  -3.66500 31.99100 24.28400
N  -1.90100 34.53300 28.60700
C  -2.30800 33.61200 29.49200
C  -1.76300 34.01300 30.95800
C  -0.88400 35.24900 30.68700
C  -1.08400 35.49300 29.17400
C  -1.12100 36.55500 31.49300
C  -1.12200 32.79400 31.78700
C  -1.69200 32.66700 33.23900
H  -0.69000 32.62100 34.45400
N  -0.86400 36.11100 26.26400
C  -0.33900 36.88400 27.30000
C  0.34600 38.04200 26.66400
C  0.27800 37.89300 25.27700
C  -0.52600 36.66900 25.02900
C  1.03100 39.06100 27.57800
C  0.88800 38.86600 24.24900
O  0.72700 38.71900 23.05900
C  1.74800 40.00600 24.76600
N  -2.19900 34.02800 24.30100
C  -1.59700 34.90700 23.45300
C  -1.85200 34.40500 22.02300
C  -2.53300 32.99900 22.22300
C  -2.81500 32.97200 23.68100
C  -2.67200 35.55700 21.28200
C  -1.60700 31.78300 21.82600
C  -0.21100 31.64000 22.30800
N  -3.16600 32.63800 26.59200
C  -3.78200 31.80200 25.70000
C  -4.54100 30.76600 26.34700
C  -4.28000 31.08900 27.65400
C  -3.49000 32.21500 27.78700
C  -5.31100 29.64400 25.74400
C  -4.54200 30.57100 28.93700
O  -5.20100 29.57900 29.28400
C  -3.71000 31.46200 29.99000
C  -4.72400 31.95500 31.02200
O  -5.52600 32.80200 30.81800
O  -4.48900 31.11300 32.10500
C  -5.36000 31.31900 33.25000
H  0.29400 37.08300 29.25800
H  -0.34500 36.48900 22.92300
H  -4.00000 31.12100 23.71600
H  -2.65600 34.24800 31.53700
H  0.13900 35.00400 30.97400
H  -1.56900 37.33300 30.87500
H  -0.13900 36.91400 31.80200
H  -1.72200 36.25300 32.35100
H  -0.04800 32.98100 31.79500
H  -1.21300 31.88500 31.19300
H  -2.16800 31.68600 33.23300
H  -2.40400 33.44800 33.50400
H  0.59500 40.02500 27.31800
H  2.11300 39.04300 27.44900
H  0.75100 38.91400 28.62100
H  2.22500 40.48600 23.91100
H  2.55000 39.72100 25.44800
H  1.00000 40.65000 25.22800
H  -0.90400 34.32200 21.49100
H  -3.48000 32.93000 21.68800
H  -2.02600 36.03100 20.54200
H  -3.02600 36.31300 21.98200
H  -3.56400 35.27000 20.72500
H  -1.80400 31.66100 20.76100
H  -2.11600 30.94100 22.29500
H  -0.02400 32.27000 23.17700
H  0.36300 32.06800 21.48600
H  0.16500 30.62000 22.39300
H  -4.95200 29.42300 24.73900
H  -6.33700 29.97700 25.58900
H  -5.40900 28.74700 26.35600
H  -2.89400 30.88800 30.42900
H  -6.25200 30.69300 33.22600
H  -5.59500 32.38300 33.29600
H  -4.93400 31.10600 34.23000

