158

Mg -0.19400 7.34700 26.26500
C  0.76700 9.31600 29.05900
C  -0.08600 4.63100 28.41600
C  -0.62500 5.53700 23.66100
C  0.31900 10.20700 24.23600
N  0.28200 6.97500 28.57500
C  0.53700 7.96500 29.47700
C  0.48300 7.39500 30.92300
C  0.53200 5.83200 30.68100
C  0.29500 5.78100 29.10500
C  1.92500 5.18100 31.20700
C  -0.72100 7.82300 31.85200
C  -0.36500 7.94600 33.36800
H  0.81600 7.25000 34.02900
N  -0.35500 5.38600 26.06800
C  -0.29900 4.38700 27.05900
C  -0.59200 3.11300 26.44300
C  -0.78300 3.36200 25.03000
C  -0.53400 4.81300 24.83600
C  -0.65600 1.84600 27.21100
C  -1.20300 2.40200 23.93700
O  -1.44100 2.71100 22.75900
C  -1.71400 0.96600 24.31300
N  0.07900 7.77900 24.21600
C  -0.29600 6.81000 23.31000
C  -0.31100 7.42600 21.82900
C  -0.04500 8.93800 22.04800
C  0.15500 9.00200 23.57800
C  0.71100 6.71500 20.89700
C  -1.17200 9.85300 21.48800
C  -2.36500 10.06600 22.37500
N  0.47100 9.38600 26.51200
C  0.51300 10.44000 25.60500
C  0.83500 11.66600 26.31100
C  1.00900 11.28800 27.66700
C  0.71500 9.88500 27.74500
C  1.00700 13.04500 25.68600
C  1.36100 11.73300 28.98700
O  1.75400 12.79900 29.37900
C  1.12600 10.45700 29.93600
C  2.39000 10.19600 30.61000
O  3.37500 9.63000 30.16600
O  2.30100 10.77200 31.81300
C  3.50100 10.65900 32.69900
H  -0.25000 3.75100 29.04300
H  -1.03000 4.96500 22.82400
H  0.38800 11.11400 23.63200
H  1.40400 7.70900 31.41500
H  -0.19700 5.31100 31.30200
H  2.31200 4.63400 30.34700
H  1.71200 4.48200 32.01600
H  2.61100 6.00600 31.39900
H  -1.52900 7.09200 31.89100
H  -1.15900 8.72700 31.42900
H  -1.21700 7.58300 33.94300
H  -0.29400 8.97900 33.71100
H  -1.22000 0.98600 26.85000
H  -1.09200 1.98100 28.20000
H  0.39200 1.55200 27.27000
H  -2.56700 0.97000 24.99100
H  -0.94200 0.37000 24.80100
H  -2.11300 0.47500 23.42600
H  -1.29700 7.25500 21.39800
H  0.88300 9.12100 21.50700
H  0.78100 5.64800 21.10900
H  1.69000 7.07100 21.21800
H  0.53900 6.93800 19.84400
H  -1.53500 9.35900 20.58700
H  -0.61200 10.75900 21.25700
H  -2.39000 11.11000 22.68700
H  -2.39100 9.43400 23.26200
H  -3.29900 9.91700 21.83300
H  0.11200 13.65400 25.55900
H  1.37700 12.81000 24.68900
H  1.69800 13.56300 26.35100
H  0.32200 10.72200 30.62300
H  4.41900 11.11200 32.32400
H  3.52900 9.63800 33.08000
H  3.39400 11.17800 33.65100
Mg -2.33400 33.97700 27.27300
C  -3.96200 32.05900 29.57000
C  -0.78300 35.68800 29.72200
C  -0.63700 35.72300 24.84900
C  -4.14300 32.42300 24.66800
N  -2.49700 33.97900 29.28000
C  -3.11100 33.03600 30.05400
C  -3.11800 33.26900 31.56600
C  -2.18500 34.55300 31.59900
C  -1.81900 34.81700 30.13000
C  -2.91500 35.75300 32.16200
C  -2.30900 31.98800 32.24000
C  -2.72600 31.46200 33.60500
H  -1.76600 31.89000 34.72100
N  -0.94400 35.54800 27.32700
C  -0.43200 36.13000 28.45800
C  0.64800 37.05800 28.09800
C  0.70200 37.08600 26.67100
C  -0.29800 36.09200 26.19100
C  1.55200 37.74000 29.12100
C  1.54800 37.94000 25.81500
O  1.43000 37.84600 24.61000
C  2.59400 38.92000 26.32100
N  -2.48500 34.12500 25.03200
C  -1.61300 34.92700 24.32200
C  -1.74100 34.71400 22.77800
C  -2.90100 33.62700 22.73700
C  -3.30100 33.44500 24.21300
C  -1.97600 36.01600 21.97700
C  -2.48400 32.27600 22.11000
C  -3.04000 31.92200 20.64000
N  -3.79500 32.58600 27.11100
C  -4.35700 31.98300 26.03400
C  -5.13300 30.84800 26.50100
C  -5.03800 30.77500 27.85500
C  -4.16100 31.86500 28.16600
C  -5.90400 29.79300 25.73800
C  -5.38400 30.06700 29.06400
O  -6.02100 29.04800 29.24200
C  -4.75100 30.91700 30.25700
C  -5.87600 31.44200 31.05500
O  -6.63000 32.35200 30.76000
O  -5.92900 30.64800 32.19200
C  -6.93000 30.98700 33.20900
H  -0.47300 36.32500 30.55300
H  0.04800 36.05200 24.06500
H  -4.69800 31.83800 23.93200
H  -4.13300 33.34100 31.95600
H  -1.26000 34.46900 32.16900
H  -3.99200 35.59600 32.22400
H  -2.82400 36.56700 31.44300
H  -2.48700 36.01300 33.13100
H  -1.26200 32.27600 32.33200
H  -2.40500 31.11800 31.59000
H  -2.70500 30.37300 33.64700
H  -3.74000 31.82700 33.76300
H  1.12500 37.53600 30.10300
H  1.42600 38.81400 28.98600
H  2.62300 37.57500 29.00300
H  3.02800 39.42600 25.45900
H  3.39000 38.32500 26.76900
H  2.24700 39.75400 26.93200
H  -0.84800 34.21700 22.40000
H  -3.75200 34.07100 22.22000
H  -1.79100 36.94000 22.52600
H  -3.00000 35.88700 21.62500
H  -1.19800 35.91300 21.22100
H  -2.93700 31.46000 22.67400
H  -1.40800 32.12300 22.19300
H  -3.56000 32.84500 20.38500
H  -3.58800 30.98100 20.68900
H  -2.20600 31.77100 19.95400
H  -5.35800 29.62700 24.80900
H  -6.86100 30.24000 25.46900
H  -6.00400 28.86900 26.30800
H  -4.16300 30.22800 30.86300
H  -6.60800 31.54000 34.09100
H  -7.22800 30.05700 33.69100
H  -7.79700 31.43900 32.72700

