158

Mg 29.42800 57.89000 41.48000
C  26.57800 56.30600 40.07100
C  31.43400 55.61300 39.94800
C  31.97800 60.08100 41.79300
C  27.21200 60.42600 42.45800
N  29.06700 56.27200 40.03000
C  27.81700 55.74600 39.66200
C  27.98100 54.53900 38.77100
C  29.42200 54.08800 39.20700
C  30.03600 55.40300 39.75800
C  29.48600 52.92100 40.23900
C  27.92500 55.00500 37.25400
C  27.08700 54.09400 36.35900
H  26.97300 54.28600 34.83800
N  31.48000 57.86000 40.94000
C  32.10000 56.79700 40.41200
C  33.53200 57.12500 40.29200
C  33.66300 58.38700 40.89000
C  32.34100 58.82000 41.29900
C  34.52800 56.05900 39.90800
C  35.03400 59.08000 40.99200
O  35.96500 58.58200 40.47300
C  35.25300 60.44200 41.68100
N  29.59100 60.00000 41.91600
C  30.76400 60.64900 42.18700
C  30.57000 62.07900 42.84600
C  29.03800 61.99200 43.18900
C  28.52200 60.73700 42.43300
C  31.53700 62.22700 43.99100
C  28.26400 63.31100 42.66400
C  27.18000 63.89200 43.66500
N  27.24400 58.25500 41.48800
C  26.54500 59.30700 41.95400
C  25.17500 59.15600 41.71300
C  25.05900 57.89000 41.09700
C  26.39600 57.45500 40.82600
C  24.09400 60.10300 42.02800
C  24.12500 56.90500 40.57100
O  22.95400 56.90300 40.62100
C  25.09000 55.85200 39.83500
C  24.79700 54.52000 40.42400
O  25.44400 53.95700 41.34700
O  23.64000 54.08200 39.94100
C  23.09600 52.88600 40.57000
H  31.98400 54.72900 39.61900
H  32.76400 60.80000 42.03300
H  26.50900 61.12200 42.91900
H  27.25100 53.80200 39.10500
H  29.95800 53.72000 38.33200
H  30.02800 53.25300 41.12500
H  29.95500 52.14000 39.64100
H  28.46100 52.63300 40.47000
H  28.94000 55.10100 36.86700
H  27.52500 56.01900 37.24000
H  26.08500 54.21400 36.77100
H  27.46900 53.08100 36.48200
H  35.55400 56.26000 40.21400
H  34.47500 56.11300 38.82100
H  34.20700 55.09500 40.30300
H  34.81900 61.05700 40.89200
H  36.31300 60.66600 41.80100
H  34.67500 60.37500 42.60300
H  30.82000 62.69000 41.97900
H  28.90300 61.95800 44.27000
H  32.26900 62.98600 43.71400
H  32.06600 61.28100 44.10100
H  31.07000 62.55900 44.91800
H  27.98700 63.18900 41.61700
H  28.98800 64.10700 42.48800
H  27.69200 64.50600 44.40700
H  26.66900 63.09100 44.20000
H  26.42900 64.45500 43.11200
H  24.46700 60.94200 41.44100
H  24.06100 60.47700 43.05100
H  23.11100 59.81500 41.65600
H  24.90000 55.88300 38.76300
H  23.80900 52.22200 41.05800
H  22.42300 52.35400 39.89800
H  22.49900 53.21400 41.42200
Mg 7.21900 53.08900 40.09900
C  6.62100 49.61400 39.90400
C  10.60500 52.37000 39.58100
C  7.74800 56.28700 39.57500
C  3.76100 53.53100 40.06700
N  8.40300 51.25600 39.62500
C  7.96900 49.96000 39.90400
C  9.12900 48.93000 39.67800
C  10.39500 49.87400 39.81500
C  9.72000 51.21600 39.62600
C  11.16000 49.65800 41.13900
C  9.16700 48.14400 38.36500
C  9.04300 48.99800 37.04300
H  7.92600 48.56600 36.12000
N  8.93500 54.17500 39.74300
C  10.22400 53.69400 39.50600
C  11.11000 54.82700 39.27500
C  10.32500 56.00600 39.25700
C  8.94800 55.52700 39.59100
C  12.60000 54.70700 39.02100
C  10.80400 57.35800 38.81900
O  11.94800 57.53900 38.36800
C  9.96700 58.55200 38.98900
N  5.91900 54.67600 39.91000
C  6.40800 55.96400 39.87200
C  5.37600 56.93900 40.12400
C  4.04100 56.06600 40.03200
C  4.54800 54.65600 39.97300
C  5.53400 57.74800 41.42600
C  2.91200 56.51300 39.00300
C  1.56500 56.79500 39.62800
N  5.53100 51.90800 39.95600
C  4.20600 52.20700 39.97100
C  3.41700 51.04300 40.15500
C  4.30600 49.94900 40.15500
C  5.57100 50.52700 39.94500
C  1.93300 51.05900 40.36000
C  4.34000 48.51900 40.32500
O  3.49200 47.67100 40.34800
C  5.89400 48.23500 40.08300
C  5.93600 47.36800 38.91700
O  5.63500 47.64300 37.80000
O  6.29300 46.12600 39.34500
C  6.31500 45.07200 38.38000
H  11.63800 52.09900 39.35500
H  8.05600 57.33200 39.51100
H  2.68200 53.69300 40.00400
H  9.13500 48.16500 40.45500
H  11.17100 49.71500 39.06600
H  12.23100 49.48600 41.03800
H  10.66200 48.86200 41.69300
H  11.17400 50.55000 41.76700
H  8.49500 47.28900 38.43900
H  10.12600 47.64500 38.22600
H  9.87100 48.65100 36.42500
H  9.07000 50.06200 37.27600
H  13.00900 53.70400 39.15000
H  13.15800 55.37000 39.68200
H  12.83900 55.08400 38.02700
H  9.59200 58.70500 40.00100
H  9.15500 58.42300 38.27300
H  10.43000 59.49100 38.68600
H  5.26200 57.65000 39.30500
H  3.54100 56.17900 40.99400
H  6.42400 57.39800 41.94900
H  4.70300 57.55500 42.10400
H  5.52000 58.82900 41.28400
H  2.81300 55.76400 38.21700
H  3.32600 57.35900 38.45500
H  1.57300 56.49400 40.67600
H  0.78700 56.28000 39.06500
H  1.40300 57.85700 39.44500
H  1.41100 50.18000 39.98200
H  1.39800 51.85200 39.83800
H  1.73000 51.27200 41.41000
H  6.26900 47.81200 41.01500
H  7.34200 44.94600 38.03500
H  5.63000 45.19700 37.54200
H  6.11800 44.11400 38.86100

