158

Mg 46.93000 16.33100 28.92500
C  44.78600 15.69500 31.56600
C  49.09600 17.62200 31.25700
C  49.01700 17.06600 26.43500
C  44.61300 15.02700 26.74300
N  46.71600 16.90800 31.06400
C  45.90700 16.33500 31.91900
C  46.18300 16.77100 33.37600
C  47.43000 17.73000 33.19400
C  47.82800 17.41900 31.73700
C  47.19600 19.25800 33.37700
C  46.53600 15.48700 34.19800
C  46.02100 15.50400 35.66400
H  46.04100 16.85300 36.36300
N  48.78700 17.22100 28.84300
C  49.56200 17.55900 29.91700
C  50.90300 17.74500 29.47900
C  50.95100 17.55300 28.01200
C  49.55800 17.23800 27.66700
C  52.06900 17.99400 30.39100
C  52.12800 17.73400 27.05700
O  51.98100 17.56500 25.86000
C  53.42500 18.31300 27.48100
N  46.82300 15.91000 26.82800
C  47.74400 16.49300 25.98800
C  47.26500 16.48900 24.53700
C  45.93200 15.62200 24.68100
C  45.74900 15.47500 26.14600
C  47.04100 17.94500 24.07600
C  46.08000 14.25100 23.93700
C  44.81400 13.80700 23.24700
N  45.04400 15.48900 29.04200
C  44.28700 14.94500 28.11100
C  43.11600 14.35900 28.74900
C  43.22000 14.63900 30.11700
C  44.45300 15.31800 30.24000
C  41.87800 13.75800 28.10000
C  42.61600 14.53400 31.45200
O  41.56700 14.05400 31.74700
C  43.63100 15.15200 32.43000
C  42.99900 16.12600 33.39700
O  42.86100 17.33800 33.12400
O  42.52500 15.48600 34.52100
C  41.78300 16.35800 35.44200
H  49.83200 17.92800 32.00400
H  49.70500 17.48500 25.69700
H  43.93800 14.59600 26.00000
H  45.37500 17.41300 33.72700
H  48.22500 17.48100 33.89700
H  46.17500 19.49100 33.68100
H  47.39100 19.88400 32.50600
H  47.83000 19.58700 34.20100
H  47.59700 15.24500 34.13500
H  46.06800 14.61600 33.74000
H  46.71500 14.85800 36.20000
H  45.04400 15.02500 35.59500
H  53.04400 18.23500 29.96700
H  52.21200 17.13400 31.04500
H  51.69000 18.85600 30.94000
H  54.02500 18.44100 26.58000
H  54.00500 17.74600 28.20900
H  53.22200 19.31200 27.86600
H  48.04700 16.03400 23.92900
H  45.08900 16.15600 24.24400
H  46.31800 17.96000 23.26000
H  48.02900 18.25400 23.73300
H  46.82600 18.64000 24.88800
H  46.54100 13.57100 24.65300
H  46.80200 14.48300 23.15400
H  44.77500 14.18400 22.22500
H  43.85600 14.02100 23.72000
H  44.82000 12.72500 23.11600
H  41.50500 14.28800 27.22400
H  41.08800 13.76900 28.85000
H  42.18400 12.73800 27.86700
H  44.02600 14.44200 33.15600
H  40.91800 16.73900 34.89800
H  42.46600 16.99700 36.00200
H  41.35600 15.64700 36.14900
Mg 6.88800 53.64100 42.06500
C  6.27000 50.26700 41.58700
C  10.21600 53.01400 41.06700
C  7.27500 56.89300 41.83300
C  3.42100 54.12900 42.81800
N  8.06000 51.77400 41.27700
C  7.57800 50.52300 41.20900
C  8.65600 49.53600 40.63900
C  9.98000 50.41200 40.91600
C  9.42800 51.80000 41.07200
C  10.89500 50.02100 42.21800
C  8.52700 48.99000 39.20700
C  7.68200 49.79900 38.26300
H  8.20000 50.17400 36.84300
N  8.59500 54.81700 41.62500
C  9.81300 54.35800 41.24000
C  10.63300 55.49600 41.11300
C  9.77700 56.63600 41.22000
C  8.47100 56.20600 41.58300
C  12.06800 55.38500 40.78000
C  10.24400 58.05300 41.11500
O  11.46000 58.19500 41.02700
C  9.37100 59.23900 41.04500
N  5.46100 55.23900 42.06000
C  5.91200 56.53800 42.05100
C  4.70100 57.55500 42.24600
C  3.59300 56.62800 42.76300
C  4.16700 55.25600 42.42000
C  4.95700 58.76000 43.13900
C  2.12800 56.89600 42.29400
C  1.13900 56.94200 43.51000
N  5.24700 52.51400 42.21800
C  3.88400 52.76300 42.67200
C  3.17400 51.53500 42.90700
C  4.11700 50.54800 42.53500
C  5.33800 51.19200 42.07000
C  1.77400 51.38200 43.48300
C  4.25200 49.14100 42.49700
O  3.49000 48.26700 42.81800
C  5.62200 48.86500 41.81100
C  5.48100 48.07600 40.52900
O  4.80000 48.37500 39.57000
O  6.18000 46.86400 40.62800
C  5.98100 45.92400 39.46800
H  11.26400 52.80700 40.84200
H  7.33500 57.97200 41.67900
H  2.38600 54.30200 43.12000
H  8.58200 48.65300 41.27500
H  10.62400 50.34300 40.03900
H  11.95900 50.00600 41.98000
H  10.68100 48.99000 42.49700
H  10.68100 50.67200 43.06600
H  8.25500 47.93900 39.31000
H  9.53200 48.94100 38.78800
H  7.19800 50.61500 38.79900
H  6.81600 49.17300 38.04500
H  12.62000 56.20500 41.23800
H  12.15000 55.22900 39.70400
H  12.57900 54.56800 41.28900
H  9.87000 60.16500 40.75800
H  8.93200 59.49800 42.00800
H  8.75100 58.93000 40.20300
H  4.39900 57.89400 41.25500
H  3.67000 56.61600 43.85000
H  5.79200 58.52000 43.79700
H  4.07500 58.84100 43.77400
H  5.11000 59.67500 42.56600
H  1.86400 56.10600 41.59000
H  2.12800 57.86000 41.78400
H  0.45600 56.09400 43.45000
H  0.58800 57.88200 43.53400
H  1.54800 56.87100 44.51700
H  1.71600 50.43300 44.01600
H  0.98500 51.25400 42.74300
H  1.55600 52.23200 44.13000
H  6.23200 48.21600 42.43900
H  6.13200 46.52300 38.56900
H  4.98600 45.48000 39.47700
H  6.67400 45.08600 39.54300

