158

Mg 1.78000 -1.92900 44.12700
C  5.05300 -0.77500 43.74800
C  0.70600 0.91700 42.53000
C  -1.23400 -3.42500 43.80500
C  3.15400 -5.04200 45.28600
N  2.85800 -0.16000 43.20000
C  4.15500 0.10300 43.17000
C  4.44500 1.40400 42.46100
C  3.00000 2.12300 42.48700
C  2.10000 0.89100 42.78400
C  2.90300 3.24800 43.57500
C  5.03700 1.26800 40.99400
C  6.23500 2.18500 40.64500
H  7.01400 1.94900 39.35600
N  0.01300 -1.26500 43.40700
C  -0.21500 -0.08300 42.72700
C  -1.65300 0.01300 42.46100
C  -2.27400 -1.22700 42.97400
C  -1.11500 -2.06100 43.43300
C  -2.29200 1.27900 41.87000
C  -3.82000 -1.47000 42.93600
O  -4.55800 -0.68700 42.36700
C  -4.48900 -2.72400 43.51400
N  0.99500 -3.95100 44.44300
C  -0.33400 -4.23700 44.37100
C  -0.46500 -5.71300 44.81100
C  0.93000 -6.21500 45.16000
C  1.76900 -4.99900 45.02800
C  -1.54700 -5.98400 45.83000
C  1.29000 -7.43800 44.26300
C  1.41900 -8.83500 44.99500
N  3.69400 -2.77500 44.52400
C  4.06900 -4.00200 45.04400
C  5.51800 -3.96500 45.20200
C  5.93400 -2.73500 44.69400
C  4.77800 -2.04600 44.32900
C  6.31900 -5.06000 45.72200
C  7.09500 -1.91000 44.39900
O  8.25200 -2.09300 44.72700
C  6.54400 -0.57800 43.73900
C  6.88600 0.60500 44.60300
O  6.17900 0.97900 45.50200
O  8.14100 1.01800 44.36800
C  8.50300 2.34300 44.95900
H  0.28800 1.78400 42.01400
H  -2.24800 -3.81600 43.69900
H  3.59300 -5.96700 45.66500
H  5.12800 2.04400 43.02100
H  2.77600 2.47600 41.48100
H  3.88700 3.53400 43.94400
H  2.29600 2.87300 44.39900
H  2.42100 4.14800 43.19200
H  4.21700 1.34800 40.28100
H  5.44100 0.26800 40.84000
H  6.93400 2.24900 41.48000
H  5.76100 3.16700 40.65500
H  -3.34600 1.21300 41.60200
H  -1.65200 1.65700 41.07300
H  -2.24600 1.98300 42.70000
H  -4.44900 -3.41000 42.66700
H  -5.48700 -2.30100 43.63300
H  -3.89600 -3.01900 44.37900
H  -0.83800 -6.30900 43.97700
H  0.91400 -6.55300 46.19600
H  -2.02300 -6.87500 45.42200
H  -2.21400 -5.12300 45.88000
H  -1.31400 -6.13800 46.88300
H  2.23000 -7.26600 43.73900
H  0.69200 -7.53200 43.35600
H  2.46600 -9.09800 45.15000
H  0.97300 -9.56000 44.31400
H  1.01200 -8.73400 46.00100
H  5.92900 -5.61700 46.57400
H  7.24200 -4.65800 46.14000
H  6.69000 -5.69900 44.92100
H  6.98100 -0.45900 42.74800
H  7.78800 3.15500 44.82400
H  9.37500 2.86300 44.56200
H  8.79400 2.27000 46.00700
Mg 42.67600 42.29100 25.88900
C  41.54200 44.46800 28.45200
C  43.87100 40.15500 28.18300
C  44.15300 40.69200 23.32300
C  41.66800 44.81400 23.54900
N  42.91900 42.44500 28.16100
C  42.21400 43.29800 28.99900
C  42.30900 42.83700 30.46300
C  43.15800 41.52800 30.33200
C  43.30000 41.34300 28.78900
C  44.49400 41.58700 31.09200
C  41.05800 42.67600 31.21600
C  41.28700 42.06600 32.62100
H  40.92500 43.00600 33.88200
N  43.71500 40.55600 25.73000
C  44.11700 39.77700 26.77200
C  44.62600 38.58300 26.32900
C  44.97900 38.80000 24.92900
C  44.33100 40.08300 24.59100
C  45.04100 37.45000 27.21500
C  45.66400 37.87200 23.87400
O  46.11800 38.32700 22.81400
C  46.00500 36.38400 24.28400
N  42.97700 42.75800 23.78900
C  43.56600 41.87100 22.96700
C  43.47300 42.28700 21.50600
C  42.25000 43.32300 21.60900
C  42.33300 43.69900 23.04700
C  44.73300 42.91300 20.88800
C  40.85100 42.85400 21.07100
C  40.13800 41.82100 21.99700
N  41.93000 44.25900 25.95000
C  41.45400 45.10800 24.95100
C  40.85900 46.25500 25.52000
C  40.80600 46.01300 26.87500
C  41.48300 44.78600 27.09500
C  40.39300 47.44800 24.68900
C  40.40000 46.53900 28.18100
O  39.86800 47.57900 28.59300
C  40.73800 45.44700 29.22600
C  41.61400 46.11700 30.33600
O  42.77700 46.24100 30.28500
O  40.88600 46.40000 31.39600
C  41.58500 46.83200 32.59500
H  44.19700 39.37300 28.87200
H  44.56100 40.24200 22.41600
H  41.16700 45.49600 22.85800
H  43.03900 43.52600 30.88800
H  42.54300 40.72200 30.73300
H  44.62500 42.49800 31.67600
H  45.35000 41.58900 30.41700
H  44.63300 40.77100 31.80100
H  40.35100 42.17600 30.55400
H  40.89900 43.73400 31.42300
H  42.26900 41.62600 32.79500
H  40.60700 41.21500 32.60400
H  46.11900 37.31800 27.11600
H  44.61000 36.57400 26.73100
H  44.60800 37.52700 28.21200
H  46.40500 35.73900 23.50100
H  45.11400 35.91400 24.70000
H  46.62800 36.50300 25.17000
H  43.07300 41.49700 20.87000
H  42.45600 44.24900 21.07300
H  44.41200 43.80300 20.34600
H  45.30300 42.27500 20.21300
H  45.35400 43.08400 21.76800
H  41.08400 42.51600 20.06100
H  40.26000 43.77000 21.06500
H  39.41100 42.41600 22.55000
H  40.83800 41.30300 22.65200
H  39.68500 40.97500 21.47900
H  39.86300 48.12900 25.35500
H  39.61800 47.18300 23.97000
H  41.21500 47.83700 24.08900
H  39.74500 45.15100 29.56400
H  41.49200 46.02200 33.31800
H  41.01400 47.70800 32.90100
H  42.62000 47.12300 32.41600

