158

Mg 36.38300 49.05400 24.12700
C  36.71000 47.49100 27.20700
C  35.25400 51.87500 25.57200
C  35.69600 50.33900 21.01600
C  37.59400 46.21200 22.63300
N  35.83800 49.49400 26.12500
C  36.17900 48.80600 27.29600
C  35.70000 49.54800 28.53700
C  35.10100 50.92100 27.94600
C  35.32100 50.71200 26.41400
C  33.64000 51.23700 28.29900
C  36.89400 49.88500 29.52000
C  36.57300 49.65800 31.07300
H  35.16700 49.60000 31.57500
N  35.61300 50.84300 23.45900
C  35.26700 51.90600 24.21900
C  34.81600 53.02000 23.37300
C  34.88800 52.56100 22.04500
C  35.39400 51.20000 22.14200
C  34.63600 54.38100 23.90400
C  34.60900 53.33200 20.72100
O  34.74500 52.93000 19.55900
C  34.15000 54.74900 20.87500
N  36.49400 48.38400 22.10000
C  36.16800 49.06200 21.01200
C  36.56300 48.25800 19.65900
C  37.54700 47.16000 20.24700
C  37.27000 47.27800 21.75000
C  35.31800 47.75500 18.80400
C  39.02200 47.10300 19.68800
C  39.94200 48.11800 20.28800
N  37.03400 47.19700 24.74500
C  37.40400 46.08600 24.02300
C  37.57800 44.95800 24.92600
C  37.36200 45.50000 26.18900
C  37.10300 46.87900 26.02900
C  37.97000 43.54200 24.46400
C  37.42200 45.16600 27.61200
O  37.81300 44.17900 28.27900
C  36.91100 46.50400 28.30600
C  35.61300 46.10900 28.95000
O  34.50300 46.11700 28.44000
O  35.90700 45.75700 30.29200
C  34.79800 45.08400 30.93900
H  34.91100 52.81500 26.00900
H  35.56600 50.82000 20.04400
H  38.12100 45.38300 22.15500
H  34.93300 49.00400 29.08800
H  35.73400 51.72200 28.32700
H  33.50100 52.31800 28.30900
H  33.37500 50.89900 29.30100
H  33.01400 50.71500 27.57500
H  37.33200 50.86900 29.34800
H  37.66600 49.14900 29.29400
H  36.99200 50.53500 31.56500
H  37.15400 48.83000 31.48100
H  35.16300 55.14000 23.32600
H  35.16500 54.43400 24.85500
H  33.55900 54.54700 23.89700
H  33.31800 54.92800 21.55600
H  33.91700 55.03200 19.84900
H  35.03500 55.35700 21.06300
H  37.19600 48.90800 19.05500
H  37.19300 46.18300 19.91900
H  34.31000 48.11900 19.00500
H  35.38100 46.67500 18.67100
H  35.41400 48.15200 17.79400
H  39.07400 47.23900 18.60800
H  39.50100 46.18000 20.01300
H  39.33400 48.83900 20.83500
H  40.39800 48.66100 19.46000
H  40.66800 47.74300 21.00800
H  37.44500 43.48000 23.51100
H  37.55700 42.77200 25.11500
H  39.03900 43.34900 24.37200
H  37.56300 46.83500 29.11400
H  34.23800 44.54200 30.17700
H  34.13700 45.74200 31.50300
H  35.28300 44.39700 31.63200
Mg 0.77300 43.49600 26.14700
C  2.93100 42.98500 28.86000
C  -1.78900 42.46800 28.09100
C  -1.27300 43.49200 23.40600
C  3.63500 43.88900 24.10300
N  0.61700 42.94800 28.25700
C  1.62600 42.83800 29.24100
C  1.02400 42.71100 30.60200
C  -0.47400 42.29800 30.26500
C  -0.57700 42.58100 28.74200
C  -0.76100 40.76500 30.42300
C  1.12400 44.00600 31.44200
C  1.63000 43.87700 32.88200
H  1.01000 42.86400 33.82600
N  -1.28500 43.12800 25.77500
C  -2.18400 42.76200 26.80700
C  -3.49400 42.78700 26.30000
C  -3.36400 43.15600 24.89200
C  -1.95300 43.26200 24.60900
C  -4.78900 42.49000 27.16900
C  -4.48100 43.35800 23.82100
O  -4.22600 43.55700 22.65900
C  -5.92500 43.48100 24.24500
N  1.16000 43.62300 24.08200
C  0.12600 43.71600 23.18700
C  0.69300 43.81500 21.72900
C  2.16900 44.28100 21.96900
C  2.34900 43.90300 23.48300
C  0.59400 42.43700 20.99200
C  2.51800 45.70700 21.67300
C  1.55900 46.79600 22.12600
N  2.87400 43.55700 26.42300
C  3.92100 43.76500 25.52300
C  5.12600 43.68500 26.18100
C  4.82600 43.40400 27.50600
C  3.42400 43.31600 27.60600
C  6.51300 43.78900 25.58800
C  5.43900 43.16400 28.78000
O  6.62300 43.10900 29.10800
C  4.20000 43.04100 29.73000
C  4.29500 41.77100 30.58500
O  4.06200 40.67000 30.10300
O  4.59000 42.09900 31.85800
C  4.52100 41.07200 32.83800
H  -2.60600 42.17600 28.75300
H  -1.80700 43.79400 22.50200
H  4.43900 44.05300 23.38300
H  1.47100 41.90500 31.18300
H  -1.19200 42.90100 30.82000
H  -1.09900 40.28000 29.50700
H  -1.37700 40.45900 31.26800
H  0.17300 40.28400 30.71500
H  0.20500 44.58800 31.37700
H  1.77000 44.74700 30.97300
H  1.65800 44.85100 33.36900
H  2.69900 43.67900 32.81100
H  -5.76300 42.77200 26.76700
H  -4.69800 42.72700 28.22900
H  -4.72700 41.40300 27.22600
H  -6.23000 42.44400 24.38900
H  -6.44800 43.85200 23.36400
H  -6.01300 44.18700 25.07100
H  0.15800 44.63400 21.24700
H  2.83900 43.61100 21.43100
H  0.45100 41.63900 21.72000
H  1.45300 42.28000 20.34000
H  -0.28000 42.38700 20.34200
H  2.54000 45.82600 20.59000
H  3.46800 45.99500 22.12200
H  1.20400 47.30200 21.22700
H  1.99100 47.54100 22.79400
H  0.69200 46.35700 22.61900
H  7.01300 44.72400 25.84100
H  6.38500 43.71700 24.50800
H  7.11600 42.94400 25.92000
H  4.30200 43.93000 30.35300
H  3.92800 41.50900 33.64100
H  5.52900 40.89200 33.21300
H  4.07300 40.14900 32.46900

