158

Mg 25.71200 1.81800 29.36300
C  27.52300 1.42300 32.36000
C  22.89600 2.23300 31.22100
C  24.07600 2.12500 26.54100
C  28.60800 1.09600 27.67500
N  25.32000 1.79500 31.55200
C  26.14900 1.70900 32.57100
C  25.45100 1.89100 33.96600
C  23.92800 2.04500 33.53700
C  24.05500 2.01500 32.01600
C  23.09300 0.81400 33.98500
C  26.05800 3.12500 34.58300
C  26.82100 2.97500 35.97200
H  26.55700 4.06200 37.07300
N  23.80100 2.24600 29.01100
C  22.73800 2.19800 29.84700
C  21.46200 2.47000 29.14900
C  21.76100 2.42800 27.76000
C  23.26000 2.23000 27.72600
C  20.13000 2.69000 29.88800
C  20.81900 2.76200 26.61800
O  21.12500 2.77200 25.42100
C  19.35300 2.95800 26.96300
N  26.22500 1.40300 27.39400
C  25.41300 1.74700 26.35200
C  26.09000 1.59400 24.96500
C  27.57600 1.45200 25.37600
C  27.48000 1.33100 26.90800
C  25.46400 0.48600 24.04500
C  28.52100 2.63900 24.90700
C  29.67000 2.23700 23.99400
N  27.66500 1.25900 29.81700
C  28.75500 0.98400 29.06400
C  29.95500 0.71700 29.85200
C  29.42700 0.76400 31.16900
C  28.10100 1.14600 31.04100
C  31.34200 0.48400 29.35700
C  29.79200 0.62300 32.63000
O  30.78900 0.26300 33.19900
C  28.50900 0.99200 33.38700
C  28.13700 -0.11100 34.35200
O  27.36300 -1.00700 34.05800
O  28.87200 -0.00700 35.54600
C  28.41300 -0.86100 36.67800
H  22.01700 2.36700 31.85600
H  23.59100 2.27500 25.57400
H  29.49400 0.77100 27.12500
H  25.55000 0.92700 34.46500
H  23.45300 2.93300 33.95300
H  23.17500 -0.08500 33.37500
H  22.05500 1.14700 33.97800
H  23.22800 0.44300 35.00100
H  25.27000 3.79200 34.93200
H  26.63100 3.66100 33.82700
H  27.88500 2.93000 35.73900
H  26.59300 1.96800 36.32100
H  19.74800 3.70300 29.76100
H  20.18400 2.34600 30.92100
H  19.48800 2.04400 29.28900
H  18.81700 3.46200 26.15900
H  19.15100 3.64900 27.78200
H  18.86000 1.98900 27.04700
H  25.94200 2.51300 24.39800
H  27.86100 0.50100 24.92500
H  24.57200 0.06600 24.50900
H  26.19600 -0.25000 23.71200
H  25.04900 1.02800 23.19500
H  28.98200 3.10400 25.77900
H  27.89500 3.30300 24.31100
H  29.56500 2.82800 23.08400
H  29.61800 1.20300 23.65300
H  30.63100 2.36000 24.49300
H  32.05500 0.91200 30.06200
H  31.42400 0.89200 28.34900
H  31.56400 -0.58100 29.29700
H  28.78100 1.83900 34.01800
H  28.67500 -1.89200 36.44300
H  27.36300 -0.69000 36.91200
H  29.01500 -0.62900 37.55700
Mg -5.83400 24.71500 26.32000
C  -4.89900 26.44000 29.23000
C  -7.66400 22.64400 28.30900
C  -6.53800 22.78300 23.59900
C  -3.49300 26.49400 24.43900
N  -6.17900 24.54900 28.49100
C  -5.67400 25.37800 29.47400
C  -6.37200 25.13200 30.82800
C  -7.13200 23.81200 30.52500
C  -6.99600 23.63500 29.03000
C  -6.60600 22.54700 31.31600
C  -7.26200 26.36000 31.27200
C  -7.04500 26.69800 32.83000
H  -6.55100 25.66800 33.80900
N  -7.09000 23.12100 25.98800
C  -7.79300 22.38400 26.96800
C  -8.67500 21.36900 26.34400
C  -8.25600 21.39700 24.92800
C  -7.27200 22.46100 24.74900
C  -9.53800 20.55300 27.14000
C  -8.68200 20.45600 23.83800
O  -8.22900 20.40300 22.72200
C  -9.74400 19.47900 24.12700
N  -5.05700 24.64400 24.32500
C  -5.50700 23.67000 23.43800
C  -4.71200 23.76900 22.10500
C  -3.99500 25.16900 22.27100
C  -4.15600 25.47400 23.73100
C  -3.93700 22.53900 21.84000
C  -4.62800 26.38500 21.39900
C  -3.65100 27.02900 20.40300
N  -4.46700 26.11100 26.73000
C  -3.63200 26.87900 25.81100
C  -3.00700 27.97000 26.49000
C  -3.51700 27.82500 27.79800
C  -4.36800 26.68400 27.94000
C  -2.08000 29.05800 25.90000
C  -3.45300 28.39900 29.13200
O  -2.93200 29.40300 29.50600
C  -4.33200 27.53800 30.10900
C  -3.35900 26.88500 31.07700
O  -2.48000 26.01400 30.85000
O  -3.65000 27.49400 32.32300
C  -2.75300 27.20600 33.42400
H  -8.26300 22.01600 28.97200
H  -6.81500 22.31200 22.65300
H  -2.94100 27.13000 23.74400
H  -5.48900 25.09000 31.46600
H  -8.17900 23.99700 30.76200
H  -6.55400 21.68900 30.64600
H  -7.24300 22.45200 32.19500
H  -5.57900 22.76400 31.61100
H  -8.29700 26.06100 31.10400
H  -7.00200 27.21500 30.64800
H  -7.95600 27.17800 33.18700
H  -6.34700 27.53100 32.91900
H  -10.57800 20.64600 26.82600
H  -9.58800 20.90200 28.17200
H  -9.40700 19.47200 27.07500
H  -10.00500 19.08800 23.14400
H  -10.52600 20.04700 24.63100
H  -9.49900 18.71700 24.86700
H  -5.34800 23.95600 21.24000
H  -2.94700 25.14900 21.97100
H  -2.85800 22.65900 21.93500
H  -4.17400 22.25900 20.81400
H  -4.09600 21.73400 22.55900
H  -4.84900 27.25100 22.02200
H  -5.53800 26.06000 20.89500
H  -4.23000 27.33200 19.53000
H  -2.83800 26.35000 20.14600
H  -3.17500 27.92800 20.79500
H  -2.51800 29.58300 25.05200
H  -1.10200 28.64400 25.65400
H  -1.78900 29.78300 26.66000
H  -5.07500 28.13400 30.63900
H  -3.27400 26.70300 34.23800
H  -2.38900 28.15300 33.82200
H  -1.89500 26.58100 33.17600

