158

Mg 25.86300 0.67500 29.30200
C  27.91500 0.49900 32.26200
C  23.31500 1.53200 31.56700
C  23.71900 0.52800 26.75500
C  28.42900 -0.38300 27.27100
N  25.72500 1.17700 31.69200
C  26.70000 1.00100 32.65100
C  26.15500 1.33100 34.05300
C  24.62100 1.67300 33.76000
C  24.48200 1.36500 32.26800
C  23.52100 0.93000 34.59500
C  26.97300 2.51700 34.73400
C  27.57500 2.21600 36.11900
H  27.26900 3.25200 37.23900
N  23.80500 1.01700 29.19700
C  22.95100 1.38400 30.20900
C  21.59900 1.47700 29.65800
C  21.76200 1.33900 28.22200
C  23.13800 0.94500 27.99800
C  20.39100 1.74600 30.59400
C  20.64200 1.34500 27.17900
O  20.84000 1.24500 25.97700
C  19.16400 1.69500 27.59700
N  26.04500 0.40900 27.30700
C  25.03800 0.30700 26.41900
C  25.52900 -0.07200 24.98900
C  26.99800 -0.27600 25.17900
C  27.22600 -0.02600 26.65500
C  24.90700 -1.35300 24.38600
C  27.91100 0.58800 24.26100
C  28.13300 2.12600 24.65300
N  27.79300 0.19200 29.63600
C  28.74400 -0.27700 28.71700
C  29.97100 -0.53600 29.38500
C  29.62900 -0.31300 30.74500
C  28.32100 0.16000 30.90800
C  31.27600 -0.84300 28.86500
C  30.29400 -0.29600 32.06400
O  31.41600 -0.63400 32.39500
C  29.20300 0.31600 33.07700
C  29.15900 -0.57500 34.22700
O  28.53600 -1.65200 34.36500
O  29.73400 0.14900 35.21500
C  29.91400 -0.52400 36.51500
H  22.55600 1.88600 32.26700
H  23.09400 0.37800 25.87200
H  29.23100 -0.49600 26.53800
H  26.05900 0.48500 34.73400
H  24.43300 2.73300 33.93400
H  22.73200 1.54300 35.03000
H  23.92600 0.37400 35.44100
H  23.16500 0.08800 34.00200
H  26.25300 3.27600 35.04000
H  27.71200 2.89000 34.02500
H  28.64700 2.26200 35.93100
H  27.27100 1.22600 36.45700
H  20.67700 1.95800 31.62400
H  19.69800 0.90500 30.61300
H  19.80700 2.57900 30.20300
H  19.09000 2.73200 27.92500
H  18.94200 0.88500 28.29100
H  18.56300 1.45800 26.71900
H  25.36300 0.76300 24.30900
H  27.17000 -1.35100 25.12800
H  25.58500 -1.99400 23.82200
H  24.11200 -1.00200 23.72700
H  24.47600 -1.92400 25.20800
H  27.44700 0.49000 23.28000
H  28.88400 0.10200 24.18400
H  27.67400 2.32600 25.62100
H  27.65000 2.76200 23.91200
H  29.20700 2.30900 24.61300
H  32.04700 -0.82200 29.63600
H  31.59100 -0.15900 28.07700
H  31.36500 -1.82600 28.40400
H  29.58700 1.29100 33.37700
H  29.19700 -0.02300 37.16600
H  30.89800 -0.40100 36.96700
H  29.81300 -1.60800 36.56700
Mg 35.65600 2.18900 30.10400
C  32.95000 3.09600 32.24000
C  37.81800 2.59200 32.84700
C  38.15500 1.73400 28.01200
C  33.31800 2.22500 27.54400
N  35.42100 2.91100 32.34900
C  34.18500 2.95000 32.97800
C  34.44300 3.08200 34.51800
C  36.01400 3.42100 34.59700
C  36.46400 2.94600 33.22600
C  36.39100 4.90100 34.85000
C  34.07200 1.88600 35.32400
C  33.46700 2.09200 36.68600
H  34.17500 3.06400 37.62900
N  37.65300 1.99800 30.45500
C  38.38500 2.10800 31.58700
C  39.80200 1.86300 31.34600
C  39.93900 1.49900 29.94100
C  38.55900 1.74000 29.42900
C  40.85700 1.87400 32.46400
C  41.11700 1.07200 29.06800
O  41.13300 0.95200 27.88000
C  42.42400 0.76600 29.74300
N  35.68000 1.94200 28.06100
C  36.89900 1.80700 27.43500
C  36.71000 1.52200 25.93600
C  35.10900 1.26700 25.86400
C  34.61100 1.81900 27.22900
C  37.07600 2.75700 25.04200
C  34.63000 -0.19100 25.69500
C  33.60300 -0.39800 24.59500
N  33.62300 2.87000 29.82200
C  32.76300 2.77200 28.71000
C  31.31700 3.04400 29.07700
C  31.43500 3.27200 30.46300
C  32.81300 3.04900 30.82300
C  30.12600 3.01200 28.14800
C  30.62300 3.61600 31.64800
O  29.48700 3.83400 31.79900
C  31.57300 3.49200 32.85100
C  31.49200 4.78700 33.50700
O  31.93400 5.81900 33.07900
O  31.09500 4.56700 34.79200
C  31.35200 5.67700 35.69300
H  38.42300 2.70700 33.74900
H  38.95300 1.45900 27.32000
H  32.61100 1.97700 26.74900
H  33.83500 3.82900 35.02900
H  36.32100 2.84800 35.47200
H  35.47100 5.31500 35.26300
H  36.62800 5.52400 33.98700
H  37.10600 5.01300 35.66500
H  34.87100 1.14400 35.34700
H  33.34500 1.36100 34.70500
H  33.47300 1.12800 37.19300
H  32.48500 2.48300 36.41800
H  41.58100 1.06300 32.38900
H  40.41200 1.72900 33.44800
H  41.35300 2.84500 32.47000
H  42.24700 -0.18400 30.24800
H  42.60200 1.69000 30.29400
H  43.14200 0.73000 28.92400
H  37.15600 0.58000 25.61900
H  34.55300 1.92400 25.19500
H  37.20700 3.68000 25.60600
H  36.25100 2.91200 24.34700
H  38.02100 2.66300 24.50700
H  34.30600 -0.69000 26.60800
H  35.51400 -0.70700 25.32000
H  33.24400 0.52400 24.13900
H  32.64100 -0.79100 24.92100
H  33.98500 -1.04200 23.80200
H  29.41600 2.26800 28.51200
H  30.38800 2.63000 27.16200
H  29.78300 4.04500 28.10100
H  31.19800 2.73200 33.53600
H  32.22200 6.27700 35.42700
H  31.52900 5.30100 36.70000
H  30.47700 6.32300 35.61700

