158

Mg 0.97900 8.22200 24.80300
C  1.56600 9.96300 27.68200
C  1.63900 5.26700 26.56000
C  0.55900 6.47200 21.99300
C  1.18800 11.22700 23.00700
N  1.42600 7.69800 26.92900
C  1.48000 8.57300 27.94200
C  1.60300 7.81300 29.31800
C  1.92000 6.31000 28.85800
C  1.64800 6.41300 27.32600
C  3.41200 5.90300 29.11900
C  0.29500 7.98900 30.15000
C  0.56800 8.36600 31.60400
H  1.61100 7.56400 32.36000
N  0.93300 6.16100 24.33000
C  1.27100 5.12600 25.15600
C  1.02300 3.87600 24.45600
C  0.59500 4.19200 23.11800
C  0.64100 5.68100 23.08500
C  1.15100 2.51100 25.06300
C  0.21300 3.34500 21.83700
O  -0.07700 3.81500 20.73200
C  0.36500 1.83400 21.91800
N  0.86800 8.83700 22.80000
C  0.76100 7.87800 21.80400
C  0.77400 8.52800 20.39100
C  0.94400 10.07300 20.74900
C  0.90000 10.10200 22.29600
C  1.84800 8.07600 19.36700
C  -0.04700 11.11200 20.12300
C  0.37500 11.82900 18.82000
N  1.36000 10.23800 25.11700
C  1.39900 11.34100 24.37500
C  1.45400 12.54000 25.17000
C  1.60300 11.99200 26.48100
C  1.49200 10.60900 26.41300
C  1.44800 14.01300 24.72100
C  1.79900 12.34600 27.74500
O  2.07000 13.44200 28.23800
C  1.66900 11.13800 28.65100
C  2.91000 10.98800 29.46200
O  4.07300 10.87400 29.02900
O  2.49800 11.13100 30.72600
C  3.54100 11.38900 31.70700
H  1.98700 4.30300 26.93900
H  0.50900 6.02700 20.99700
H  1.25600 12.11400 22.37400
H  2.38600 8.32500 29.87700
H  1.16500 5.60500 29.20500
H  4.03200 6.55500 29.73400
H  3.86800 5.67400 28.15600
H  3.34700 4.87800 29.48600
H  -0.25200 7.04600 30.15500
H  -0.39700 8.74300 29.77400
H  -0.37000 8.04800 32.05800
H  0.83700 9.41300 31.74400
H  1.70700 2.66100 25.98900
H  1.77300 1.89400 24.41500
H  0.15700 2.07500 25.16000
H  -0.01400 1.22300 22.73700
H  1.43700 1.66100 21.81800
H  -0.01100 1.44700 20.97100
H  -0.24300 8.40100 20.02100
H  1.90800 10.34600 20.32100
H  2.37200 7.34700 19.98500
H  2.42800 8.92700 19.01000
H  1.45400 7.55800 18.49200
H  -0.47400 11.93300 20.69900
H  -0.96300 10.59200 19.84300
H  1.43400 11.74600 18.57700
H  0.47700 12.90300 18.97700
H  -0.17700 11.64100 17.89900
H  1.26300 14.62300 25.60500
H  0.64000 14.16100 24.00400
H  2.43600 14.29400 24.35500
H  0.74800 11.33500 29.20000
H  3.30500 12.26900 32.30500
H  4.51200 11.49400 31.22200
H  3.59900 10.50400 32.34100
Mg 9.46900 47.08200 27.28100
C  7.38800 46.74500 29.92400
C  12.09900 47.71800 29.50400
C  11.46600 47.93400 24.71900
C  6.77000 47.27600 25.20200
N  9.62900 47.49100 29.44900
C  8.72400 46.98800 30.31600
C  9.18900 47.10300 31.83900
C  10.58000 47.70000 31.65800
C  10.78300 47.67500 30.11700
C  10.65900 49.22800 32.10300
C  9.28000 45.72600 32.67200
C  10.24500 45.55200 33.84800
H  9.58300 44.78200 35.03600
N  11.53900 47.50200 27.10500
C  12.49500 47.65300 28.11900
C  13.83700 47.84300 27.65400
C  13.64900 47.91700 26.22700
C  12.17900 47.80300 25.97800
C  15.15600 47.92100 28.47400
C  14.67300 48.08700 25.15400
O  14.45300 48.09500 23.95200
C  16.17000 48.26500 25.60100
N  9.10200 47.80000 25.31400
C  10.13400 47.99000 24.39100
C  9.63300 48.32000 23.04600
C  8.08100 47.94300 23.19200
C  7.94300 47.56900 24.60100
C  9.86400 49.83200 22.61300
C  7.63400 46.70100 22.22800
C  6.74800 47.13800 21.05800
N  7.47900 47.04700 27.45500
C  6.46500 47.02200 26.57600
C  5.10800 46.73800 27.19200
C  5.52100 46.64500 28.47200
C  6.89600 46.82000 28.61600
C  3.75500 46.63300 26.51600
C  4.97100 46.47500 29.77800
O  3.76200 46.26400 29.99500
C  6.11200 46.61000 30.82600
C  6.14200 45.47900 31.69400
O  6.84900 44.45700 31.52400
O  5.13900 45.62800 32.63100
C  5.05500 44.51400 33.65200
H  13.00400 47.84000 30.10300
H  11.95900 48.15000 23.76800
H  5.90300 47.23500 24.54000
H  8.52800 47.77300 32.38900
H  11.39100 47.09400 32.06300
H  11.59100 49.46000 32.61800
H  9.83600 49.64200 32.68500
H  10.68500 49.78300 31.16500
H  9.36800 44.86700 32.00700
H  8.32500 45.66900 33.19400
H  10.61700 46.46700 34.30700
H  11.05100 44.85000 33.63700
H  15.05000 47.70300 29.53600
H  15.73500 48.84500 28.45500
H  15.79000 47.10700 28.12100
H  16.75600 48.51500 24.71600
H  16.59200 47.33400 25.97900
H  16.18300 48.98600 26.41800
H  9.97800 47.79100 22.15700
H  7.62000 48.88500 22.89700
H  9.09000 50.59700 22.56000
H  10.35600 49.80100 21.64100
H  10.56800 50.23400 23.34200
H  7.08100 45.96700 22.81400
H  8.53400 46.22800 21.83600
H  6.82000 48.19200 20.79100
H  5.75100 46.95700 21.46000
H  6.96900 46.42400 20.26400
H  3.96600 46.23500 25.52400
H  3.30700 47.61100 26.34000
H  3.01600 46.06900 27.08500
H  5.83100 47.42100 31.49900
H  4.59600 43.67700 33.12500
H  4.25100 44.80000 34.33000
H  6.02800 44.39600 34.13000

