158

Mg 25.78800 0.46700 30.08600
C  27.57600 0.03100 32.97700
C  22.87800 0.62300 31.90400
C  24.16100 0.69500 27.07100
C  28.78900 -0.32300 28.18600
N  25.35400 0.31000 32.16500
C  26.19700 0.30100 33.19500
C  25.45600 0.61500 34.52300
C  23.91400 0.31100 34.16600
C  24.03400 0.36100 32.64300
C  23.35600 -1.03300 34.76900
C  25.72900 2.00700 35.05500
C  26.66500 2.09900 36.24300
H  26.21700 2.94700 37.42700
N  23.79900 0.78800 29.53500
C  22.75100 0.88800 30.45200
C  21.50400 1.16500 29.67800
C  21.85500 1.07900 28.29600
C  23.31700 0.85400 28.24300
C  20.27000 1.46300 30.55000
C  20.93900 1.30600 27.12100
O  21.29800 1.49800 25.94200
C  19.46300 1.42700 27.26800
N  26.37600 0.06500 27.84600
C  25.50700 0.37600 26.91300
C  26.20400 0.37200 25.55000
C  27.68600 0.05900 25.84400
C  27.67400 -0.05600 27.34800
C  25.64200 -0.68600 24.54800
C  28.63000 1.16300 25.39500
C  28.31900 2.62800 25.78100
N  27.77900 -0.15500 30.45000
C  28.88700 -0.31700 29.61500
C  30.04100 -0.63000 30.48700
C  29.60600 -0.47900 31.80600
C  28.18800 -0.20100 31.71300
C  31.41400 -0.97900 30.07500
C  30.02300 -0.42300 33.19900
O  31.13400 -0.52500 33.63900
C  28.66300 -0.27000 34.02600
C  28.45100 -1.53300 34.70300
O  27.47500 -2.25700 34.56200
O  29.52200 -1.77900 35.62000
C  29.12700 -2.70200 36.65400
H  21.96400 0.69000 32.49900
H  23.52000 0.67000 26.18700
H  29.68500 -0.55900 27.60900
H  25.89600 -0.12300 35.19400
H  23.40600 1.17000 34.60400
H  24.19100 -1.51200 35.28100
H  22.92700 -1.56200 33.91800
H  22.67300 -0.79300 35.58400
H  24.90000 2.64700 35.35800
H  26.21100 2.57500 34.25900
H  27.62500 2.50200 35.92100
H  26.97900 1.10200 36.55100
H  20.28400 1.75800 31.59900
H  19.53000 0.68900 30.34400
H  19.90800 2.39000 30.10500
H  19.32200 2.34100 27.84400
H  19.04500 0.54200 27.74800
H  19.03500 1.56700 26.27500
H  26.00800 1.37500 25.17100
H  27.96900 -0.81800 25.26100
H  24.89000 -0.16500 23.95500
H  25.22900 -1.52100 25.11500
H  26.37800 -1.13300 23.87900
H  28.62200 0.99900 24.31700
H  29.61200 0.88000 25.77200
H  27.63200 2.68400 26.62500
H  27.94000 3.17900 24.92000
H  29.25600 3.01800 26.17700
H  31.74400 -0.62100 29.09900
H  31.53400 -2.06100 30.02400
H  32.04500 -0.66700 30.90700
H  28.71800 0.50500 34.78900
H  29.95400 -2.92400 37.32800
H  28.95700 -3.68200 36.20700
H  28.18300 -2.51200 37.16500
Mg 47.73500 44.79900 43.34000
C  44.39300 43.84400 42.69800
C  48.51000 41.43100 42.91700
C  51.05500 45.65200 43.44800
C  46.91600 48.19100 43.11700
N  46.54800 42.89800 42.93900
C  45.21000 42.71800 42.69300
C  44.73400 41.25600 42.48800
C  46.12600 40.58600 42.72500
C  47.13800 41.74800 42.98700
C  46.09300 39.47900 43.83400
C  44.12400 41.00500 41.02200
C  44.76500 41.79800 39.84900
H  44.55400 41.28300 38.46000
N  49.53300 43.63500 43.29600
C  49.64800 42.30500 43.06800
C  51.01800 41.91500 43.00600
C  51.77500 43.09400 43.14000
C  50.82900 44.24600 43.36300
C  51.50100 40.45300 42.77700
C  53.32300 43.25600 43.24400
O  53.91600 42.18100 43.21700
C  54.13300 44.56700 43.37100
N  48.84100 46.59900 43.34300
C  50.17300 46.74100 43.44100
C  50.63800 48.16600 43.23300
C  49.27300 48.98000 43.49700
C  48.31900 47.88300 43.21900
C  51.82500 48.49600 44.16800
C  49.09600 50.19400 42.49000
C  48.47000 51.48400 43.07100
N  46.02300 45.84000 42.94000
C  45.86200 47.24800 43.00700
C  44.43200 47.54100 42.87400
C  43.81800 46.25400 42.73200
C  44.82800 45.24500 42.79000
C  43.74000 48.88600 42.89500
C  42.55000 45.52900 42.63800
O  41.37700 45.90500 42.58000
C  42.88600 43.95300 42.65200
C  42.18800 43.30500 43.81400
O  41.22000 42.54800 43.71800
O  42.58000 43.91500 45.01600
C  41.69900 43.62200 46.14400
H  48.76100 40.37100 42.83100
H  52.12000 45.88700 43.50200
H  46.68200 49.23200 43.34900
H  43.97300 41.02000 43.23100
H  46.46300 40.12900 41.79500
H  46.93200 39.63500 44.51100
H  46.32700 38.52400 43.36200
H  45.17700 39.26700 44.38700
H  43.06700 41.15500 41.24100
H  44.27500 39.98300 40.67300
H  45.82800 41.90700 40.06100
H  44.33300 42.79800 39.89900
H  51.52300 39.87000 43.69800
H  52.51300 40.34100 42.38800
H  50.82800 39.99700 42.05100
H  53.93900 45.22900 42.52700
H  55.19000 44.31900 43.46700
H  53.78300 44.90300 44.34600
H  51.04000 48.33000 42.23300
H  49.08000 49.40000 44.48400
H  51.57700 49.51200 44.47500
H  52.86800 48.42700 43.85800
H  51.75700 47.96100 45.11600
H  48.52600 49.92200 41.60200
H  50.12100 50.38600 42.17400
H  48.19300 51.31500 44.11200
H  47.61100 51.81500 42.48700
H  49.17500 52.31400 43.10200
H  44.27200 49.39000 43.70100
H  42.68100 48.81400 43.14400
H  43.85600 49.48100 41.98900
H  42.47400 43.43300 41.78700
H  41.99900 44.23500 46.99300
H  41.77100 42.56500 46.40000
H  40.63900 43.79900 45.96300

