158

Mg 39.86900 8.75200 29.53800
C  41.53900 10.08900 32.29500
C  37.49900 7.38600 31.53800
C  38.59800 7.04400 26.86200
C  42.59900 9.74900 27.60200
N  39.61300 8.69800 31.64800
C  40.31500 9.46400 32.59000
C  39.60600 9.48000 33.98700
C  38.54000 8.34800 33.84700
C  38.57700 8.03700 32.29000
C  38.88700 6.95600 34.54600
C  39.03500 10.85700 34.41100
C  38.75400 11.16500 35.94100
H  39.65700 12.11700 36.77700
N  38.29300 7.45200 29.22600
C  37.38400 7.08200 30.15100
C  36.37400 6.37000 29.52500
C  36.57000 6.33600 28.11000
C  37.84000 6.92600 28.02900
C  35.25100 5.74100 30.35200
C  35.80300 5.71000 27.04700
O  36.28300 5.52300 25.91600
C  34.31300 5.47500 27.31400
N  40.60600 8.41600 27.57000
C  39.83600 7.73500 26.66500
C  40.54500 7.72500 25.24500
C  41.51300 8.91000 25.49500
C  41.56900 9.11100 26.98800
C  41.28400 6.35600 24.96800
C  41.04200 10.19800 24.74800
C  39.74000 10.81300 25.10300
N  41.70600 9.78000 29.81400
C  42.76200 10.09800 28.96100
C  43.86200 10.66400 29.64700
C  43.36700 10.74600 31.01600
C  42.12200 10.16700 31.00200
C  45.16600 11.24400 29.10200
C  43.64700 11.43300 32.28000
O  44.40200 12.30500 32.66300
C  42.49800 10.85800 33.17100
C  43.09000 10.09300 34.33100
O  43.96300 9.29400 34.23900
O  42.54700 10.59300 35.52500
C  43.11400 10.01500 36.74500
H  36.69300 7.07700 32.20700
H  38.25400 6.50400 25.97800
H  43.43100 10.09500 26.98500
H  40.35400 9.23000 34.73900
H  37.58600 8.73700 34.20000
H  38.82000 6.17300 33.79100
H  38.15500 6.75100 35.32700
H  39.82200 6.86600 35.09900
H  38.15300 11.13300 33.83300
H  39.71200 11.67900 34.17800
H  38.73600 10.28100 36.57800
H  37.76000 11.57500 36.12200
H  35.35200 5.63700 31.43300
H  34.97300 4.77200 29.93700
H  34.35700 6.35800 30.26600
H  33.87500 6.32600 27.83600
H  34.26800 4.57900 27.93300
H  33.70200 5.19000 26.45800
H  39.87800 7.91100 24.40300
H  42.50900 8.51600 25.29600
H  42.32000 6.34200 24.63100
H  40.67800 5.87100 24.20300
H  41.21000 5.71900 25.85000
H  41.02700 9.94300 23.68900
H  41.83100 10.92500 24.94300
H  39.88200 11.84700 25.41600
H  39.19300 10.16700 25.79100
H  39.20000 10.81200 24.15600
H  45.25800 12.25000 29.51000
H  45.20100 11.28400 28.01300
H  45.96600 10.56900 29.40500
H  41.98800 11.73900 33.55900
H  42.84500 10.59900 37.62500
H  44.18400 10.20300 36.65400
H  43.01000 8.93100 36.80900
Mg 7.81200 53.56400 40.38000
C  7.07000 50.14400 39.96000
C  11.02800 52.99400 39.68800
C  8.06200 56.89100 39.93700
C  4.36900 54.09300 41.07700
N  8.86900 51.72800 39.86000
C  8.43500 50.46300 39.70700
C  9.63000 49.52100 39.41300
C  10.89100 50.45100 39.87100
C  10.24300 51.82800 39.78200
C  11.25000 50.08800 41.35900
C  9.87300 48.92000 38.01400
C  9.79600 50.03100 36.87000
H  8.42300 50.21100 36.15500
N  9.30900 54.74700 39.86000
C  10.65200 54.35400 39.72500
C  11.48000 55.52700 39.58300
C  10.58900 56.68700 39.69600
C  9.23300 56.16000 39.85300
C  13.02300 55.37700 39.37700
C  10.99800 58.11500 39.61400
O  12.19600 58.32700 39.42800
C  10.08500 59.32900 39.74100
N  6.33300 55.28800 40.32600
C  6.70200 56.57600 40.13400
C  5.53000 57.54100 40.34800
C  4.39200 56.54700 40.80200
C  5.08200 55.24700 40.73300
C  5.82300 58.72800 41.35400
C  3.09800 56.61500 39.86400
C  1.85100 57.33400 40.37300
N  6.11100 52.41000 40.60200
C  4.82800 52.78000 40.86400
C  4.04000 51.66000 40.90800
C  4.85500 50.54100 40.55000
C  6.14300 51.09700 40.38900
C  2.59400 51.61800 41.14900
C  4.84700 49.09300 40.30100
O  3.95100 48.26800 40.37600
C  6.40500 48.84700 39.90400
C  6.34500 48.15800 38.60400
O  5.78800 48.45700 37.56600
O  6.85400 46.86100 38.82100
C  6.94400 45.97600 37.68400
H  12.09100 52.81800 39.51200
H  8.18800 57.97100 39.83500
H  3.33800 54.34800 41.33000
H  9.57900 48.64500 40.05900
H  11.70400 50.35700 39.15200
H  10.90500 50.87100 42.03400
H  12.33600 50.17700 41.33200
H  10.91300 49.10200 41.67700
H  8.98400 48.29000 37.96200
H  10.87800 48.50100 37.96900
H  10.44000 49.59300 36.10800
H  10.15700 51.02800 37.12400
H  13.54900 56.28600 39.66900
H  13.20700 55.19700 38.31800
H  13.41300 54.61000 40.04600
H  9.39800 59.33000 38.89400
H  10.71700 60.20900 39.62700
H  9.61100 59.37800 40.72200
H  5.26800 57.88400 39.34700
H  4.26300 56.77500 41.86000
H  6.80800 58.64000 41.81200
H  5.11200 58.85800 42.17000
H  5.99500 59.66500 40.82500
H  2.77200 55.59500 39.66300
H  3.40400 56.91100 38.86000
H  1.53000 57.10000 41.38800
H  1.03800 57.17900 39.66300
H  2.11000 58.39300 40.40700
H  2.19900 52.34400 41.86000
H  2.30000 50.68900 41.63700
H  2.10200 51.73800 40.18400
H  6.77900 48.09700 40.60100
H  7.59900 45.14000 37.93000
H  7.39100 46.58900 36.90200
H  5.93000 45.64900 37.45300

