158

Mg 0.53700 7.52900 26.03100
C  1.24700 9.40800 28.84800
C  0.30200 4.76600 28.09000
C  0.29200 5.57100 23.31400
C  1.29100 10.32500 24.04800
N  0.88800 7.17200 28.25400
C  1.10600 8.07000 29.21800
C  0.99200 7.50600 30.64700
C  0.89200 5.96900 30.31500
C  0.61700 5.99100 28.79200
C  2.08200 5.02400 30.61800
C  -0.28200 8.08300 31.35200
C  -0.30600 8.04400 32.89800
H  0.93700 7.62100 33.69400
N  0.17900 5.39700 25.75200
C  0.13600 4.47500 26.73500
C  -0.20000 3.23800 26.11000
C  -0.04600 3.40100 24.68500
C  0.14400 4.82900 24.52800
C  -0.54000 1.98600 26.94900
C  -0.12700 2.37100 23.55400
O  -0.07000 2.73600 22.34800
C  -0.65400 0.98200 23.91100
N  0.81300 7.82200 24.02800
C  0.52900 6.88300 23.07800
C  0.44900 7.50700 21.66100
C  0.52500 9.11500 21.93900
C  0.99500 9.06300 23.42100
C  1.40000 6.86300 20.60900
C  -0.86100 9.81800 21.82600
C  -0.88100 11.21700 21.08500
N  1.18800 9.52000 26.32200
C  1.46000 10.53400 25.43700
C  1.70200 11.81600 26.17800
C  1.62300 11.40500 27.49100
C  1.26900 10.01700 27.57600
C  1.83900 13.24100 25.64900
C  1.74700 11.77400 28.89400
O  1.98300 12.92500 29.29400
C  1.34900 10.59100 29.78800
C  2.42300 10.55800 30.77600
O  3.59200 10.21200 30.56900
O  1.99700 10.95600 31.95900
C  3.06800 11.26400 32.92600
H  0.15800 3.92400 28.77000
H  0.11100 4.97200 22.42000
H  1.38600 11.09900 23.28400
H  1.94400 7.83100 31.06700
H  -0.01700 5.67500 30.84000
H  2.56200 5.51500 31.46500
H  2.67800 4.87900 29.71700
H  1.62700 4.06000 30.84400
H  -1.12000 7.44400 31.07700
H  -0.47600 9.13500 31.14200
H  -0.99600 7.20300 32.97200
H  -0.66000 9.02900 33.20300
H  -0.11700 1.10000 26.47600
H  -1.62200 1.85400 26.95300
H  -0.10900 2.02600 27.95000
H  -0.94900 0.36400 23.06200
H  -1.57700 1.19900 24.44800
H  0.07100 0.38000 24.46000
H  -0.54900 7.36900 21.24600
H  1.35000 9.55000 21.37500
H  1.81500 5.93400 21.00000
H  2.24300 7.52700 20.42300
H  0.85400 6.61900 19.69700
H  -1.22000 10.01700 22.83600
H  -1.58600 9.20900 21.28600
H  -1.41300 11.05200 20.14800
H  0.15100 11.53000 20.93100
H  -1.38300 11.89300 21.77800
H  1.89400 13.37000 24.56800
H  2.67500 13.74500 26.13300
H  0.93100 13.70400 26.03700
H  0.40800 10.83700 30.27900
H  3.89900 11.79300 32.46000
H  3.35400 10.37500 33.48800
H  2.63300 11.87000 33.72100
Mg 42.38200 41.94800 25.23300
C  41.84100 44.40100 27.70200
C  43.95400 39.94300 27.58600
C  42.74400 39.66800 22.84800
C  41.21500 44.30700 22.89300
N  42.75100 42.13900 27.31800
C  42.33400 43.14700 28.16800
C  42.61000 42.84300 29.61700
C  43.27500 41.48800 29.53100
C  43.44500 41.20200 28.03700
C  44.54400 41.37800 30.42500
C  41.34300 42.75200 30.54600
C  41.40800 42.16300 31.96500
H  42.00200 43.06000 33.01900
N  43.30900 40.03800 25.22100
C  43.94300 39.40400 26.28800
C  44.31200 38.10100 25.92000
C  43.85700 37.98000 24.55000
C  43.26300 39.26000 24.12400
C  44.87700 37.02700 26.89600
C  43.89200 36.73300 23.70800
O  43.61600 36.75400 22.53900
C  44.31600 35.41200 24.31300
N  42.19900 42.04600 23.10800
C  42.20600 40.88700 22.39100
C  41.88200 41.19600 20.87500
C  41.24900 42.58500 20.99300
C  41.67600 43.05900 22.41400
C  43.13200 41.04000 19.99200
C  39.73900 42.67200 20.79400
C  38.83500 41.64400 21.59800
N  41.77800 43.97600 25.19100
C  41.35900 44.74400 24.19500
C  41.03200 46.08800 24.66800
C  41.12800 45.96500 26.10100
C  41.63500 44.71200 26.32500
C  40.56300 47.24000 23.94800
C  41.00000 46.71500 27.32900
O  40.64800 47.86700 27.55500
C  41.32600 45.66600 28.42900
C  42.31500 46.34200 29.30800
O  43.47000 46.49600 29.01100
O  41.69600 46.64600 30.54400
C  42.67000 47.29300 31.45600
H  44.45900 39.37400 28.36900
H  42.82300 38.87000 22.10700
H  40.73000 45.04500 22.25100
H  43.32700 43.58800 29.96200
H  42.49500 40.82500 29.90500
H  45.31400 41.35800 29.65300
H  44.48100 40.39000 30.88000
H  44.49100 42.22800 31.10400
H  40.46700 42.31800 30.06500
H  41.03700 43.74500 30.87400
H  41.94200 41.21400 32.01900
H  40.39500 41.96900 32.31900
H  44.86900 37.32600 27.94400
H  45.89100 36.81800 26.55700
H  44.33600 36.08200 26.94400
H  45.27300 35.70500 24.74600
H  44.51600 34.68700 23.52400
H  43.45800 35.11300 24.91500
H  41.13600 40.50400 20.48400
H  41.65400 43.29100 20.26800
H  43.36600 41.98400 19.50000
H  42.99400 40.37600 19.13900
H  44.00300 40.67200 20.53500
H  39.70600 42.53800 19.71300
H  39.35800 43.66800 21.01600
H  38.12400 42.28000 22.12500
H  39.47100 41.23500 22.38300
H  38.46800 40.94200 20.84900
H  39.98600 46.99300 23.05700
H  41.37500 47.89200 23.62500
H  39.91400 47.76800 24.64600
H  40.47700 45.41000 29.06200
H  43.35000 48.01800 31.00700
H  43.32300 46.58900 31.97300
H  42.13400 47.87300 32.20800

