158

Mg 54.38000 24.32400 44.14600
C  51.69900 26.53200 43.41700
C  52.52100 21.69700 43.28800
C  57.32200 22.70500 43.80300
C  56.27600 27.31500 44.80200
N  52.34900 24.14100 43.31500
C  51.38000 25.14400 43.16700
C  50.02100 24.45100 42.89900
C  50.29500 22.94600 43.18600
C  51.80300 22.91400 43.22800
C  49.58600 22.48700 44.49800
C  49.51900 24.73600 41.37800
C  47.97700 24.94600 41.20400
H  47.45100 25.06700 39.80300
N  54.81700 22.35600 43.73100
C  53.87500 21.39900 43.42400
C  54.59200 20.14900 43.23500
C  55.96400 20.41800 43.53200
C  56.10500 21.88900 43.77400
C  53.94500 18.81900 42.87900
C  57.10800 19.42000 43.43700
O  56.85300 18.29000 43.03900
C  58.50600 19.69400 43.94700
N  56.56400 24.97300 44.18700
C  57.58200 24.08400 44.02000
C  58.96700 24.69600 44.30500
C  58.58500 26.22000 44.59100
C  57.07500 26.20700 44.54300
C  60.00400 24.05600 45.31900
C  59.20500 27.26800 43.58400
C  59.70800 28.63000 44.09000
N  54.07600 26.46800 44.26300
C  54.88000 27.51200 44.69900
C  54.09000 28.64600 44.92200
C  52.84700 28.39400 44.35700
C  52.89700 27.04600 43.96800
C  54.49700 29.97500 45.59800
C  51.52500 28.85600 44.09400
O  51.03000 29.90100 44.42600
C  50.82100 27.72000 43.29600
C  50.67100 28.17400 41.88400
O  51.57400 28.54200 41.20100
O  49.37700 28.13700 41.54900
C  48.87300 28.71900 40.31300
H  51.87900 20.82600 43.14300
H  58.28800 22.19600 43.78900
H  56.80400 28.19000 45.18700
H  49.19600 24.83700 43.49800
H  50.10500 22.24700 42.37200
H  50.30700 22.30200 45.29400
H  49.05600 21.57500 44.22500
H  48.78100 23.19600 44.69400
H  49.77500 23.84300 40.80700
H  50.03300 25.57700 40.91400
H  47.75600 25.79000 41.85800
H  47.34700 24.14700 41.59300
H  53.06400 19.14500 42.32600
H  53.62500 18.25100 43.75300
H  54.55200 18.16400 42.25400
H  59.10700 20.20500 43.19500
H  58.95900 18.71500 44.10100
H  58.38700 20.21600 44.89700
H  59.45600 24.64100 43.33300
H  58.88400 26.56300 45.58200
H  59.62100 23.10500 45.68800
H  60.05300 24.75400 46.15400
H  61.01300 23.92000 44.92700
H  58.51600 27.28800 42.74000
H  60.10100 26.82800 43.14800
H  60.67300 28.94100 43.69100
H  59.81700 28.64900 45.17400
H  59.01400 29.46300 43.97000
H  53.93500 29.96200 46.53200
H  54.07900 30.79600 45.01500
H  55.57600 30.11100 45.67000
H  49.86000 27.37200 43.67300
H  49.61100 29.18100 39.65800
H  48.15100 29.49300 40.57300
H  48.41000 27.91800 39.73500
Mg -10.29100 39.28400 41.63900
C  -8.89500 36.12400 40.93600
C  -7.80500 40.70400 39.86700
C  -12.23500 42.03100 41.32200
C  -13.23300 37.50900 42.57400
N  -8.54900 38.48700 40.56800
C  -8.13800 37.15500 40.40700
C  -6.83500 37.08100 39.63000
C  -6.51500 38.53600 39.29000
C  -7.70300 39.32100 39.93700
C  -5.14200 39.00300 39.82800
C  -6.92000 36.03100 38.38400
C  -5.64500 35.34200 38.07900
H  -4.65800 36.19500 37.18900
N  -9.92100 41.16100 40.96500
C  -8.80600 41.58700 40.32400
C  -8.83300 42.97300 40.08300
C  -10.16200 43.42400 40.53000
C  -10.88900 42.18600 40.92000
C  -7.74100 43.74100 39.36800
C  -10.64600 44.86000 40.63800
O  -10.07000 45.76000 40.16300
C  -11.98400 45.23800 41.40900
N  -12.48300 39.72000 41.82500
C  -12.93300 40.98800 41.76900
C  -14.47800 41.00800 42.20200
C  -14.70900 39.50500 42.51600
C  -13.38600 38.88700 42.34300
C  -14.91600 42.08400 43.25600
C  -15.82900 38.89500 41.64300
C  -15.42800 38.27400 40.34200
N  -10.99800 37.21600 41.82100
C  -12.10300 36.72500 42.37000
C  -11.96500 35.29800 42.56400
C  -10.72700 34.96300 41.97600
C  -10.14800 36.20900 41.58600
C  -12.90700 34.39000 43.33000
C  -9.71900 33.93700 41.86400
O  -9.64400 32.75300 42.15200
C  -8.55900 34.62600 41.05300
C  -7.16700 34.42700 41.76200
O  -6.29900 33.61100 41.46400
O  -7.01200 35.37400 42.77100
C  -5.95200 35.10100 43.76500
H  -7.13000 41.13300 39.12300
H  -12.94400 42.85700 41.24300
H  -14.07500 37.04100 43.08700
H  -6.17000 36.72500 40.41700
H  -6.52900 38.65400 38.20700
H  -5.26300 39.85100 40.50200
H  -4.69300 39.53800 38.99200
H  -4.52200 38.22800 40.28000
H  -7.12900 36.61000 37.48400
H  -7.74600 35.32300 38.31800
H  -5.89500 34.39900 37.59100
H  -5.08100 35.03600 38.96000
H  -7.27200 43.12800 38.59800
H  -7.02700 44.09600 40.11100
H  -8.17700 44.59200 38.84500
H  -12.10200 44.62900 42.30400
H  -12.86000 45.06700 40.78400
H  -12.07000 46.31600 41.54900
H  -14.95700 41.30900 41.27000
H  -14.90200 39.27900 43.56400
H  -15.47200 42.89600 42.78600
H  -14.04400 42.37000 43.84500
H  -15.63000 41.71100 43.99100
H  -16.56400 39.67100 41.42900
H  -16.33200 38.13600 42.24300
H  -16.08400 38.77000 39.62700
H  -15.64400 37.20700 40.40200
H  -14.37800 38.41600 40.08600
H  -12.66000 34.31100 44.38900
H  -12.74400 33.40200 42.89900
H  -13.94300 34.72000 43.25900
H  -8.38500 34.09000 40.12000
H  -4.96000 34.93800 43.34400
H  -6.38600 34.30200 44.36700
H  -5.84700 36.03200 44.32300

