158

Mg 0.50200 8.22200 27.24000
C  1.10100 10.34900 29.97500
C  0.64900 5.57900 29.33500
C  0.50000 6.27800 24.53900
C  0.72500 11.04400 25.11500
N  0.91000 7.97500 29.41600
C  1.01900 8.99700 30.34800
C  0.74700 8.45400 31.76300
C  1.03000 6.99600 31.54200
C  0.77700 6.76600 30.00000
C  2.43700 6.49800 31.94300
C  -0.68900 8.79200 32.27100
C  -1.04700 9.19000 33.79200
H  -0.02700 8.94100 34.92300
N  0.56800 6.15700 26.98500
C  0.63500 5.19000 27.95600
C  0.65500 3.86200 27.38900
C  0.54400 4.01200 25.99600
C  0.55500 5.57300 25.77400
C  0.81500 2.57000 28.13700
C  0.43500 2.98000 24.88500
O  0.36000 3.34900 23.70800
C  0.36300 1.53000 25.18200
N  0.56300 8.64700 25.15500
C  0.52500 7.66900 24.26100
C  0.33300 8.18100 22.84200
C  -0.04500 9.70500 23.10500
C  0.41200 9.79800 24.52600
C  1.60800 8.09700 22.00600
C  -1.50300 10.03000 22.93400
C  -1.77100 11.28600 22.14000
N  0.77600 10.33000 27.48200
C  0.99500 11.30600 26.50600
C  1.27400 12.54800 27.15400
C  1.35600 12.26300 28.50700
C  1.09000 10.87000 28.61700
C  1.40500 13.86000 26.56800
C  1.57400 12.80400 29.86100
O  1.78400 13.91500 30.23600
C  1.26100 11.58200 30.83000
C  2.39200 11.48400 31.85600
O  3.42300 10.89400 31.67300
O  1.97400 12.10100 33.04300
C  2.98800 12.35500 33.98100
H  0.80400 4.82700 30.11200
H  0.38600 5.76400 23.58200
H  0.59400 11.79300 24.33200
H  1.46200 8.90200 32.45200
H  0.32700 6.39500 32.12000
H  2.94400 7.34300 32.40800
H  3.14500 6.09700 31.21800
H  2.20300 5.63800 32.57000
H  -1.30800 7.94500 31.97500
H  -0.93100 9.68600 31.69700
H  -2.03400 8.76900 33.98300
H  -1.26900 10.25500 33.84300
H  0.85700 2.69000 29.21900
H  1.68100 1.94400 27.92200
H  -0.09400 1.97800 28.03300
H  1.22100 1.09400 25.69400
H  0.32000 1.04600 24.20700
H  -0.51400 1.30200 25.78800
H  -0.53900 7.66400 22.44300
H  0.52100 10.38200 22.46500
H  1.59700 7.06400 21.65800
H  2.49700 8.14100 22.63500
H  1.70600 8.85800 21.23100
H  -2.01400 10.01500 23.89600
H  -2.10700 9.24700 22.47600
H  -0.92500 11.58900 21.52200
H  -2.04100 12.05200 22.86600
H  -2.59000 11.13900 21.43500
H  1.69900 14.55000 27.35900
H  0.44800 14.28800 26.27000
H  2.08800 13.84300 25.71800
H  0.33600 11.96400 31.26300
H  2.60100 12.79300 34.90100
H  3.73600 13.06000 33.61900
H  3.62300 11.49200 34.17700
Mg -2.88200 34.75800 26.99600
C  -4.79400 33.12400 29.43700
C  -1.77600 36.80500 29.47100
C  -1.12600 36.33800 24.58800
C  -4.32200 32.63500 24.58200
N  -3.41100 35.04200 29.26600
C  -4.11500 34.15300 30.01400
C  -3.82400 34.41700 31.56900
C  -2.86200 35.67400 31.56600
C  -2.60100 35.85600 30.01900
C  -3.36500 36.98000 32.27900
C  -3.19800 33.13000 32.35800
C  -3.97200 32.77700 33.61700
H  -3.10500 32.53500 34.90600
N  -1.59200 36.35300 27.00500
C  -1.30400 37.05900 28.12000
C  -0.41000 38.11600 27.70200
C  -0.16300 37.97300 26.28900
C  -0.94700 36.89400 25.88600
C  0.21100 39.14300 28.65500
C  0.64300 38.80600 25.35700
O  0.68700 38.59900 24.14200
C  1.35100 40.01000 25.78800
N  -2.89800 34.67000 24.78700
C  -1.95100 35.34000 24.01800
C  -1.81400 34.72500 22.60400
C  -2.89500 33.55400 22.65100
C  -3.34200 33.61400 24.10200
C  -2.16200 35.85500 21.51300
C  -2.23200 32.17200 22.22700
C  -3.17600 31.25300 21.34100
N  -4.41900 33.30200 26.91200
C  -4.87200 32.52800 25.85100
C  -5.74600 31.51900 26.44300
C  -5.76100 31.73800 27.81600
C  -4.90000 32.81900 28.05200
C  -6.56800 30.43000 25.71300
C  -6.31600 31.19600 28.94500
O  -7.03400 30.20800 29.12200
C  -5.75900 32.13600 30.13800
C  -6.97200 32.81100 30.75000
O  -7.55300 33.69900 30.22100
O  -7.29300 32.17300 31.97300
C  -8.38000 32.94100 32.64400
H  -1.31400 37.48300 30.19100
H  -0.68100 36.84000 23.72700
H  -4.73600 31.85500 23.93800
H  -4.79100 34.69900 31.98500
H  -1.93000 35.30400 31.99400
H  -2.47400 37.49200 32.64300
H  -4.00000 36.73800 33.13100
H  -3.88500 37.63300 31.57800
H  -2.16000 33.37200 32.58300
H  -3.14300 32.29800 31.65600
H  -4.51900 31.87700 33.33400
H  -4.68800 33.59200 33.72300
H  1.28500 38.96000 28.65100
H  -0.05800 38.97400 29.69800
H  0.02400 40.19000 28.41500
H  0.71200 40.79500 26.19100
H  1.88000 40.45300 24.94400
H  2.08500 39.57900 26.46900
H  -0.79700 34.38800 22.40100
H  -3.82100 33.65300 22.08400
H  -2.18700 36.83400 21.99200
H  -3.19900 35.66200 21.23800
H  -1.46300 35.63900 20.70500
H  -1.95100 31.50400 23.04100
H  -1.34000 32.32800 21.62100
H  -4.04900 31.75600 20.92700
H  -3.45300 30.44400 22.01800
H  -2.57400 30.76900 20.57200
H  -7.52000 30.26200 26.21500
H  -6.02700 29.48400 25.73500
H  -6.73800 30.65800 24.66100
H  -5.38700 31.38700 30.83700
H  -7.81600 33.69900 33.18800
H  -8.93700 32.31500 33.34100
H  -9.11300 33.51000 32.07400

