158

Mg 1.36100 8.68500 26.97000
C  1.87700 10.73900 29.74700
C  1.49400 5.94400 29.18500
C  1.22800 6.54400 24.32100
C  1.90700 11.38900 24.84200
N  1.55900 8.38800 29.16900
C  1.69300 9.41800 30.14200
C  1.53600 8.89100 31.56500
C  1.87600 7.35800 31.35900
C  1.61100 7.15400 29.85800
C  3.23900 6.85300 31.73800
C  0.07200 9.16400 32.05400
C  -0.23600 9.06500 33.53700
H  0.84700 8.68700 34.57300
N  1.43200 6.57200 26.73500
C  1.40500 5.62900 27.81500
C  1.14200 4.29700 27.25900
C  0.90400 4.46800 25.86400
C  1.22000 5.90100 25.55100
C  1.14400 3.11800 28.28000
C  0.32200 3.48500 24.83500
O  -0.09800 3.83700 23.72500
C  0.15800 2.13200 25.30100
N  1.69800 8.99800 24.75700
C  1.48500 7.88600 23.97000
C  1.38200 8.49700 22.50500
C  1.27400 10.07000 22.68700
C  1.70600 10.18000 24.14900
C  2.64100 8.11100 21.79200
C  -0.13200 10.69600 22.43100
C  -0.20500 11.99500 21.61800
N  1.77400 10.69200 27.18200
C  1.97000 11.65800 26.20300
C  2.20800 12.95800 26.90500
C  2.22700 12.63700 28.28500
C  1.94100 11.20900 28.36700
C  2.32600 14.29700 26.17600
C  2.24700 13.19300 29.64500
O  2.44200 14.32600 30.09600
C  1.92000 11.96100 30.62200
C  2.91600 11.94600 31.71000
O  4.12200 11.82600 31.56200
O  2.30500 12.23500 32.88000
C  3.20000 12.60600 33.96600
H  1.36900 5.15700 29.93100
H  1.28000 5.90500 23.43700
H  1.93500 12.23500 24.15200
H  2.34800 9.18500 32.23000
H  1.18400 6.71800 31.90600
H  3.89300 6.46800 30.95400
H  3.10100 6.07000 32.48400
H  3.82200 7.68900 32.12400
H  -0.52200 8.42700 31.51300
H  -0.19900 10.19300 31.81800
H  -1.01100 8.29900 33.55700
H  -0.69400 10.03300 33.74000
H  2.11100 3.33300 28.73500
H  1.14300 2.14400 27.79000
H  0.39200 3.26600 29.05600
H  -0.54300 2.27900 26.12300
H  1.14500 1.69100 25.44200
H  -0.24100 1.48800 24.51700
H  0.48800 8.14300 21.99000
H  1.96300 10.60000 22.03000
H  3.24400 8.97600 21.51300
H  2.42500 7.47700 20.93200
H  3.15400 7.53200 22.55900
H  -0.54400 10.89400 23.42000
H  -0.72900 9.91900 21.95300
H  0.74200 12.15900 21.10300
H  -0.63600 12.79600 22.21900
H  -0.89400 11.86500 20.78500
H  2.32000 15.14200 26.86500
H  1.46400 14.46000 25.53000
H  3.17600 14.25600 25.49600
H  0.98200 12.26700 31.08400
H  3.80200 13.43200 33.58800
H  3.91700 11.83900 34.26300
H  2.61300 13.08200 34.75100
Mg 16.98300 -1.14700 27.69100
C  15.98300 0.63000 30.39700
C  19.09700 -3.21700 29.92700
C  18.62500 -2.49900 25.14600
C  15.35500 1.09700 25.70900
N  17.42100 -1.41500 29.96700
C  16.80600 -0.46500 30.81700
C  17.24900 -0.76700 32.24100
C  18.44800 -1.69000 32.07700
C  18.34200 -2.19600 30.57800
C  19.83800 -1.02900 32.28000
C  16.08700 -1.21900 33.21300
C  16.06100 -0.65900 34.67900
H  17.33900 -0.21900 35.42400
N  18.54600 -2.62000 27.52500
C  19.18700 -3.38000 28.50600
C  19.93500 -4.38900 27.92400
C  19.70600 -4.36300 26.48600
C  18.98700 -3.11000 26.32500
C  20.66100 -5.46600 28.70700
C  20.08500 -5.27000 25.42900
O  19.87200 -5.02800 24.21600
C  20.71600 -6.63000 25.70600
N  16.88400 -0.90600 25.69100
C  17.63200 -1.55100 24.79800
C  17.60200 -0.95500 23.43000
C  16.44600 0.14400 23.56200
C  16.12800 0.12700 25.11400
C  18.95700 -0.43500 22.85300
C  15.20300 -0.13400 22.71700
C  15.11700 0.70700 21.37600
N  15.72000 0.49500 27.92200
C  15.30400 1.38200 27.03200
C  14.71000 2.50300 27.72800
C  14.92500 2.23300 29.04700
C  15.56600 0.97900 29.11500
C  14.07800 3.57600 27.09400
C  14.61100 2.66200 30.36400
O  13.90500 3.61100 30.67800
C  15.37300 1.67000 31.33300
C  16.35500 2.50800 32.02200
O  17.50500 2.68100 31.65200
O  15.86700 2.85500 33.28600
C  16.61700 3.87600 34.00200
H  19.83800 -3.73100 30.54300
H  19.01500 -2.82700 24.18000
H  15.03900 1.93200 25.08100
H  17.61600 0.19100 32.60900
H  18.42200 -2.60100 32.67500
H  20.51800 -1.69700 32.80900
H  19.79500 -0.15100 32.92400
H  20.23300 -0.70200 31.31800
H  16.06200 -2.30800 33.19100
H  15.22100 -0.77600 32.72100
H  15.67300 -1.51300 35.23500
H  15.38700 0.19600 34.73200
H  21.68900 -5.33100 28.37000
H  20.46100 -6.52600 28.54800
H  20.83600 -5.35300 29.77700
H  21.53200 -6.30500 26.35100
H  21.05900 -7.07300 24.77100
H  19.96600 -7.22100 26.23100
H  17.33200 -1.77000 22.75900
H  16.81600 1.15000 23.36300
H  19.64800 -0.41000 23.69600
H  18.88800 0.59200 22.49300
H  19.41300 -1.01000 22.04600
H  14.29800 0.01400 23.30500
H  15.16000 -1.13500 22.28700
H  16.06700 1.17500 21.11700
H  14.40900 1.53500 21.40600
H  14.89800 -0.00900 20.58400
H  13.66500 4.29200 27.80500
H  13.23700 3.08500 26.60400
H  14.69200 4.02600 26.31400
H  14.68600 1.30600 32.09800
H  16.02400 4.51100 34.66100
H  17.17300 4.62100 33.43200
H  17.40300 3.31500 34.50800

