158

Mg 41.03700 7.34200 29.37900
C  42.56400 8.61000 32.21600
C  38.43400 6.13600 31.51600
C  39.61900 6.00100 26.82500
C  43.88500 8.06900 27.42200
N  40.62200 7.29000 31.66400
C  41.39500 8.00900 32.56500
C  40.76200 8.04100 33.96000
C  39.46500 7.13100 33.75200
C  39.44700 6.83400 32.21000
C  39.50700 5.77000 34.59600
C  40.39300 9.56600 34.36000
C  41.04000 10.27700 35.59700
H  40.08900 10.60300 36.76900
N  39.40800 6.10800 29.20800
C  38.45800 5.70800 30.17500
C  37.44400 5.02700 29.53700
C  37.75000 4.89500 28.13400
C  38.98400 5.64500 27.98700
C  36.18900 4.48700 30.25200
C  37.04000 4.12000 27.07400
O  37.34300 4.08100 25.89400
C  35.84500 3.35500 27.35500
N  41.76900 7.02200 27.34300
C  40.84100 6.58600 26.44900
C  41.36500 6.68200 25.04000
C  42.85700 7.26700 25.25600
C  42.83000 7.51000 26.71400
C  41.38900 5.24100 24.46400
C  43.12700 8.48400 24.35200
C  42.51600 9.80000 24.80300
N  42.85800 8.27200 29.67600
C  43.91300 8.40600 28.77100
C  44.96500 8.98300 29.58400
C  44.45700 9.25300 30.86600
C  43.17600 8.66200 30.91100
C  46.28300 9.52700 28.99600
C  44.74700 9.82000 32.10700
O  45.70900 10.53400 32.44900
C  43.53900 9.46200 33.06900
C  44.12900 8.71400 34.16500
O  44.36700 7.52400 34.12700
O  44.43500 9.58000 35.18500
C  44.82100 8.92400 36.39000
H  37.52900 5.95300 32.09900
H  39.12000 5.62700 25.92900
H  44.65200 8.29700 26.68000
H  41.45500 7.50400 34.60800
H  38.62600 7.80000 33.94200
H  38.64500 5.88100 35.25400
H  40.37700 5.73900 35.25200
H  39.58000 4.88500 33.96400
H  39.31800 9.65000 34.51800
H  40.55300 10.27900 33.55100
H  41.47600 11.20500 35.22600
H  41.85100 9.59200 35.84300
H  36.27400 3.42100 30.03800
H  35.28200 4.81800 29.74600
H  36.08500 4.69100 31.31700
H  35.95300 2.52900 28.05800
H  35.41600 3.06500 26.39600
H  35.10200 4.01400 27.80600
H  40.69700 7.30700 24.44800
H  43.61400 6.48600 25.18600
H  40.90700 4.58900 25.19300
H  42.38200 4.88300 24.19100
H  40.73600 5.23700 23.59200
H  42.73200 8.34400 23.34600
H  44.21200 8.58500 24.31600
H  41.98800 9.78500 25.75700
H  41.76600 10.16400 24.10200
H  43.34900 10.49300 24.92200
H  46.60500 10.46900 29.43800
H  46.28800 9.40800 27.91200
H  46.94700 8.72200 29.31000
H  43.06500 10.40800 33.32800
H  44.27000 8.02200 36.65900
H  44.78500 9.61500 37.23200
H  45.85800 8.61800 36.25200
Mg 35.80300 48.62700 25.22400
C  35.89400 47.06600 28.26300
C  34.32800 51.27800 26.64700
C  35.20800 49.73400 22.14300
C  37.11200 45.61800 23.76000
N  35.35300 49.17800 27.20700
C  35.56700 48.41200 28.33300
C  35.22600 49.14500 29.72300
C  34.61700 50.40900 29.06100
C  34.84400 50.36300 27.57700
C  33.24900 50.96000 29.59500
C  36.54700 49.18300 30.63600
C  36.27200 48.92300 32.12500
H  35.89500 50.15600 32.96600
N  34.92400 50.37700 24.51000
C  34.38600 51.33600 25.23500
C  34.06000 52.49500 24.34100
C  34.27500 52.01100 23.00500
C  34.84200 50.64100 23.15700
C  33.52300 53.75100 24.88900
C  33.86400 52.55100 21.60100
O  34.02000 52.01800 20.51200
C  33.16100 53.85900 21.52400
N  36.18200 47.76300 23.21300
C  35.69000 48.43200 22.15900
C  35.75000 47.54700 20.89300
C  36.76800 46.46500 21.28100
C  36.76800 46.56900 22.83900
C  34.34500 46.95300 20.53800
C  38.26200 46.61300 20.76600
C  38.46600 46.05800 19.36800
N  36.43300 46.73500 25.83600
C  36.94900 45.61300 25.14400
C  37.09300 44.47600 25.99200
C  36.61300 44.94000 27.27800
C  36.25100 46.33100 27.13100
C  37.53400 43.06100 25.58100
C  36.34500 44.60400 28.71100
O  36.50500 43.56000 29.38100
C  35.96000 46.00400 29.36500
C  34.65400 45.78300 30.09000
O  33.58000 45.93500 29.60300
O  34.97100 45.47700 31.43000
C  33.69700 45.13300 32.16900
H  33.90000 52.18100 27.08600
H  34.96800 50.19500 21.18300
H  37.45600 44.67100 23.33800
H  34.44400 48.54000 30.18200
H  35.37100 51.10300 29.43000
H  32.43100 50.93000 28.87500
H  33.31200 52.02100 29.83600
H  32.93900 50.42000 30.49000
H  36.96200 50.18800 30.56800
H  37.33100 48.56200 30.20400
H  37.25700 48.63800 32.49600
H  35.65700 48.05400 32.36000
H  33.44700 54.49300 24.09400
H  34.30500 54.18900 25.50800
H  32.61800 53.54300 25.46100
H  32.23500 53.78100 22.09300
H  33.07900 54.25100 20.51000
H  33.71200 54.66800 22.00300
H  36.11100 48.11600 20.03600
H  36.42900 45.46100 21.02400
H  33.89400 47.38000 19.64200
H  33.68700 47.20000 21.37100
H  34.38500 45.86500 20.49400
H  38.95300 46.10300 21.43700
H  38.59200 47.64800 20.85100
H  38.47300 46.80600 18.57500
H  37.63600 45.37800 19.18000
H  39.37200 45.45400 19.40100
H  37.71600 43.12300 24.50800
H  36.90300 42.19000 25.76000
H  38.47400 42.88700 26.10400
H  36.68100 46.21200 30.15600
H  33.87500 44.95000 33.22900
H  33.10100 44.28600 31.82800
H  33.08300 46.03200 32.13200

