158

Mg 24.19600 -4.50700 45.79700
C  26.43400 -2.15500 44.24900
C  21.67100 -3.07500 43.90400
C  22.31100 -7.30100 46.27500
C  27.03600 -6.03600 47.07800
N  24.14200 -2.89500 44.28800
C  25.09700 -2.01000 43.88100
C  24.57200 -0.93600 42.93200
C  23.06600 -1.07300 43.25100
C  22.92000 -2.43000 43.88700
C  22.48700 0.18900 44.08300
C  25.03400 -1.14900 41.46500
C  25.96700 -0.22600 40.61500
H  25.65600 -0.30700 39.17200
N  22.16100 -5.02400 45.35500
C  21.32100 -4.30300 44.55800
C  20.06700 -4.97900 44.48800
C  20.15700 -6.19200 45.21200
C  21.61800 -6.23700 45.65400
C  18.95800 -4.40500 43.75200
C  18.96900 -7.19300 45.39600
O  17.82700 -6.89100 45.04200
C  19.13100 -8.47700 46.17200
N  24.59800 -6.38600 46.53400
C  23.67000 -7.38500 46.74800
C  24.35400 -8.61500 47.42400
C  25.77500 -8.12800 47.75500
C  25.80900 -6.74900 47.10200
C  23.68900 -9.39500 48.69100
C  26.89000 -9.19600 47.43000
C  27.57900 -9.88200 48.61100
N  26.31700 -4.04000 45.93300
C  27.28400 -4.81200 46.47700
C  28.55400 -4.06300 46.34100
C  28.24900 -3.00100 45.48900
C  26.88800 -3.10200 45.25100
C  29.92200 -4.52500 46.87800
C  28.88100 -1.91700 44.72400
O  30.02300 -1.49600 44.65200
C  27.60200 -1.32800 43.96300
C  27.39500 0.13600 44.34400
O  27.00900 0.61300 45.42100
O  27.57900 0.83600 43.19200
C  27.10600 2.23100 43.15300
H  20.87200 -2.51700 43.41000
H  21.81100 -8.26300 46.40700
H  27.94000 -6.49900 47.47900
H  25.05300 -0.01600 43.26300
H  22.51900 -1.09500 42.30900
H  23.29000 0.75200 44.55900
H  21.89500 -0.15900 44.92900
H  21.91100 0.76600 43.36000
H  24.19600 -1.37600 40.80700
H  25.53000 -2.12000 41.44800
H  26.97400 -0.61800 40.76200
H  25.95700 0.82100 40.91800
H  19.29500 -3.92300 42.83400
H  18.34600 -3.79100 44.41300
H  18.47600 -5.32700 43.42700
H  19.80600 -9.11700 45.60300
H  18.23400 -9.07000 46.35000
H  19.62200 -8.22800 47.11200
H  24.34900 -9.37100 46.63800
H  25.89500 -7.85000 48.80200
H  23.71100 -10.47000 48.51100
H  22.64700 -9.10500 48.82800
H  24.30500 -9.20600 49.57100
H  27.56500 -8.75800 46.69400
H  26.35100 -9.96000 46.87000
H  27.49800 -9.39000 49.58000
H  28.64100 -9.99100 48.39200
H  27.11500 -10.86800 48.63200
H  30.15900 -5.51000 46.47600
H  29.88500 -4.39000 47.95900
H  30.64100 -3.80000 46.49500
H  27.96200 -1.43900 42.94000
H  26.30400 2.43500 43.86300
H  26.92400 2.47800 42.10700
H  27.98900 2.82000 43.40300
Mg 10.11600 46.99400 26.31700
C  8.06400 47.26400 29.12700
C  12.50000 48.75300 27.88500
C  11.92000 46.86300 23.44600
C  7.34000 45.72600 24.56200
N  10.26300 47.81400 28.28800
C  9.40800 47.68400 29.36500
C  10.01000 48.34600 30.62100
C  11.25500 49.15000 30.05000
C  11.38000 48.51800 28.65700
C  11.04500 50.67300 29.81900
C  10.36700 47.21900 31.60700
C  10.11800 47.50900 33.07600
H  9.75400 46.28100 34.01200
N  11.96400 47.64000 25.80700
C  12.80400 48.33500 26.59500
C  14.09900 48.49000 25.90500
C  13.90700 47.95500 24.57600
C  12.53000 47.44700 24.55600
C  15.33900 49.01700 26.62500
C  15.00100 47.67400 23.54500
O  14.81000 46.96600 22.52800
C  16.35100 48.35000 23.65100
N  9.66600 46.45500 24.31900
C  10.61200 46.40800 23.39500
C  10.10500 45.76200 22.10700
C  8.66600 45.28700 22.53800
C  8.56600 45.84700 23.91400
C  10.15600 46.55000 20.79600
C  8.52300 43.70700 22.48700
C  9.55900 42.98400 23.41800
N  8.02200 46.57400 26.64300
C  7.02500 46.12100 25.81900
C  5.75200 46.10200 26.66600
C  6.17100 46.42700 27.92800
C  7.53300 46.75000 27.89400
C  4.35100 45.68800 26.24400
C  5.71400 46.56300 29.31100
O  4.61800 46.30900 29.78700
C  6.89300 47.10600 30.05700
C  7.15100 46.05000 31.12200
O  7.77200 45.01300 30.90400
O  6.39800 46.24500 32.26500
C  5.99000 45.13500 33.14900
H  13.24700 49.34300 28.42100
H  12.49000 46.66000 22.53700
H  6.50000 45.33800 23.98200
H  9.28000 48.95600 31.15200
H  12.16700 49.03100 30.63500
H  10.32900 50.72800 28.99900
H  11.94700 51.05800 29.34200
H  10.94300 51.20900 30.76300
H  11.45100 47.11100 31.63300
H  9.96600 46.25600 31.29300
H  9.35000 48.26400 33.24200
H  11.06100 47.82200 33.52500
H  15.00900 49.32200 27.61800
H  15.73200 49.91500 26.14800
H  16.03100 48.17500 26.63000
H  16.91000 48.03800 24.53300
H  16.06400 49.39900 23.57900
H  16.90700 48.20000 22.72500
H  10.76000 44.89900 21.98500
H  7.86900 45.70700 21.92500
H  9.25500 47.13400 20.60400
H  10.19500 45.91600 19.91000
H  10.98400 47.25400 20.71900
H  8.60700 43.42900 21.43600
H  7.56300 43.28500 22.78300
H  10.09100 43.69200 24.05300
H  10.33200 42.56600 22.77300
H  9.23600 42.09600 23.96100
H  3.97700 46.55000 25.69200
H  3.73100 45.59100 27.13500
H  4.33000 44.90300 25.48800
H  6.67300 48.05000 30.55600
H  6.17900 45.59100 34.12000
H  6.69600 44.30800 33.07000
H  4.91800 44.99300 33.01000

