158

Mg 35.93600 48.45400 26.33900
C  36.24200 46.35600 29.08300
C  34.15900 50.73900 28.41400
C  35.16500 50.50000 23.59100
C  37.06300 45.99700 24.34200
N  35.09500 48.46600 28.52500
C  35.65600 47.58000 29.40800
C  35.48400 48.22600 30.85000
C  34.46100 49.35800 30.64200
C  34.63400 49.61100 29.13700
C  32.93600 48.97800 30.88600
C  36.78900 48.79900 31.43700
C  37.22100 48.38700 32.87500
H  36.97500 49.52400 33.88600
N  34.89900 50.38700 26.16300
C  34.39300 51.18300 27.11100
C  33.89000 52.43800 26.56100
C  34.22200 52.41800 25.22500
C  34.78800 51.00200 24.89100
C  33.19900 53.44400 27.48600
C  34.23900 53.53600 24.15100
O  34.67500 53.40400 23.02100
C  33.90800 54.89100 24.49400
N  35.93600 48.14800 24.24100
C  35.69500 49.18300 23.39400
C  36.15200 48.79700 21.98700
C  36.96500 47.44800 22.22300
C  36.64200 47.18100 23.69700
C  34.93900 48.68400 21.08100
C  38.48900 47.43200 21.85900
C  38.96200 46.40300 20.77600
N  36.49500 46.53000 26.56100
C  36.98300 45.64400 25.66400
C  37.36300 44.36200 26.34600
C  37.11800 44.64000 27.72800
C  36.54400 45.95300 27.77500
C  37.91700 43.13100 25.70300
C  37.23700 44.15300 29.10400
O  37.54000 43.08200 29.47100
C  36.77400 45.28700 30.02500
C  35.71900 44.74800 30.92300
O  34.69500 44.31200 30.46100
O  36.10600 44.81300 32.24800
C  35.07900 44.53200 33.17000
H  33.69500 51.49600 29.04900
H  34.88600 51.09600 22.72000
H  37.55100 45.24800 23.71500
H  35.09200 47.45200 31.51000
H  34.60800 50.28500 31.19500
H  32.46100 49.50000 31.71600
H  32.82200 47.90600 31.04800
H  32.31400 49.28500 30.04500
H  36.88700 49.88500 31.41000
H  37.57700 48.33700 30.84300
H  38.29300 48.21600 32.78400
H  36.66200 47.53700 33.26700
H  32.99800 54.38900 26.98300
H  33.83100 53.53700 28.37000
H  32.19800 53.09100 27.73000
H  32.95700 54.74300 25.00600
H  33.77800 55.55700 23.64100
H  34.79200 55.13400 25.08300
H  36.86700 49.52200 21.59700
H  36.42700 46.68600 21.66000
H  34.02400 48.79300 21.66200
H  34.82000 47.78900 20.46900
H  34.87300 49.50400 20.36600
H  39.00000 47.14400 22.77800
H  38.77500 48.45600 21.61800
H  38.14300 45.84700 20.32000
H  39.54700 45.69600 21.36400
H  39.61800 46.88700 20.05300
H  38.77900 43.42300 25.10200
H  37.15600 42.75900 25.01600
H  38.19100 42.33900 26.40100
H  37.51800 45.65100 30.73400
H  34.58400 45.46600 33.43600
H  35.65200 44.14400 34.01200
H  34.35100 43.76700 32.89900
Mg -10.83200 38.32600 42.55900
C  -8.79600 35.63700 41.53500
C  -8.89200 40.40900 40.70600
C  -13.30000 40.65200 42.76000
C  -13.15800 35.88400 43.63100
N  -9.11200 38.01900 41.04300
C  -8.37600 36.84900 40.91000
C  -7.08400 37.22300 40.01500
C  -7.05400 38.71200 40.20200
C  -8.47400 39.09300 40.63300
C  -5.91500 39.39600 41.14600
C  -7.29000 36.70100 38.52800
C  -6.09900 35.93600 37.92700
H  -5.54600 36.60700 36.67200
N  -11.00800 40.32500 42.05300
C  -10.02200 40.98400 41.36000
C  -10.42300 42.39800 41.34900
C  -11.74100 42.51100 41.91700
C  -12.04400 41.12500 42.34300
C  -9.62200 43.49300 40.65700
C  -12.63400 43.74100 41.91400
O  -12.24700 44.80200 41.41800
C  -13.98800 43.84600 42.55800
N  -12.97400 38.28000 43.02500
C  -13.74600 39.37500 43.11300
C  -15.13400 39.07200 43.72700
C  -15.06700 37.54600 44.01500
C  -13.67200 37.14800 43.45400
C  -15.36300 39.85500 45.07800
C  -16.14100 36.69100 43.25700
C  -17.54000 37.08000 43.52300
N  -10.95300 36.19400 42.81300
C  -11.89300 35.34000 43.28900
C  -11.35900 33.98200 43.42800
C  -10.14600 34.08800 42.67600
C  -9.96100 35.44400 42.29100
C  -12.08100 32.92200 44.13900
C  -9.00900 33.30400 42.30900
O  -8.63100 32.21200 42.57400
C  -8.14400 34.26400 41.44700
C  -6.78200 34.19500 42.07700
O  -6.06800 33.18500 42.13100
O  -6.52900 35.36600 42.78100
C  -5.31100 35.38700 43.52800
H  -8.22500 41.12500 40.22000
H  -13.98300 41.47000 42.99900
H  -13.88700 35.16600 44.01300
H  -6.22100 36.84300 40.56200
H  -6.98500 39.13300 39.19900
H  -5.93400 39.20500 42.21900
H  -6.17100 40.43700 40.94800
H  -4.93200 39.07200 40.80500
H  -7.61900 37.50300 37.86900
H  -8.10100 35.98500 38.65900
H  -6.13600 34.85300 37.80600
H  -5.28300 35.98500 38.64800
H  -9.61700 44.36500 41.31100
H  -10.25900 43.65600 39.78700
H  -8.60100 43.17600 40.44200
H  -14.00100 43.75600 43.64400
H  -14.58700 43.12500 42.00000
H  -14.49800 44.77300 42.29900
H  -15.91300 39.43000 43.05400
H  -15.05100 37.39500 45.09400
H  -16.26800 39.65100 45.65100
H  -15.33800 40.94200 45.00300
H  -14.48100 39.57700 45.65700
H  -16.07800 35.68200 43.66600
H  -15.91200 36.62500 42.19300
H  -17.91000 37.60800 42.64400
H  -17.53700 37.84500 44.30000
H  -18.24100 36.26700 43.70900
H  -13.16200 32.88100 44.00600
H  -12.03000 33.05400 45.22000
H  -11.85800 31.90900 43.80300
H  -8.04100 33.72900 40.50400
H  -4.53200 35.79500 42.88500
H  -5.10100 34.39600 43.93100
H  -5.41800 36.03200 44.40100

