158

Mg 44.80400 5.37300 46.94800
C  42.96900 8.31000 46.89100
C  41.92100 3.62500 46.02500
C  46.67500 2.66700 46.49000
C  47.77900 7.38500 47.18200
N  42.72300 5.93600 46.40500
C  42.18600 7.17600 46.53700
C  40.72600 7.28400 46.13800
C  40.45900 5.76300 45.83400
C  41.72500 5.05300 46.25400
C  39.12700 5.09200 46.43800
C  40.15200 8.37900 45.15700
C  40.74100 8.29600 43.69400
H  39.93600 7.78000 42.45700
N  44.36000 3.40400 46.48900
C  43.13700 2.86500 46.17400
C  43.31300 1.40700 45.91400
C  44.64800 1.12000 46.07000
C  45.31100 2.44900 46.38700
C  42.25300 0.51400 45.47600
C  45.31200 -0.25200 45.93300
O  44.65800 -1.26700 45.69600
C  46.80600 -0.53400 45.83700
N  46.93900 5.10200 46.64600
C  47.39900 3.82400 46.54400
C  48.92200 3.95400 46.51800
C  49.38000 5.47000 46.64200
C  47.93900 5.99700 46.84500
C  49.71000 2.97700 47.37700
C  50.01000 6.06900 45.35600
C  51.23700 5.35000 44.77100
N  45.32000 7.38100 47.12600
C  46.54500 8.08300 47.22300
C  46.26400 9.51300 47.43300
C  44.89100 9.67800 47.27200
C  44.35200 8.36100 47.07400
C  47.28300 10.55300 47.62700
C  43.78600 10.57200 47.34400
O  43.82200 11.78800 47.60300
C  42.48700 9.73000 46.98000
C  41.56600 9.95300 48.09500
O  41.75600 9.63800 49.27600
O  40.43800 10.51800 47.59800
C  39.26300 10.68100 48.54600
H  41.02900 3.11200 45.66000
H  47.40300 1.85500 46.54300
H  48.69800 7.95200 47.35000
H  40.26600 7.63300 47.06300
H  40.46400 5.59000 44.75800
H  39.49600 4.71500 47.39200
H  38.58200 4.24900 46.01300
H  38.52300 5.97900 46.62800
H  40.13300 9.40900 45.51200
H  39.09300 8.21800 44.95100
H  41.55000 7.57700 43.82500
H  41.17200 9.28900 43.57400
H  42.55400 0.12400 44.50400
H  41.25500 0.93300 45.34400
H  42.06400 -0.35800 46.10100
H  47.00400 -1.55100 45.49600
H  47.12700 -0.41100 46.87100
H  47.21100 0.24400 45.19000
H  49.09700 3.65400 45.48500
H  49.98000 5.74800 47.50900
H  50.23100 2.25800 46.74400
H  49.02900 2.44600 48.04300
H  50.50400 3.46100 47.94400
H  50.37700 7.06800 45.59300
H  49.25400 6.19100 44.58100
H  51.01200 5.05500 43.74600
H  51.51700 4.52100 45.42200
H  52.07100 6.05200 44.78100
H  47.68300 10.71400 48.62800
H  46.94500 11.51800 47.24900
H  48.16900 10.31100 47.03900
H  42.03400 10.13200 46.07400
H  38.48900 10.03000 48.14100
H  38.95000 11.72100 48.44900
H  39.44000 10.49600 49.60600
Mg 6.52700 52.76900 41.09800
C  5.80700 49.34300 40.78900
C  9.77500 51.94700 40.20200
C  7.15200 55.94000 40.54200
C  3.17200 53.38500 41.70700
N  7.60400 50.84700 40.57300
C  7.16100 49.57700 40.44000
C  8.17500 48.57500 40.02700
C  9.46400 49.42300 40.25200
C  8.89500 50.86600 40.23600
C  10.28500 49.13200 41.56900
C  8.02200 48.09100 38.52100
C  7.03000 48.88200 37.65900
H  6.44200 48.23200 36.41300
N  8.34900 53.83500 40.63400
C  9.50800 53.36900 40.32300
C  10.45400 54.40900 40.12300
C  9.74600 55.63700 40.20300
C  8.37400 55.17700 40.48400
C  12.01500 54.15900 39.98400
C  10.31700 57.00700 39.95900
O  11.52800 57.09800 39.69800
C  9.45900 58.16100 39.98300
N  5.27300 54.38600 41.03400
C  5.80500 55.61300 40.86700
C  4.72400 56.66600 40.99100
C  3.39100 55.83000 41.39100
C  3.98700 54.42900 41.38600
C  5.11700 57.84000 42.00200
C  2.09100 56.10200 40.60600
C  2.11100 55.71800 39.10700
N  4.67700 51.62700 41.12700
C  3.45800 52.03400 41.57200
C  2.70700 50.80600 41.82600
C  3.59100 49.71000 41.52100
C  4.77500 50.29200 41.10800
C  1.22300 50.82100 42.20600
C  3.72600 48.27700 41.55700
O  2.93600 47.40300 41.98700
C  5.16400 48.00400 41.11100
C  5.04700 47.14900 39.87100
O  4.39300 47.30900 38.87500
O  5.73300 45.99400 40.09300
C  5.81100 45.10100 38.97100
H  10.77000 51.61400 39.89600
H  7.23800 57.01400 40.36100
H  2.16600 53.68200 42.00900
H  8.16500 47.69500 40.66900
H  10.22400 49.43700 39.47100
H  11.33600 49.08000 41.28700
H  9.82500 48.25000 42.01400
H  10.07100 49.94400 42.26400
H  7.57200 47.10400 38.62600
H  8.93200 47.92200 37.94500
H  7.56400 49.74500 37.26000
H  6.25300 49.48100 38.13200
H  12.41500 54.24100 38.97300
H  12.23100 53.16100 40.36500
H  12.58700 54.90700 40.53300
H  10.00700 59.02600 39.60900
H  8.99600 58.42400 40.93500
H  8.61700 57.92200 39.33400
H  4.60500 57.12700 40.01000
H  3.12600 55.95400 42.44100
H  4.37100 57.99700 42.78100
H  5.12300 58.73300 41.37800
H  6.10900 57.73700 42.44200
H  1.81200 57.15500 40.56300
H  1.34200 55.48300 41.10000
H  1.16400 55.22300 38.89400
H  2.97600 55.19900 38.69300
H  2.16700 56.68500 38.60700
H  1.21200 50.51700 43.25300
H  0.59600 50.19500 41.57000
H  0.87000 51.84900 42.12600
H  5.81600 47.54700 41.85600
H  5.43900 45.40500 37.99300
H  5.40400 44.12300 39.22700
H  6.89900 45.07700 38.89900

