158

Mg 17.47000 -1.47100 27.22000
C  16.33400 0.58300 29.78100
C  19.47900 -3.15200 29.35800
C  18.77600 -2.95300 24.43100
C  15.96000 0.90900 24.93000
N  17.87200 -1.32700 29.34200
C  17.23600 -0.47500 30.18100
C  17.60100 -0.87200 31.65700
C  18.86400 -1.85200 31.50300
C  18.82900 -2.10300 29.99300
C  20.24800 -1.44300 32.02700
C  16.36300 -1.33600 32.47200
C  16.16200 -0.56400 33.70900
H  17.33600 -0.12800 34.63900
N  18.83200 -3.05800 26.92600
C  19.51800 -3.59800 27.99200
C  20.38700 -4.60300 27.33900
C  20.19200 -4.62900 25.96800
C  19.23000 -3.52700 25.71000
C  21.31400 -5.44400 28.22100
C  20.87800 -5.47700 24.95100
O  20.68700 -5.24100 23.74900
C  21.90700 -6.48900 25.36800
N  17.26200 -1.15900 24.86900
C  17.97300 -1.84100 24.04100
C  17.83300 -1.35500 22.58000
C  16.88500 -0.16100 22.79900
C  16.68300 -0.07800 24.31600
C  19.21900 -0.92500 22.00500
C  15.49200 -0.38200 22.10500
C  15.24100 0.52000 20.88800
N  16.22000 0.18900 27.28400
C  15.71400 1.06700 26.31200
C  14.94300 2.10200 26.94600
C  15.20400 1.93700 28.30500
C  15.94100 0.79600 28.47200
C  14.11800 3.22800 26.38100
C  14.88600 2.52500 29.51600
O  14.07700 3.41500 29.84200
C  15.72500 1.70000 30.59100
C  16.69000 2.44900 31.41000
O  17.89600 2.61200 31.13500
O  15.95800 2.99800 32.45500
C  16.70500 3.87600 33.35700
H  20.03400 -3.62300 30.17200
H  19.13700 -3.50100 23.55800
H  15.54200 1.69300 24.29400
H  18.10300 -0.04000 32.15100
H  18.60600 -2.80800 31.95700
H  21.04500 -1.42000 31.28400
H  20.55800 -2.22000 32.72700
H  20.22900 -0.48800 32.55200
H  16.34300 -2.41400 32.63100
H  15.46100 -1.19500 31.87700
H  15.49400 -1.09900 34.38300
H  15.64600 0.31600 33.32400
H  20.95500 -5.33700 29.24400
H  22.37800 -5.23300 28.11600
H  21.20400 -6.50300 27.98500
H  22.76400 -5.88900 25.67700
H  21.99700 -7.07800 24.45600
H  21.54400 -7.19800 26.11100
H  17.47900 -2.07000 21.83800
H  17.27600 0.82200 22.53700
H  19.45500 0.12300 21.82200
H  19.49200 -1.46600 21.09800
H  19.98700 -1.17600 22.73700
H  14.74700 -0.08000 22.84100
H  15.22900 -1.38500 21.76700
H  15.11000 -0.09400 19.99600
H  16.06100 1.17800 20.60100
H  14.36700 1.13500 21.10300
H  14.85800 3.93400 26.00400
H  13.57200 3.71700 27.18800
H  13.41600 2.85300 25.63700
H  14.91500 1.32500 31.21700
H  16.48300 4.91800 33.12500
H  17.78000 3.84500 33.18500
H  16.54500 3.85100 34.43500
Mg -2.70300 34.71000 26.59100
C  -3.97900 32.85200 29.42200
C  -1.13000 36.70500 29.03300
C  -2.08500 36.80800 24.23300
C  -4.59900 32.69900 24.50700
N  -2.58400 34.77900 29.02400
C  -3.11800 33.85100 29.90900
C  -2.61900 34.06300 31.32000
C  -1.84600 35.37200 31.16600
C  -1.82900 35.67000 29.67900
C  -2.36600 36.52000 32.02200
C  -1.66100 32.89600 32.00500
C  -2.10400 32.33100 33.37200
H  -1.25400 32.24000 34.62700
N  -1.67200 36.50000 26.57700
C  -1.16200 37.17700 27.64900
C  -0.37200 38.28900 27.17700
C  -0.61300 38.29900 25.75000
C  -1.50700 37.18200 25.43300
C  0.62600 39.03000 28.06600
C  -0.26900 39.32600 24.69500
O  -0.59100 39.21900 23.52900
C  0.53200 40.48900 25.17100
N  -3.35700 34.80400 24.73700
C  -2.85000 35.74700 23.82500
C  -3.28000 35.51700 22.37000
C  -3.86200 34.08600 22.53100
C  -4.03000 33.87700 24.02200
C  -4.25600 36.65000 21.89200
C  -2.87600 33.00900 21.93600
C  -3.38500 32.08800 20.84100
N  -4.01900 33.11500 26.87000
C  -4.68000 32.33900 25.93200
C  -5.38800 31.28300 26.52500
C  -5.16400 31.46700 27.87500
C  -4.39400 32.63500 28.09800
C  -6.18900 30.22800 25.82300
C  -5.54400 30.93600 29.12300
O  -6.13900 29.96900 29.42600
C  -4.76500 31.75500 30.23700
C  -5.78700 32.43200 31.06200
O  -6.71600 33.02500 30.55400
O  -5.57700 32.25800 32.43900
C  -6.58400 32.87900 33.30900
H  -0.61800 37.36100 29.74000
H  -1.94900 37.47100 23.37600
H  -5.22300 32.01500 23.93000
H  -3.44200 34.21800 32.01700
H  -0.82200 35.21800 31.50600
H  -2.87400 36.23800 32.94400
H  -3.06000 37.13100 31.44400
H  -1.47400 37.03800 32.37200
H  -0.65700 33.30400 32.12300
H  -1.67800 32.05400 31.31200
H  -2.33500 31.29400 33.12800
H  -3.06000 32.76100 33.66800
H  0.23200 39.97100 28.45000
H  1.63500 39.17200 27.67700
H  0.86700 38.39300 28.91700
H  0.71000 41.04400 24.25000
H  1.41800 40.02200 25.59900
H  -0.13000 40.98200 25.88400
H  -2.44100 35.56000 21.67600
H  -4.88900 33.94200 22.19700
H  -4.56800 37.38600 22.63300
H  -5.23000 36.28500 21.56300
H  -3.85100 37.23200 21.06400
H  -2.55500 32.44800 22.81300
H  -1.91800 33.40700 21.60200
H  -3.76000 31.17200 21.29700
H  -2.56200 31.83300 20.17400
H  -4.24600 32.43700 20.27000
H  -5.75700 29.24300 26.00200
H  -6.26400 30.31300 24.73900
H  -7.18700 30.31100 26.25400
H  -4.14200 31.11100 30.85700
H  -7.41200 33.37900 32.80700
H  -6.08000 33.55800 33.99600
H  -7.04800 32.03200 33.81400

