158

Mg -1.06600 7.46800 26.20800
C  -0.01000 9.63000 28.72900
C  -0.90200 4.88600 28.43000
C  -1.59700 5.35900 23.63500
C  -0.59200 10.08300 23.98400
N  -0.28800 7.26000 28.32700
C  -0.15400 8.28200 29.20800
C  -0.41400 7.85800 30.64700
C  -0.30200 6.31400 30.53500
C  -0.45700 6.12900 29.03300
C  0.98400 5.61900 31.10100
C  -1.75200 8.40600 31.29500
C  -1.53500 8.99300 32.69200
H  -0.61700 8.19500 33.69300
N  -1.28900 5.41000 26.05900
C  -1.24500 4.49300 27.12800
C  -1.73200 3.20700 26.62500
C  -1.79600 3.28300 25.17000
C  -1.51000 4.69300 24.86800
C  -1.97000 2.00200 27.48900
C  -2.07100 2.18600 24.13000
O  -1.96000 2.44700 22.94500
C  -2.41400 0.70500 24.52500
N  -0.81000 7.54600 24.08000
C  -1.25000 6.62000 23.24700
C  -1.23100 7.10700 21.77400
C  -1.04000 8.67300 21.93300
C  -0.85500 8.81100 23.48500
C  -0.19100 6.41000 20.83100
C  -2.30100 9.52400 21.41500
C  -3.46200 10.00900 22.35700
N  -0.51000 9.49800 26.29900
C  -0.36100 10.41600 25.31200
C  -0.10700 11.67800 25.83100
C  0.08500 11.42800 27.26500
C  -0.17300 10.12300 27.40400
C  0.03700 12.94500 25.02600
C  0.37600 11.99200 28.53500
O  0.64200 13.12300 28.87400
C  0.26700 10.82600 29.61500
C  1.60200 10.75200 30.39000
O  2.70900 10.34700 30.00700
O  1.26300 11.17400 31.63000
C  2.27100 11.17400 32.65200
H  -1.03700 4.03200 29.09700
H  -1.81800 4.77600 22.73800
H  -0.54200 10.84700 23.20500
H  0.49700 8.20100 31.13700
H  -1.13900 5.84300 31.05100
H  0.75100 4.93800 31.92000
H  1.71400 6.40900 31.28200
H  1.43100 5.01700 30.31100
H  -2.45600 7.57400 31.32400
H  -2.24000 9.20900 30.74300
H  -2.51800 9.04100 33.16000
H  -1.20800 10.00500 32.45400
H  -1.51300 1.09400 27.09600
H  -3.04300 1.82600 27.56600
H  -1.57800 1.95100 28.50500
H  -3.02800 0.64000 25.42400
H  -1.53400 0.09900 24.74400
H  -2.90400 0.20500 23.69000
H  -2.20700 6.85500 21.35900
H  -0.13100 9.06400 21.47600
H  0.48500 7.18700 20.47400
H  -0.80500 5.88000 20.10300
H  0.32100 5.65100 21.42200
H  -2.76300 8.84200 20.70100
H  -1.85800 10.37500 20.89800
H  -4.45800 9.69300 22.04900
H  -3.46800 11.09900 22.36500
H  -3.24100 9.67100 23.36900
H  1.06200 13.30500 25.10800
H  -0.68500 13.55100 25.57200
H  -0.32200 13.03400 24.00000
H  -0.54700 10.96600 30.32600
H  3.31900 10.95000 32.44800
H  1.88500 10.37600 33.28600
H  2.32500 12.08100 33.25500
Mg 7.57000 2.75700 27.93300
C  8.79900 1.40900 30.85300
C  5.21500 4.50800 29.79300
C  5.86500 3.37600 25.09500
C  9.43800 0.25500 26.05500
N  7.01400 2.96300 30.13700
C  7.84900 2.43600 31.07300
C  7.53000 3.10500 32.41300
C  6.32000 4.00200 32.07100
C  6.20400 3.89300 30.63200
C  4.87500 3.57800 32.69000
C  8.78600 3.87400 33.01100
C  9.33900 3.49000 34.39600
H  9.23700 4.54800 35.45900
N  5.94100 4.04100 27.49000
C  5.08400 4.64000 28.38100
C  4.23600 5.50000 27.62100
C  4.44900 5.17900 26.27500
C  5.44200 4.18200 26.24500
C  3.13700 6.35800 28.25400
C  3.71500 5.88500 25.08800
O  4.03000 5.53800 23.93500
C  2.70300 6.98300 25.30400
N  7.72400 2.00800 25.87200
C  6.80200 2.30800 24.95400
C  7.27200 1.89800 23.51400
C  8.42200 0.90300 23.84800
C  8.58500 1.05300 25.33300
C  6.20100 1.52600 22.45600
C  9.77700 1.15600 23.00900
C  10.51800 -0.04700 22.48700
N  8.92200 1.22600 28.32600
C  9.63600 0.33700 27.43400
C  10.59900 -0.36400 28.29500
C  10.25700 -0.02100 29.59700
C  9.22100 0.93100 29.57800
C  11.51500 -1.41300 27.79700
C  10.54800 -0.37600 31.01200
O  11.37100 -1.15800 31.58700
C  9.66400 0.63300 31.86800
C  8.82600 -0.10700 32.79900
O  7.64400 -0.41900 32.65300
O  9.61100 -0.48300 33.90300
C  8.86400 -1.42700 34.79600
H  4.47600 5.08500 30.35300
H  5.49700 3.63700 24.10100
H  10.08900 -0.51600 25.63700
H  7.14700 2.33600 33.08500
H  6.48000 5.05200 32.31600
H  4.19200 3.41700 31.85600
H  4.55300 4.47100 33.22500
H  4.85600 2.66200 33.28100
H  8.59300 4.94500 32.95000
H  9.59100 3.65400 32.31000
H  10.38000 3.16800 34.42000
H  8.76000 2.62200 34.71300
H  3.03700 7.33900 27.79000
H  3.39900 6.65700 29.26900
H  2.16100 5.87200 28.25300
H  1.89500 6.71000 25.98400
H  2.18500 7.20500 24.37100
H  3.23100 7.88200 25.62000
H  7.66000 2.80100 23.04400
H  8.05800 -0.10200 23.63100
H  5.23600 1.67600 22.93900
H  6.26500 0.50300 22.08400
H  6.16900 2.21300 21.61000
H  10.50600 1.62200 23.67300
H  9.73200 1.92600 22.23900
H  10.79400 0.10400 21.44400
H  9.85100 -0.90600 22.55200
H  11.43900 -0.29300 23.01700
H  11.81400 -1.17000 26.77800
H  10.94000 -2.33900 27.83400
H  12.40300 -1.40600 28.43000
H  10.30600 1.27600 32.47000
H  8.27900 -2.11400 34.18300
H  8.21600 -0.77500 35.38200
H  9.54300 -1.94300 35.47400

