158

Mg 1.67100 -1.90800 44.50300
C  5.04300 -1.00400 44.39200
C  0.91000 0.76000 42.61900
C  -1.36200 -3.19300 44.25500
C  2.74300 -4.87100 46.16200
N  2.86500 -0.42500 43.48100
C  4.18600 -0.12300 43.64000
C  4.61900 1.09700 42.84000
C  3.26700 1.80900 42.50100
C  2.31400 0.57200 42.77700
C  2.85900 3.04500 43.29600
C  5.49200 0.82900 41.59200
C  6.68100 1.70000 41.16300
H  6.90100 2.09400 39.68400
N  -0.05900 -1.27200 43.68900
C  -0.20600 -0.11600 43.01300
C  -1.65500 0.16100 42.88100
C  -2.30700 -0.97100 43.28900
C  -1.26600 -1.87900 43.78800
C  -2.20900 1.40400 42.20200
C  -3.71300 -1.16700 43.18400
O  -4.38700 -0.37300 42.64300
C  -4.33400 -2.39800 43.73300
N  0.84500 -3.85900 44.99900
C  -0.47800 -4.03700 44.89900
C  -0.87600 -5.44700 45.28800
C  0.42000 -5.93000 45.94600
C  1.45100 -4.90200 45.69100
C  -2.06400 -5.59500 46.26000
C  0.89100 -7.33200 45.35300
C  0.05000 -8.52900 45.81600
N  3.48900 -2.80500 45.23400
C  3.81200 -3.94700 45.95100
C  5.19500 -3.90900 46.31100
C  5.71400 -2.79700 45.65800
C  4.66000 -2.14400 45.06200
C  5.87700 -4.92100 47.13700
C  6.93800 -2.01600 45.39300
O  8.10300 -2.23900 45.69000
C  6.58000 -0.80900 44.57000
C  7.04700 0.40000 45.30400
O  6.76500 0.75400 46.47400
O  7.87300 1.09100 44.45100
C  8.05800 2.50400 44.81400
H  0.70100 1.71000 42.12400
H  -2.32400 -3.70500 44.32500
H  3.02700 -5.78000 46.69600
H  5.13200 1.69800 43.59000
H  3.14000 2.07600 41.45200
H  3.60800 3.19500 44.07400
H  1.89300 2.92300 43.78600
H  2.88900 3.93500 42.66800
H  4.92700 0.95700 40.66800
H  5.84600 -0.20200 41.55900
H  7.59500 1.15300 41.39500
H  6.66200 2.53300 41.86600
H  -2.52400 1.17000 41.18500
H  -1.47500 2.20500 42.11800
H  -3.13100 1.60400 42.74800
H  -3.93200 -3.29900 43.26900
H  -5.41700 -2.42800 43.61400
H  -4.12900 -2.47700 44.80000
H  -1.12400 -5.95000 44.35300
H  0.40100 -6.06800 47.02700
H  -2.51800 -4.62000 46.43900
H  -1.65000 -5.90000 47.22100
H  -2.75000 -6.35400 45.88400
H  1.90400 -7.47500 45.72900
H  0.90100 -7.21800 44.26900
H  0.77100 -9.07500 46.42500
H  -0.29600 -9.14400 44.98600
H  -0.76000 -8.16700 46.44900
H  5.15700 -5.69000 47.41900
H  6.20600 -4.50300 48.08800
H  6.69600 -5.28700 46.51700
H  7.00500 -0.76700 43.56700
H  8.95100 2.85600 44.29600
H  8.13800 2.77000 45.86800
H  7.17100 3.04700 44.48900
Mg 47.64800 25.30000 29.06000
C  48.61600 27.33200 31.69300
C  46.13800 23.20300 31.38900
C  46.81700 23.21600 26.59300
C  48.87700 27.55200 26.84200
N  47.34100 25.34000 31.27300
C  47.86800 26.26800 32.13200
C  47.44100 26.01100 33.64000
C  46.78200 24.59100 33.47200
C  46.72600 24.37000 32.00600
C  47.53000 23.45100 34.27000
C  46.47800 27.07400 34.27400
C  47.03700 27.88700 35.36600
H  46.34900 27.94200 36.76700
N  46.63600 23.47500 29.03700
C  46.13600 22.74900 30.03100
C  45.51400 21.48600 29.51600
C  45.54300 21.63200 28.09400
C  46.34800 22.78800 27.86700
C  44.89800 20.43700 30.39200
C  44.86600 20.82100 26.95700
O  45.12100 21.01600 25.79200
C  43.74100 19.87500 27.30500
N  47.97500 25.31600 27.02600
C  47.60500 24.26600 26.25300
C  48.07900 24.54400 24.85600
C  48.61800 26.00700 24.83200
C  48.41500 26.36400 26.35000
C  49.01100 23.37200 24.22900
C  47.89300 26.92800 23.85800
C  48.78000 28.16400 23.43200
N  48.61200 26.99000 29.21300
C  49.00800 27.82400 28.18400
C  49.59800 29.10100 28.74600
C  49.40800 28.88700 30.08600
C  48.86700 27.66300 30.35700
C  50.24200 30.24800 28.00100
C  49.64500 29.53800 31.34400
O  50.17200 30.64000 31.60400
C  49.16400 28.57600 32.47700
C  50.38300 28.35800 33.33600
O  51.34000 27.65600 33.04100
O  50.21600 29.00000 34.52000
C  51.08600 28.64000 35.64100
H  45.62200 22.64200 32.17100
H  46.70600 22.63400 25.67600
H  49.33600 28.31200 26.20600
H  48.38200 25.84000 34.16300
H  45.80100 24.68900 33.93700
H  46.83000 22.72400 34.68300
H  48.18100 23.95800 34.98300
H  48.13200 22.85600 33.58300
H  45.64100 26.62200 34.80600
H  46.08500 27.75100 33.51500
H  46.95200 28.90800 34.99300
H  48.06200 27.56100 35.54000
H  45.18700 20.55300 31.43700
H  45.25000 19.48000 30.00500
H  43.81200 20.43300 30.29500
H  43.43900 19.34700 26.40000
H  42.85800 20.45400 27.57600
H  44.11900 19.21400 28.08600
H  47.12000 24.47800 24.34400
H  49.67700 25.96000 24.57800
H  49.99200 23.81400 24.05300
H  48.64400 22.95400 23.29100
H  49.10800 22.59400 24.98500
H  46.95100 27.24000 24.30900
H  47.56800 26.32100 23.01300
H  48.95000 28.15800 22.35500
H  49.76200 28.19100 23.90600
H  48.36500 29.12600 23.73300
H  49.46000 30.83800 27.52100
H  50.92400 29.99400 27.19000
H  50.71200 30.81100 28.80700
H  48.42900 29.13100 33.06000
H  51.16900 29.51600 36.28400
H  52.04400 28.21500 35.34300
H  50.54500 27.96600 36.30600

