158

Mg 35.63800 48.42800 26.38400
C  35.74300 46.63300 29.45400
C  34.49100 51.12500 28.22700
C  35.46400 50.23000 23.53900
C  36.39800 45.56100 24.64200
N  35.08100 48.80000 28.63400
C  35.33200 47.97000 29.70300
C  35.12300 48.72700 31.04400
C  34.57100 50.09300 30.56700
C  34.70000 50.00400 29.08800
C  33.14400 50.40100 31.19900
C  36.40700 48.57000 32.05100
C  36.01900 48.28900 33.54200
H  36.15200 49.41300 34.55100
N  34.88200 50.41700 25.90200
C  34.64400 51.43800 26.87400
C  34.41300 52.65100 26.19600
C  34.82600 52.47900 24.82400
C  35.06900 51.02400 24.67100
C  33.90400 53.92800 26.82400
C  35.06700 53.55200 23.68100
O  35.51100 53.20300 22.60300
C  34.62100 54.99100 23.92600
N  35.66600 47.92100 24.31400
C  35.74400 48.88000 23.38800
C  35.98300 48.18800 22.04500
C  36.44600 46.77300 22.39600
C  36.24000 46.77100 23.92100
C  34.81400 48.33300 21.08300
C  37.95200 46.47700 22.06300
C  38.25900 45.32300 21.14200
N  35.97200 46.42500 26.86600
C  36.25600 45.37000 26.02800
C  36.35600 44.13100 26.82400
C  36.14600 44.61100 28.12000
C  35.92100 45.97900 28.14200
C  36.64600 42.82300 26.27000
C  36.05900 44.16800 29.46600
O  36.22300 43.03700 29.89400
C  35.85700 45.49700 30.34400
C  34.65000 45.29400 31.21700
O  33.50600 45.64500 30.91400
O  35.08800 44.85500 32.45100
C  34.08600 44.42900 33.44700
H  34.15900 51.90600 28.91500
H  35.35000 50.76800 22.59600
H  36.55300 44.68500 24.01000
H  34.27500 48.27200 31.55500
H  35.30600 50.80400 30.94200
H  32.72800 51.24800 30.65200
H  33.04000 50.65200 32.25500
H  32.47900 49.56300 30.99500
H  36.92000 49.53200 32.03500
H  37.07700 47.78600 31.70000
H  36.55800 47.43000 33.94100
H  35.02100 47.86800 33.41500
H  34.69400 54.67900 26.85500
H  33.59900 53.67600 27.83900
H  32.97400 54.28900 26.38500
H  34.54400 55.39400 22.91600
H  35.36900 55.61900 24.41100
H  33.60400 55.10200 24.30200
H  36.84100 48.75300 21.68000
H  35.81000 46.06500 21.86400
H  35.07400 48.97600 20.24300
H  33.96000 48.88400 21.47800
H  34.51100 47.36900 20.67500
H  38.58900 46.45300 22.94700
H  38.37400 47.34600 21.55700
H  37.52000 44.56500 20.88200
H  39.05200 44.80200 21.67700
H  38.72300 45.70600 20.23300
H  35.99000 42.80000 25.40000
H  36.45300 42.01200 26.97300
H  37.68000 42.85500 25.92800
H  36.82500 45.57800 30.83800
H  34.32400 43.45900 33.88200
H  33.14900 44.23900 32.92300
H  34.03100 45.03700 34.35000
Mg 9.27400 48.15500 25.54000
C  6.70700 48.85700 27.97400
C  11.58000 49.07000 27.86800
C  11.66700 47.67400 23.25300
C  6.71500 47.91600 23.18000
N  9.06800 48.85000 27.69900
C  7.98100 48.89200 28.50900
C  8.51800 48.88300 29.99200
C  10.00700 49.33200 29.78800
C  10.25100 49.03100 28.35100
C  10.40700 50.79400 30.14800
C  8.29200 47.54000 30.87600
C  7.79700 47.64300 32.35400
H  8.76100 47.23200 33.48500
N  11.32400 48.47400 25.54500
C  12.09100 48.88100 26.57500
C  13.50600 48.89600 26.10400
C  13.46200 48.23800 24.87700
C  12.09700 48.05400 24.49600
C  14.60200 49.30600 27.04200
C  14.63400 47.65700 24.09600
O  14.49100 47.00900 23.13600
C  16.03900 47.87600 24.59200
N  9.19500 47.97600 23.42900
C  10.31200 47.53700 22.75100
C  9.85800 47.06300 21.39400
C  8.29600 47.47600 21.29800
C  8.04200 47.81500 22.71900
C  10.60800 47.55700 20.23400
C  7.43500 46.30700 20.67700
C  6.81200 46.73600 19.39700
N  7.15300 48.18000 25.53600
C  6.26200 48.09000 24.48400
C  4.85500 48.23000 24.94800
C  5.02600 48.40000 26.36000
C  6.41100 48.50100 26.64200
C  3.54800 48.23800 24.24400
C  4.24600 48.67300 27.58100
O  3.04000 48.72000 27.77100
C  5.34200 49.21600 28.64100
C  5.07000 48.66100 29.98200
O  4.98100 47.44800 30.27900
O  4.79100 49.73200 30.90200
C  4.25900 49.34900 32.22400
H  12.38500 49.31000 28.56600
H  12.32200 47.33200 22.44900
H  5.92600 47.79300 22.43500
H  7.90600 49.55500 30.59300
H  10.69100 48.76800 30.42100
H  11.22100 50.81000 30.87200
H  9.65300 51.28800 30.76100
H  10.67600 51.43000 29.30400
H  9.25400 47.03300 30.94200
H  7.63700 46.90400 30.28100
H  6.82500 47.16400 32.47300
H  7.56600 48.70400 32.45400
H  15.34800 48.55800 27.30900
H  14.34700 49.74300 28.00800
H  15.03600 50.11300 26.45000
H  16.11700 48.93800 24.82300
H  16.67300 47.48100 23.79900
H  16.16000 47.25700 25.48200
H  10.16600 46.03700 21.59300
H  8.10000 48.34100 20.66500
H  9.90800 47.52100 19.39900
H  11.46700 46.93300 19.98900
H  11.05400 48.54700 20.32400
H  6.63900 46.02200 21.36400
H  8.11900 45.48800 20.45500
H  6.60400 45.85600 18.78800
H  7.49000 47.38000 18.83700
H  5.85500 47.25800 19.40600
H  2.70200 47.68400 24.64900
H  3.61800 47.76300 23.26500
H  3.16400 49.25700 24.30300
H  5.44100 50.30000 28.71000
H  5.16400 49.07700 32.76700
H  3.52600 48.55800 32.06100
H  3.69800 50.14000 32.72300

