158

Mg 46.83400 17.12000 28.43100
C  45.28700 16.48100 31.53700
C  49.33600 18.66700 30.23000
C  48.11300 18.18500 25.47900
C  44.13700 15.69600 26.88000
N  47.22400 17.56600 30.65000
C  46.38900 17.24900 31.74200
C  47.01500 17.77400 33.05100
C  48.31600 18.46600 32.53800
C  48.31500 18.27800 31.03500
C  48.57700 19.95800 32.89300
C  47.29800 16.61300 34.06500
C  47.95300 16.85000 35.38200
H  47.54300 18.00300 36.28900
N  48.52100 18.15300 27.92500
C  49.45100 18.60100 28.80400
C  50.63200 18.96100 28.01100
C  50.31900 18.89400 26.63500
C  48.89500 18.44200 26.63000
C  51.92000 19.37700 28.64800
C  51.21000 19.09800 25.32600
O  50.71700 19.12400 24.21400
C  52.67100 19.46300 25.39000
N  46.36400 16.65800 26.50600
C  46.94000 17.35300 25.41500
C  46.24600 16.98000 24.17100
C  44.97900 16.27100 24.56900
C  45.16800 16.11100 26.06200
C  45.98500 18.11600 23.21100
C  44.59300 14.97700 23.87600
C  43.75900 15.24700 22.58100
N  45.08600 16.21900 29.01000
C  44.07600 15.61400 28.28800
C  42.97500 15.19200 29.12500
C  43.44800 15.49700 30.42500
C  44.72600 16.10500 30.27600
C  41.68000 14.51600 28.65100
C  43.12800 15.38100 31.88800
O  42.19200 14.89300 32.50100
C  44.26000 16.02300 32.59100
C  43.74800 17.12500 33.46000
O  43.23900 18.17800 33.08500
O  43.79200 16.68300 34.74500
C  43.01600 17.45900 35.73900
H  50.21100 18.99100 30.79800
H  48.34000 18.52500 24.46600
H  43.28000 15.17800 26.44400
H  46.27000 18.43500 33.49400
H  49.22100 17.92200 32.80900
H  48.17500 20.71300 32.21800
H  49.55500 20.32600 33.20200
H  48.01200 20.10200 33.81400
H  47.89500 15.87300 33.53300
H  46.30800 16.17600 34.19600
H  49.03600 16.77900 35.28000
H  47.49600 16.02300 35.92600
H  52.67100 18.62400 28.88500
H  51.66200 19.93600 29.54700
H  52.31700 20.14700 27.98500
H  52.68000 20.38700 25.96900
H  53.05600 19.53500 24.37300
H  53.20000 18.62800 25.84900
H  46.85100 16.21400 23.68700
H  44.09500 16.90300 24.48000
H  45.89000 19.07900 23.71400
H  45.08500 17.94900 22.61800
H  46.75100 18.31800 22.46200
H  43.91800 14.52700 24.60400
H  45.43900 14.38200 23.53300
H  43.85800 16.25900 22.18900
H  42.72000 15.05400 22.84700
H  44.08500 14.46400 21.89600
H  41.48600 14.72100 27.59900
H  40.92100 15.03400 29.23600
H  41.86600 13.44800 28.76600
H  44.63300 15.16200 33.14600
H  42.28400 16.67700 35.94000
H  42.53500 18.37800 35.40500
H  43.63700 17.58400 36.62600
Mg 47.76400 25.39600 28.45300
C  48.96300 27.42000 31.17500
C  46.54300 23.18500 30.94100
C  46.88500 23.20300 26.10700
C  49.62300 27.27700 26.36800
N  47.71200 25.38900 30.81600
C  48.24400 26.34600 31.67200
C  47.94300 25.98900 33.12600
C  47.14400 24.66900 33.02800
C  47.09900 24.39600 31.51000
C  47.65400 23.50300 33.90100
C  47.34700 27.24100 33.88900
C  47.82900 27.46600 35.41200
H  46.74800 27.58200 36.48200
N  46.74600 23.47900 28.53700
C  46.39100 22.75200 29.62600
C  45.52700 21.57700 29.16300
C  45.53200 21.58900 27.73100
C  46.39100 22.82300 27.41400
C  44.80600 20.60100 30.08800
C  44.89100 20.72700 26.70400
O  45.09600 20.86800 25.53200
C  44.02700 19.48900 27.02700
N  48.12800 25.28700 26.45100
C  47.58600 24.30900 25.65900
C  48.15400 24.43500 24.24600
C  49.06600 25.64800 24.40000
C  48.85000 26.21700 25.79200
C  48.91800 23.15700 23.91600
C  48.89100 26.69200 23.25400
C  48.79200 26.09000 21.84800
N  48.91900 27.07800 28.62700
C  49.69100 27.69900 27.69800
C  50.38100 28.81000 28.33100
C  50.16100 28.69400 29.65400
C  49.18400 27.70900 29.81800
C  51.47600 29.70200 27.60000
C  50.55000 29.23500 30.93100
O  51.40900 30.04500 31.25700
C  49.67000 28.49500 32.01100
C  50.55500 27.86900 33.09900
O  51.06600 26.71200 33.12000
O  50.85900 28.84800 33.98300
C  51.90900 28.54700 34.96200
H  46.23000 22.45400 31.68900
H  46.56900 22.53400 25.30400
H  50.22500 27.83800 25.65000
H  48.91900 25.77100 33.55900
H  46.12300 24.93600 33.30300
H  46.78600 23.16400 34.46600
H  48.48300 23.77000 34.55500
H  47.88300 22.55100 33.42200
H  46.28000 27.01700 33.91000
H  47.31700 28.19600 33.36500
H  48.34700 28.40600 35.60400
H  48.53400 26.65000 35.57000
H  44.82200 20.89200 31.13800
H  45.31700 19.65300 29.92000
H  43.79900 20.41500 29.71600
H  43.17000 19.95100 27.51700
H  44.49700 18.84500 27.77000
H  43.71100 18.91100 26.15900
H  47.33500 24.60900 23.54800
H  50.08300 25.26000 24.46800
H  49.15000 22.72900 24.89100
H  49.78400 23.47400 23.33500
H  48.36500 22.45600 23.29100
H  49.70300 27.39500 23.43800
H  47.97400 27.24100 23.46600
H  49.67100 26.39100 21.27700
H  47.94500 26.54800 21.33800
H  48.76200 25.00300 21.91700
H  52.21200 28.99800 27.21300
H  51.86300 30.44300 28.29900
H  50.97100 30.26200 26.81300
H  48.98500 29.23900 32.41700
H  52.83100 28.25500 34.45900
H  51.63500 27.93900 35.82400
H  52.27400 29.43100 35.48500

