158

Mg 40.85200 8.85600 29.93500
C  42.72700 9.99600 32.72200
C  38.67300 7.38900 31.89200
C  39.30000 7.59300 27.13000
C  43.67500 9.59600 28.00000
N  40.86800 8.61500 32.10200
C  41.66800 9.16600 33.07300
C  41.04000 8.88300 34.46100
C  39.83900 7.85400 34.13200
C  39.73600 7.90500 32.58600
C  39.98000 6.50900 34.81100
C  40.77200 10.17400 35.35400
C  41.22400 10.02500 36.80200
H  41.45600 11.35200 37.56800
N  39.18500 7.74800 29.62500
C  38.35400 7.25200 30.55000
C  37.19700 6.71300 29.97500
C  37.27900 6.91100 28.55600
C  38.66000 7.38100 28.40500
C  36.05200 6.08600 30.77100
C  36.35400 6.68500 27.43800
O  36.59500 6.73400 26.23800
C  35.06000 6.09700 27.79300
N  41.42600 8.69400 27.89000
C  40.53400 8.12200 26.91900
C  41.20100 8.13700 25.49800
C  42.63200 8.82700 25.87900
C  42.59700 9.02900 27.35000
C  41.35500 6.76500 24.68100
C  42.87400 10.16500 25.05800
C  41.97400 11.37200 25.41300
N  42.70100 9.74800 30.21500
C  43.67500 10.06700 29.27800
C  44.79900 10.74400 29.90000
C  44.36100 10.84200 31.22200
C  43.16400 10.14300 31.37500
C  46.18700 11.11400 29.35600
C  44.78000 11.34400 32.55600
O  45.72400 12.01500 32.81000
C  43.60800 10.91000 33.60800
C  44.31900 10.14800 34.70600
O  44.73000 9.00200 34.63300
O  44.57200 10.95400 35.78400
C  45.48200 10.41000 36.86100
H  37.96200 6.89400 32.55700
H  38.85500 7.21800 26.20500
H  44.52900 10.01600 27.46400
H  41.75300 8.31600 35.05900
H  38.93600 8.16600 34.65800
H  40.45700 5.71500 34.23700
H  39.06700 6.09500 35.23800
H  40.68000 6.47900 35.64600
H  39.69300 10.32800 35.33500
H  41.18600 11.10400 34.96500
H  42.25000 9.67100 36.70100
H  40.64200 9.27400 37.33600
H  35.95600 5.01900 30.57200
H  35.10700 6.62900 30.77400
H  36.39100 6.07600 31.80700
H  35.04600 5.04200 28.06400
H  34.45800 6.37200 26.92700
H  34.68000 6.71400 28.60700
H  40.54500 8.87900 25.04200
H  43.42000 8.07600 25.81400
H  42.26000 6.72500 24.07400
H  40.57100 6.74500 23.92400
H  41.30200 5.88000 25.31500
H  42.67300 9.93900 24.01100
H  43.93000 10.43200 25.10500
H  41.52100 11.25700 26.39700
H  41.23200 11.57200 24.64000
H  42.70600 12.16600 25.55900
H  46.56900 10.21300 28.87600
H  46.97100 11.44900 30.03500
H  45.86300 11.80700 28.58000
H  43.10100 11.77900 34.03000
H  46.33900 9.84200 36.49800
H  44.90900 9.75400 37.51600
H  45.88000 11.26500 37.40700
Mg -2.08000 35.20200 27.05900
C  -4.10700 33.44000 29.20800
C  -1.15700 37.10800 29.76800
C  0.00400 36.82600 25.05200
C  -3.36400 33.43500 24.27500
N  -2.60500 35.28900 29.29200
C  -3.24900 34.30600 29.94000
C  -3.20300 34.52800 31.52600
C  -2.47700 35.94400 31.61100
C  -2.06700 36.14400 30.12300
C  -3.41100 37.00500 32.28400
C  -2.39400 33.36600 32.26500
C  -3.25800 32.68600 33.33100
H  -3.67700 33.49400 34.50300
N  -0.72800 36.73200 27.36700
C  -0.52700 37.47100 28.53600
C  0.37600 38.55900 28.29100
C  0.58200 38.51300 26.82600
C  -0.00600 37.26400 26.37200
C  0.80500 39.47900 29.28600
C  1.16300 39.63500 25.86700
O  1.16000 39.60000 24.70000
C  1.71200 40.86500 26.47800
N  -1.68100 35.09300 24.94700
C  -0.74700 35.87900 24.40000
C  -0.77400 35.71700 22.91200
C  -1.90800 34.70400 22.60700
C  -2.32200 34.37700 24.02800
C  -0.74800 37.06300 22.09200
C  -1.57800 33.45900 21.75900
C  -2.54500 32.93700 20.71800
N  -3.43400 33.76500 26.74300
C  -3.87600 33.12100 25.62000
C  -4.85500 32.10600 25.92100
C  -4.84600 32.16300 27.33400
C  -4.07400 33.25200 27.74000
C  -5.56400 31.12100 25.05500
C  -5.39600 31.51300 28.49300
O  -6.02700 30.44400 28.60400
C  -4.95100 32.38900 29.69700
C  -6.11600 32.90000 30.27400
O  -6.81500 33.81000 29.79700
O  -6.27300 32.38000 31.55700
C  -7.22000 33.04600 32.42700
H  -0.80100 37.58100 30.68600
H  0.70700 37.32700 24.38400
H  -3.93200 32.97200 23.46500
H  -4.24100 34.58600 31.85400
H  -1.57100 35.96600 32.21600
H  -2.91800 37.49700 33.12200
H  -4.35600 36.54900 32.57800
H  -3.72700 37.84500 31.66600
H  -1.50800 33.77300 32.75300
H  -2.12000 32.61500 31.52500
H  -2.61300 31.86400 33.64300
H  -4.13500 32.28900 32.82000
H  0.23100 40.37700 29.05600
H  1.87900 39.65800 29.33000
H  0.46900 39.12600 30.26100
H  0.86800 41.35600 26.96100
H  2.23300 41.43200 25.70600
H  2.43800 40.50100 27.20500
H  0.16000 35.19700 22.70200
H  -2.74100 35.07500 22.01000
H  -0.91200 37.88900 22.78400
H  -1.50800 36.96000 21.31700
H  0.23300 37.28200 21.67200
H  -1.36400 32.65400 22.46200
H  -0.65000 33.57900 21.20000
H  -2.20400 33.01200 19.68600
H  -3.45900 33.52900 20.68000
H  -2.81200 31.90200 20.93200
H  -4.95800 30.21600 25.08300
H  -5.59300 31.43900 24.01300
H  -6.57700 31.02500 25.44500
H  -4.49900 31.78100 30.48100
H  -7.98300 32.27900 32.56000
H  -7.67400 33.99800 32.15300
H  -6.74300 33.16300 33.40100

