158

Mg -0.06900 7.71800 26.23000
C  0.86700 9.62900 29.16500
C  -0.22500 4.98400 28.10700
C  -0.36300 6.04300 23.34300
C  0.28300 10.76700 24.36900
N  0.24400 7.38000 28.38000
C  0.45600 8.30700 29.40100
C  0.24700 7.55600 30.80400
C  0.31200 6.03300 30.35100
C  0.05700 6.11700 28.86400
C  1.70000 5.37000 30.71600
C  -1.08700 7.99200 31.43200
C  -1.06000 8.30800 32.88300
H  0.13900 7.99500 33.78900
N  -0.22900 5.75000 25.73900
C  -0.29900 4.76200 26.69100
C  -0.53700 3.49700 25.97800
C  -0.57000 3.78300 24.57900
C  -0.33100 5.27300 24.49200
C  -0.58900 2.19100 26.70100
C  -0.77500 2.80300 23.38600
O  -0.88900 3.17100 22.21300
C  -0.80700 1.28100 23.60900
N  0.04000 8.30300 24.17700
C  -0.08800 7.41000 23.21800
C  -0.05900 8.13300 21.84100
C  -0.35900 9.65900 22.24700
C  -0.05500 9.61000 23.70900
C  1.27200 7.77100 21.06300
C  -1.84400 10.05600 21.98300
C  -2.00500 11.45500 21.31500
N  0.44400 9.80200 26.61900
C  0.61500 10.86100 25.75900
C  1.12300 12.01100 26.50500
C  1.19600 11.56800 27.85500
C  0.86500 10.20700 27.87100
C  1.32900 13.39600 25.96400
C  1.49300 11.98400 29.22100
O  1.90100 13.05800 29.66200
C  1.16000 10.76300 30.18300
C  2.17200 10.49700 31.22900
O  3.14600 9.79800 31.05000
O  1.89200 11.33700 32.27900
C  3.10300 11.51300 33.14700
H  -0.48900 4.10900 28.70500
H  -0.53300 5.62300 22.35000
H  0.10900 11.66900 23.77900
H  1.14000 7.78400 31.38400
H  -0.46800 5.49800 30.89300
H  2.17700 5.19100 29.75200
H  1.55000 4.37500 31.13600
H  2.36500 5.93000 31.37300
H  -1.78000 7.15500 31.34500
H  -1.45700 8.89000 30.93800
H  -1.93700 7.92100 33.40200
H  -1.24400 9.38200 32.85700
H  0.21400 1.58100 26.28900
H  -1.52000 1.69700 26.42400
H  -0.53500 2.31500 27.78300
H  -0.79600 0.64900 22.72000
H  -1.73200 1.09400 24.15400
H  -0.04900 0.87300 24.27800
H  -0.87700 7.77700 21.21400
H  0.41100 10.22000 21.71800
H  1.10000 7.01000 20.30200
H  1.96900 7.31500 21.76700
H  1.78900 8.63600 20.64800
H  -2.40700 10.14500 22.91200
H  -2.30700 9.28100 21.37300
H  -2.40800 11.27300 20.31800
H  -1.06100 11.96900 21.13200
H  -2.59600 12.16000 21.90000
H  2.41400 13.48600 25.91500
H  0.97500 14.04000 26.76800
H  0.75300 13.55200 25.05200
H  0.20000 10.91000 30.67600
H  3.08100 12.57900 33.37400
H  4.06900 11.22500 32.73300
H  3.01000 10.89800 34.04200
Mg 47.62400 35.59100 27.97100
C  46.33700 33.62200 30.47300
C  48.09700 38.10800 30.31800
C  49.21200 37.28900 25.60800
C  47.37800 32.87500 25.76700
N  47.21300 35.87300 30.15500
C  46.92900 34.83000 31.00800
C  47.35000 35.12300 32.41900
C  47.54300 36.73000 32.40600
C  47.55900 36.96800 30.88000
C  46.35700 37.48500 33.20000
C  48.55600 34.21600 32.87500
C  49.17500 34.47200 34.27400
H  48.28000 35.29500 35.28300
N  48.35400 37.54600 27.90300
C  48.39600 38.42600 28.94800
C  49.05500 39.68900 28.47600
C  49.44000 39.49300 27.12900
C  48.96000 38.02900 26.79600
C  49.28800 40.78500 29.46400
C  50.13800 40.34900 26.16300
O  50.58300 39.95600 25.08200
C  50.50300 41.76500 26.53800
N  48.09100 35.15600 25.87800
C  48.75600 36.03500 25.13800
C  49.23300 35.42000 23.84000
C  48.55400 34.00700 23.86300
C  47.92300 33.99300 25.19900
C  48.89100 36.27800 22.53400
C  49.55300 32.90000 23.54000
C  50.06600 32.90600 22.09700
N  46.86100 33.66700 27.95900
C  46.88000 32.67100 27.04400
C  46.22700 31.53200 27.61700
C  46.01900 31.89500 28.95800
C  46.35300 33.22200 29.09800
C  46.07500 30.08500 27.02600
C  45.40900 31.33400 30.18800
O  44.95400 30.25300 30.46500
C  45.49400 32.46400 31.13600
C  45.82600 32.06300 32.51400
O  46.70100 31.36700 32.89700
O  44.82400 32.66100 33.27600
C  44.66900 32.36500 34.67600
H  48.40300 38.89800 31.00800
H  49.78100 37.83900 24.85500
H  47.35700 31.95600 25.17700
H  46.44100 34.93000 32.98800
H  48.55800 36.99500 32.70300
H  46.73900 38.27200 33.85000
H  45.77200 36.90000 33.91000
H  45.67300 37.93900 32.48300
H  49.33400 34.49400 32.16400
H  48.40700 33.17300 32.59600
H  50.03900 35.09700 34.05000
H  49.46100 33.45300 34.53300
H  49.31200 41.79200 29.04800
H  50.19700 40.63100 30.04600
H  48.39100 40.78100 30.08200
H  49.64400 42.23100 27.02200
H  50.86900 42.23500 25.62600
H  51.26300 41.67100 27.31400
H  50.30400 35.22400 23.80300
H  47.75700 34.07700 23.12300
H  48.51200 37.26000 22.81500
H  48.04700 35.76200 22.07700
H  49.67500 36.39400 21.78500
H  49.14200 31.89600 23.64900
H  50.33300 32.82000 24.29700
H  49.95900 31.89500 21.70500
H  51.11100 33.20600 22.16600
H  49.61000 33.64500 21.43900
H  46.29100 29.93500 25.96800
H  45.09800 29.72400 27.34900
H  46.75700 29.41700 27.55300
H  44.49500 32.89300 31.22000
H  43.63100 32.03100 34.67200
H  44.75200 33.34000 35.15600
H  45.47000 31.74600 35.07900

