158

Mg 36.42900 50.04400 25.42900
C  36.80000 48.08400 28.32200
C  35.23200 52.59000 27.44100
C  35.99200 51.80500 22.68100
C  37.44700 47.31900 23.57600
N  36.15100 50.31500 27.57500
C  36.37700 49.39200 28.58600
C  36.14500 50.04200 29.95200
C  35.50100 51.32500 29.58800
C  35.64900 51.45600 28.11500
C  34.03000 51.56000 30.07500
C  37.50100 50.09400 30.80600
C  37.46900 49.92300 32.33000
H  36.04600 49.89900 32.94800
N  35.68100 51.94100 25.07900
C  35.31200 52.87600 26.03600
C  34.87000 54.10600 25.28700
C  35.09800 53.90200 23.95100
C  35.64100 52.49600 23.85800
C  34.28200 55.29100 25.99300
C  34.87000 54.86800 22.75200
O  35.18400 54.65300 21.58900
C  34.41000 56.29400 23.05400
N  36.57700 49.59600 23.43700
C  36.41400 50.49800 22.47700
C  36.74700 49.97700 21.02600
C  37.06700 48.50700 21.31000
C  37.13700 48.48500 22.89000
C  35.67200 50.20500 19.96900
C  38.39400 48.01700 20.65400
C  39.68500 48.55600 21.41400
N  37.01700 48.09700 25.84400
C  37.38500 47.11700 24.98700
C  37.70900 45.89500 25.71300
C  37.49900 46.18600 27.09500
C  37.03000 47.59900 27.03100
C  38.13200 44.57500 25.12300
C  37.44200 45.67200 28.47500
O  37.73300 44.53800 28.86700
C  37.09300 46.91300 29.34600
C  35.83900 46.60800 30.05500
O  34.74000 47.00200 29.67300
O  36.04600 45.95400 31.23100
C  34.85200 45.74500 32.04600
H  34.84500 53.35800 28.11400
H  35.84700 52.28800 21.71200
H  37.63500 46.43100 22.96800
H  35.46800 49.40800 30.52400
H  35.99100 52.17100 30.07100
H  33.55800 50.79400 30.69000
H  33.41500 51.60900 29.17600
H  34.06900 52.52900 30.57300
H  37.93800 51.08400 30.67800
H  38.15200 49.35800 30.33300
H  38.00200 50.80800 32.67800
H  38.05500 49.04500 32.59900
H  34.98600 56.10900 25.83600
H  34.27700 55.01200 27.04600
H  33.31200 55.61600 25.61600
H  35.14900 56.93400 23.53600
H  33.48100 56.26400 23.62400
H  34.15900 56.86000 22.15700
H  37.64600 50.54700 20.79200
H  36.20600 47.85700 21.15300
H  35.51200 49.36200 19.29700
H  35.93700 51.06300 19.35100
H  34.72900 50.37600 20.48900
H  38.30000 48.34700 19.62000
H  38.41600 46.92700 20.65100
H  39.41500 49.25500 22.20500
H  40.28900 48.93300 20.58900
H  40.17300 47.70100 21.88300
H  39.00300 44.85700 24.53200
H  37.32000 44.08500 24.58700
H  38.41400 43.90400 25.93500
H  37.95000 46.98800 30.01700
H  34.40700 46.64900 32.46100
H  35.19600 45.05700 32.81800
H  34.10500 45.11500 31.56200
Mg -6.24000 25.00000 25.81800
C  -4.71700 25.97200 28.72300
C  -8.10100 22.67100 27.56100
C  -7.25300 23.65400 22.96900
C  -3.74600 26.84300 24.02400
N  -6.31300 24.28800 27.89100
C  -5.71900 24.99100 28.96900
C  -6.26800 24.47800 30.32100
C  -7.02200 23.09300 29.87800
C  -7.16300 23.29400 28.34000
C  -6.28500 21.74900 30.16800
C  -7.18500 25.53700 31.02200
C  -6.72200 25.88800 32.46900
H  -6.00900 24.82800 33.36000
N  -7.58700 23.44700 25.30200
C  -8.30300 22.68300 26.15500
C  -9.19400 21.79400 25.37900
C  -9.09600 22.24000 24.00800
C  -7.95500 23.15400 24.05500
C  -10.10000 20.82500 26.17300
C  -9.84700 21.83300 22.72600
O  -9.58300 22.23700 21.57900
C  -10.95400 20.80500 22.88700
N  -5.48900 25.10500 23.67500
C  -6.13000 24.48600 22.73700
C  -5.41700 24.81100 21.38600
C  -4.32600 25.85700 21.69900
C  -4.47100 25.94800 23.18600
C  -4.81700 23.57800 20.54400
C  -4.45200 27.32200 21.11400
C  -3.44600 27.74000 20.09500
N  -4.62800 26.22200 26.25300
C  -3.78800 27.02200 25.44300
C  -2.94100 27.87200 26.28600
C  -3.27900 27.48600 27.55900
C  -4.27400 26.49000 27.49700
C  -1.90300 28.89800 25.79400
C  -2.92300 27.62600 28.91600
O  -2.06400 28.39200 29.32300
C  -3.96800 26.80400 29.81200
C  -3.20500 26.07800 30.84300
O  -2.84900 24.89400 30.77100
O  -2.84500 26.96000 31.83200
C  -1.83700 26.51700 32.83500
H  -8.58900 21.90600 28.16800
H  -7.54200 23.26300 21.99100
H  -2.96600 27.51100 23.65300
H  -5.41200 24.23600 30.95000
H  -8.00600 23.02300 30.34200
H  -6.07600 21.23700 29.22800
H  -6.90800 21.17100 30.85000
H  -5.32400 21.89500 30.66200
H  -8.23900 25.38600 30.78900
H  -7.08300 26.49900 30.52000
H  -7.59700 26.17800 33.05100
H  -6.10000 26.78200 32.42300
H  -10.96600 20.71800 25.52000
H  -10.47800 21.29500 27.08100
H  -9.61900 19.85000 26.25600
H  -11.19800 20.29000 21.95800
H  -11.76300 21.25800 23.46000
H  -10.60900 19.96500 23.49000
H  -6.17400 25.26200 20.74400
H  -3.30400 25.55800 21.46400
H  -4.94300 22.62600 21.05900
H  -3.74700 23.77400 20.47700
H  -5.27100 23.58700 19.55400
H  -4.46700 28.07400 21.90300
H  -5.32600 27.46700 20.47900
H  -3.85600 28.12200 19.16000
H  -2.80800 26.86900 19.94700
H  -2.87700 28.50700 20.62100
H  -1.17100 28.30800 25.24200
H  -1.30500 29.33600 26.59300
H  -2.28600 29.65500 25.10900
H  -4.67100 27.45000 30.33700
H  -0.94100 26.16000 32.32700
H  -2.36100 25.74600 33.39900
H  -1.64300 27.40200 33.44200

