158

Mg 23.53400 -5.76100 44.82400
C  25.81400 -3.41000 43.71000
C  21.14600 -4.28300 42.80400
C  21.76600 -8.56400 44.89900
C  26.29800 -7.56300 46.07400
N  23.53800 -4.13500 43.42500
C  24.53900 -3.25500 43.19500
C  24.14700 -2.10900 42.29000
C  22.56100 -2.23800 42.28100
C  22.35700 -3.58500 42.93700
C  21.70300 -1.10700 42.93900
C  24.69000 -2.06200 40.84000
C  25.11900 -0.67100 40.37000
H  24.88400 -0.34400 38.86300
N  21.59900 -6.24300 44.14800
C  20.87600 -5.59100 43.28700
C  19.76100 -6.30500 42.98000
C  19.91100 -7.53400 43.46900
C  21.12400 -7.50600 44.28100
C  18.69600 -5.80800 41.99100
C  19.04300 -8.79100 43.13800
O  18.13100 -8.70500 42.35300
C  19.22500 -10.13200 43.84200
N  24.02800 -7.75300 45.54200
C  23.00100 -8.71900 45.53700
C  23.51200 -10.09600 45.90500
C  24.97300 -9.72200 46.50100
C  25.10400 -8.27300 46.07300
C  22.56100 -10.79300 46.97900
C  26.14800 -10.51800 45.82300
C  26.26700 -12.00900 46.27700
N  25.65200 -5.42000 45.18000
C  26.60400 -6.29100 45.57900
C  27.98000 -5.65300 45.47400
C  27.70300 -4.51000 44.75600
C  26.28900 -4.47700 44.55200
C  29.34800 -6.22700 45.72900
C  28.21800 -3.27400 44.16400
O  29.37600 -2.81100 44.17900
C  27.08000 -2.63400 43.35000
C  27.07400 -1.18700 43.60600
O  26.50100 -0.60500 44.46200
O  27.97600 -0.56200 42.70600
C  28.15600 0.85400 42.84600
H  20.29900 -3.82300 42.29000
H  21.23200 -9.50700 45.03300
H  27.17400 -8.02400 46.53500
H  24.34900 -1.22100 42.88700
H  22.22500 -2.48100 41.27300
H  22.30800 -0.23400 43.18400
H  21.29400 -1.59300 43.82500
H  20.87200 -0.85300 42.28200
H  24.02800 -2.45500 40.06900
H  25.52900 -2.75800 40.85400
H  26.20400 -0.61000 40.45500
H  24.83100 0.14200 41.03700
H  18.82800 -5.95100 40.91900
H  18.55700 -4.72800 42.04300
H  17.73300 -6.29300 42.15600
H  18.48400 -10.91000 43.66000
H  19.10800 -9.82800 44.88200
H  20.23400 -10.50500 43.66300
H  23.70300 -10.85000 45.14100
H  24.90600 -9.80800 47.58500
H  22.26400 -11.82700 46.80100
H  21.61000 -10.26800 47.06300
H  23.07100 -10.93200 47.93200
H  27.10300 -10.15800 46.20500
H  26.08900 -10.49600 44.73500
H  27.22100 -12.42300 45.94800
H  25.36000 -12.53400 45.97600
H  26.17700 -12.06500 47.36200
H  29.67200 -6.64300 44.77400
H  29.23500 -6.99900 46.48900
H  30.00100 -5.41900 46.05900
H  27.34800 -2.74000 42.29900
H  28.00000 1.26600 41.84900
H  29.16600 1.03100 43.21600
H  27.53100 1.46100 43.50100
Mg 17.89500 52.00900 24.71400
C  19.62800 50.78000 27.56900
C  15.14400 52.59800 26.85400
C  16.21500 52.98100 22.06400
C  20.51700 50.99300 22.73300
N  17.51900 51.72500 26.93500
C  18.34000 51.22800 27.94500
C  17.78600 51.55400 29.30700
C  16.32700 52.03500 29.08500
C  16.32800 52.18300 27.56100
C  15.33600 50.98100 29.77100
C  18.60200 52.74100 29.98200
C  19.04900 52.49200 31.38700
H  18.00400 51.95100 32.41800
N  15.93800 52.76900 24.48300
C  14.96100 52.94300 25.51300
C  13.84500 53.62600 24.84500
C  14.12800 53.74500 23.44400
C  15.50100 53.23400 23.28900
C  12.66600 53.98900 25.72700
C  13.26900 54.28500 22.32800
O  13.60200 54.27700 21.12500
C  12.03700 55.04000 22.62400
N  18.28300 51.90100 22.68600
C  17.44800 52.39100 21.80000
C  18.08700 52.38200 20.39400
C  19.36500 51.58900 20.56000
C  19.41800 51.44400 22.06000
C  17.17000 51.85300 19.26300
C  20.68900 52.19700 19.96500
C  21.35200 51.45900 18.78700
N  19.67900 51.07100 24.99000
C  20.68000 50.79900 24.08700
C  21.78700 50.12800 24.80700
C  21.40000 50.14500 26.14000
C  20.10200 50.66400 26.20700
C  23.13200 49.55600 24.20200
C  21.87700 49.73200 27.51200
O  22.88500 49.16800 27.99200
C  20.71900 50.22500 28.45100
C  20.23200 49.09500 29.38100
O  19.63900 48.09500 29.03500
O  20.49100 49.40700 30.69800
C  20.00800 48.38600 31.59000
H  14.42500 52.96000 27.59200
H  15.66500 53.28500 21.17100
H  21.27300 50.68100 22.01000
H  17.84200 50.66500 29.93500
H  16.17000 53.03600 29.48900
H  14.46400 51.10600 29.12800
H  15.39000 51.29000 30.81500
H  15.83700 50.02000 29.65800
H  18.07500 53.69400 30.00600
H  19.50800 52.85500 29.38700
H  19.47700 53.45000 31.68100
H  19.79000 51.69500 31.33900
H  12.08200 54.84900 25.39800
H  12.85200 54.06700 26.79800
H  11.94000 53.18500 25.60100
H  11.56700 55.46600 21.73800
H  12.19900 55.93300 23.22900
H  11.26800 54.39300 23.04400
H  18.26200 53.45600 20.33300
H  19.20700 50.55800 20.24000
H  17.10100 52.70200 18.58200
H  16.15800 51.55400 19.53500
H  17.58700 51.08400 18.61200
H  21.44000 52.29300 20.74900
H  20.46400 53.22900 19.69700
H  21.61300 52.22000 18.05200
H  20.58600 50.85000 18.30600
H  22.23200 50.84900 18.99200
H  23.28400 49.98700 23.21200
H  23.06800 48.46800 24.18500
H  24.03100 49.76700 24.78100
H  21.11200 50.99100 29.12000
H  20.52900 47.43500 31.48400
H  18.95100 48.23200 31.37100
H  20.31100 48.67600 32.59600

