158

Mg 9.49300 3.51300 27.96400
C  10.61400 1.99100 31.06800
C  7.83700 5.72700 30.03300
C  7.94500 4.56800 25.25300
C  10.90800 0.82000 26.20700
N  9.18800 3.73100 30.41800
C  9.92700 3.15900 31.43100
C  9.61000 3.80500 32.82700
C  8.61100 4.91900 32.39500
C  8.46300 4.75900 30.83200
C  7.22300 5.03100 33.03500
C  10.91700 4.36300 33.55300
C  11.33500 3.51900 34.77200
H  11.56100 4.48000 35.95400
N  8.15600 4.95600 27.66400
C  7.61500 5.82400 28.58600
C  6.81000 6.81300 27.87100
C  6.79100 6.47200 26.49800
C  7.69400 5.39000 26.41400
C  5.91700 7.74800 28.58300
C  6.11600 7.19100 25.29100
O  6.12000 6.83900 24.15500
C  5.42100 8.47500 25.68700
N  9.41200 2.77400 26.03000
C  8.69100 3.39300 25.07800
C  8.78700 2.57900 23.71400
C  9.78200 1.51700 24.04600
C  10.03000 1.66300 25.56100
C  7.43400 2.14000 23.10300
C  11.05700 1.40100 23.16600
C  10.94700 0.85100 21.73300
N  10.59800 1.81500 28.46700
C  11.17800 0.84500 27.60800
C  11.88500 -0.13200 28.43700
C  11.68500 0.23800 29.81300
C  10.87300 1.40500 29.79800
C  12.59300 -1.42300 27.99700
C  12.01800 -0.04000 31.19800
O  12.72100 -0.89700 31.64600
C  11.33200 1.09500 32.06700
C  10.46400 0.55600 33.13700
O  9.24900 0.40600 33.06500
O  11.23000 0.27100 34.21500
C  10.53000 -0.27400 35.30700
H  7.26300 6.43200 30.63700
H  7.57400 4.92700 24.29000
H  11.40200 0.02400 25.64600
H  8.98900 3.30600 33.57100
H  9.08200 5.90100 32.41900
H  7.12900 4.74200 34.08200
H  6.52000 4.49000 32.40000
H  6.80900 6.02900 32.89300
H  10.87800 5.41500 33.83200
H  11.68100 4.22100 32.78800
H  12.22000 2.92500 34.54700
H  10.54700 2.82200 35.06000
H  4.91200 7.33700 28.48100
H  5.85300 8.76500 28.19400
H  6.02600 7.89100 29.65800
H  4.61500 8.23600 26.38100
H  4.80200 8.76800 24.83900
H  6.09600 9.27600 25.99100
H  9.22200 3.29000 23.01100
H  9.30400 0.53800 24.05300
H  6.78300 1.58300 23.77700
H  7.49900 1.59200 22.16300
H  6.90400 3.07600 22.93200
H  11.77400 0.75700 23.67600
H  11.42800 2.42500 23.13400
H  9.88200 0.84200 21.50200
H  11.31300 -0.17400 21.66800
H  11.58100 1.48300 21.11100
H  12.87600 -1.31200 26.95000
H  12.02500 -2.33100 28.19500
H  13.46700 -1.47400 28.64700
H  12.20300 1.64300 32.42500
H  9.69400 0.39800 35.50000
H  11.22300 -0.14300 36.13700
H  10.26500 -1.31800 35.13500
Mg 41.20100 41.06700 26.83100
C  40.52400 43.43200 29.43900
C  41.92300 38.73100 29.15400
C  41.97500 38.96100 24.36100
C  40.51200 43.51700 24.51500
N  41.15500 41.05300 29.05500
C  40.84000 42.13700 29.88500
C  40.88500 41.66400 31.35200
C  41.35300 40.13300 31.24100
C  41.45100 39.94500 29.70100
C  42.71300 39.76800 31.81200
C  39.58500 41.82700 32.15900
C  39.45000 42.97600 33.15900
H  38.98300 42.61800 34.65500
N  41.92200 39.14900 26.75800
C  42.12900 38.36000 27.83900
C  42.60100 37.11300 27.43400
C  42.57300 37.07800 26.00700
C  42.10600 38.43500 25.65500
C  43.05000 35.99700 28.47500
C  42.81100 35.95100 25.03200
O  42.58600 36.05200 23.82100
C  43.34000 34.59200 25.52900
N  41.45300 41.27600 24.74600
C  41.66400 40.23600 23.93800
C  41.40500 40.59400 22.43800
C  40.61500 41.96700 22.56900
C  40.79900 42.23300 24.07900
C  42.66700 40.49500 21.54800
C  39.20200 41.85800 21.95900
C  38.19100 41.41600 22.99900
N  40.68700 43.05900 26.91700
C  40.49300 43.96100 25.85800
C  40.08300 45.29100 26.38200
C  40.14600 45.12400 27.74500
C  40.47000 43.75100 28.02300
C  39.60800 46.55500 25.63300
C  39.87000 45.76600 28.93900
O  39.50700 46.88400 29.14400
C  40.21400 44.74300 30.15000
C  41.41400 45.24900 30.91000
O  42.50300 44.80900 30.78600
O  40.94000 46.05600 31.94100
C  41.89800 46.45300 33.03300
H  42.17900 38.13300 30.03200
H  42.18200 38.29600 23.51900
H  40.17600 44.22200 23.75100
H  41.67400 42.27100 31.79700
H  40.60400 39.39700 31.53300
H  42.82500 40.50300 32.60900
H  43.51600 39.83600 31.07900
H  42.69400 38.76400 32.23700
H  39.40600 40.90600 32.71400
H  38.67900 41.84000 31.55300
H  38.75500 43.65900 32.67200
H  40.44100 43.42900 33.16200
H  42.42500 36.16300 29.35200
H  44.09100 36.05100 28.79200
H  42.86400 34.97500 28.14600
H  42.54900 33.89800 25.81500
H  44.06500 34.67500 26.33900
H  43.94800 34.18700 24.72100
H  40.67900 39.90800 22.00100
H  41.29600 42.65700 22.07100
H  42.66100 39.56800 20.97400
H  43.52100 40.44300 22.22400
H  42.76500 41.36200 20.89500
H  39.18800 41.20600 21.08600
H  38.93900 42.82600 21.53200
H  38.65300 40.83400 23.79700
H  37.31000 40.85300 22.68800
H  37.93800 42.38400 23.43200
H  38.84200 46.16300 24.96400
H  40.40900 46.95800 25.01400
H  39.27500 47.32600 26.32900
H  39.29100 44.78400 30.72700
H  42.75200 46.91000 32.53300
H  42.24500 45.57200 33.57300
H  41.37300 47.12500 33.71100

