158

Mg 47.41100 15.81500 28.31200
C  45.46600 15.21200 31.11000
C  49.57700 17.67300 30.10200
C  49.03100 16.74500 25.39400
C  44.85900 14.44500 26.37300
N  47.46200 16.38200 30.34500
C  46.62200 16.00900 31.35300
C  47.08700 16.55900 32.76500
C  48.26700 17.51900 32.27400
C  48.42300 17.26000 30.76200
C  48.10900 19.05500 32.57600
C  47.72000 15.31800 33.68400
C  47.67600 15.53400 35.22900
H  47.26400 16.88800 35.74000
N  49.17100 17.02400 27.88600
C  49.94800 17.66700 28.77800
C  51.09400 18.30300 28.11400
C  50.88200 18.02700 26.73900
C  49.66700 17.23300 26.59100
C  52.26500 18.93500 28.84400
C  51.76100 18.43800 25.58200
O  51.53300 18.13500 24.40300
C  52.95200 19.34500 25.86100
N  47.02200 15.55800 26.25600
C  47.81700 16.04100 25.22500
C  47.24700 15.76000 23.87100
C  45.92400 15.00900 24.20500
C  45.90700 15.04100 25.76000
C  47.01100 16.97600 22.88000
C  45.97600 13.58000 23.59200
C  46.57300 12.44300 24.46600
N  45.63400 14.86100 28.64000
C  44.63900 14.31600 27.75100
C  43.50300 13.77000 28.47400
C  43.83000 14.10000 29.81200
C  45.08400 14.75100 29.84800
C  42.22400 13.01700 27.89300
C  43.36900 14.03000 31.13900
O  42.26300 13.60600 31.57400
C  44.44000 14.69600 32.09100
C  43.67400 15.82600 32.64600
O  43.20200 16.77200 32.02300
O  43.47500 15.55100 33.94700
C  42.71800 16.57700 34.74700
H  50.18000 18.33700 30.72500
H  49.48900 16.93300 24.42000
H  44.01400 14.05000 25.80600
H  46.25900 17.08400 33.24100
H  49.19800 17.29100 32.79300
H  47.21000 19.02500 33.19200
H  47.94300 19.61400 31.65500
H  48.93600 19.54800 33.08600
H  48.80200 15.22300 33.59100
H  47.28900 14.36500 33.37900
H  48.67500 15.48100 35.66100
H  47.04500 14.78300 35.70400
H  52.16700 18.77000 29.91700
H  52.15900 20.01300 28.72000
H  53.23500 18.50600 28.59400
H  53.74600 18.68100 26.20500
H  52.68800 20.19900 26.48400
H  53.23400 19.71200 24.87400
H  48.07700 15.20100 23.43900
H  45.02100 15.57100 23.96500
H  45.97100 17.06500 22.56800
H  47.72400 16.82700 22.06900
H  47.32300 17.87500 23.41200
H  46.55500 13.55700 22.66800
H  45.00300 13.16000 23.33600
H  45.81900 12.01000 25.12400
H  47.42400 12.88900 24.98000
H  46.88700 11.59600 23.85600
H  42.45300 12.72300 26.86800
H  41.46000 13.79000 27.81600
H  41.94600 12.18900 28.54500
H  44.83200 13.98900 32.82200
H  42.78900 17.61000 34.40600
H  43.04400 16.51100 35.78500
H  41.66600 16.29400 34.75800
Mg -11.75200 17.16000 42.03700
C  -8.56100 15.73200 41.65900
C  -10.54500 20.15500 40.78400
C  -14.85300 18.04200 41.49600
C  -12.88300 13.76700 42.44800
N  -9.74900 17.85100 41.32100
C  -8.60100 17.13800 41.29400
C  -7.43200 18.01400 40.77800
C  -8.09400 19.46800 41.05300
C  -9.57100 19.10800 40.97200
C  -7.75000 20.21600 42.31500
C  -7.13100 17.69200 39.32000
C  -5.71300 17.35800 38.99700
H  -5.01200 18.12100 37.89500
N  -12.56500 18.90900 41.36100
C  -11.91500 20.07200 41.01600
C  -12.86700 21.16000 40.85500
C  -14.14400 20.57200 40.97900
C  -13.87000 19.10500 41.27800
C  -12.48400 22.53900 40.39900
C  -15.49900 21.26900 40.90300
O  -15.62000 22.52000 40.78000
C  -16.79400 20.53900 40.92300
N  -13.58000 16.06500 41.99400
C  -14.72000 16.70400 41.80300
C  -15.96800 15.84800 41.98100
C  -15.40200 14.44200 42.28900
C  -13.86600 14.74600 42.33400
C  -16.97000 16.45300 42.98900
C  -15.86300 13.35200 41.26600
C  -16.79300 12.27100 41.78900
N  -10.87500 15.17500 42.22900
C  -11.50600 13.94000 42.49900
C  -10.41000 12.90800 42.67600
C  -9.23200 13.60000 42.37400
C  -9.59500 14.91700 42.10900
C  -10.61400 11.49100 42.96500
C  -7.81500 13.37700 42.27500
O  -7.05800 12.39800 42.42000
C  -7.32400 14.76700 41.73800
C  -6.36800 15.33900 42.65500
O  -6.68300 15.80400 43.72800
O  -5.08400 15.28100 42.20300
C  -4.03000 15.86400 43.16100
H  -10.09500 21.12700 40.57100
H  -15.89700 18.22800 41.23200
H  -13.03100 12.68700 42.38100
H  -6.60400 17.94200 41.48300
H  -7.76900 20.13700 40.25500
H  -6.81000 20.71600 42.08300
H  -7.53900 19.56800 43.16600
H  -8.52200 20.95600 42.52700
H  -7.43700 18.52600 38.68800
H  -7.76400 16.86600 38.99400
H  -5.65500 16.27300 38.91900
H  -5.09900 17.54800 39.87800
H  -12.41700 22.38300 39.32300
H  -11.48400 22.72700 40.79000
H  -13.18200 23.28000 40.78800
H  -17.54900 21.32100 41.01100
H  -16.80300 19.93800 41.83200
H  -16.88400 20.08100 39.93800
H  -16.49500 15.87800 41.02700
H  -15.64900 14.17800 43.31700
H  -17.99200 16.46300 42.61000
H  -16.71600 17.48600 43.22800
H  -16.99000 15.94500 43.95400
H  -14.99900 12.84800 40.83200
H  -16.39000 13.82400 40.43700
H  -17.06800 12.46000 42.82600
H  -16.31200 11.30000 41.90900
H  -17.75300 12.24400 41.27300
H  -9.89700 11.18500 43.72700
H  -10.69500 10.91800 42.04100
H  -11.61000 11.43400 43.40400
H  -6.80700 14.66700 40.78400
H  -4.00600 16.95000 43.25000
H  -3.11300 15.36000 42.85400
H  -4.29000 15.51100 44.15900

