158

Mg 8.55900 3.28300 28.09800
C  9.83900 2.05300 30.92000
C  6.64400 5.50400 29.99000
C  6.87100 4.25900 25.33300
C  10.41100 1.02200 26.18400
N  8.20100 3.62900 30.19900
C  8.90300 3.01500 31.18500
C  8.51700 3.49700 32.54300
C  7.25600 4.37800 32.18300
C  7.31700 4.48800 30.69100
C  5.88300 3.79500 32.54000
C  9.68600 4.33800 33.17900
C  10.00100 3.95300 34.67000
H  9.01100 3.14700 35.56600
N  6.96000 4.68400 27.73500
C  6.40600 5.56200 28.54700
C  5.59500 6.53500 27.81500
C  5.60000 6.16400 26.52200
C  6.45700 4.93800 26.50900
C  4.85500 7.68300 28.56400
C  4.86800 6.69900 25.26900
O  4.97400 6.25400 24.14900
C  4.01400 7.90600 25.37700
N  8.53900 2.66700 26.03300
C  7.74500 3.23600 25.13700
C  7.91000 2.54600 23.77300
C  9.31600 1.73900 23.87300
C  9.47400 1.78500 25.38200
C  6.77100 1.63700 23.36700
C  10.39800 2.39500 23.12600
C  10.57400 2.01200 21.64600
N  9.85600 1.79700 28.39500
C  10.65300 1.00800 27.55600
C  11.49300 0.18300 28.32700
C  11.23500 0.58600 29.63500
C  10.24300 1.58600 29.62700
C  12.40800 -0.91100 27.83900
C  11.55400 0.32700 31.04400
O  12.33500 -0.44400 31.51100
C  10.65600 1.25200 31.88500
C  9.88500 0.42400 32.87300
O  8.81800 -0.08900 32.66700
O  10.56100 0.37500 34.03100
C  9.95300 -0.45700 35.08300
H  6.04000 6.16800 30.61300
H  6.38300 4.58700 24.41200
H  11.05900 0.34400 25.62500
H  8.36900 2.62300 33.17600
H  7.31800 5.38100 32.60600
H  5.48400 4.35900 33.38400
H  5.87100 2.81300 33.01300
H  5.03600 3.89700 31.86100
H  9.47500 5.40700 33.20800
H  10.67400 4.21900 32.73400
H  10.26700 4.87700 35.18500
H  10.92400 3.37900 34.74400
H  5.26800 8.66400 28.32800
H  4.91000 7.57600 29.64700
H  3.80100 7.69900 28.28600
H  3.32900 8.01300 24.53500
H  4.59400 8.82500 25.29900
H  3.40200 7.90800 26.27900
H  7.87800 3.34100 23.02800
H  9.23600 0.75700 23.40700
H  6.35800 1.09500 24.21800
H  7.11900 0.89300 22.64900
H  6.02300 2.24500 22.85800
H  11.35500 2.23800 23.62300
H  10.22500 3.47200 23.13100
H  10.36100 0.99000 21.33400
H  11.61500 2.13600 21.34600
H  9.88000 2.68500 21.14200
H  12.82200 -0.76200 26.84200
H  11.98500 -1.91400 27.89700
H  13.18500 -0.93800 28.60300
H  11.33700 1.98500 32.31700
H  10.51100 -1.39200 35.02500
H  8.90400 -0.75100 35.06400
H  10.14900 -0.11000 36.09800
Mg 35.90700 49.62800 25.63400
C  35.76300 47.96400 28.61500
C  34.14100 52.23900 27.07200
C  35.57400 50.91400 22.51400
C  37.02200 46.63700 24.02400
N  35.16500 50.09900 27.65200
C  35.20900 49.29200 28.74200
C  34.76000 50.01200 29.93000
C  34.17100 51.33400 29.46200
C  34.50100 51.17800 27.96900
C  32.70100 51.59900 29.85900
C  35.86800 50.15700 30.97600
C  35.31500 50.37900 32.38400
H  33.82800 50.27900 32.68500
N  35.10200 51.36400 24.92600
C  34.35300 52.29800 25.64300
C  33.97300 53.35400 24.70000
C  34.32100 52.93800 23.40400
C  34.91900 51.57800 23.58300
C  33.17400 54.53400 25.12800
C  34.11300 53.69200 22.11100
O  34.41900 53.27000 20.99700
C  33.38900 55.02000 22.06900
N  36.42100 48.91800 23.54100
C  36.18900 49.67400 22.49200
C  36.68100 49.06800 21.16400
C  37.30100 47.73500 21.66700
C  36.81800 47.71300 23.15700
C  35.52200 48.94600 20.09600
C  38.84200 47.50000 21.60600
C  39.74300 48.63300 22.24400
N  36.33100 47.76300 26.17200
C  36.84100 46.66200 25.48500
C  37.01400 45.55500 26.36100
C  36.66000 46.02600 27.61100
C  36.22900 47.35900 27.43900
C  37.46300 44.18900 25.94000
C  36.49600 45.68600 29.01200
O  36.62600 44.59400 29.55700
C  35.95700 46.93700 29.72200
C  34.72500 46.56700 30.37600
O  33.71100 46.11000 29.90700
O  34.88200 46.64900 31.77200
C  33.83800 45.97700 32.52800
H  33.65200 53.10300 27.52600
H  35.36400 51.27900 21.50700
H  37.36500 45.76700 23.46000
H  33.97400 49.33100 30.25800
H  34.71000 52.17500 29.89800
H  32.61500 52.45100 30.53400
H  32.29700 50.78700 30.46400
H  31.95500 51.77600 29.08500
H  36.52100 50.96200 30.64000
H  36.53900 49.29800 30.96100
H  35.65400 51.36300 32.70900
H  35.80100 49.78100 33.15400
H  33.36100 54.54000 26.20100
H  32.11600 54.31900 24.97900
H  33.45300 55.55700 24.87500
H  33.30600 55.44100 21.06700
H  33.91600 55.76200 22.66900
H  32.34100 54.95000 22.36200
H  37.37600 49.73100 20.64800
H  36.73600 46.93900 21.18400
H  34.60500 49.20700 20.62500
H  35.37500 47.95300 19.67100
H  35.68800 49.61300 19.25000
H  39.04800 47.34300 20.54700
H  39.06600 46.53500 22.06100
H  39.17900 49.36400 22.82400
H  40.43300 49.10100 21.54200
H  40.25700 48.12600 23.06000
H  38.37700 43.85700 26.43200
H  37.84000 44.22500 24.91800
H  36.64900 43.48500 26.11500
H  36.65800 47.10600 30.53900
H  33.78700 46.58900 33.42800
H  33.92100 44.92200 32.78900
H  32.84800 46.17200 32.11600

