158

Mg 9.12200 4.13900 27.72500
C  10.28800 2.51700 30.56600
C  7.37700 6.31200 29.72200
C  7.70800 5.60100 24.95900
C  10.67500 1.84400 25.69000
N  8.92600 4.38200 29.91200
C  9.47100 3.63000 30.93000
C  9.11900 4.11800 32.32400
C  8.07700 5.23100 31.99800
C  8.09300 5.31100 30.43600
C  6.65100 5.06300 32.41900
C  10.40300 4.63100 33.23000
C  10.38600 4.20200 34.69800
H  10.65700 5.35900 35.71400
N  7.67800 5.78500 27.38000
C  7.17400 6.60200 28.36200
C  6.33100 7.62200 27.77100
C  6.49700 7.43400 26.36300
C  7.26900 6.24300 26.15700
C  5.47700 8.64600 28.50000
C  6.04400 8.30900 25.29600
O  6.19300 8.09100 24.11300
C  5.47400 9.65400 25.57500
N  9.12500 3.66300 25.62000
C  8.56400 4.49500 24.71700
C  8.88000 4.07600 23.31200
C  9.98800 3.02900 23.51800
C  9.87100 2.76300 24.98200
C  7.57500 3.61600 22.50800
C  11.45700 3.38500 23.11200
C  12.24500 2.19500 22.63200
N  10.23500 2.56100 28.04500
C  10.82600 1.62200 27.06100
C  11.57500 0.63600 27.79400
C  11.36400 0.95600 29.12800
C  10.54200 2.08800 29.26100
C  12.45800 -0.40300 27.28400
C  11.79300 0.52700 30.41400
O  12.46200 -0.42700 30.76600
C  11.21400 1.59900 31.42900
C  10.50100 0.79600 32.50400
O  9.57300 0.04900 32.38100
O  10.95500 1.20800 33.74000
C  10.30300 0.52700 34.86800
H  6.77600 6.92400 30.39800
H  7.36400 6.15000 24.08000
H  11.21600 1.11900 25.07900
H  8.59900 3.28300 32.79300
H  8.30100 6.19600 32.45400
H  6.49300 5.93400 33.05400
H  6.55300 4.19100 33.06500
H  5.90400 5.12600 31.62800
H  10.28500 5.70700 33.36000
H  11.39100 4.39900 32.83100
H  11.16000 3.44000 34.79100
H  9.38500 3.88000 34.98600
H  5.69000 8.54500 29.56500
H  4.41600 8.48400 28.31000
H  5.78500 9.65200 28.21500
H  4.49800 9.63400 26.06200
H  5.42800 10.06500 24.56700
H  6.18800 10.19600 26.19500
H  9.16100 4.98600 22.78200
H  9.56900 2.21900 22.92100
H  7.19700 4.46400 21.93700
H  6.86300 3.37400 23.29700
H  7.62900 2.75300 21.84400
H  11.88500 3.93100 23.95300
H  11.41600 4.06100 22.25800
H  12.88000 2.41100 21.77300
H  11.62100 1.33800 22.37700
H  12.91700 1.99500 23.46700
H  13.52900 -0.20400 27.31200
H  12.15800 -0.47700 26.23900
H  12.26400 -1.35500 27.77700
H  12.04800 2.17500 31.83200
H  10.28800 1.15700 35.75700
H  10.80300 -0.41300 35.10200
H  9.25700 0.33000 34.63600
Mg 9.07500 48.16100 25.05000
C  6.75300 49.02300 27.39900
C  11.61600 49.53000 26.87100
C  11.17300 47.45600 22.49000
C  6.37200 47.79400 22.64000
N  9.17700 49.08300 26.95400
C  8.09700 49.21900 27.83900
C  8.62200 49.63300 29.17100
C  10.06200 50.24100 28.81200
C  10.32200 49.61700 27.43600
C  10.10900 51.72200 28.70200
C  8.83300 48.36800 30.19000
C  9.29200 48.65500 31.66900
H  8.77000 47.81000 32.82600
N  11.13800 48.31700 24.80200
C  12.02900 48.82200 25.76100
C  13.35600 48.70700 25.24100
C  13.22000 48.02600 24.01800
C  11.78000 47.89600 23.71900
C  14.54900 49.18100 26.05700
C  14.32600 47.74500 22.98000
O  14.11000 47.23500 21.88200
C  15.69200 48.14100 23.26000
N  8.70800 47.88700 22.86100
C  9.81700 47.48400 22.12900
C  9.41600 47.05000 20.67600
C  7.86000 47.36700 20.69600
C  7.58000 47.58400 22.14200
C  10.09800 47.73900 19.49300
C  7.00900 46.29800 19.91100
C  6.32800 46.80500 18.69000
N  6.98300 48.15800 25.05500
C  6.06400 47.97900 24.04800
C  4.70600 47.99500 24.59900
C  4.90200 48.41800 25.91600
C  6.29400 48.57100 26.14200
C  3.43000 47.85700 23.86300
C  4.29300 48.83100 27.15600
O  3.09000 48.92400 27.41600
C  5.47000 49.34700 28.11900
C  5.29500 48.72100 29.43100
O  4.97500 47.56800 29.63300
O  5.39300 49.66600 30.42200
C  5.12200 49.37700 31.79600
H  12.44900 49.95800 27.43300
H  11.81500 47.13100 21.66800
H  5.47600 47.75700 22.01700
H  7.91200 50.33100 29.61500
H  10.81500 49.96900 29.55200
H  10.67300 52.18400 29.51200
H  9.10200 52.13900 28.66400
H  10.65300 51.86300 27.76800
H  9.56900 47.69200 29.75600
H  7.91500 47.78100 30.18400
H  9.05100 49.69500 31.88500
H  10.37700 48.58400 31.74800
H  14.96400 50.06900 25.58000
H  15.33500 48.42600 26.08800
H  14.28900 49.43000 27.08600
H  15.90900 47.37700 24.00700
H  15.62800 49.15400 23.65700
H  16.33200 48.03200 22.38500
H  9.78800 46.02500 20.66900
H  7.66000 48.37200 20.32300
H  10.23300 48.80400 19.68100
H  9.55800 47.61300 18.55500
H  11.07400 47.35300 19.19700
H  6.26100 46.05500 20.66600
H  7.57800 45.37200 19.83100
H  5.25000 46.70600 18.81300
H  6.70900 46.27400 17.81800
H  6.55400 47.86300 18.56100
H  2.68400 47.38100 24.49900
H  3.44600 47.37500 22.88500
H  3.03600 48.87200 23.81100
H  5.23100 50.40400 28.23600
H  6.03900 49.57500 32.35200
H  4.79900 48.35200 31.97800
H  4.32000 50.06200 32.07000

