158

Mg 24.12000 -4.42400 45.46700
C  26.64700 -2.41900 43.86400
C  21.81000 -3.22300 43.18900
C  21.97800 -7.00800 46.16400
C  26.56200 -5.90400 47.30000
N  24.21600 -2.97900 43.75600
C  25.33600 -2.27500 43.28000
C  24.89900 -1.31000 42.09900
C  23.29200 -1.35800 42.18900
C  23.09600 -2.58200 43.15900
C  22.78900 -0.06200 42.80700
C  25.38500 -1.85700 40.67600
C  25.90100 -0.73000 39.75500
H  25.40600 -0.76200 38.33300
N  22.11200 -4.92300 44.89700
C  21.36200 -4.29400 43.94300
C  20.03700 -4.94400 43.90400
C  20.00400 -6.04600 44.76300
C  21.36300 -6.00000 45.34700
C  18.92600 -4.38300 42.92500
C  18.85600 -7.01200 45.09200
O  17.78700 -6.81500 44.53400
C  18.92300 -8.00500 46.13500
N  24.22100 -6.24400 46.52500
C  23.19000 -7.08500 46.77300
C  23.65800 -8.28300 47.58800
C  25.03000 -7.72500 48.23100
C  25.31300 -6.49700 47.30500
C  22.54700 -8.52400 48.63100
C  26.16600 -8.85900 48.37200
C  26.82200 -9.00500 49.83000
N  26.15100 -4.23700 45.64300
C  27.03000 -4.89000 46.52100
C  28.34800 -4.27000 46.42800
C  28.21600 -3.34100 45.37200
C  26.86800 -3.33300 44.96600
C  29.50700 -4.51200 47.33200
C  28.89700 -2.30700 44.68700
O  30.08300 -2.10500 44.78700
C  27.97400 -1.71400 43.57600
C  27.87300 -0.19100 43.77900
O  27.11800 0.35300 44.64600
O  28.66100 0.48800 42.91500
C  28.90600 1.93200 43.27700
H  21.08600 -2.79100 42.49500
H  21.34600 -7.87400 46.37300
H  27.33400 -6.50500 47.78600
H  25.42600 -0.37900 42.30600
H  22.79200 -1.58200 41.24600
H  21.94900 0.27200 42.19700
H  23.54500 0.71700 42.71100
H  22.43700 -0.16900 43.83300
H  24.54100 -2.29600 40.14300
H  26.18600 -2.58100 40.82200
H  26.93600 -0.98600 39.52700
H  25.79700 0.23000 40.26000
H  19.02200 -5.18800 42.19600
H  19.13600 -3.34000 42.68500
H  17.90200 -4.47600 43.28500
H  19.35500 -7.59800 47.04900
H  19.57700 -8.78200 45.73900
H  17.89800 -8.34800 46.28000
H  23.93200 -9.16000 47.00200
H  24.75700 -7.31100 49.20100
H  22.03400 -9.44600 48.35400
H  21.85300 -7.68800 48.70700
H  22.99000 -8.68500 49.61300
H  26.98900 -8.77600 47.66100
H  25.65900 -9.78300 48.09400
H  27.88400 -9.23600 49.91000
H  26.29100 -9.88400 50.19700
H  26.48500 -8.08200 50.30200
H  29.20000 -5.24700 48.07500
H  29.77500 -3.52700 47.71600
H  30.46200 -4.74300 46.86000
H  28.35800 -1.98100 42.59200
H  28.53500 2.58000 42.48300
H  29.97600 2.14200 43.29600
H  28.49200 2.28600 44.22000
Mg 41.09700 8.94500 29.39800
C  43.32800 10.17200 31.82300
C  38.98400 7.90800 32.08500
C  39.12100 7.51100 27.23900
C  43.64000 9.43800 26.98200
N  41.22900 8.97900 31.69000
C  42.18600 9.57900 32.44800
C  41.77000 9.64300 33.98500
C  40.55500 8.68400 34.02700
C  40.20900 8.51600 32.49900
C  40.79000 7.29500 34.77800
C  41.69200 11.06600 34.60500
C  40.96300 11.10200 35.93600
H  41.56100 11.83600 37.17400
N  39.32000 7.89400 29.60900
C  38.57000 7.61300 30.73200
C  37.35400 6.85500 30.30700
C  37.26200 6.96000 28.89100
C  38.62900 7.49200 28.53300
C  36.33900 6.27100 31.37300
C  36.12300 6.77700 28.00700
O  36.11700 6.78200 26.77500
C  34.69200 6.51500 28.63500
N  41.31700 8.48600 27.42600
C  40.30200 7.96700 26.62000
C  40.64700 7.91000 25.12700
C  41.97700 8.73100 25.15100
C  42.36300 8.85400 26.58500
C  40.76500 6.45300 24.69500
C  41.92400 10.07300 24.56000
C  42.96700 10.63400 23.73400
N  43.10000 9.72300 29.33700
C  44.02700 9.84600 28.31400
C  45.19900 10.46400 28.80000
C  44.99800 10.67200 30.15600
C  43.69400 10.10400 30.45300
C  46.48500 10.97100 28.06200
C  45.44800 11.24700 31.32700
O  46.45200 11.96300 31.51600
C  44.43100 10.90300 32.51900
C  45.10200 10.17100 33.52800
O  45.24900 8.97100 33.52500
O  45.36500 10.96600 34.58300
C  45.84000 10.30800 35.74600
H  38.25000 7.65400 32.85200
H  38.48300 7.18000 26.41700
H  44.20400 9.49100 26.04900
H  42.62400 9.08300 34.36600
H  39.72100 9.16100 34.54100
H  41.75600 7.23400 35.28000
H  40.77400 6.45200 34.08700
H  39.96500 7.07300 35.45400
H  40.97500 11.63600 34.01600
H  42.67100 11.54500 34.62400
H  40.75000 10.08900 36.27600
H  39.98900 11.58700 35.86800
H  36.64200 6.26100 32.42000
H  36.11600 5.23200 31.13000
H  35.33800 6.66700 31.20200
H  34.32200 7.45800 29.03700
H  34.57400 5.75300 29.40500
H  34.02900 6.20000 27.82800
H  39.94200 8.53000 24.57300
H  42.62400 8.08400 24.55700
H  39.75100 6.14500 24.43800
H  41.15300 5.89800 25.55000
H  41.34000 6.22700 23.79800
H  41.52100 10.79800 25.26800
H  41.10200 9.91300 23.86300
H  42.61600 10.70300 22.70400
H  43.90000 10.07100 23.77400
H  43.03400 11.67600 24.04400
H  46.72300 12.01000 28.28800
H  46.40300 10.95500 26.97600
H  47.27300 10.29600 28.39700
H  44.20900 11.90300 32.89100
H  45.01800 9.76100 36.20900
H  46.14100 10.92300 36.59400
H  46.67700 9.64400 35.53000

