158

Mg 10.01200 48.65000 26.26200
C  7.95000 48.69100 29.10100
C  12.56700 49.63000 28.23000
C  11.95000 48.82300 23.45300
C  7.13700 48.30200 24.23100
N  10.20700 49.19300 28.37600
C  9.26300 49.11200 29.35100
C  9.84800 49.67600 30.66400
C  11.20100 50.27000 30.22200
C  11.36600 49.58600 28.89200
C  11.27200 51.82100 30.15300
C  9.97000 48.70300 31.88500
C  9.01000 49.01700 33.06800
H  9.63200 49.57900 34.29600
N  12.06400 49.08300 25.85900
C  12.95700 49.31400 26.82500
C  14.28800 49.46900 26.23200
C  14.10400 49.21400 24.83500
C  12.62900 49.09200 24.63300
C  15.52400 49.92400 27.02800
C  15.15800 49.10700 23.73600
O  14.88300 49.05600 22.57800
C  16.60800 49.23800 24.05600
N  9.56400 48.69700 24.09800
C  10.63300 48.61900 23.18300
C  10.03400 48.56900 21.73700
C  8.47000 48.17900 22.02800
C  8.34900 48.46800 23.51900
C  10.25900 49.81500 20.89100
C  8.10200 46.73500 21.67900
C  8.66300 45.61000 22.56300
N  7.94300 48.48200 26.56200
C  6.92500 48.31900 25.65400
C  5.65000 48.28100 26.37100
C  6.00500 48.32900 27.73600
C  7.41600 48.54000 27.75000
C  4.31000 48.01500 25.78700
C  5.52400 48.36900 29.12800
O  4.43800 48.29500 29.62100
C  6.76300 48.60900 30.06900
C  6.87000 47.32100 30.77700
O  7.60900 46.39400 30.45000
O  6.00600 47.26500 31.86100
C  6.28100 46.11500 32.78400
H  13.42800 50.00100 28.79000
H  12.66300 48.70000 22.63500
H  6.23900 48.34700 23.61200
H  9.21400 50.49200 31.01000
H  12.11400 49.93700 30.71400
H  10.28800 52.27400 30.03200
H  11.97900 52.11500 29.37700
H  11.67000 52.19700 31.09500
H  10.99100 48.79900 32.25400
H  9.82700 47.65300 31.62900
H  8.48100 48.09700 33.31700
H  8.18100 49.70900 32.92300
H  15.25400 50.10100 28.06900
H  15.93300 50.86800 26.66700
H  16.29500 49.16500 26.90100
H  16.91700 48.61200 24.89400
H  16.88000 50.25000 24.35400
H  17.16500 48.93500 23.16900
H  10.60000 47.73400 21.32600
H  7.84000 48.88600 21.49000
H  10.62200 50.52500 21.63400
H  9.35400 50.17000 20.39700
H  10.95400 49.63900 20.07000
H  8.46100 46.61800 20.65600
H  7.02100 46.60100 21.71100
H  7.95800 44.79000 22.69800
H  8.90100 46.00900 23.54900
H  9.51100 45.12700 22.07900
H  3.48600 47.80700 26.47000
H  4.51200 47.11400 25.20800
H  4.14200 48.77400 25.02300
H  6.69700 49.42700 30.78700
H  5.32900 45.58900 32.85600
H  6.56200 46.53500 33.75000
H  7.09400 45.45200 32.49100
Mg -11.81100 38.57900 40.76900
C  -9.55500 35.91200 40.27100
C  -9.37100 40.66900 39.18100
C  -13.99300 41.03900 40.43900
C  -14.15800 36.26200 41.85700
N  -9.63400 38.32400 39.87200
C  -8.97200 37.14100 39.75800
C  -7.73300 37.28100 38.88000
C  -7.46000 38.83000 39.03800
C  -8.91500 39.32800 39.37300
C  -6.28700 39.07100 39.99400
C  -7.96800 36.81000 37.45200
C  -6.95100 35.81600 36.90000
H  -6.02900 36.31200 35.74000
N  -11.68700 40.64500 39.95400
C  -10.65100 41.25000 39.38200
C  -10.98000 42.68600 39.19300
C  -12.29400 42.84400 39.56500
C  -12.74600 41.48700 40.02400
C  -10.15600 43.71200 38.49900
C  -13.19800 44.11200 39.40200
O  -12.76500 45.15200 38.87200
C  -14.60900 44.20700 39.86900
N  -13.78400 38.59800 40.88800
C  -14.49800 39.76700 40.83900
C  -15.89400 39.67500 41.50200
C  -15.90400 38.14000 41.93300
C  -14.54700 37.58900 41.57300
C  -15.99700 40.58700 42.65600
C  -17.06800 37.26800 41.29700
C  -18.21600 37.02200 42.24900
N  -11.87700 36.53400 41.15800
C  -12.90200 35.74500 41.61600
C  -12.35300 34.36700 41.89000
C  -11.07600 34.39000 41.29100
C  -10.81600 35.74100 40.90800
C  -12.97800 33.11000 42.62100
C  -9.84200 33.59200 40.91500
O  -9.61300 32.41200 41.11100
C  -8.88000 34.52900 40.18900
C  -7.62500 34.47100 40.85700
O  -6.63600 33.92800 40.34700
O  -7.70600 35.19100 42.02400
C  -6.64500 35.19800 43.03800
H  -8.58700 41.37700 38.90200
H  -14.83800 41.73100 40.41800
H  -14.96900 35.64400 42.24900
H  -6.93800 36.68000 39.32400
H  -7.23500 39.30300 38.08200
H  -5.52300 38.29700 39.92600
H  -6.71500 38.90400 40.98300
H  -5.84500 40.06700 39.99200
H  -8.04300 37.69800 36.82400
H  -8.97500 36.39300 37.42000
H  -7.36900 34.83000 36.69700
H  -6.24200 35.58900 37.69700
H  -10.43100 43.98700 37.48000
H  -9.12400 43.36200 38.52900
H  -10.07100 44.58200 39.15000
H  -14.64600 43.88500 40.91000
H  -15.24700 43.58300 39.24300
H  -15.08500 45.17800 39.72900
H  -16.60600 39.88300 40.70300
H  -15.93100 38.05400 43.02000
H  -16.53100 41.53100 42.55200
H  -14.99800 40.93600 42.91700
H  -16.45600 40.16400 43.54900
H  -16.69800 36.33500 40.87300
H  -17.52100 37.73700 40.42300
H  -18.19900 37.48800 43.23400
H  -18.26800 35.94500 42.40900
H  -19.14900 37.25400 41.73600
H  -12.58400 32.14100 42.31500
H  -14.06500 33.14100 42.55900
H  -12.74000 33.46100 43.62600
H  -8.84500 34.22600 39.14200
H  -5.93900 34.39800 42.81100
H  -7.17500 35.04000 43.97700
H  -6.11300 36.14600 43.10400

