158

Mg 43.11000 41.95900 25.74100
C  41.98200 44.17200 27.96400
C  44.03600 39.71400 28.27900
C  43.83600 39.44600 23.44800
C  42.16500 44.07700 23.16300
N  43.04700 41.98500 27.84300
C  42.45800 42.99800 28.57400
C  42.46500 42.64000 30.03000
C  43.40800 41.32600 30.09300
C  43.60500 40.97900 28.62300
C  44.77900 41.40400 30.74900
C  40.96800 42.49400 30.53400
C  40.56000 43.02600 31.97300
H  41.53300 42.80500 33.22700
N  43.95700 39.88400 25.85100
C  44.14400 39.18800 26.94100
C  44.61300 37.86800 26.60300
C  44.60600 37.78700 25.20300
C  44.17400 39.08100 24.74300
C  44.95500 36.90000 27.67300
C  44.88900 36.59900 24.32500
O  44.86300 36.66400 23.12100
C  45.44000 35.27700 24.83900
N  42.96400 41.78800 23.58300
C  43.39600 40.68300 22.86200
C  43.32600 40.94100 21.36900
C  42.64900 42.42300 21.28600
C  42.60200 42.79000 22.77400
C  44.73000 40.75400 20.72100
C  41.21300 42.45000 20.62600
C  40.04000 41.78000 21.42500
N  42.38500 43.86300 25.48900
C  41.99200 44.62900 24.43000
C  41.55200 45.91800 24.85400
C  41.42000 45.82400 26.31200
C  41.96900 44.53100 26.59200
C  41.19000 47.05500 23.95700
C  40.93400 46.32700 27.51900
O  40.32300 47.41200 27.63400
C  41.31000 45.35300 28.60900
C  42.09700 46.10300 29.66800
O  43.30600 46.02800 29.75900
O  41.25500 46.65400 30.62400
C  41.89800 47.07300 31.88700
H  44.08400 39.04900 29.14400
H  44.02300 38.71400 22.66000
H  41.74600 44.78100 22.44100
H  42.93200 43.35600 30.70700
H  42.75700 40.55500 30.50400
H  44.72400 40.70700 31.58600
H  44.97300 42.40200 31.14100
H  45.57300 41.26600 30.01500
H  40.81900 41.42100 30.65800
H  40.26300 42.87800 29.79600
H  39.56900 42.65100 32.23100
H  40.42800 44.10200 31.86000
H  45.45700 37.49200 28.43900
H  45.54400 35.99700 27.51500
H  43.92500 36.69200 27.96100
H  45.10100 34.93000 25.81500
H  46.49900 35.53700 24.84100
H  45.23700 34.44300 24.16700
H  42.67100 40.30700 20.77200
H  43.28100 43.14600 20.77100
H  45.45800 40.37500 21.43800
H  45.07700 41.72400 20.36500
H  44.59800 40.05900 19.89200
H  41.09200 41.88400 19.70200
H  40.95400 43.46200 20.31700
H  39.38300 41.16700 20.80800
H  39.51100 42.59400 21.92200
H  40.49900 41.06000 22.10200
H  40.23900 46.96900 23.43100
H  41.94800 47.14800 23.17900
H  41.27100 48.03200 24.43400
H  40.33600 45.08400 29.01900
H  42.07800 46.24000 32.56600
H  41.43200 47.90100 32.42100
H  42.84800 47.51500 31.58800
Mg -12.38800 39.29800 42.83300
C  -10.90900 36.36600 41.62000
C  -10.12700 41.13500 41.04400
C  -14.08400 41.98900 43.71500
C  -15.19300 37.32200 43.66500
N  -10.69600 38.82100 41.57800
C  -10.29400 37.54900 41.24900
C  -9.04900 37.57700 40.44300
C  -8.78500 39.12300 40.28300
C  -9.95400 39.71800 40.94700
C  -7.39000 39.50000 40.67600
C  -9.21600 36.86400 39.05400
C  -8.14600 35.75000 38.83800
H  -7.02800 36.12500 37.93100
N  -12.11600 41.28600 42.49600
C  -11.15900 41.86700 41.68800
C  -11.26900 43.28200 41.75100
C  -12.43600 43.58900 42.43800
C  -12.94800 42.29100 42.99500
C  -10.24300 44.21500 41.06700
C  -12.95500 44.96400 42.64100
O  -12.38900 45.94700 42.06600
C  -14.13800 45.27000 43.59600
N  -14.37300 39.53400 43.54800
C  -14.72600 40.80400 44.07000
C  -16.10600 40.82200 44.67800
C  -16.51500 39.31500 44.68300
C  -15.36100 38.69100 43.87500
C  -16.23900 41.58900 46.01100
C  -17.91500 39.00700 44.11600
C  -18.79200 38.02900 44.90400
N  -12.94900 37.27200 42.71700
C  -14.14300 36.65600 43.14700
C  -14.04600 35.26000 42.85300
C  -12.72400 35.03700 42.31400
C  -12.14400 36.34100 42.27400
C  -15.09600 34.23600 43.17300
C  -11.78100 34.06100 41.78800
O  -11.95600 32.85600 41.84400
C  -10.52900 34.88300 41.34600
C  -9.30100 34.35500 42.01200
O  -8.89500 34.66400 43.11900
O  -8.71700 33.44800 41.15500
C  -7.64100 32.66400 41.65600
H  -9.42000 41.74000 40.47300
H  -14.59900 42.89900 44.02800
H  -16.11000 36.83600 44.00600
H  -8.24000 37.11000 41.00500
H  -8.86100 39.37400 39.22500
H  -7.46300 40.52600 41.03900
H  -6.67000 39.57200 39.86100
H  -6.92600 38.84200 41.41100
H  -9.01100 37.56500 38.24500
H  -10.16900 36.37500 38.85100
H  -8.60600 34.79700 38.57500
H  -7.66700 35.49700 39.78400
H  -10.78200 44.64600 40.22200
H  -9.29300 43.82000 40.70800
H  -10.17500 45.12400 41.66400
H  -15.12300 44.94200 43.26200
H  -14.17300 46.35900 43.56300
H  -13.83900 45.02100 44.61400
H  -16.78300 41.34000 43.99900
H  -16.43400 38.89900 45.68700
H  -15.28100 42.01700 46.30500
H  -16.61900 40.96900 46.82300
H  -17.09000 42.26400 46.10200
H  -17.90900 38.46000 43.17300
H  -18.45900 39.94900 44.05700
H  -19.35100 37.20300 44.46700
H  -19.52600 38.67900 45.38000
H  -18.18900 37.62400 45.71700
H  -15.66000 34.08400 42.25300
H  -15.70300 34.62400 43.99000
H  -14.58300 33.32700 43.48900
H  -10.40500 34.81500 40.26500
H  -7.89900 32.14500 42.57900
H  -6.77700 33.31000 41.81100
H  -7.46500 31.91600 40.88300

