158

Mg 25.32700 0.14700 30.24700
C  27.64600 0.39400 32.86300
C  22.86000 0.58600 32.65400
C  23.20300 -0.05400 27.91400
C  27.94600 -0.54500 28.07600
N  25.34100 0.51500 32.48300
C  26.37800 0.61700 33.27300
C  25.99500 0.95300 34.75100
C  24.41400 0.88400 34.67000
C  24.13300 0.61700 33.17200
C  23.76700 -0.06900 35.66000
C  26.46400 2.35400 35.26900
C  27.43500 2.43300 36.42400
H  27.36600 3.51500 37.47000
N  23.29400 0.24800 30.26700
C  22.47300 0.46000 31.29700
C  21.06700 0.64000 30.80800
C  21.12000 0.31600 29.45200
C  22.54200 0.08300 29.17100
C  19.80300 1.09400 31.57000
C  20.01200 0.11700 28.42900
O  20.21300 -0.35000 27.34700
C  18.57500 0.46200 28.72800
N  25.49200 -0.38900 28.23400
C  24.48500 -0.09800 27.44600
C  24.94400 0.10100 25.97500
C  26.49700 -0.24200 26.01700
C  26.68000 -0.41900 27.54400
C  24.12100 -0.65800 24.85600
C  27.48400 0.77100 25.32500
C  26.96000 1.56000 24.14700
N  27.36900 -0.27300 30.40100
C  28.27900 -0.55600 29.43400
C  29.57200 -0.68400 30.04100
C  29.38800 -0.24400 31.35600
C  28.07100 -0.03300 31.57400
C  30.86700 -1.06100 29.41300
C  30.08200 0.06000 32.64100
O  31.32300 0.06300 32.75900
C  28.98600 0.49600 33.60300
C  29.02100 -0.30500 34.86900
O  28.58000 -1.45300 34.93400
O  29.92400 0.31700 35.76500
C  30.47100 -0.51100 36.78500
H  22.13700 0.65500 33.46900
H  22.44600 0.01200 27.13000
H  28.87900 -0.71400 27.53500
H  26.52000 0.18200 35.31400
H  23.91100 1.83200 34.85700
H  22.69200 0.00400 35.81900
H  24.44600 0.01400 36.50800
H  23.79500 -1.05500 35.19600
H  25.59900 3.01000 35.36300
H  26.93100 2.76700 34.37500
H  28.38200 2.53800 35.89500
H  27.63500 1.51800 36.98000
H  20.11700 1.53900 32.51400
H  19.18800 0.19700 31.64100
H  19.28100 1.82600 30.95400
H  18.19900 -0.13200 29.56000
H  17.93100 0.16900 27.89900
H  18.43700 1.51000 28.99300
H  24.74400 1.11700 25.63600
H  26.59500 -1.20800 25.52100
H  23.47200 -1.37300 25.36200
H  24.85900 -1.02700 24.14300
H  23.53700 0.10500 24.34200
H  28.27600 0.10600 24.98000
H  27.74100 1.39800 26.17900
H  26.10800 1.00700 23.75100
H  27.71700 1.67900 23.37200
H  26.70800 2.58800 24.40700
H  31.73500 -0.40300 29.38400
H  30.70200 -1.54200 28.44800
H  31.23000 -1.92600 29.96700
H  29.23200 1.50600 33.93100
H  29.74100 -0.66700 37.57900
H  31.32600 0.01200 37.21200
H  30.87500 -1.46700 36.45100
Mg 53.16700 23.98800 44.67100
C  50.52400 26.25600 43.89200
C  51.34000 21.56400 43.30400
C  56.05200 22.31000 44.45000
C  55.02200 26.95900 45.37700
N  51.16100 23.93000 43.81000
C  50.28200 24.96000 43.53900
C  48.99500 24.37100 42.90100
C  49.08000 22.85900 43.33000
C  50.62200 22.73300 43.45200
C  48.41800 22.59600 44.78400
C  48.83100 24.73100 41.38000
C  50.16200 24.70700 40.52300
H  50.92200 23.39700 40.26100
N  53.56700 22.09700 44.08000
C  52.66800 21.22800 43.61300
C  53.33300 19.99000 43.45800
C  54.72300 20.11400 43.71700
C  54.85400 21.55000 44.16000
C  52.61400 18.74000 42.88100
C  55.86600 19.04300 43.64900
O  55.62600 18.00000 43.13000
C  57.18200 19.18300 44.24100
N  55.25600 24.52100 44.88200
C  56.25600 23.64800 44.75000
C  57.65300 24.38700 44.74500
C  57.29200 25.86300 45.06400
C  55.75200 25.82100 45.13600
C  58.65900 23.75700 45.83600
C  57.80000 26.92300 44.09500
C  57.20800 27.11700 42.63800
N  52.85500 26.23300 44.83000
C  53.63600 27.20300 45.30800
C  52.81700 28.46900 45.47500
C  51.57900 28.14000 44.86200
C  51.65800 26.77000 44.48500
C  53.28900 29.71800 46.16400
C  50.23400 28.56000 44.49500
O  49.77800 29.70100 44.53000
C  49.59300 27.43700 43.75100
C  49.40900 27.91900 42.36800
O  50.22000 27.80800 41.44800
O  48.11900 28.39000 42.20400
C  47.79800 28.85900 40.82000
H  50.69100 20.74400 42.99100
H  57.03000 21.83100 44.54000
H  55.53200 27.91700 45.26000
H  48.11900 24.83200 43.35900
H  48.70900 22.15800 42.58300
H  48.96800 23.25200 45.45900
H  48.65000 21.57100 45.07400
H  47.33700 22.70100 44.70000
H  48.17400 25.56900 41.14500
H  48.33500 23.90900 40.86600
H  50.77500 25.37100 41.13200
H  49.91600 25.11800 39.54400
H  51.52900 18.76300 42.98200
H  52.83200 17.82700 43.43600
H  52.66500 18.58700 41.80300
H  57.77000 19.78800 43.55000
H  57.64500 18.19700 44.23700
H  57.08000 19.58200 45.25000
H  58.10700 24.35800 43.75400
H  57.58400 26.06200 46.09500
H  58.14400 22.87000 46.20400
H  58.84200 24.41100 46.68800
H  59.60200 23.45400 45.38100
H  58.85000 26.78200 43.84000
H  57.88100 27.86800 44.63100
H  56.88500 28.14900 42.50800
H  56.43500 26.37000 42.45300
H  57.94800 27.05700 41.84000
H  53.64100 30.34600 45.34600
H  54.07800 29.51400 46.88700
H  52.39600 30.23600 46.51500
H  48.59900 27.20900 44.13400
H  46.84400 29.37300 40.69600
H  47.87500 28.03600 40.11000
H  48.58400 29.55900 40.53700

