158

Mg 39.89600 10.51700 30.00000
C  41.72300 11.53100 32.64400
C  37.70700 8.86300 32.21400
C  38.30400 9.09400 27.31200
C  42.56700 11.31700 27.83600
N  39.90100 10.01200 32.29000
C  40.60700 10.81900 33.08600
C  40.11300 10.73200 34.53800
C  38.81000 9.82800 34.39700
C  38.79700 9.43600 32.88400
C  38.63800 8.65000 35.37500
C  39.81100 12.17600 35.24400
C  40.57200 12.36900 36.58100
H  39.66300 13.06400 37.58400
N  38.10800 9.38400 29.82800
C  37.39800 8.75100 30.83900
C  36.24500 8.10700 30.26600
C  36.38400 8.24700 28.83900
C  37.67300 8.94800 28.56100
C  35.20000 7.42300 31.11300
C  35.53500 7.59100 27.75600
O  35.88500 7.56700 26.59200
C  34.29600 6.79000 28.10100
N  40.45200 10.13200 27.88300
C  39.59300 9.61300 27.01000
C  39.90800 9.98600 25.49600
C  41.31400 10.75900 25.62800
C  41.51300 10.73800 27.15500
C  39.85000 8.85000 24.51000
C  41.35400 12.19400 24.95300
C  40.68500 13.40400 25.60800
N  41.74100 11.41000 30.12600
C  42.72400 11.67000 29.19300
C  43.84300 12.25000 29.83300
C  43.45600 12.31000 31.21600
C  42.20400 11.69000 31.32900
C  45.05400 12.75300 29.14600
C  43.94400 12.57900 32.54700
O  44.97100 13.16000 32.92800
C  42.82200 12.06000 33.55900
C  43.37200 11.07800 34.54100
O  43.74000 9.95500 34.31800
O  43.40900 11.68100 35.78800
C  43.71600 10.84600 36.95000
H  37.05300 8.35500 32.92400
H  37.65000 8.98800 26.44400
H  43.37700 11.63000 27.17400
H  40.86400 10.16900 35.09300
H  37.86900 10.36200 34.53200
H  38.63500 7.68200 34.87300
H  37.73300 8.80700 35.96200
H  39.49500 8.62300 36.04900
H  38.74700 12.12100 35.47600
H  40.06800 12.91900 34.48900
H  41.28600 13.15700 36.34100
H  40.92700 11.41200 36.96300
H  35.62500 7.14600 32.07800
H  34.92700 6.47600 30.64700
H  34.23100 7.91900 31.17900
H  33.59000 7.39500 28.66900
H  34.52500 5.95400 28.76300
H  33.87800 6.45700 27.15100
H  39.05400 10.63600 25.30800
H  42.08000 10.07400 25.26200
H  39.52600 7.89900 24.93200
H  40.81300 8.57200 24.08100
H  39.16700 9.16100 23.71900
H  40.88600 12.07600 23.97500
H  42.39400 12.50500 24.85400
H  40.07300 14.02600 24.95400
H  41.48300 14.06200 25.95000
H  40.12100 13.13100 26.50000
H  45.31400 13.68500 29.64800
H  45.02000 13.06900 28.10300
H  45.86500 12.09700 29.46100
H  42.37900 12.94200 34.02200
H  44.29100 11.43000 37.66900
H  44.24200 9.91400 36.74200
H  42.83000 10.59900 37.53600
Mg -6.77000 24.91900 25.47800
C  -5.06100 26.26200 28.16900
C  -8.45300 22.71000 27.66100
C  -7.95400 23.23500 22.82100
C  -4.73000 26.76300 23.32100
N  -6.82100 24.58300 27.70500
C  -6.09800 25.37500 28.52000
C  -6.47600 24.93400 30.04700
C  -7.36000 23.60600 29.82700
C  -7.61100 23.66500 28.36100
C  -6.70500 22.20000 30.15800
C  -7.23100 26.01400 30.84700
C  -7.00300 25.99200 32.29900
H  -6.27400 24.79500 32.97300
N  -8.20700 23.37300 25.22500
C  -8.75200 22.60400 26.24800
C  -9.72100 21.68400 25.65800
C  -9.54500 21.79300 24.22500
C  -8.50700 22.79800 24.05100
C  -10.64100 20.78000 26.51700
C  -10.16800 20.96100 23.13400
O  -9.92400 20.99100 21.92100
C  -11.04900 19.79900 23.60400
N  -6.42000 25.03700 23.40800
C  -7.04000 24.27000 22.51900
C  -6.38700 24.32300 21.11800
C  -5.52400 25.59100 21.25700
C  -5.61700 25.87700 22.75100
C  -5.62000 23.03200 20.64600
C  -5.93600 26.82600 20.35700
C  -4.97200 27.26600 19.26100
N  -5.12400 26.16400 25.66800
C  -4.50500 26.98000 24.74000
C  -3.46300 27.74600 25.37200
C  -3.63300 27.50000 26.73000
C  -4.64800 26.51600 26.80600
C  -2.45700 28.73000 24.75000
C  -3.11700 27.73900 28.03900
O  -2.20900 28.47400 28.39100
C  -4.04000 26.98200 29.01000
C  -3.24200 26.03700 29.81100
O  -2.81700 24.96800 29.39600
O  -2.97300 26.47100 31.07600
C  -2.11200 25.80600 32.00700
H  -9.01300 22.03300 28.30900
H  -8.34700 22.74900 21.92600
H  -4.23500 27.43000 22.61200
H  -5.51400 24.64300 30.46900
H  -8.31300 23.72400 30.34100
H  -5.69000 22.48700 30.43500
H  -6.55000 21.62000 29.24800
H  -7.13000 21.65800 31.00300
H  -8.30300 26.03900 30.65500
H  -6.84600 26.98900 30.54800
H  -7.99100 26.14600 32.73100
H  -6.41400 26.84300 32.64000
H  -11.03000 21.52800 27.20800
H  -10.10700 20.01200 27.07700
H  -11.49600 20.34400 26.00100
H  -11.22400 19.03000 22.85100
H  -12.01900 20.19700 23.90100
H  -10.58500 19.19600 24.38500
H  -7.11200 24.67200 20.38400
H  -4.49900 25.25400 21.10400
H  -5.92200 22.80800 19.62200
H  -6.06800 22.23200 21.23400
H  -4.55100 23.17700 20.80300
H  -6.08400 27.62300 21.08600
H  -6.81100 26.61600 19.74100
H  -3.95400 27.09900 19.61000
H  -4.93700 28.32700 19.01100
H  -5.03400 26.71500 18.32300
H  -2.16000 28.24700 23.81900
H  -1.51400 28.79300 25.29300
H  -2.96400 29.67500 24.55700
H  -4.59600 27.68000 29.63600
H  -2.48900 26.11500 32.98200
H  -1.03300 25.94700 31.94600
H  -2.39800 24.75800 31.91100

