158

Mg 36.01100 50.06700 25.40300
C  36.36400 48.32600 28.40100
C  34.70400 52.75300 27.10900
C  35.72500 51.65700 22.50200
C  37.46000 47.36900 23.75400
N  35.58500 50.50300 27.50900
C  35.81700 49.63700 28.56100
C  35.41900 50.24700 29.93600
C  34.70500 51.58900 29.51300
C  35.00100 51.62700 27.93100
C  33.19200 51.57500 29.82000
C  36.66500 50.46600 30.92100
C  36.39700 50.25000 32.38700
H  34.96600 50.09100 32.96600
N  35.18600 51.85400 24.83200
C  34.83300 52.84700 25.72600
C  34.55900 54.08400 24.98400
C  34.81800 53.78500 23.57400
C  35.26200 52.39600 23.56900
C  34.07700 55.33800 25.63800
C  34.80200 54.69000 22.30100
O  35.04700 54.17200 21.19800
C  34.48800 56.18300 22.41000
N  36.57400 49.56400 23.36200
C  36.34000 50.41300 22.33800
C  36.78900 49.79700 20.98300
C  37.66400 48.61100 21.55900
C  37.17300 48.43900 22.98000
C  35.59800 49.30600 20.16500
C  39.24500 48.98100 21.60700
C  40.18300 48.16100 20.62300
N  36.66800 48.21600 25.97200
C  37.26200 47.25400 25.18300
C  37.71900 46.12900 25.99900
C  37.31900 46.44600 27.31400
C  36.66700 47.73600 27.19500
C  38.50000 44.87700 25.58600
C  37.40500 46.02900 28.70800
O  37.88800 45.03100 29.21600
C  36.81700 47.33900 29.49000
C  35.75500 46.64700 30.37800
O  34.82300 46.01300 29.95800
O  36.15000 46.61200 31.74000
C  35.34100 45.63400 32.51000
H  34.27700 53.62500 27.60900
H  35.52600 52.11700 21.53100
H  38.23800 46.72200 23.34300
H  34.76200 49.53300 30.43300
H  35.18300 52.45600 29.96800
H  32.97300 50.69600 30.42700
H  32.54600 51.52200 28.94400
H  32.95700 52.49900 30.34800
H  37.14500 51.42100 30.70900
H  37.33900 49.66900 30.60500
H  36.82100 51.12500 32.87900
H  37.05300 49.42400 32.65900
H  34.10600 56.22300 25.00200
H  34.76000 55.52900 26.46600
H  33.11100 55.28000 26.13900
H  35.20300 56.71300 23.03900
H  33.45800 56.33200 22.73700
H  34.63300 56.54000 21.39100
H  37.42500 50.50400 20.45000
H  37.47500 47.65500 21.07100
H  35.79400 49.73700 19.18300
H  34.66100 49.65700 20.59700
H  35.61400 48.23100 19.98100
H  39.70000 48.72800 22.56500
H  39.40700 50.03400 21.38100
H  39.53000 47.95500 19.77500
H  40.59200 47.25400 21.06800
H  40.94700 48.88300 20.33500
H  39.26300 44.59500 26.31200
H  38.94400 45.12300 24.62200
H  37.86400 44.02200 25.36200
H  37.60000 47.70900 30.15300
H  35.34200 44.68900 31.96600
H  34.34400 45.97300 32.79000
H  35.75700 45.47900 33.50600
Mg -11.23100 37.91900 41.88800
C  -9.67400 35.03800 40.85100
C  -8.64700 39.88600 40.63500
C  -13.08600 40.86900 42.36500
C  -14.02800 36.07300 43.02300
N  -9.35800 37.47400 40.91300
C  -8.93900 36.26400 40.48700
C  -7.53600 36.39100 39.80300
C  -7.10900 37.82400 40.20200
C  -8.44600 38.44900 40.61900
C  -5.96700 37.90500 41.35700
C  -7.53600 35.94400 38.26900
C  -6.45100 34.89100 37.91500
H  -5.47500 35.29400 36.80100
N  -10.90500 40.07000 41.53400
C  -9.79300 40.66200 41.03500
C  -9.95300 42.09200 40.87600
C  -11.19300 42.41800 41.48300
C  -11.80300 41.09700 41.84800
C  -8.83900 42.98300 40.35900
C  -11.67600 43.83300 41.76400
O  -11.06500 44.83600 41.39400
C  -12.95000 44.20400 42.40600
N  -13.36400 38.35700 42.46600
C  -13.75700 39.66500 42.65600
C  -15.00600 39.74200 43.45300
C  -15.42600 38.19900 43.71600
C  -14.29100 37.47500 42.97500
C  -14.91400 40.56000 44.81700
C  -16.83600 37.83900 43.17000
C  -17.62400 37.06200 44.21500
N  -11.78700 35.94700 42.06100
C  -12.95000 35.31000 42.45500
C  -12.65700 33.87600 42.34700
C  -11.40500 33.70600 41.77800
C  -10.95900 35.04000 41.61000
C  -13.64100 32.81200 42.70300
C  -10.46900 32.76600 41.26900
O  -10.45500 31.56800 41.36300
C  -9.36700 33.56900 40.58300
C  -8.04000 33.11100 41.08000
O  -7.12500 32.82500 40.32600
O  -7.98100 33.09800 42.45800
C  -6.67100 32.83200 43.02500
H  -7.73800 40.36300 40.26300
H  -13.73400 41.74400 42.45300
H  -14.71700 35.52200 43.66600
H  -6.91800 35.64600 40.30500
H  -6.73600 38.25000 39.27100
H  -6.38500 38.50400 42.16500
H  -5.05400 38.43600 41.08900
H  -5.76700 36.86900 41.63300
H  -7.46400 36.77400 37.56600
H  -8.53700 35.54000 38.11800
H  -6.97800 33.95800 37.71600
H  -5.84700 34.73600 38.80900
H  -8.67200 43.85600 40.99100
H  -8.95000 43.26000 39.31100
H  -7.86300 42.50400 40.44300
H  -12.97500 45.26800 42.64600
H  -13.06100 43.86700 43.43700
H  -13.81600 43.95700 41.79200
H  -15.67800 40.25700 42.76700
H  -15.37900 37.87800 44.75700
H  -15.38400 41.53300 44.67600
H  -13.88500 40.88000 44.97500
H  -15.41600 40.01700 45.61900
H  -16.62200 37.32200 42.23400
H  -17.36500 38.70600 42.77600
H  -17.30000 37.23500 45.24100
H  -17.27500 36.04400 44.04500
H  -18.69400 37.16900 44.03200
H  -13.25200 31.82000 42.47200
H  -14.58100 32.98800 42.17900
H  -13.72900 32.89300 43.78600
H  -9.44200 33.31800 39.52500
H  -5.99500 33.68700 42.99600
H  -6.24100 32.05200 42.39600
H  -6.77100 32.53600 44.06900

