158

Mg 17.97000 -1.85900 27.60300
C  17.18900 0.23000 30.32000
C  19.88600 -3.77300 29.70500
C  18.94000 -3.54100 24.92500
C  16.08300 0.45800 25.54800
N  18.42700 -1.76500 29.80700
C  17.98100 -0.83100 30.67100
C  18.41400 -1.17400 32.06200
C  19.49100 -2.30500 31.95800
C  19.33100 -2.61000 30.40000
C  20.93100 -2.08100 32.30100
C  17.20100 -1.70300 32.95400
C  17.08000 -1.10800 34.38600
H  18.31400 -0.43300 35.04300
N  19.22400 -3.49700 27.37100
C  19.79700 -4.19400 28.34600
C  20.40200 -5.41700 27.75700
C  20.30200 -5.25400 26.38700
C  19.49300 -4.06700 26.14800
C  21.00700 -6.36800 28.68200
C  20.79900 -6.23800 25.23600
O  20.66200 -5.98100 24.04600
C  21.45500 -7.55300 25.46600
N  17.55400 -1.59100 25.57200
C  18.12300 -2.36900 24.63700
C  17.67900 -1.97200 23.23100
C  16.57500 -0.85900 23.50800
C  16.75400 -0.62800 25.01600
C  18.80200 -1.56100 22.31400
C  15.13800 -1.14400 23.03000
C  14.55600 -0.10700 22.03500
N  16.89500 -0.05600 27.83300
C  16.12700 0.71900 26.93300
C  15.45500 1.85100 27.56700
C  15.91700 1.71100 28.90800
C  16.74100 0.55100 29.03300
C  14.61400 3.01100 27.01800
C  15.78900 2.16500 30.22600
O  15.23800 3.17000 30.58200
C  16.48700 1.25800 31.21100
C  17.45500 1.99700 32.06200
O  18.46100 2.57300 31.61900
O  16.82900 2.26200 33.26000
C  17.52500 3.28500 34.05600
H  20.60100 -4.33200 30.31300
H  19.32000 -4.04000 24.03100
H  15.42700 1.02700 24.88400
H  18.82500 -0.30100 32.56900
H  19.09600 -3.20100 32.43600
H  21.56000 -2.07400 31.41100
H  21.20300 -2.94300 32.91100
H  20.92200 -1.20900 32.95400
H  17.29500 -2.78000 33.09700
H  16.20300 -1.57100 32.53700
H  16.63900 -1.78300 35.11900
H  16.26000 -0.39200 34.43100
H  22.07500 -6.15800 28.74100
H  20.79400 -7.37700 28.33000
H  20.48300 -6.26900 29.63200
H  22.37100 -7.43000 26.04400
H  21.68100 -7.94400 24.47400
H  20.76000 -8.21500 25.98300
H  17.24200 -2.82800 22.71600
H  16.90000 0.07000 23.04000
H  18.75600 -0.48100 22.17400
H  18.69000 -2.08700 21.36600
H  19.77200 -1.83800 22.72600
H  14.40400 -1.23000 23.83200
H  15.28300 -2.13600 22.60300
H  15.08200 -0.42900 21.13600
H  14.93300 0.90700 22.16300
H  13.46900 -0.14200 21.95700
H  14.57500 3.05200 25.93000
H  15.01800 3.88500 27.52900
H  13.58500 2.92000 27.36700
H  15.72500 0.75800 31.80800
H  16.97400 4.22400 34.11300
H  18.56000 3.53000 33.81600
H  17.56700 2.86900 35.06200
Mg 15.63800 51.45900 25.91300
C  17.22900 50.35300 28.67600
C  13.06700 52.66500 27.87900
C  13.96800 52.12100 23.06200
C  17.99600 49.85700 23.88100
N  15.24100 51.58900 28.06900
C  16.08700 51.13600 29.03000
C  15.69500 51.56300 30.39500
C  14.22500 52.09000 30.18700
C  14.12800 52.16900 28.64900
C  13.13600 51.08400 30.74800
C  16.62100 52.65900 30.95200
C  17.02100 52.70600 32.43200
H  16.08800 51.83900 33.23900
N  13.84500 52.35200 25.52400
C  12.93100 52.75800 26.46900
C  11.71700 53.12100 25.78400
C  11.95500 53.03900 24.36500
C  13.30700 52.49300 24.23800
C  10.49700 53.46100 26.46000
C  11.02900 53.30900 23.33200
O  11.31700 52.99500 22.15700
C  9.66000 53.99100 23.56100
N  16.06700 51.20600 23.81700
C  15.22200 51.53800 22.84600
C  15.80600 51.45900 21.37400
C  17.10100 50.70200 21.67800
C  17.02200 50.52600 23.24200
C  14.89500 50.60200 20.37500
C  18.35400 51.41200 21.12100
C  19.26000 50.69100 20.05500
N  17.40500 50.42900 26.21600
C  18.22200 49.84300 25.30300
C  19.16400 49.07100 26.08700
C  18.80300 49.25400 27.37400
C  17.73600 50.10000 27.42500
C  20.19600 48.16500 25.61300
C  19.16600 48.88900 28.70500
O  19.95200 48.02000 29.05500
C  18.22600 49.66900 29.60400
C  17.67100 48.77300 30.53400
O  16.60600 48.19900 30.55000
O  18.54600 48.75300 31.62800
C  18.02300 48.08800 32.82000
H  12.24900 52.94500 28.54500
H  13.52200 52.45700 22.12300
H  18.70600 49.31800 23.25100
H  15.76000 50.67500 31.02200
H  14.09900 53.11600 30.53200
H  12.47200 51.60000 31.44100
H  13.60300 50.18500 31.15100
H  12.50600 50.72000 29.93600
H  16.28100 53.68300 30.79400
H  17.56000 52.60800 30.40000
H  17.11600 53.76100 32.68700
H  17.95300 52.16200 32.58100
H  9.73500 52.70400 26.27900
H  10.13200 54.39800 26.03800
H  10.47800 53.63900 27.53500
H  9.05300 53.43500 24.27600
H  9.22500 54.13800 22.57200
H  9.99100 54.97900 23.87900
H  16.02500 52.44500 20.96200
H  17.19700 49.71000 21.23700
H  14.08700 50.09000 20.89800
H  15.45400 49.89400 19.76400
H  14.53300 51.32200 19.64000
H  19.04900 51.63700 21.93100
H  18.17100 52.37400 20.64200
H  19.30900 49.61400 20.21600
H  20.28800 50.98400 20.26700
H  19.00200 51.02000 19.04900
H  20.31700 47.26700 26.21800
H  21.17500 48.60700 25.42900
H  19.81200 47.94600 24.61600
H  18.84300 50.38600 30.14400
H  17.16200 47.45000 32.62300
H  17.81800 48.81100 33.61000
H  18.79000 47.43300 33.23200

