158

Mg 7.02500 53.92100 40.30900
C  6.63900 50.37100 39.94600
C  10.38800 53.41700 39.86700
C  7.17800 57.10900 39.53900
C  3.51800 54.06300 40.26400
N  8.32700 52.06300 39.76400
C  7.94500 50.77300 39.70200
C  9.17400 49.87900 39.63000
C  10.34400 50.85900 40.05600
C  9.67500 52.18500 39.95200
C  11.05400 50.57900 41.43800
C  9.41900 49.25300 38.17700
C  9.24700 50.34000 36.95100
H  7.98200 50.21500 36.06100
N  8.61900 55.12600 39.91100
C  9.92000 54.75500 39.84000
C  10.72100 55.89100 39.58600
C  9.83900 57.00400 39.36900
C  8.46700 56.49100 39.60500
C  12.16200 55.86600 39.64700
C  10.20200 58.45500 39.00800
O  11.40400 58.80200 39.04100
C  9.17000 59.49700 38.68500
N  5.57400 55.36000 39.81500
C  5.91700 56.66600 39.73900
C  4.68300 57.52400 39.54200
C  3.45700 56.53300 39.70500
C  4.20100 55.23700 39.93700
C  4.54600 58.77200 40.46800
C  2.39700 56.59200 38.45000
C  0.87500 56.59800 38.85500
N  5.43100 52.55600 40.25600
C  4.10800 52.78900 40.43000
C  3.32600 51.52400 40.61800
C  4.29100 50.54200 40.51900
C  5.57100 51.23700 40.18000
C  1.75500 51.37200 40.78300
C  4.60500 49.11700 40.53500
O  3.91400 48.16800 40.88400
C  6.14400 48.93800 40.16900
C  6.11200 48.16500 38.97600
O  5.77400 48.58200 37.87300
O  6.51200 46.83800 39.24000
C  6.16900 45.88300 38.18000
H  11.47300 53.29700 39.87400
H  7.17400 58.19200 39.39800
H  2.42700 54.09600 40.23000
H  9.11200 48.97900 40.24300
H  11.02800 50.83100 39.20800
H  10.75200 51.21800 42.26900
H  12.13500 50.71500 41.45900
H  10.73500 49.58600 41.75400
H  8.69900 48.50500 37.84400
H  10.44600 48.92400 38.02500
H  10.19900 50.28900 36.42300
H  9.29500 51.34600 37.36900
H  12.59100 56.72600 39.13300
H  12.56800 54.93700 39.24700
H  12.57300 55.81300 40.65500
H  9.72100 60.31900 38.22900
H  8.47700 59.81200 39.46600
H  8.56600 59.05700 37.89200
H  4.74200 57.89000 38.51700
H  2.97700 56.72300 40.66500
H  3.65600 58.77700 41.09700
H  4.44700 59.69300 39.89300
H  5.39200 58.92700 41.13700
H  2.65900 55.77500 37.77700
H  2.53400 57.41200 37.74500
H  0.32800 55.93700 38.18300
H  0.53800 57.63400 38.88600
H  0.74600 56.14800 39.83900
H  1.21300 51.67600 39.88700
H  1.27600 52.01300 41.52400
H  1.46200 50.34200 40.98700
H  6.70600 48.41200 40.94100
H  5.10800 45.84200 37.93700
H  6.36000 44.87000 38.53200
H  6.70500 46.13400 37.26400
Mg -9.40200 40.14400 39.79500
C  -8.66400 36.89000 39.26900
C  -6.01000 40.93400 38.87500
C  -10.28600 43.54100 39.25500
C  -12.72200 39.35100 40.07800
N  -7.53300 39.04500 39.18800
C  -7.54000 37.66200 39.09500
C  -6.08000 37.21400 38.68700
C  -5.25000 38.48700 39.01900
C  -6.32800 39.55400 39.01700
C  -4.45900 38.57300 40.42000
C  -6.07700 36.72500 37.20700
C  -6.22400 37.80500 36.08300
H  -7.42700 37.58600 35.21300
N  -8.31000 41.98500 39.21100
C  -6.91400 42.06500 38.95000
C  -6.66300 43.41000 38.59700
C  -7.93200 44.10400 38.43900
C  -8.89900 43.20400 39.00400
C  -5.25700 43.92700 38.18500
C  -8.11700 45.58900 37.90800
O  -7.16400 46.20300 37.62600
C  -9.42300 46.20500 37.60700
N  -11.20400 41.29500 39.63900
C  -11.31000 42.63300 39.65100
C  -12.77800 43.05600 40.09800
C  -13.41300 41.79600 40.47900
C  -12.40600 40.75600 40.07500
C  -12.75700 44.32400 41.13800
C  -14.87400 41.56700 39.89200
C  -15.78600 40.62800 40.69100
N  -10.56800 38.44900 39.78800
C  -11.85000 38.25500 39.94300
C  -12.20700 36.85100 39.81500
C  -10.96900 36.25700 39.56900
C  -10.01500 37.30200 39.51600
C  -13.62000 36.24200 39.90200
C  -10.34200 35.03200 39.21900
O  -10.79200 33.89800 39.10100
C  -8.84300 35.36000 38.87900
C  -7.95100 34.45400 39.71900
O  -8.04700 34.12500 40.88500
O  -6.90700 34.01100 38.87900
C  -5.83900 33.20900 39.43300
H  -4.95800 41.21000 38.77400
H  -10.54900 44.59900 39.30900
H  -13.77800 39.19900 40.31400
H  -5.85700 36.37200 39.34300
H  -4.58000 38.79900 38.21800
H  -3.41300 38.83800 40.26500
H  -4.62500 37.74000 41.10400
H  -4.87400 39.44200 40.93100
H  -6.92700 36.06500 37.03400
H  -5.22500 36.09200 36.95900
H  -5.35000 37.68500 35.44200
H  -6.39600 38.75300 36.59200
H  -4.90600 44.75800 38.79800
H  -5.25700 44.39700 37.20100
H  -4.52400 43.12100 38.14300
H  -9.75400 46.76100 38.48400
H  -10.12400 45.41200 37.34900
H  -9.44600 46.92900 36.79200
H  -13.25000 43.40500 39.17900
H  -13.39200 41.71100 41.56500
H  -13.41500 44.17200 41.99400
H  -12.96600 45.26000 40.62000
H  -11.74000 44.35200 41.52900
H  -14.60300 41.12700 38.93200
H  -15.26600 42.57900 39.78300
H  -16.74200 41.10300 40.91300
H  -15.25500 40.30100 41.58500
H  -16.02100 39.79100 40.03300
H  -13.61800 35.24600 40.34500
H  -13.99300 36.22200 38.87800
H  -14.18900 36.88000 40.57800
H  -8.79000 35.07900 37.82700
H  -6.19000 32.18100 39.34400
H  -5.54200 33.48500 40.44500
H  -4.95900 33.21100 38.79000

