158

Mg 47.18700 16.66100 28.55100
C  45.09100 16.24700 31.27800
C  49.34700 18.39300 30.61900
C  48.74600 18.08100 25.96500
C  44.76100 15.17800 26.56500
N  47.07000 17.30700 30.70000
C  46.24800 16.88900 31.63900
C  46.74000 17.26400 33.07700
C  47.98700 18.18500 32.78200
C  48.17400 17.99600 31.28800
C  47.78200 19.67000 33.03600
C  47.10900 16.05000 33.95800
C  46.65300 16.13400 35.48100
H  46.27600 17.54500 35.98600
N  48.93100 17.82100 28.29400
C  49.71300 18.27100 29.29000
C  50.90600 18.90200 28.76700
C  50.70000 18.95400 27.38400
C  49.41800 18.30800 27.10900
C  52.11000 19.36600 29.65900
C  51.56400 19.44500 26.20500
O  51.29700 19.36000 25.06300
C  52.93800 19.95700 26.59700
N  46.89300 16.53600 26.56600
C  47.56000 17.33900 25.68500
C  46.89300 17.22700 24.27400
C  45.83600 16.10800 24.53900
C  45.82000 15.94600 25.98800
C  46.27600 18.51300 23.85300
C  46.06500 14.74300 23.82600
C  46.95400 13.71300 24.63500
N  45.35900 15.65700 28.88500
C  44.48800 15.21100 27.94900
C  43.31400 14.69700 28.58400
C  43.48300 15.02900 29.95500
C  44.68700 15.71000 30.01800
C  42.11700 14.07100 27.90500
C  42.91300 15.06800 31.29800
O  41.82700 14.71200 31.75700
C  43.97200 15.79900 32.26200
C  43.25600 16.94400 32.95400
O  42.84200 17.99100 32.47400
O  43.05600 16.59600 34.30900
C  42.24300 17.55600 35.11200
H  50.13100 18.82100 31.24700
H  49.06400 18.66100 25.09600
H  43.91300 14.75700 26.02200
H  45.99900 17.87500 33.59400
H  48.84900 17.78600 33.31500
H  46.69800 19.59800 32.94800
H  48.15000 20.27300 32.20500
H  48.14700 19.98900 34.01200
H  48.19400 15.94600 33.95900
H  46.79800 15.13400 33.45600
H  47.48200 15.72800 36.06100
H  45.79500 15.46600 35.55800
H  52.26300 20.43000 29.47900
H  53.04000 18.93500 29.28800
H  51.99900 19.28500 30.74000
H  53.52400 19.12600 26.99000
H  52.80500 20.65100 27.42700
H  53.38100 20.46500 25.74000
H  47.69500 16.99300 23.57400
H  44.85100 16.46000 24.23300
H  46.60100 19.31400 24.51700
H  45.18600 18.53500 23.88000
H  46.68500 18.73400 22.86700
H  46.51200 14.95800 22.85500
H  45.09300 14.25200 23.87600
H  47.59000 14.11100 25.42600
H  47.69700 13.35600 23.92300
H  46.33700 12.97200 25.14300
H  41.23300 14.70400 27.97300
H  41.91400 13.19100 28.51400
H  42.25200 13.77300 26.86500
H  44.15400 14.99500 32.97500
H  41.16700 17.49100 34.95100
H  42.56400 18.55500 34.81600
H  42.41700 17.34300 36.16700
Mg 0.62900 42.44300 25.39600
C  2.26800 42.80900 28.61200
C  -2.23400 41.54000 26.98400
C  -0.58400 41.79700 22.34500
C  3.82100 42.86800 24.03600
N  0.12600 42.34000 27.48900
C  0.81700 42.62600 28.66700
C  -0.05700 42.52000 29.92000
C  -1.43500 42.00700 29.36800
C  -1.16200 41.99600 27.84700
C  -1.83500 40.59300 29.95800
C  0.01400 43.93600 30.68500
C  0.51100 43.82100 32.16700
H  0.41100 42.40100 32.90200
N  -1.22500 41.76100 24.69000
C  -2.24800 41.36800 25.51500
C  -3.33900 40.95900 24.66800
C  -2.88900 41.02000 23.31200
C  -1.48300 41.57000 23.37700
C  -4.69400 40.62100 25.35100
C  -3.59900 40.66000 21.95200
O  -3.07700 40.67100 20.80400
C  -4.98500 40.13500 22.16000
N  1.47800 42.38500 23.49100
C  0.73400 42.20500 22.37600
C  1.58300 42.21400 21.11000
C  2.95100 42.69800 21.65400
C  2.74000 42.67800 23.17200
C  1.68800 40.77200 20.45200
C  3.32900 44.11000 21.04700
C  3.37300 45.41000 21.86800
N  2.64300 42.77800 26.11300
C  3.81900 42.84400 25.42000
C  4.91500 42.97500 26.31500
C  4.32400 43.05000 27.58600
C  2.97800 42.80800 27.44200
C  6.34000 43.18100 25.91800
C  4.58100 43.27900 28.94100
O  5.61900 43.57400 29.51300
C  3.24500 43.02800 29.72600
C  3.41800 41.84200 30.62000
O  3.13600 40.68100 30.44200
O  3.99800 42.40700 31.70700
C  4.49000 41.43800 32.78200
H  -3.14500 41.34500 27.55300
H  -0.98800 41.63800 21.34300
H  4.77700 42.88400 23.50700
H  0.39200 41.76600 30.56600
H  -2.28900 42.65300 29.57300
H  -1.62700 40.48700 31.02300
H  -1.37900 39.74800 29.44200
H  -2.91900 40.52700 29.87100
H  -0.97800 44.38600 30.71900
H  0.75300 44.61200 30.25500
H  -0.13100 44.45500 32.77900
H  1.51000 44.25500 32.12200
H  -4.56600 40.62800 26.43300
H  -5.03200 39.59800 25.18600
H  -5.53400 41.24300 25.04000
H  -5.67000 40.72300 22.77100
H  -5.07700 39.23300 22.76500
H  -5.49000 39.90400 21.22100
H  1.10400 42.91900 20.43100
H  3.74800 41.95800 21.57900
H  1.43500 40.03800 21.21700
H  2.69700 40.70100 20.04600
H  0.87700 40.67500 19.73000
H  2.84800 44.25700 20.07900
H  4.38800 43.97200 20.83000
H  4.07600 45.35100 22.69900
H  2.37700 45.61300 22.26200
H  3.69000 46.24800 21.24700
H  6.50000 44.19200 25.54500
H  6.72500 42.47400 25.18300
H  6.96500 43.09100 26.80600
H  3.24000 43.96300 30.28500
H  5.53700 41.63200 33.01400
H  4.39700 40.35600 32.69200
H  3.97700 41.76200 33.68800

