158

Mg 25.01000 1.55000 29.40500
C  27.03100 1.55400 32.28700
C  22.27700 1.94500 31.43400
C  23.12800 1.21400 26.64400
C  27.82900 0.86600 27.50500
N  24.71700 1.67300 31.62700
C  25.72200 1.91300 32.60400
C  25.12200 2.21600 33.93800
C  23.52300 2.09200 33.67600
C  23.44300 1.91900 32.12800
C  22.82300 0.99500 34.54500
C  25.66100 3.58000 34.47900
C  26.36800 3.57500 35.83000
H  25.81900 4.63500 36.84700
N  23.00100 1.58500 29.12200
C  21.99300 1.70200 30.02300
C  20.67800 1.64500 29.43800
C  20.89800 1.45500 28.04500
C  22.41000 1.45400 27.84000
C  19.33100 1.82400 30.23500
C  19.82500 1.19600 26.98800
O  20.19200 1.17200 25.77100
C  18.44500 0.98900 27.42800
N  25.39900 1.06900 27.36900
C  24.47900 1.13700 26.37100
C  25.10300 1.43400 24.91900
C  26.60800 1.33300 25.21200
C  26.61300 1.02400 26.80000
C  24.53300 0.37600 23.93100
C  27.40500 2.53600 24.76900
C  27.31000 3.77500 25.50700
N  26.98100 1.07100 29.81000
C  27.98200 0.84300 28.95100
C  29.25400 0.68300 29.62700
C  28.94000 0.89000 31.01800
C  27.52000 1.11900 31.03200
C  30.51900 0.66600 29.02700
C  29.51800 1.04900 32.31700
O  30.64200 0.85000 32.82700
C  28.24800 1.56500 33.22100
C  28.28300 0.66200 34.41900
O  27.82300 -0.45100 34.41700
O  28.80500 1.36200 35.47100
C  29.14200 0.35700 36.53700
H  21.41600 2.18300 32.06200
H  22.53200 1.22500 25.72900
H  28.70500 0.86300 26.85300
H  25.31000 1.44600 34.68700
H  23.03000 2.98200 34.06700
H  23.53300 0.35600 35.07100
H  22.24700 0.29400 33.94200
H  22.15700 1.48400 35.25600
H  24.83700 4.28700 34.58100
H  26.39100 4.03500 33.81000
H  27.39400 3.76700 35.51600
H  26.49100 2.62900 36.35700
H  19.44600 2.09000 31.28500
H  18.86400 0.84600 30.35400
H  18.74300 2.64000 29.81400
H  18.32000 0.24200 28.21200
H  17.91400 0.77900 26.50000
H  18.13900 1.97300 27.78300
H  24.82200 2.40000 24.50000
H  26.99900 0.52900 24.58800
H  23.96100 0.95300 23.20400
H  23.95200 -0.41200 24.41100
H  25.36400 -0.06500 23.38100
H  27.00600 2.81700 23.79400
H  28.40700 2.11600 24.67900
H  26.72400 3.59800 26.40900
H  26.85400 4.67200 25.08600
H  28.34100 4.05700 25.72100
H  30.93100 -0.32800 28.85600
H  31.24800 1.14000 29.68400
H  30.53100 1.18400 28.06800
H  28.54600 2.57700 33.49300
H  28.26500 -0.13000 36.96400
H  29.72700 0.82700 37.32900
H  29.80900 -0.34100 36.03200
Mg 9.95000 47.14300 25.80000
C  7.67900 47.42600 28.43200
C  12.36000 48.54500 27.97300
C  12.26400 46.76800 23.37400
C  7.39600 46.40900 23.70000
N  9.99400 47.88400 27.97600
C  8.94500 47.73900 28.92300
C  9.44200 48.25300 30.29000
C  10.90200 48.86800 29.97600
C  11.11300 48.36400 28.56200
C  11.16500 50.34800 30.13500
C  9.48700 47.19000 31.47300
C  10.15600 47.57900 32.82800
H  9.23800 47.28900 34.02100
N  12.01500 47.69200 25.63100
C  12.83700 48.16100 26.66600
C  14.17400 48.10100 26.22100
C  14.19400 47.47400 24.89200
C  12.78200 47.30400 24.56900
C  15.41100 48.52500 27.10900
C  15.34300 46.97000 24.12800
O  15.23100 46.51000 22.96100
C  16.75500 46.93300 24.75100
N  9.86900 46.76400 23.84900
C  10.93300 46.62800 22.99700
C  10.47700 46.08900 21.64900
C  8.95300 46.15200 21.65800
C  8.69700 46.46500 23.16100
C  11.07100 46.81200 20.46700
C  8.21100 44.93100 21.04000
C  7.20500 45.17900 19.84800
N  7.90500 47.01500 25.95400
C  6.96900 46.69300 25.04000
C  5.69200 46.48700 25.64600
C  5.92100 46.90000 26.98100
C  7.31700 47.10300 27.08400
C  4.33500 46.21700 24.98100
C  5.19900 47.11000 28.23400
O  4.06900 46.94900 28.58200
C  6.32100 47.50200 29.21600
C  6.07400 46.51900 30.33900
O  6.53600 45.39900 30.42000
O  5.28700 47.05500 31.29500
C  5.08200 46.38000 32.53900
H  13.09600 48.83900 28.72500
H  12.97700 46.57000 22.57100
H  6.55000 46.22800 23.03400
H  8.77400 49.06500 30.57400
H  11.61600 48.29600 30.56900
H  10.53000 50.84500 30.86800
H  10.94300 50.83800 29.18700
H  12.21800 50.53100 30.34800
H  9.65700 46.14400 31.21500
H  8.45700 46.94600 31.73300
H  10.37900 48.64400 32.75800
H  11.08500 47.01600 32.91800
H  15.09100 49.03500 28.01800
H  16.02300 49.23100 26.54700
H  16.01500 47.72100 27.52800
H  16.61000 46.78700 25.82100
H  17.38000 47.79500 24.51500
H  17.32400 46.08500 24.37000
H  10.84600 45.06800 21.55100
H  8.66400 47.05100 21.11200
H  12.13400 46.59800 20.35800
H  11.03700 47.89100 20.61700
H  10.51300 46.51600 19.58000
H  7.70600 44.44100 21.87200
H  8.94200 44.23600 20.62500
H  7.46800 44.47100 19.06200
H  7.22400 46.20600 19.48400
H  6.14600 45.02500 20.05500
H  4.46500 45.85800 23.96000
H  3.80300 47.16300 24.87500
H  3.90200 45.46900 25.64500
H  6.23100 48.54200 29.52700
H  4.73500 47.05700 33.32100
H  5.99600 45.91000 32.90100
H  4.32800 45.59300 32.53300

