158

Mg 49.11900 46.43700 42.52400
C  45.83000 46.34700 41.48500
C  49.50800 43.12900 41.07500
C  52.37600 46.47500 43.21600
C  48.85500 49.78200 43.34500
N  47.73400 44.81800 41.45200
C  46.45100 45.10800 41.02200
C  45.86600 43.93800 40.19200
C  47.07000 42.88300 40.12600
C  48.20100 43.68200 40.89500
C  46.73600 41.53500 40.81800
C  45.40700 44.43700 38.74700
C  43.92900 44.14200 38.42900
H  43.48600 43.10000 37.34900
N  50.69800 45.00300 42.25000
C  50.63300 43.73500 41.62200
C  51.92600 43.10800 41.66700
C  52.78200 43.99700 42.42100
C  51.97700 45.20200 42.62500
C  52.19300 41.78300 41.04700
C  54.19600 43.78500 42.84400
O  54.77900 42.80500 42.47000
C  54.96400 44.77600 43.74500
N  50.40000 47.89200 43.02800
C  51.75600 47.67600 43.41900
C  52.46000 48.99500 43.77000
C  51.22800 49.98700 43.70800
C  50.02900 49.13800 43.35200
C  53.32600 49.06200 45.08900
C  51.65400 51.35200 42.91700
C  51.19300 52.62400 43.70200
N  47.59600 47.84500 42.46400
C  47.64300 49.17700 42.84000
C  46.32500 49.68000 42.80900
C  45.54400 48.60000 42.29500
C  46.44600 47.51400 42.08200
C  46.00200 51.06000 43.00200
C  44.23400 48.23100 41.89700
O  43.15500 48.89600 41.77800
C  44.27700 46.72300 41.45400
C  43.51700 45.95700 42.46300
O  43.87200 45.75000 43.59600
O  42.26600 45.66800 42.02600
C  41.35500 45.09500 43.04000
H  49.42000 42.15500 40.58800
H  53.45400 46.64200 43.25300
H  48.74900 50.86100 43.47300
H  45.01600 43.56000 40.76100
H  47.50300 42.78400 39.13100
H  45.65100 41.43900 40.85400
H  47.13100 41.58200 41.83300
H  47.17500 40.62100 40.41900
H  45.99600 43.97600 37.95400
H  45.57500 45.51000 38.65500
H  43.49300 45.08500 38.09800
H  43.28100 43.89600 39.27100
H  53.16300 41.35900 41.30700
H  52.16600 42.06400 39.99400
H  51.42200 41.04900 41.28400
H  55.40600 45.59900 43.18200
H  55.71400 44.29100 44.37000
H  54.28900 45.08000 44.54500
H  53.17300 49.15200 42.96000
H  50.87100 50.17600 44.72100
H  54.33600 49.30900 44.76200
H  53.28700 48.12100 45.63800
H  52.96200 49.92500 45.64800
H  51.28900 51.22000 41.89800
H  52.73700 51.30900 42.79500
H  50.50300 52.28600 44.47600
H  50.64000 53.33800 43.09200
H  52.03700 53.14200 44.15600
H  44.91600 51.15500 43.03000
H  46.48900 51.57100 42.17200
H  46.43100 51.49300 43.90600
H  43.91700 46.57100 40.43700
H  40.36700 45.10800 42.58000
H  41.38800 45.66400 43.96900
H  41.67800 44.06900 43.21600
Mg 1.29700 42.72700 25.29100
C  2.79600 42.70000 28.61000
C  -1.60500 41.97200 26.84900
C  0.08700 42.05700 22.24300
C  4.50200 43.04800 23.92600
N  0.68900 42.24300 27.50900
C  1.40400 42.46100 28.69000
C  0.52400 42.34100 29.96100
C  -0.86300 41.93800 29.31700
C  -0.61700 42.15100 27.82500
C  -1.47200 40.56500 29.67200
C  0.51800 43.60900 30.88300
C  0.54700 43.45500 32.38100
H  0.44100 41.99900 32.90200
N  -0.60300 42.24000 24.61900
C  -1.71500 42.01900 25.44700
C  -2.85000 41.83000 24.57500
C  -2.33700 41.81000 23.16600
C  -0.90100 42.04000 23.26800
C  -4.17100 41.63600 25.16700
C  -3.08400 41.70200 21.84500
O  -2.57800 41.77400 20.74100
C  -4.56700 41.30000 21.91600
N  2.16500 42.55600 23.41900
C  1.40800 42.29900 22.31200
C  2.30300 42.18700 21.02100
C  3.72100 42.68300 21.43300
C  3.46200 42.83600 22.99600
C  2.35400 40.75400 20.36500
C  4.25500 43.97300 20.69700
C  5.02500 43.70900 19.46700
N  3.21600 42.89200 26.05900
C  4.41100 43.01200 25.37300
C  5.46000 43.22000 26.33300
C  4.93700 43.14800 27.57600
C  3.52000 42.89000 27.40300
C  6.83600 43.48500 26.02500
C  5.18900 43.12500 29.02700
O  6.25600 43.20400 29.62100
C  3.81300 42.89900 29.73700
C  4.01600 41.72700 30.64200
O  3.80700 40.54600 30.42400
O  4.48000 42.26400 31.81600
C  4.77000 41.33600 32.88500
H  -2.50200 41.72400 27.42100
H  -0.12200 41.71600 21.22700
H  5.50400 43.27900 23.55800
H  0.89100 41.53200 30.59300
H  -1.57400 42.71600 29.59300
H  -0.84500 40.05800 30.40600
H  -1.75300 39.95100 28.81700
H  -2.37100 40.84100 30.22400
H  -0.33700 44.21300 30.57900
H  1.29700 44.19100 30.39000
H  -0.29500 43.97700 32.83600
H  1.50700 43.84000 32.72500
H  -4.22300 41.91100 26.22100
H  -4.46500 40.60100 24.99100
H  -4.84200 42.25800 24.57400
H  -4.80000 41.01600 20.89000
H  -5.09100 42.17800 22.29300
H  -4.71000 40.46500 22.60200
H  1.91800 42.84800 20.24400
H  4.50400 41.93700 21.29300
H  1.72400 40.05500 20.91400
H  3.38200 40.42000 20.23100
H  1.92300 40.91400 19.37600
H  4.83500 44.61000 21.36600
H  3.32500 44.51600 20.52500
H  4.44400 44.04300 18.60800
H  5.15400 42.65700 19.21400
H  5.93400 44.31100 19.46400
H  7.28600 43.79400 26.96800
H  6.83100 44.29200 25.29200
H  7.39100 42.65500 25.59000
H  3.55800 43.78700 30.31400
H  5.85800 41.33500 32.95100
H  4.35000 40.33200 32.81800
H  4.48100 41.74600 33.85200

