158

Mg -2.22800 17.41000 26.42900
C  -2.27200 15.12800 29.09600
C  -2.76600 19.93300 28.70600
C  -2.50900 19.64800 23.85400
C  -1.94100 14.89500 24.18800
N  -2.68900 17.59300 28.62300
C  -2.35100 16.51000 29.49300
C  -2.38600 16.94200 30.97800
C  -2.74300 18.46200 30.84600
C  -2.69200 18.75400 29.31900
C  -4.08800 18.84900 31.50800
C  -1.14300 16.56800 31.80300
C  -1.00000 17.28500 33.18100
H  -0.92100 16.37700 34.48300
N  -2.61200 19.44500 26.34100
C  -2.79600 20.35800 27.39700
C  -2.92400 21.68400 26.89500
C  -2.96500 21.63200 25.46200
C  -2.70600 20.16800 25.15800
C  -3.15300 22.87400 27.68400
C  -3.20400 22.66300 24.38800
O  -3.10800 22.44800 23.15100
C  -3.42300 24.11900 24.71300
N  -2.16600 17.34500 24.30900
C  -2.27700 18.31600 23.42300
C  -2.27400 17.90500 21.94400
C  -2.02000 16.43100 22.10000
C  -1.96400 16.21300 23.60000
C  -3.55500 18.25500 21.17000
C  -0.86200 15.77600 21.33300
C  -0.96200 14.38500 20.81400
N  -2.23300 15.39500 26.51100
C  -1.93200 14.48700 25.52400
C  -1.93700 13.13600 26.06400
C  -1.98200 13.39200 27.44800
C  -2.20000 14.75200 27.69100
C  -1.92700 11.88300 25.27500
C  -2.09100 12.71700 28.68000
O  -2.11100 11.48600 28.91900
C  -2.22700 13.78500 29.85000
C  -1.06600 13.49100 30.77700
O  0.11900 13.82300 30.69200
O  -1.62100 12.76600 31.81100
C  -0.75900 12.39900 32.98300
H  -2.57500 20.70200 29.45800
H  -2.70500 20.28300 22.98800
H  -1.73200 14.14500 23.42200
H  -3.22300 16.40800 31.42700
H  -1.93600 18.98500 31.35900
H  -4.06600 18.82400 32.59700
H  -4.99500 18.38700 31.11600
H  -4.29000 19.90200 31.30900
H  -0.25200 16.70700 31.19100
H  -1.14200 15.49500 31.99200
H  -1.82400 17.98800 33.30300
H  -0.08200 17.86800 33.25200
H  -3.10400 22.70000 28.75900
H  -4.12700 23.30400 27.44900
H  -2.35700 23.58300 27.45900
H  -3.81600 24.72100 23.89300
H  -2.49000 24.62700 24.95600
H  -4.04900 24.25700 25.59500
H  -1.39800 18.37000 21.49300
H  -2.93800 15.91900 21.81200
H  -4.14100 17.42300 20.77800
H  -3.25400 18.78000 20.26300
H  -4.20800 18.79300 21.85700
H  0.04500 15.86600 21.93100
H  -0.67900 16.39700 20.45600
H  -0.30100 13.69600 21.33900
H  -0.84900 14.38200 19.72900
H  -1.99900 14.06100 20.90700
H  -1.60100 11.96900 24.23800
H  -2.93600 11.47500 25.22700
H  -1.33000 11.09000 25.72400
H  -3.19100 13.55300 30.30300
H  -0.38300 11.38100 32.87500
H  -1.34900 12.43400 33.89900
H  0.07900 13.06600 33.18100
Mg 9.31100 48.20800 26.08200
C  6.87000 48.71600 28.57300
C  11.52400 49.83500 28.11300
C  11.50400 48.03800 23.58700
C  6.65500 47.76000 23.77100
N  9.13400 49.26300 28.03900
C  8.17900 49.16400 28.92000
C  8.61700 49.44600 30.33000
C  9.93000 50.31300 30.04100
C  10.22800 49.73000 28.61300
C  9.88800 51.85000 30.10800
C  8.86000 48.18700 31.24300
C  8.05100 48.16900 32.54600
H  8.00700 46.77100 33.36000
N  11.32600 48.72100 25.92300
C  12.03700 49.40700 26.84700
C  13.39700 49.41400 26.37400
C  13.42400 48.80300 25.08100
C  12.06000 48.52700 24.77400
C  14.51600 49.82400 27.29000
C  14.58000 48.54200 24.15700
O  14.45300 48.25000 22.93700
C  16.02600 48.67700 24.64900
N  9.06700 48.15300 23.86200
C  10.14500 47.79400 23.13500
C  9.72800 47.20500 21.71100
C  8.12400 47.31600 21.79900
C  7.91700 47.75200 23.27100
C  10.39500 47.96400 20.50500
C  7.35500 46.05600 21.37700
C  6.71800 46.06600 19.95500
N  7.20000 48.09700 26.13300
C  6.28800 47.95600 25.14600
C  4.95300 47.92400 25.67400
C  5.16100 48.10100 27.10300
C  6.54900 48.19500 27.30000
C  3.74000 47.75000 24.90100
C  4.52200 48.28000 28.29600
O  3.32700 48.35100 28.63400
C  5.62400 48.60700 29.34800
C  5.56700 47.40100 30.22400
O  6.31100 46.43300 30.25400
O  4.48900 47.56700 31.08400
C  4.35900 46.47800 32.01500
H  12.17800 50.54000 28.63100
H  12.30000 47.71500 22.91300
H  5.81400 47.41300 23.16800
H  7.88300 50.15000 30.72100
H  10.85000 50.00900 30.54000
H  8.84800 52.13800 30.26400
H  10.26500 52.31700 29.19800
H  10.50700 52.11800 30.96300
H  9.91800 48.14200 31.50300
H  8.66800 47.27800 30.67300
H  7.02600 48.30900 32.20200
H  8.44200 49.03600 33.07900
H  14.12500 50.23500 28.22100
H  15.21700 50.56200 26.90100
H  15.01100 48.91800 27.64100
H  16.12500 48.14900 25.59800
H  16.24000 49.69100 24.98800
H  16.73900 48.36600 23.88600
H  10.01100 46.15200 21.71200
H  7.74500 48.09300 21.13500
H  10.87600 47.15900 19.94900
H  11.06800 48.75400 20.83900
H  9.53000 48.41200 20.01600
H  6.62000 45.90700 22.16800
H  8.02500 45.19700 21.35700
H  6.34300 47.07200 19.76700
H  5.87200 45.38600 19.85600
H  7.47300 45.82900 19.20500
H  3.79900 46.72200 24.54100
H  3.79800 48.48300 24.09600
H  2.83900 47.83600 25.50800
H  5.25900 49.48200 29.88600
H  3.50600 46.56200 32.68900
H  5.20200 46.42100 32.70400
H  4.34400 45.50600 31.52200

