158

Mg 47.21100 32.96000 25.52400
C  45.69800 31.98700 28.69100
C  47.73400 35.97600 27.02400
C  48.81300 33.74500 22.86300
C  46.46800 29.77700 24.33900
N  46.83400 33.81100 27.72500
C  46.35000 33.21300 28.85700
C  46.50600 34.09800 30.13700
C  46.95400 35.45800 29.42200
C  47.24300 35.10900 27.99400
C  46.01900 36.67700 29.61200
C  47.53100 33.50100 31.12500
C  47.12300 33.33000 32.56600
H  46.41600 34.38900 33.41600
N  48.04100 34.69800 24.99500
C  48.19900 35.85900 25.73500
C  48.94500 36.83100 24.96100
C  49.22100 36.25900 23.68300
C  48.71900 34.82500 23.78800
C  49.40800 38.21400 25.45100
C  49.90700 36.72700 22.48000
O  50.22400 36.06200 21.51200
C  50.44300 38.18700 22.43700
N  47.55300 31.89600 23.83100
C  48.32600 32.41600 22.86500
C  48.62300 31.39400 21.76400
C  47.88300 30.12400 22.20600
C  47.26300 30.58400 23.52900
C  48.06200 31.90300 20.35400
C  48.68500 28.82900 22.26700
C  49.65700 28.76500 21.04100
N  46.19900 31.26500 26.20700
C  45.87600 30.12100 25.57000
C  45.03000 29.23900 26.37000
C  44.96200 30.04000 27.53700
C  45.67500 31.20600 27.46200
C  44.40400 27.88300 25.95600
C  44.35300 29.98200 28.80600
O  43.61700 29.13200 29.23900
C  44.69900 31.31600 29.58300
C  45.07900 30.85300 30.97900
O  46.10300 30.37800 31.36600
O  43.97400 31.01400 31.81600
C  44.25400 30.86700 33.26400
H  47.95400 36.99500 27.34600
H  49.30300 33.92200 21.90300
H  46.37000 28.75300 23.97300
H  45.55600 34.07100 30.67000
H  47.83300 35.90800 29.88300
H  45.49400 36.97100 28.70400
H  46.63100 37.56800 29.74600
H  45.26200 36.61400 30.39400
H  48.41800 34.13400 31.14800
H  47.70700 32.50600 30.71600
H  48.02100 33.01000 33.09500
H  46.49700 32.43900 32.57800
H  50.49000 38.08700 25.46200
H  49.11300 38.38900 26.48600
H  49.13500 39.17300 25.01000
H  50.65300 38.48300 21.40900
H  51.32500 38.33100 23.06100
H  49.69000 38.84200 22.87500
H  49.70400 31.42200 21.62800
H  47.05300 29.88000 21.54300
H  47.92800 32.98500 20.38200
H  47.11700 31.48400 20.00900
H  48.83600 31.94100 19.58700
H  48.09400 27.91800 22.17400
H  49.24400 28.93600 23.19600
H  50.62900 29.11500 21.39000
H  49.36600 29.32500 20.15300
H  49.71700 27.70500 20.79100
H  44.26400 27.83000 24.87600
H  43.47500 27.64200 26.47300
H  45.13900 27.11700 26.20400
H  43.81900 31.93900 29.74100
H  43.52500 30.21100 33.74100
H  44.26000 31.87100 33.68600
H  45.20300 30.38300 33.49600
Mg -0.13800 44.30600 26.41900
C  2.25500 44.38500 29.10400
C  -2.50400 43.33000 28.73200
C  -2.07900 43.13900 23.88300
C  2.44700 44.74300 24.20100
N  -0.07900 43.87800 28.69700
C  0.98300 44.07400 29.55000
C  0.44800 44.03100 30.96400
C  -0.99200 43.39200 30.83800
C  -1.23200 43.60000 29.31600
C  -1.04800 41.87500 31.27300
C  0.47200 45.36400 31.80600
C  1.02200 45.10400 33.26800
H  0.52200 43.88000 34.07900
N  -2.09300 43.59600 26.30700
C  -2.87800 43.22900 27.35400
C  -4.20800 42.87200 26.83600
C  -4.11700 42.84000 25.42900
C  -2.75200 43.22700 25.14500
C  -5.41000 42.50400 27.69800
C  -5.15100 42.34700 24.35000
O  -4.86400 42.27700 23.18100
C  -6.57700 42.01700 24.77500
N  0.07300 43.91800 24.37800
C  -0.79600 43.41200 23.55700
C  -0.13900 43.11300 22.17100
C  1.06200 44.12700 22.13800
C  1.22400 44.29000 23.66500
C  0.27000 41.61100 21.96800
C  0.82600 45.40800 21.34300
C  1.70300 45.73000 20.11400
N  1.93400 44.50100 26.55200
C  2.84700 44.69200 25.54700
C  4.22200 44.90300 26.10300
C  3.95700 44.75300 27.48700
C  2.59600 44.52300 27.75300
C  5.49200 45.16400 25.36600
C  4.69400 44.76000 28.81900
O  5.88700 44.84700 29.07100
C  3.54800 44.54200 29.86000
C  4.01900 43.26200 30.60900
O  4.49600 42.27800 30.15600
O  3.84300 43.49600 31.95800
C  4.09800 42.30000 32.85700
H  -3.18600 42.99700 29.51800
H  -2.62400 42.83800 22.98600
H  3.16400 44.98100 23.41200
H  1.09600 43.31100 31.46400
H  -1.74800 43.94300 31.39700
H  -0.11400 41.55300 31.73200
H  -1.45300 41.29200 30.44600
H  -1.86300 41.84400 31.99600
H  -0.54000 45.75700 31.90000
H  1.00800 46.20600 31.36700
H  0.76300 46.02500 33.78900
H  2.10300 45.24600 33.25800
H  -6.24800 43.20100 27.69100
H  -5.15200 42.34800 28.74500
H  -5.87900 41.60300 27.30100
H  -7.17600 41.87000 23.87600
H  -7.03900 42.72700 25.46100
H  -6.42800 41.03700 25.22700
H  -0.88500 43.30800 21.40100
H  1.94700 43.62700 21.74300
H  0.08900 40.93800 22.80700
H  1.32300 41.47100 21.72200
H  -0.39900 41.20000 21.21300
H  0.87700 46.31900 21.93900
H  -0.18800 45.37700 20.94400
H  1.01500 45.61200 19.27700
H  2.59200 45.10000 20.11900
H  2.15500 46.71800 20.02400
H  5.37800 46.06800 24.76800
H  5.82400 44.28400 24.81600
H  6.23700 45.28200 26.15400
H  3.52100 45.30800 30.63400
H  3.49100 41.42600 32.62100
H  3.75700 42.51400 33.87000
H  5.18700 42.27500 32.88900

