158

Mg 25.11500 1.69800 29.68700
C  27.21600 1.55200 32.49500
C  22.43600 1.68600 31.89800
C  23.15900 1.39400 27.04200
C  27.93400 0.95600 27.65000
N  24.83000 1.79200 31.88900
C  25.89400 1.82500 32.83200
C  25.39400 2.07100 34.20500
C  23.81700 1.91600 34.03400
C  23.63000 1.77200 32.50100
C  23.14500 0.81600 34.93800
C  25.83000 3.41700 34.80800
C  26.66000 3.35900 36.08600
H  26.23500 4.34100 37.29100
N  23.08900 1.66300 29.47800
C  22.20000 1.65700 30.47600
C  20.89800 1.69400 29.86800
C  21.01200 1.53100 28.50100
C  22.44700 1.55600 28.30300
C  19.68900 1.72100 30.76400
C  19.97500 1.19400 27.48800
O  20.25600 0.96400 26.32600
C  18.55400 1.05700 27.76000
N  25.53100 1.09600 27.71800
C  24.50700 1.16300 26.76500
C  25.06500 1.09600 25.32600
C  26.58500 0.87600 25.44900
C  26.71400 1.03600 27.00800
C  24.49700 0.09900 24.26100
C  27.45200 2.01400 24.78600
C  27.29300 3.44400 25.30600
N  27.10600 1.36700 29.94100
C  28.07700 1.12500 29.02100
C  29.35300 1.03500 29.67800
C  29.06100 1.27100 31.06300
C  27.65300 1.35100 31.16200
C  30.66000 0.73900 29.04400
C  29.65900 1.22900 32.41700
O  30.83700 1.00300 32.77700
C  28.45900 1.54100 33.43800
C  28.37700 0.52900 34.52700
O  28.10300 -0.63000 34.31600
O  28.81100 1.06200 35.68500
C  28.77100 0.12400 36.80700
H  21.69200 1.73400 32.69600
H  22.51900 1.43800 26.15900
H  28.77000 0.75000 26.97900
H  25.84300 1.31900 34.85500
H  23.32300 2.82900 34.36700
H  22.82700 0.11600 34.16500
H  22.23000 1.21000 35.38000
H  23.75500 0.33500 35.70300
H  24.94000 3.98100 35.08600
H  26.46600 3.97700 34.12300
H  27.65700 3.68600 35.78800
H  26.72700 2.37700 36.55300
H  19.10700 0.80700 30.64400
H  19.03500 2.55200 30.50200
H  19.89700 1.95500 31.80800
H  18.38600 0.22800 28.44900
H  18.08800 0.75800 26.82100
H  18.11700 1.94000 28.22600
H  24.90400 2.11800 24.98400
H  26.88900 -0.12900 25.15900
H  24.44900 0.65400 23.32400
H  23.49500 -0.27200 24.47700
H  25.11700 -0.79600 24.21000
H  27.01100 2.05800 23.79000
H  28.49100 1.69100 24.71700
H  28.29200 3.81200 25.54000
H  26.63100 3.37900 26.16900
H  26.80100 4.03400 24.53300
H  30.80500 -0.30900 28.78200
H  31.33700 1.07200 29.83100
H  30.91000 1.37300 28.19400
H  28.61200 2.54400 33.83600
H  29.72400 -0.39000 36.93400
H  28.04300 -0.68500 36.75800
H  28.60900 0.69300 37.72200
Mg -2.14500 33.84400 26.92200
C  -3.75600 32.05400 29.53900
C  -0.38600 35.51300 29.39000
C  -1.23700 35.90500 24.61300
C  -4.11100 32.01600 24.56000
N  -2.15200 33.81600 29.19800
C  -2.89400 33.03600 30.06500
C  -2.55200 33.31500 31.55000
C  -1.41900 34.44300 31.45700
C  -1.27500 34.63000 29.92600
C  -1.91700 35.79800 32.03900
C  -2.04800 31.97400 32.18500
C  -1.17100 31.94000 33.53400
H  -1.67900 31.07700 34.68500
N  -0.89100 35.45800 26.98300
C  -0.18000 35.93500 28.06700
C  0.77800 36.91200 27.53300
C  0.49300 37.07000 26.14500
C  -0.56900 36.16000 25.84000
C  1.70300 37.73100 28.41100
C  1.24800 37.82700 25.08300
O  1.04100 37.83800 23.90000
C  2.59000 38.45800 25.46800
N  -2.75700 33.98300 24.88500
C  -2.19400 35.01700 24.14000
C  -2.56100 34.87000 22.69400
C  -3.33400 33.47000 22.64600
C  -3.46200 33.11500 24.06900
C  -3.40000 36.06000 22.14900
C  -2.73200 32.38300 21.67500
C  -1.81900 31.27700 22.28400
N  -3.59200 32.27000 26.95800
C  -4.26800 31.64700 25.99400
C  -5.21900 30.68600 26.53800
C  -5.03600 30.80600 27.95000
C  -3.99600 31.74000 28.12400
C  -6.22100 29.80200 25.68200
C  -5.46500 30.33900 29.23700
O  -6.30200 29.57700 29.57800
C  -4.46900 31.08500 30.28000
C  -5.46100 31.65000 31.20900
O  -6.25200 32.55300 30.91000
O  -5.50000 30.99000 32.44000
C  -6.76500 31.16800 33.23200
H  0.29900 35.89600 30.14900
H  -0.78400 36.47200 23.79700
H  -4.69200 31.31700 23.95400
H  -3.46800 33.58500 32.07600
H  -0.58400 34.15300 32.09600
H  -2.55000 35.57700 32.89800
H  -2.52500 36.34200 31.31600
H  -1.12500 36.42200 32.45500
H  -1.48900 31.46400 31.40000
H  -2.96200 31.47900 32.51200
H  -0.99200 32.95700 33.88200
H  -0.17200 31.52500 33.40500
H  1.35700 38.76200 28.48600
H  2.69800 37.78700 27.96800
H  1.81200 37.31000 29.41000
H  2.90900 39.01600 24.58700
H  3.27000 37.61900 25.61400
H  2.72400 39.15100 26.29900
H  -1.69100 34.73900 22.05100
H  -4.34100 33.63400 22.26300
H  -3.47500 36.81900 22.92700
H  -4.41300 35.82700 21.82000
H  -3.00500 36.54600 21.25700
H  -2.13600 32.81300 20.86900
H  -3.62700 31.94100 21.23700
H  -1.39000 31.56000 23.24500
H  -1.11600 31.04400 21.48400
H  -2.44700 30.40800 22.48000
H  -6.30800 29.89900 24.59900
H  -7.25800 29.97400 25.96800
H  -6.19800 28.73600 25.91000
H  -3.92600 30.30400 30.81500
H  -6.80100 31.99600 33.94000
H  -6.89500 30.24200 33.79200
H  -7.62900 31.17300 32.56700

