158

Mg -2.76200 16.88200 27.01200
C  -2.78200 14.88700 29.80500
C  -3.07400 19.63300 29.22500
C  -2.65300 19.03800 24.36200
C  -2.94700 14.18500 24.95000
N  -3.03500 17.23900 29.23700
C  -2.98200 16.21100 30.17300
C  -3.11800 16.76100 31.59500
C  -3.22000 18.33000 31.32600
C  -3.16100 18.41300 29.86200
C  -4.44100 19.02900 31.96500
C  -1.94200 16.23600 32.54800
C  -1.58600 17.17400 33.65400
H  -0.85700 16.47400 34.79000
N  -2.69600 19.02300 26.85000
C  -2.90500 19.93700 27.85500
C  -2.73900 21.27800 27.28800
C  -2.38500 21.12900 25.88500
C  -2.66200 19.71200 25.59500
C  -2.91200 22.58300 28.12800
C  -1.87900 22.16300 24.87500
O  -1.79500 21.94200 23.65400
C  -1.55500 23.56200 25.42800
N  -2.93100 16.69700 24.98000
C  -2.82900 17.68200 24.06400
C  -2.94000 17.09900 22.58900
C  -2.67300 15.52700 22.88000
C  -2.88400 15.42500 24.42800
C  -4.29900 17.41300 21.89000
C  -1.26100 15.13900 22.44900
C  -0.10500 16.09300 22.99500
N  -2.88500 14.92700 27.18900
C  -2.99700 13.94500 26.33200
C  -3.11100 12.63400 26.97400
C  -2.95700 12.97500 28.35900
C  -2.76500 14.37700 28.39500
C  -3.17400 11.21700 26.37400
C  -2.86400 12.39400 29.65300
O  -2.93600 11.24100 30.04200
C  -2.73400 13.62800 30.65800
C  -1.46800 13.42100 31.51700
O  -0.33400 13.56900 31.13400
O  -1.87900 12.82300 32.71900
C  -0.79900 12.70700 33.69300
H  -3.05900 20.44400 29.95600
H  -2.33900 19.58100 23.46900
H  -2.91100 13.27300 24.35100
H  -4.12300 16.47700 31.90600
H  -2.30400 18.88200 31.53600
H  -3.92400 19.86400 32.43800
H  -4.88500 18.39600 32.73400
H  -5.11000 19.36400 31.17300
H  -0.99200 16.00600 32.06600
H  -2.27700 15.35800 33.10000
H  -2.40800 17.71300 34.12500
H  -0.91500 17.98200 33.36500
H  -3.41000 22.29400 29.05400
H  -3.48000 23.38400 27.65500
H  -1.91900 22.87600 28.46800
H  -1.39200 24.24800 24.59700
H  -0.65600 23.35700 26.00900
H  -2.36800 23.97000 26.02800
H  -2.04300 17.44500 22.07700
H  -3.36000 15.02000 22.20200
H  -4.86600 18.18300 22.41300
H  -4.91600 16.51500 21.90100
H  -4.15500 17.67600 20.84200
H  -1.26800 15.11100 21.36000
H  -0.96900 14.14200 22.78200
H  0.44400 16.45400 22.12500
H  0.51500 15.47200 23.64000
H  -0.41500 17.00700 23.50100
H  -2.19600 11.13500 25.90100
H  -4.00700 11.08800 25.68400
H  -3.41100 10.53000 27.18700
H  -3.57600 13.46600 31.33000
H  -1.19000 13.21900 34.57200
H  0.14500 13.24900 33.63600
H  -0.53200 11.65600 33.80700
Mg 24.66700 1.23600 29.86500
C  26.89600 1.33400 32.58900
C  22.10800 1.63100 32.03600
C  22.77500 1.01500 27.20500
C  27.46500 0.74600 27.82100
N  24.55600 1.50600 32.06300
C  25.53700 1.49000 32.98800
C  24.99600 1.66200 34.39900
C  23.45500 1.58000 34.22500
C  23.30100 1.65400 32.68300
C  22.71600 0.33500 34.85500
C  25.36000 2.96200 35.11000
C  26.01200 2.84400 36.53400
H  25.57300 3.79200 37.58900
N  22.73100 1.41400 29.64000
C  21.81500 1.61300 30.64900
C  20.50000 1.71900 30.05000
C  20.68200 1.38700 28.66900
C  22.13600 1.22600 28.48200
C  19.17900 2.02900 30.80800
C  19.60200 1.32200 27.58300
O  19.80800 0.95000 26.45300
C  18.18200 1.68800 27.86000
N  25.12000 0.87000 27.73100
C  24.09400 0.89500 26.90400
C  24.57700 0.84000 25.49900
C  26.14800 0.91700 25.58500
C  26.29700 0.91400 27.10300
C  23.94300 -0.35700 24.62600
C  26.77600 2.18200 24.98800
C  26.58300 3.50400 25.80000
N  26.74300 1.00000 30.07600
C  27.72900 0.80300 29.19300
C  29.04100 0.64200 29.83500
C  28.74500 0.97600 31.14400
C  27.37500 1.09700 31.29100
C  30.38700 0.39500 29.18800
C  29.29800 1.11600 32.50100
O  30.49200 0.98100 32.90300
C  28.06600 1.28500 33.49000
C  27.93900 0.18600 34.49100
O  27.48500 -0.95200 34.37200
O  28.62200 0.51500 35.66100
C  28.73800 -0.41200 36.80200
H  21.17100 1.77600 32.57900
H  22.24300 1.20300 26.27100
H  28.30900 0.69900 27.13000
H  25.29300 0.78200 34.97000
H  22.82700 2.38200 34.61200
H  21.82200 0.57300 35.43300
H  23.39500 -0.06300 35.60900
H  22.51100 -0.43800 34.11500
H  24.52900 3.66600 35.13700
H  26.11400 3.38500 34.44500
H  27.06400 2.96300 36.27400
H  25.78000 1.83000 36.85900
H  18.59400 1.11300 30.72600
H  18.63900 2.80300 30.26200
H  19.24500 2.32000 31.85600
H  17.64600 1.63600 26.91300
H  18.24300 2.71800 28.21000
H  17.71300 0.94700 28.50700
H  24.26300 1.79100 25.07000
H  26.54500 0.03100 25.08900
H  23.23300 -0.90500 25.24600
H  24.65000 -1.17600 24.49200
H  23.58400 -0.08500 23.63400
H  26.31300 2.22500 24.00200
H  27.85000 2.12800 24.80900
H  25.59200 3.80900 25.46300
H  27.30900 4.21700 25.40800
H  26.58400 3.46000 26.88900
H  31.10300 0.60000 29.98300
H  30.52500 1.10700 28.37400
H  30.42500 -0.68200 29.02400
H  28.23900 2.15000 34.13000
H  29.63600 -0.26600 37.40300
H  28.69000 -1.48300 36.60500
H  27.87600 -0.19300 37.43300

