158

Mg 0.42200 44.20200 25.30800
C  2.66400 43.89900 27.93500
C  -2.04400 42.90800 27.34300
C  -1.72700 44.11300 22.68200
C  3.02700 44.92500 23.21300
N  0.37900 43.48900 27.48400
C  1.38000 43.52300 28.34600
C  0.85800 43.29600 29.82300
C  -0.68000 42.87700 29.57900
C  -0.80300 43.09700 28.03200
C  -1.06100 41.43000 30.01500
C  0.89800 44.58700 30.68500
C  1.46000 44.40100 32.09500
H  1.30500 43.03000 32.81700
N  -1.60400 43.68100 25.08600
C  -2.44100 43.15200 26.03100
C  -3.75800 42.89700 25.45600
C  -3.66700 43.32000 24.09000
C  -2.30500 43.75300 23.87800
C  -4.89100 42.44800 26.35200
C  -4.76600 43.30700 23.02400
O  -4.67300 43.76700 21.87200
C  -6.13100 42.67100 23.33700
N  0.62900 44.36600 23.20700
C  -0.46000 44.48200 22.36800
C  0.00900 44.83500 20.91300
C  1.53300 45.09500 21.09800
C  1.77500 44.82800 22.59800
C  -0.45300 43.79400 19.90100
C  2.06500 46.43100 20.54500
C  1.76900 47.77600 21.38300
N  2.48700 44.39800 25.51900
C  3.43500 44.67600 24.52900
C  4.78000 44.60000 25.15800
C  4.48100 44.54600 26.52300
C  3.09600 44.23800 26.64000
C  6.08300 44.75100 24.48600
C  5.04900 44.26800 27.74400
O  6.25700 44.13200 28.00500
C  3.88700 44.05700 28.77200
C  4.26500 42.83800 29.47200
O  3.96000 41.68100 29.10300
O  4.75100 43.08900 30.65200
C  5.24700 41.93100 31.45000
H  -2.75000 42.30100 27.91400
H  -2.42300 44.20800 21.84600
H  3.79100 45.19600 22.48200
H  1.29500 42.41700 30.29700
H  -1.43700 43.56400 29.95900
H  -1.44900 41.39700 31.03300
H  -0.12500 40.88400 30.13100
H  -1.78700 40.83500 29.46100
H  -0.10900 44.97300 30.84000
H  1.57700 45.22800 30.12300
H  1.05100 45.26700 32.61700
H  2.53000 44.54700 31.94800
H  -5.02000 41.36600 26.32700
H  -5.84800 42.86200 26.03600
H  -4.83600 42.83300 27.37000
H  -6.06200 41.73300 23.88800
H  -6.73300 42.55600 22.43600
H  -6.58100 43.39600 24.01600
H  -0.30300 45.83100 20.59600
H  2.11600 44.35200 20.55400
H  0.29100 43.03900 19.64900
H  -0.70300 44.28400 18.96000
H  -1.38600 43.30000 20.17200
H  1.67900 46.65600 19.55100
H  3.14900 46.35200 20.47000
H  1.32200 47.57600 22.35700
H  1.04000 48.35300 20.81500
H  2.72000 48.30000 21.47600
H  6.87600 44.89300 25.22000
H  6.00800 45.51000 23.70800
H  6.21700 43.74200 24.09600
H  3.85600 44.84700 29.52200
H  5.93500 41.41200 30.78300
H  4.44500 41.30400 31.83700
H  5.78200 42.32100 32.31600
Mg -2.05800 34.46700 26.99900
C  -3.66500 32.67400 29.45900
C  -0.50300 36.39200 29.45100
C  -0.75000 36.49300 24.57200
C  -3.61200 32.57200 24.59200
N  -2.04400 34.43700 29.27900
C  -2.75900 33.61600 30.02300
C  -2.31200 33.72400 31.49400
C  -1.41900 35.01000 31.45400
C  -1.30500 35.30300 29.97600
C  -2.06600 36.05300 32.30200
C  -1.63100 32.49600 32.11300
C  -1.98700 32.10900 33.56900
H  -0.90200 32.31300 34.61700
N  -0.85000 36.24400 27.06800
C  -0.26400 36.85000 28.12800
C  0.51600 38.00000 27.68700
C  0.36900 38.08800 26.28700
C  -0.40000 36.86800 25.87800
C  1.23000 39.03000 28.62900
C  0.88700 39.11800 25.32500
O  0.42800 39.17400 24.20400
C  2.05100 39.90800 25.77000
N  -2.20900 34.59500 24.85600
C  -1.52700 35.41700 24.06800
C  -1.72100 35.05100 22.60000
C  -2.21600 33.61500 22.71500
C  -2.75400 33.58200 24.16400
C  -2.79600 35.98200 21.86500
C  -1.17700 32.43200 22.47300
C  0.32000 32.73400 22.51000
N  -3.30400 32.91100 26.92800
C  -3.96500 32.29600 25.92000
C  -4.88000 31.29700 26.42400
C  -4.72100 31.35000 27.76900
C  -3.88000 32.37300 28.04300
C  -5.73300 30.47900 25.54300
C  -5.12400 30.76500 29.04900
O  -5.90200 29.84400 29.22600
C  -4.41500 31.59400 30.20400
C  -5.50300 32.18600 31.00300
O  -6.20400 33.13600 30.71300
O  -5.60400 31.38900 32.15400
C  -6.42800 31.86700 33.16500
H  -0.07900 36.89000 30.32600
H  -0.32100 37.06800 23.74800
H  -4.03800 31.92200 23.82600
H  -3.24100 33.89200 32.03900
H  -0.49100 34.66700 31.91100
H  -3.02100 36.33600 31.85900
H  -1.41500 36.91400 32.45000
H  -2.22300 35.54500 33.25300
H  -0.55900 32.69200 32.12400
H  -1.92800 31.63300 31.51700
H  -2.05600 31.02400 33.49300
H  -2.99100 32.34200 33.92400
H  0.95200 40.04600 28.34800
H  2.31600 38.95500 28.68300
H  0.91800 38.78800 29.64500
H  1.74300 40.70100 26.45200
H  2.59300 40.28800 24.90500
H  2.57800 39.18700 26.39600
H  -0.81600 35.11100 21.99500
H  -3.07800 33.50700 22.05700
H  -2.78900 36.85600 22.51600
H  -3.76700 35.48800 21.86400
H  -2.40400 36.22400 20.87600
H  -1.36000 32.04100 21.47200
H  -1.20500 31.55300 23.11600
H  0.87500 32.81800 21.57600
H  0.82700 31.90600 23.00600
H  0.41500 33.57600 23.19500
H  -5.86500 31.00700 24.59900
H  -6.62900 30.37400 26.15500
H  -5.30100 29.48700 25.41400
H  -3.83600 30.90900 30.82400
H  -6.07400 32.78000 33.64200
H  -6.33400 31.14900 33.98000
H  -7.44900 32.06000 32.83500

