158

Mg 47.92700 34.32200 27.06700
C  46.21700 33.07100 29.93200
C  48.26100 37.31100 28.75400
C  49.04100 35.72400 24.20900
C  47.04000 31.51500 25.33300
N  47.35000 34.98100 29.11200
C  46.67200 34.31700 30.10600
C  46.92500 35.00100 31.47400
C  47.15100 36.51200 30.99600
C  47.59600 36.34200 29.51900
C  45.97900 37.55200 31.00600
C  48.11100 34.43100 32.34400
C  47.73900 34.38500 33.84900
H  46.56100 35.22100 34.37000
N  48.61100 36.26100 26.59600
C  48.70500 37.35200 27.40200
C  49.32900 38.43100 26.77300
C  49.60100 38.00200 25.40100
C  49.10200 36.55900 25.36300
C  49.71000 39.80000 27.39400
C  50.37800 38.71100 24.23900
O  50.64000 38.13700 23.15300
C  50.85800 40.03600 24.40100
N  47.96800 33.79600 25.05700
C  48.55200 34.50600 24.10200
C  48.45300 33.73600 22.73700
C  47.90600 32.29300 23.09100
C  47.68600 32.52800 24.60700
C  47.52000 34.51100 21.74500
C  48.87000 31.02900 22.92400
C  50.40600 31.26700 23.06700
N  46.93500 32.59200 27.50500
C  46.62100 31.54000 26.64000
C  45.71400 30.63400 27.39700
C  45.52500 31.19700 28.65300
C  46.27100 32.39500 28.64300
C  45.30100 29.34300 26.82500
C  44.85800 31.06300 29.93800
O  44.06600 30.19300 30.35700
C  45.31200 32.25200 30.81800
C  45.97000 31.72700 32.05900
O  47.07500 31.28400 32.13500
O  45.04000 31.56200 33.02400
C  45.33700 30.51800 34.01200
H  48.42200 38.21700 29.34200
H  49.37100 36.27400 23.32600
H  46.72200 30.65700 24.73700
H  45.98700 34.91500 32.02100
H  47.92900 36.98900 31.59200
H  46.09900 38.20600 30.14200
H  45.99800 38.13500 31.92700
H  44.99700 37.08500 30.93800
H  48.97500 35.08000 32.20100
H  48.42900 33.49900 31.87700
H  48.58000 34.84400 34.36800
H  47.53000 33.41200 34.29400
H  49.36600 40.64800 26.80200
H  50.79600 39.71400 27.36200
H  49.30400 39.86300 28.40400
H  49.97000 40.65200 24.53900
H  51.42500 40.20000 23.48400
H  51.52200 39.99400 25.26500
H  49.45200 33.66300 22.30800
H  46.93100 32.15400 22.62300
H  46.49000 34.20900 21.92900
H  47.89500 34.21000 20.76600
H  47.76500 35.53200 22.03700
H  48.72700 30.62900 21.92100
H  48.55600 30.21500 23.57700
H  50.84200 31.21800 22.06900
H  50.86500 30.47800 23.66300
H  50.47000 32.22400 23.58400
H  44.21400 29.41500 26.87500
H  45.36100 28.53300 27.55100
H  45.66000 29.06900 25.83300
H  44.60600 32.93000 31.29800
H  45.34900 29.55200 33.50900
H  44.44100 30.62400 34.62400
H  46.30800 30.80100 34.41900
Mg 6.69400 54.61100 40.74900
C  5.83900 51.14400 40.57100
C  9.82900 53.80300 40.00100
C  7.18700 57.82100 39.93600
C  3.19100 55.27600 40.83700
N  7.65300 52.64800 40.21000
C  7.22300 51.38900 40.22700
C  8.27800 50.36200 39.84500
C  9.56400 51.16100 40.19100
C  9.01600 52.65700 40.12800
C  10.21400 50.74200 41.57700
C  8.19700 49.81100 38.34000
C  7.38600 50.68700 37.27200
H  6.78400 50.02900 36.02800
N  8.34700 55.76900 40.27200
C  9.60400 55.21200 39.95000
C  10.49500 56.26600 39.67200
C  9.75300 57.49200 39.81500
C  8.38100 57.04100 40.00900
C  11.91500 55.98700 39.35900
C  10.37500 58.86500 39.68000
O  11.53900 58.98500 39.42000
C  9.54600 60.09000 39.73700
N  5.35900 56.35700 40.44300
C  5.85000 57.53800 40.08700
C  4.74500 58.54800 39.74000
C  3.46600 57.80200 40.33900
C  4.01500 56.35500 40.54300
C  5.03500 60.00400 40.24600
C  2.14800 57.83200 39.48300
C  0.86500 58.30100 40.21200
N  4.84900 53.48300 40.83600
C  3.51700 53.90300 41.02200
C  2.68100 52.71500 41.18800
C  3.52400 51.68400 41.05000
C  4.86700 52.17700 40.82700
C  1.20000 52.74900 41.41700
C  3.58400 50.25900 41.06700
O  2.71900 49.41400 41.22700
C  5.10300 49.86800 40.81100
C  5.10100 48.97400 39.53100
O  4.82800 49.36900 38.41600
O  5.39900 47.65700 39.93200
C  5.11800 46.57900 38.98100
H  10.86200 53.45000 39.95600
H  7.36200 58.76600 39.41700
H  2.13100 55.47500 41.00900
H  8.14100 49.42800 40.39000
H  10.35800 50.91800 39.48500
H  10.38600 51.65200 42.15200
H  11.16400 50.28800 41.29500
H  9.65400 50.10200 42.26000
H  7.81000 48.79600 38.43100
H  9.22300 49.59600 38.03900
H  8.17700 51.36400 36.94800
H  6.59100 51.29400 37.70500
H  12.21500 56.31800 38.36400
H  12.06200 54.92000 39.52500
H  12.59900 56.33700 40.13200
H  8.89600 60.13200 38.86400
H  10.29900 60.87800 39.76800
H  8.98300 60.12900 40.66900
H  4.73500 58.63500 38.65400
H  3.29400 58.23300 41.32500
H  6.07600 60.08000 40.56000
H  4.57200 60.44900 41.12700
H  4.92700 60.73500 39.44600
H  2.00000 56.91700 38.91000
H  2.38900 58.55500 38.70300
H  0.41000 59.15100 39.70400
H  1.11900 58.71000 41.19000
H  0.17700 57.47500 40.39200
H  0.65100 52.02700 40.81200
H  0.89000 53.78400 41.27500
H  0.97400 52.70600 42.48200
H  5.38100 49.26200 41.67400
H  4.94900 45.57600 39.37400
H  5.84700 46.50700 38.17400
H  4.21200 46.82700 38.42800

