158

Mg 25.46800 51.18600 27.06100
C  23.34200 52.23000 29.73500
C  27.79900 50.46500 29.44100
C  27.63600 50.90300 24.58000
C  23.11800 52.41700 24.82100
N  25.66900 51.57800 29.32400
C  24.62900 51.75900 30.18500
C  24.96200 51.44600 31.65900
C  26.53800 51.18600 31.54300
C  26.76100 51.15800 30.03900
C  27.46900 52.13700 32.36700
C  24.06400 50.30800 32.22200
C  23.49700 50.58400 33.64000
H  24.40600 51.27200 34.69800
N  27.32400 50.46700 26.96600
C  28.11300 50.25100 28.04700
C  29.39300 49.69500 27.59400
C  29.38500 49.76200 26.20400
C  28.05900 50.37600 25.84400
C  30.50500 49.20500 28.57700
C  30.60600 49.54500 25.23000
O  30.51700 49.72900 24.03500
C  31.89800 48.88100 25.68800
N  25.39700 51.76600 24.88300
C  26.49700 51.59200 24.14100
C  26.23000 52.13100 22.71000
C  24.63900 52.10300 22.72300
C  24.39200 52.05800 24.26200
C  26.87600 53.41600 22.29400
C  23.85100 51.00300 21.89900
C  22.78400 51.37000 20.94500
N  23.67300 52.25300 27.23400
C  22.80000 52.60900 26.21300
C  21.53400 53.01200 26.79800
C  21.74100 52.88700 28.17200
C  23.03000 52.40300 28.38900
C  20.37700 53.30600 26.01100
C  20.98200 52.89800 29.41500
O  19.85900 53.16500 29.57500
C  22.06300 52.54800 30.51500
C  22.25700 53.67800 31.42400
O  23.06200 54.61400 31.23000
O  21.50900 53.60200 32.57600
C  21.93900 54.64600 33.59700
H  28.47800 50.11500 30.22100
H  28.33400 50.64100 23.78300
H  22.36000 52.74100 24.10400
H  24.78700 52.30100 32.31100
H  26.73700 50.14700 31.80200
H  28.26600 52.51300 31.72600
H  27.96700 51.67200 33.21700
H  26.91100 53.05000 32.57600
H  24.63500 49.38300 32.13900
H  23.23300 50.02800 31.57500
H  23.18900 49.60100 33.99500
H  22.70600 51.33100 33.57100
H  30.97000 48.25600 28.30900
H  30.38800 49.32000 29.65500
H  31.26200 49.94900 28.33200
H  31.66000 47.92100 26.14500
H  32.33600 49.54600 26.43200
H  32.59700 48.71200 24.86900
H  26.54200 51.32100 22.05100
H  24.38800 53.11500 22.40600
H  27.47300 53.18900 21.41100
H  27.44800 53.72700 23.16800
H  26.19300 54.10400 21.79600
H  23.38900 50.31500 22.60700
H  24.50900 50.36500 21.30800
H  23.08200 50.95900 19.98000
H  22.82100 52.45100 20.80400
H  21.73900 51.18600 21.19100
H  19.58000 52.57400 26.14000
H  20.64100 53.20000 24.95900
H  20.10200 54.34400 26.19800
H  21.60500 51.68000 30.99000
H  21.93000 55.68300 33.26300
H  22.93000 54.38800 33.97200
H  21.29300 54.51300 34.46500
Mg -0.39500 44.07800 24.99500
C  1.72000 43.23200 27.76700
C  -3.00900 42.86800 26.91200
C  -2.35500 44.06400 22.19100
C  2.45600 44.67400 23.10600
N  -0.54900 43.03800 27.14700
C  0.36700 43.02600 28.13900
C  -0.15000 42.41800 29.45200
C  -1.69800 42.14200 29.05200
C  -1.79100 42.77600 27.55400
C  -2.17000 40.67800 29.08000
C  -0.06700 43.44000 30.65200
C  0.09400 42.98100 32.06400
H  -0.54400 41.65100 32.47700
N  -2.46800 43.85800 24.59900
C  -3.32600 43.37000 25.57300
C  -4.69000 43.45400 25.03700
C  -4.53400 43.69600 23.57700
C  -3.08100 43.82400 23.40700
C  -5.88300 43.12100 25.82400
C  -5.62200 43.81700 22.46200
O  -5.30400 44.01800 21.30900
C  -7.04500 43.84400 22.94800
N  -0.00200 44.49800 23.00600
C  -0.96600 44.39300 22.01300
C  -0.32500 44.47300 20.61400
C  1.08200 45.02600 20.93000
C  1.19900 44.73500 22.39800
C  -0.33800 43.18500 19.87200
C  1.33600 46.51400 20.68200
C  0.63800 47.52900 21.65400
N  1.66100 44.04500 25.34900
C  2.67300 44.36600 24.45700
C  3.87400 44.24700 25.14700
C  3.55800 43.85000 26.41600
C  2.20500 43.65300 26.54300
C  5.17800 44.51000 24.74200
C  4.12000 43.55200 27.72700
O  5.29100 43.46600 28.05300
C  2.94600 43.17900 28.63100
C  3.19400 41.88600 29.24100
O  3.29700 40.87600 28.57700
O  3.52100 41.90400 30.59700
C  3.94600 40.68900 31.22100
H  -3.85900 42.48800 27.48300
H  -2.87600 44.10900 21.23200
H  3.30900 44.88200 22.45700
H  0.33200 41.46400 29.66800
H  -2.27000 42.67300 29.81300
H  -1.29400 40.04400 29.21200
H  -2.74600 40.40900 28.19500
H  -2.75200 40.75100 29.99800
H  -0.92800 44.10900 30.66000
H  0.89200 43.94200 30.52100
H  -0.08100 43.81600 32.74300
H  1.16800 42.83300 32.17500
H  -5.64800 43.17800 26.88700
H  -6.47100 42.24100 25.56100
H  -6.60900 43.93400 25.80100
H  -7.71900 44.01200 22.10800
H  -7.17000 44.61700 23.70600
H  -7.29900 42.90500 23.43900
H  -0.88800 45.22900 20.06600
H  1.96300 44.58800 20.46100
H  0.63800 42.73800 19.68300
H  -0.63500 43.26900 18.82600
H  -0.99600 42.42100 20.28500
H  1.18200 46.88200 19.66800
H  2.37400 46.74800 20.91900
H  0.08500 48.22700 21.02600
H  1.35200 47.99400 22.33400
H  -0.05800 47.04200 22.33800
H  5.54800 45.41400 25.22500
H  5.21500 44.80700 23.69300
H  5.93600 43.73100 24.83000
H  3.05300 43.88700 29.45300
H  4.17300 39.83400 30.58400
H  3.22700 40.39700 31.98700
H  4.87600 40.88900 31.75200

