158

Mg 7.10400 54.04300 41.11500
C  5.85000 50.67800 40.72900
C  9.97200 52.99900 39.81700
C  7.95200 57.32100 40.97800
C  3.82000 54.88700 42.08600
N  7.77300 52.06100 40.16500
C  7.13900 50.81200 40.16600
C  8.19800 49.75200 39.72800
C  9.58800 50.49000 39.82600
C  9.08600 51.94400 39.93300
C  10.40900 50.01800 41.06300
C  7.94600 49.20100 38.37600
C  7.45900 50.09800 37.22000
H  8.20200 50.18200 35.80700
N  8.82300 55.03700 40.54100
C  9.86800 54.39400 39.94600
C  10.86000 55.48800 39.62700
C  10.26500 56.72900 40.00700
C  8.93600 56.39300 40.52800
C  12.18400 55.13700 39.00100
C  10.84000 58.10600 39.80800
O  11.97900 58.23900 39.40000
C  10.18400 59.36200 40.02300
N  6.06000 55.84600 41.62300
C  6.68900 57.07900 41.51800
C  5.74300 58.16300 41.99900
C  4.42600 57.44700 42.45500
C  4.77200 55.95300 42.05200
C  6.40000 59.12100 42.99300
C  3.16500 58.06500 41.68800
C  2.08200 58.43000 42.69300
N  5.20200 53.02500 41.43500
C  4.01900 53.49000 41.88400
C  3.00500 52.47900 42.13600
C  3.81900 51.34600 41.79400
C  5.10900 51.69900 41.32500
C  1.51200 52.55400 42.45600
C  3.77300 49.93900 41.68400
O  2.91800 49.18400 41.94700
C  5.02200 49.45400 41.00600
C  4.70100 48.61600 39.79700
O  4.13400 49.00700 38.80700
O  5.04700 47.34000 40.04200
C  4.76000 46.30300 39.05300
H  10.95800 52.64700 39.50900
H  8.15800 58.39300 41.01400
H  2.87900 55.15000 42.57400
H  8.23800 48.95700 40.47300
H  10.24500 50.37600 38.96300
H  10.59600 50.89200 41.68700
H  11.40500 49.70600 40.74800
H  9.95700 49.23400 41.67000
H  7.28500 48.33700 38.45200
H  8.91000 48.81700 38.04200
H  7.29600 51.10800 37.59500
H  6.51100 49.65700 36.91300
H  12.18900 54.65100 38.02600
H  12.56500 54.39300 39.70000
H  12.86400 55.98400 39.08900
H  10.87100 60.14800 39.70700
H  10.07100 59.57800 41.08500
H  9.21700 59.37500 39.52200
H  5.48000 58.75800 41.12500
H  4.40000 57.47100 43.54400
H  7.45200 58.84100 43.05400
H  5.96500 59.24100 43.98500
H  6.38000 60.07700 42.47000
H  2.81600 57.39200 40.90500
H  3.44100 59.01600 41.23300
H  2.23700 57.99600 43.68000
H  1.11200 57.99200 42.45800
H  1.98900 59.51600 42.66500
H  0.99100 51.60000 42.53700
H  0.99900 53.18800 41.73300
H  1.39900 53.07900 43.40400
H  5.50500 48.83400 41.76200
H  5.05700 46.72500 38.09300
H  3.68900 46.09900 39.04400
H  5.30500 45.43400 39.42000
Mg -5.84000 24.80800 25.98400
C  -4.49900 26.33300 28.64300
C  -8.00000 23.07500 28.26700
C  -7.10400 23.07100 23.47900
C  -3.56600 26.44900 23.86300
N  -5.99300 24.41900 28.18100
C  -5.48000 25.38700 29.02200
C  -5.97700 25.17400 30.47100
C  -6.96800 23.99100 30.33400
C  -7.03600 23.84000 28.82600
C  -6.60800 22.64700 30.91700
C  -6.65500 26.43900 31.10500
C  -6.65300 26.52700 32.59500
H  -5.98700 25.47800 33.49400
N  -7.36500 23.25400 25.88600
C  -8.12300 22.75000 26.91000
C  -9.20300 21.97400 26.33000
C  -8.98600 21.91500 24.93500
C  -7.80800 22.77400 24.71300
C  -10.37200 21.48400 27.09500
C  -9.72700 21.16100 23.93000
O  -9.45600 21.16000 22.74800
C  -10.74100 20.08700 24.43300
N  -5.28200 24.66200 23.97900
C  -5.93900 23.83900 23.14500
C  -5.38900 23.88600 21.63200
C  -4.51600 25.20300 21.73900
C  -4.45700 25.51700 23.27200
C  -4.63200 22.56900 21.21100
C  -5.07700 26.46600 21.05900
C  -4.50100 26.96900 19.67000
N  -4.21700 26.05200 26.12600
C  -3.43400 26.72500 25.25000
C  -2.54600 27.72500 25.95500
C  -2.93800 27.47400 27.31900
C  -3.91700 26.50800 27.33700
C  -1.61700 28.72800 25.31600
C  -2.76600 28.04200 28.56800
O  -2.05400 28.93100 28.89000
C  -3.71200 27.28100 29.48900
C  -2.83300 26.55000 30.39100
O  -2.60700 25.38300 30.47000
O  -2.47100 27.42100 31.39200
C  -1.75200 26.97900 32.59900
H  -8.59800 22.53100 29.00100
H  -7.45200 22.43900 22.65900
H  -2.89600 27.00900 23.20800
H  -5.19100 24.84400 31.15000
H  -7.94600 24.19900 30.76600
H  -7.20200 22.53900 31.82400
H  -5.55500 22.56700 31.18700
H  -6.69800 21.71800 30.35400
H  -7.71200 26.53900 30.85900
H  -6.31300 27.35500 30.62400
H  -7.71500 26.60500 32.82900
H  -6.20000 27.49900 32.79300
H  -10.31200 21.88200 28.10800
H  -10.28800 20.39800 27.05800
H  -11.28200 21.94800 26.71600
H  -11.53100 20.66400 24.91400
H  -10.18000 19.37000 25.03300
H  -11.17200 19.51000 23.61500
H  -6.19900 24.00300 20.91200
H  -3.53400 25.01000 21.30700
H  -3.57900 22.78200 21.02500
H  -5.11400 22.07600 20.36700
H  -4.59200 21.84400 22.02400
H  -5.00000 27.30100 21.75600
H  -6.14800 26.28800 20.96400
H  -4.08000 27.95800 19.84800
H  -5.27000 26.93700 18.89800
H  -3.67300 26.35900 19.30800
H  -1.91700 29.75300 25.53700
H  -1.64600 28.80800 24.22900
H  -0.56400 28.50000 25.48100
H  -4.37600 27.98700 29.98700
H  -1.11300 26.11700 32.40400
H  -2.34000 26.74000 33.48500
H  -1.05600 27.78600 32.82500

