158

Mg -0.38100 7.52300 26.11700
C  0.35500 9.49000 28.82100
C  -0.27300 4.65200 28.32300
C  -0.91600 5.41400 23.52500
C  -0.21500 10.21600 24.02900
N  0.00700 7.11300 28.32400
C  0.24700 8.13700 29.22400
C  0.11100 7.53500 30.65600
C  0.14500 5.97200 30.46200
C  -0.07800 5.88600 28.97200
C  1.48600 5.36600 30.89200
C  -1.09700 8.02500 31.55200
C  -0.95900 8.33900 33.03800
H  0.35800 7.88800 33.68600
N  -0.50900 5.28800 25.92300
C  -0.45200 4.37000 26.96500
C  -0.55400 3.02300 26.40400
C  -0.76900 3.17300 25.02600
C  -0.74600 4.66300 24.77600
C  -0.73900 1.77200 27.18600
C  -0.95200 2.07100 23.94400
O  -1.10000 2.32200 22.80000
C  -0.89000 0.58200 24.25800
N  -0.44800 7.77700 24.04000
C  -0.75200 6.77800 23.17700
C  -0.84500 7.34000 21.67800
C  -0.84000 8.89600 21.91900
C  -0.54000 9.00100 23.43000
C  0.25300 6.87500 20.66100
C  -2.03800 9.69400 21.26300
C  -3.27500 9.69200 22.19700
N  0.05600 9.48600 26.33400
C  0.13800 10.45600 25.40900
C  0.51100 11.72400 26.00300
C  0.68200 11.40300 27.38700
C  0.32000 10.04200 27.51400
C  0.63700 13.02200 25.27800
C  0.98100 11.90300 28.74100
O  1.40700 12.97700 29.13500
C  0.58800 10.68000 29.70200
C  1.81400 10.56400 30.57200
O  2.91900 10.35800 30.14300
O  1.49700 10.68100 31.94700
C  2.65700 10.82600 32.82500
H  -0.30000 3.85200 29.06600
H  -1.13600 4.71200 22.71700
H  -0.19400 11.06600 23.34400
H  1.01800 7.78400 31.20700
H  -0.67000 5.55300 31.05300
H  1.97300 4.82000 30.08400
H  1.45800 4.81600 31.83300
H  2.25400 6.13300 30.99400
H  -1.85700 7.25500 31.42200
H  -1.43500 8.96800 31.12200
H  -1.84100 8.18100 33.66000
H  -0.87500 9.42500 33.03800
H  0.11100 1.10700 27.03800
H  -1.66500 1.24900 26.94700
H  -0.76900 1.76800 28.27600
H  -0.95400 -0.02800 23.35700
H  -1.74000 0.31700 24.88600
H  0.04500 0.39500 24.78600
H  -1.78300 7.12600 21.16700
H  0.03800 9.35300 21.46200
H  1.08200 6.31600 21.09600
H  0.66100 7.68800 20.05900
H  -0.27300 6.21500 19.97100
H  -2.24300 9.17200 20.32800
H  -1.71200 10.69500 20.98000
H  -3.36000 10.62400 22.75600
H  -3.22600 8.88100 22.92400
H  -4.16500 9.42600 21.62600
H  1.13800 12.89700 24.31800
H  1.22400 13.64200 25.95600
H  -0.31900 13.51200 25.09200
H  -0.31700 10.99000 30.22300
H  3.48300 10.14300 32.62200
H  2.37400 10.77200 33.87600
H  2.85700 11.88500 32.66500
Mg 29.06400 57.05900 41.48500
C  26.99500 54.56500 40.44100
C  31.81400 55.19500 40.26600
C  31.13100 59.91700 41.76200
C  26.44900 59.06400 42.33200
N  29.34100 55.04900 40.56500
C  28.31300 54.20200 40.21600
C  28.89600 52.98200 39.48800
C  30.47100 53.10400 39.69100
C  30.57600 54.51100 40.20100
C  31.08200 52.02600 40.59700
C  28.43100 52.79200 38.07500
C  28.80200 53.95200 37.05200
H  27.67800 54.69000 36.32900
N  31.16200 57.45000 41.14800
C  32.09800 56.49000 40.71700
C  33.40800 57.19700 40.69000
C  33.22700 58.49500 41.13800
C  31.75800 58.66100 41.40700
C  34.64800 56.54000 40.06200
C  34.42800 59.48400 41.41300
O  35.62500 59.25300 41.12800
C  34.17000 60.88500 42.03100
N  28.83800 59.25100 41.76900
C  29.78700 60.17600 42.01300
C  29.16600 61.49600 42.45300
C  27.58900 61.19900 42.45400
C  27.62300 59.68600 42.18800
C  29.65900 62.12900 43.76100
C  26.72400 61.96800 41.35400
C  25.78400 63.02200 42.02500
N  27.14500 56.90900 41.38500
C  26.18700 57.72900 41.91100
C  24.83600 57.11500 41.69600
C  25.13900 55.84100 41.15100
C  26.54000 55.76200 41.03600
C  23.51500 57.73500 42.06300
C  24.62500 54.59900 40.75800
O  23.47800 54.19000 40.78100
C  25.81100 53.67000 40.28000
C  25.76400 52.35200 41.07000
O  26.19600 52.06000 42.20100
O  25.26700 51.30500 40.27700
C  24.86100 50.07100 40.93100
H  32.69700 54.58400 40.06800
H  31.74900 60.81700 41.80300
H  25.56900 59.60400 42.68700
H  28.52000 52.17000 40.11100
H  31.00200 53.06100 38.74100
H  31.61700 52.42800 41.45700
H  31.72400 51.43300 39.94600
H  30.32700 51.37900 41.04400
H  27.36100 52.63000 38.20200
H  28.94100 51.85600 37.84300
H  29.51700 53.59200 36.31200
H  29.24000 54.68500 37.73000
H  34.85000 56.92800 39.06300
H  34.55300 55.45800 39.96700
H  35.51800 56.72900 40.69100
H  33.72000 61.59000 41.33200
H  35.18500 61.14100 42.33400
H  33.50000 60.66700 42.86300
H  29.52000 62.12500 41.63600
H  27.29100 61.36200 43.48900
H  28.94100 62.20200 44.57800
H  29.83700 63.16400 43.46900
H  30.59100 61.72800 44.16000
H  26.13100 61.29900 40.73100
H  27.44800 62.43300 40.68600
H  25.90700 63.00300 43.10800
H  24.76200 62.72000 41.79800
H  26.11200 64.00700 41.69200
H  22.71400 57.01400 41.89800
H  23.53000 58.61000 41.41400
H  23.43000 57.91500 43.13400
H  25.76700 53.47500 39.20800
H  24.26000 49.38700 40.33300
H  24.35200 50.11600 41.89300
H  25.69500 49.39100 41.10800

