158

Mg 47.77100 15.16300 28.36800
C  45.86500 15.26400 31.34200
C  49.93600 17.35300 29.82100
C  49.32600 15.30800 25.47900
C  45.16500 13.19700 26.87500
N  47.89300 16.19300 30.42100
C  47.07000 16.06300 31.48200
C  47.68100 16.73500 32.70300
C  48.89500 17.51000 32.11600
C  48.87400 17.06500 30.67100
C  48.82500 19.01500 32.34600
C  47.88700 15.83900 33.86100
C  47.14900 16.08000 35.23500
H  47.02500 17.49000 35.76500
N  49.35000 16.16600 27.72300
C  50.12200 17.06300 28.43800
C  51.29000 17.43500 27.65100
C  51.18400 16.79600 26.39700
C  49.92000 16.01900 26.50500
C  52.34100 18.36300 28.14500
C  51.99800 16.99600 25.16100
O  51.81900 16.36500 24.12500
C  53.22600 17.86400 25.25000
N  47.32400 14.31700 26.46400
C  48.12600 14.50700 25.41500
C  47.59700 13.95700 24.10500
C  46.32300 13.26600 24.57000
C  46.27500 13.58300 26.06300
C  47.36200 15.12200 22.97800
C  46.18300 11.67400 24.28600
C  46.87600 10.66900 25.23100
N  45.98000 14.37800 28.95200
C  45.00700 13.60800 28.22800
C  43.85600 13.31000 29.05300
C  44.22100 13.96400 30.26700
C  45.46600 14.56600 30.14000
C  42.66300 12.42400 28.69300
C  43.70800 14.16300 31.62200
O  42.65800 13.65700 32.08300
C  44.82400 14.96300 32.44400
C  44.02100 16.13900 32.94700
O  43.82800 17.17400 32.33900
O  43.55100 15.89700 34.24000
C  42.75800 16.98000 34.85100
H  50.64500 18.07400 30.23200
H  49.92000 15.27600 24.56400
H  44.29500 12.64200 26.51800
H  46.86600 17.39300 33.00700
H  49.75000 17.01700 32.57900
H  48.10900 19.24800 33.13400
H  48.56800 19.61100 31.47100
H  49.77700 19.43400 32.67400
H  48.93100 15.82800 34.17300
H  47.51500 14.89300 33.46500
H  47.72800 15.37000 35.82600
H  46.09700 15.81300 35.13200
H  52.07200 19.40400 27.96200
H  53.36700 18.16100 27.83700
H  52.45500 18.36300 29.22900
H  53.17100 18.85000 25.71000
H  53.39300 18.06000 24.19100
H  54.05800 17.34900 25.72900
H  48.39000 13.26800 23.81500
H  45.45400 13.68000 24.05800
H  46.49600 14.85900 22.37000
H  48.21200 15.04500 22.30000
H  47.36300 16.10400 23.45100
H  46.49400 11.54000 23.25000
H  45.14600 11.36800 24.42800
H  47.39200 11.11800 26.07900
H  47.63900 10.10800 24.69100
H  46.19200 9.90300 25.59600
H  42.99900 11.56300 28.11600
H  42.05500 13.07500 28.06400
H  42.06100 12.03500 29.51500
H  45.11800 14.51200 33.39200
H  41.74300 16.67500 35.10700
H  42.60100 17.90000 34.28800
H  43.25300 17.31000 35.76400
Mg 7.30000 53.73300 41.63100
C  6.88700 50.26400 41.36900
C  10.67600 53.28800 40.86600
C  7.42900 57.03200 41.27900
C  3.91400 53.90200 42.47500
N  8.61500 51.95700 41.02900
C  8.24600 50.61300 41.06000
C  9.38900 49.71400 40.72100
C  10.60200 50.66600 41.03000
C  9.99900 52.09000 40.99700
C  11.37800 50.40200 42.32900
C  9.48300 49.15300 39.25700
C  9.20200 50.07100 38.02100
H  8.03600 49.83100 37.06500
N  8.84400 54.99700 41.05300
C  10.11300 54.60500 40.72400
C  10.85700 55.82000 40.47000
C  9.99900 56.93400 40.44800
C  8.70000 56.37700 40.87700
C  12.30600 55.80400 40.00400
C  10.39900 58.37500 40.14300
O  11.56600 58.66400 39.98900
C  9.39000 59.51200 40.15400
N  5.91800 55.19700 41.78000
C  6.27300 56.53400 41.69500
C  5.05300 57.44300 42.18500
C  4.13400 56.39300 42.79000
C  4.66300 55.04300 42.31700
C  5.32500 58.77100 43.10500
C  2.69600 56.67900 42.54000
C  1.68800 56.34600 43.69400
N  5.74100 52.39900 42.00800
C  4.37700 52.59400 42.34400
C  3.72000 51.29900 42.57000
C  4.70900 50.33800 42.20700
C  5.88500 51.04900 41.87000
C  2.24000 51.17500 42.98700
C  4.94100 48.93100 42.26900
O  4.17100 48.03100 42.63400
C  6.37000 48.81400 41.47500
C  5.98400 48.18500 40.14300
O  5.77200 48.69700 39.02200
O  5.96500 46.86200 40.27500
C  5.58100 46.14500 39.03500
H  11.76100 53.17100 40.86600
H  7.48800 58.11800 41.17300
H  2.93700 53.81700 42.95500
H  9.32000 48.94400 41.49000
H  11.30300 50.62600 40.19600
H  11.34300 51.25000 43.01300
H  12.38600 50.01600 42.17600
H  10.88500 49.50900 42.71200
H  8.71800 48.39500 39.08900
H  10.44100 48.63900 39.16800
H  10.13000 49.97500 37.45700
H  9.25600 51.10200 38.37200
H  12.78400 54.83800 39.84100
H  12.87200 56.13000 40.87700
H  12.53100 56.49700 39.19300
H  8.70200 59.44800 39.31200
H  9.93300 60.43500 39.95000
H  8.81600 59.60900 41.07500
H  4.64700 57.88600 41.27600
H  4.24700 56.41700 43.87400
H  6.39400 58.98000 43.14800
H  4.95300 58.52900 44.10100
H  4.65100 59.57000 42.79400
H  2.40400 56.16500 41.62500
H  2.57300 57.70100 42.18200
H  1.44100 57.29900 44.16200
H  2.12200 55.76700 44.50900
H  0.86100 55.83200 43.20400
H  1.67000 51.55900 42.14100
H  2.13500 51.89000 43.80300
H  1.82600 50.22600 43.32900
H  6.89100 48.20200 42.21100
H  6.37100 45.42200 38.83200
H  5.25600 46.74200 38.18400
H  4.72100 45.50300 39.22500

