158

Mg 8.97300 2.86800 27.65500
C  9.88100 1.12100 30.60600
C  7.51500 5.22800 29.69200
C  7.57500 4.12500 24.90500
C  10.16900 0.17000 25.85800
N  8.89100 3.19800 29.89200
C  9.32500 2.34800 30.90100
C  9.16400 3.09200 32.25700
C  8.32300 4.36800 31.97800
C  8.24100 4.25200 30.42600
C  7.00900 4.59900 32.69900
C  10.42600 3.20300 33.10900
C  10.39600 4.29300 34.28500
H  11.21400 3.92800 35.50200
N  7.65700 4.45300 27.31400
C  7.24000 5.36400 28.28600
C  6.52300 6.37000 27.59600
C  6.42900 6.08200 26.20300
C  7.19500 4.81300 26.07200
C  6.01600 7.49800 28.39700
C  5.80000 6.86700 25.10100
O  5.87900 6.60700 23.90500
C  4.84700 7.96600 25.47400
N  8.61000 2.05700 25.68700
C  8.29400 2.87800 24.72200
C  8.51500 2.32700 23.28400
C  9.55100 1.24400 23.63600
C  9.43700 1.13400 25.18200
C  7.21300 1.81500 22.66100
C  11.02300 1.57200 23.20500
C  11.79900 0.46000 22.44100
N  9.90000 1.07300 28.07300
C  10.38800 0.10900 27.24800
C  11.05400 -0.93300 28.05800
C  10.91800 -0.55300 29.38600
C  10.12800 0.65700 29.35400
C  11.76100 -2.05200 27.60100
C  11.26900 -0.82600 30.72900
O  12.04800 -1.67200 31.18400
C  10.66200 0.22600 31.57800
C  9.88900 -0.26200 32.72300
O  8.70900 -0.42400 32.68300
O  10.77000 -0.51300 33.74800
C  10.11400 -1.00600 34.94500
H  7.17900 6.05100 30.32500
H  7.23500 4.64900 24.01000
H  10.68100 -0.51600 25.18000
H  8.64200 2.32100 32.82400
H  8.96100 5.24200 32.10700
H  7.16600 4.30100 33.73500
H  6.26100 4.04000 32.13600
H  6.73900 5.65100 32.78600
H  11.15100 3.67000 32.44200
H  10.63000 2.18900 33.45400
H  9.37100 4.54900 34.55100
H  10.92900 5.13600 33.84700
H  6.13600 8.47300 27.92400
H  6.43100 7.64000 29.39500
H  4.93700 7.38400 28.50900
H  5.40200 8.81500 25.87200
H  4.24600 7.60500 26.30900
H  4.10000 8.19000 24.71300
H  8.95500 3.16200 22.73900
H  9.32100 0.27000 23.20400
H  7.27700 0.72700 22.64700
H  7.17800 2.16000 21.62700
H  6.30700 2.19500 23.13200
H  11.59300 2.08600 23.97900
H  10.99600 2.37200 22.46500
H  11.53600 0.69500 21.41000
H  11.42800 -0.54100 22.66000
H  12.85200 0.61400 22.67600
H  12.61100 -1.58700 27.10300
H  11.27000 -2.77500 26.95000
H  11.90400 -2.63200 28.51300
H  11.54900 0.78900 31.87000
H  10.55900 -1.95200 35.25300
H  9.02700 -1.04700 35.00600
H  10.42100 -0.23600 35.65300
Mg 47.01500 34.36100 27.23200
C  45.58100 32.55600 29.84500
C  47.11500 37.14200 29.23000
C  47.93700 36.05600 24.55900
C  46.39400 31.52600 25.15900
N  46.39200 34.80500 29.27800
C  45.94300 33.84300 30.20500
C  46.10500 34.41200 31.67200
C  46.30800 35.90500 31.40100
C  46.58500 36.02500 29.87700
C  45.11400 36.88300 31.74600
C  47.26500 33.68300 32.43500
C  47.00900 33.26000 33.85800
H  47.67800 34.14900 34.93800
N  47.44300 36.30300 26.95400
C  47.51900 37.31000 27.86700
C  48.06200 38.54700 27.27700
C  48.40200 38.18900 25.92200
C  47.92200 36.78100 25.73500
C  48.14700 39.77200 28.12200
C  49.20300 38.99200 24.91900
O  49.65700 38.52200 23.87900
C  49.68900 40.35100 25.38400
N  46.96400 33.87400 25.11100
C  47.53700 34.71900 24.28100
C  47.64000 34.17900 22.85100
C  47.36100 32.69200 23.07900
C  46.85200 32.64300 24.48600
C  46.64800 34.78000 21.89800
C  48.66900 31.70600 22.95100
C  50.06400 32.32300 23.18300
N  46.33200 32.34000 27.45900
C  46.04000 31.40100 26.51100
C  45.48400 30.26500 27.10800
C  45.22500 30.67900 28.45200
C  45.74300 31.98000 28.54800
C  45.12900 28.99600 26.41400
C  44.70900 30.21700 29.74400
O  44.29200 29.13000 30.09400
C  44.84800 31.48100 30.61400
C  45.32300 31.05200 31.96000
O  46.43600 30.59200 32.16800
O  44.35700 31.28700 32.89700
C  44.57000 30.72800 34.24700
H  47.20000 38.02100 29.87200
H  48.34200 36.49500 23.64500
H  46.24100 30.68800 24.47500
H  45.17100 34.12600 32.15700
H  47.16100 36.24400 31.98900
H  44.22000 36.32700 32.02600
H  44.96100 37.49300 30.85500
H  45.30600 37.60200 32.54200
H  48.15500 34.31200 32.44200
H  47.54800 32.73800 31.97100
H  47.43300 32.25800 33.92000
H  45.94400 33.25100 34.09000
H  48.20100 40.65500 27.48400
H  48.86700 39.80900 28.93900
H  47.20900 39.96600 28.64200
H  50.29800 40.91100 24.67400
H  50.12000 40.34600 26.38500
H  48.78500 40.94100 25.53800
H  48.62600 34.37200 22.42900
H  46.57500 32.23500 22.47700
H  47.15400 35.20400 21.03000
H  46.18800 35.57800 22.48100
H  45.85700 34.07800 21.63500
H  48.66700 31.25600 21.95800
H  48.57900 30.86000 23.63300
H  50.28400 32.72200 22.19300
H  50.72300 31.50900 23.48300
H  50.01400 33.09000 23.95500
H  44.63000 28.26700 27.05400
H  46.09900 28.56800 26.16300
H  44.62900 29.20500 25.46800
H  43.80200 31.74600 30.76600
H  45.15600 29.81100 34.19100
H  43.57100 30.58900 34.66200
H  45.19500 31.37700 34.85900

