158

Mg 1.02500 7.51400 26.13000
C  1.81400 9.78000 28.74300
C  1.40100 4.99700 28.32000
C  0.78600 5.58500 23.51900
C  1.51900 10.31500 23.92700
N  1.54400 7.47700 28.30900
C  1.68400 8.47800 29.20700
C  1.72500 7.92600 30.65800
C  1.94700 6.44100 30.40700
C  1.53600 6.28600 28.92500
C  3.36500 5.98300 30.71900
C  0.32800 8.20400 31.37100
C  0.50200 8.68000 32.84500
H  1.70400 8.04100 33.64100
N  0.94000 5.53200 25.94900
C  1.08900 4.66500 26.96900
C  0.77400 3.37200 26.51000
C  0.67300 3.43000 25.13000
C  0.76300 4.87900 24.74900
C  0.73100 2.19900 27.42500
C  0.43300 2.31500 24.05300
O  0.26900 2.53900 22.87100
C  0.48600 0.90100 24.43600
N  1.27900 7.87800 24.03700
C  0.90300 6.88500 23.17300
C  0.85300 7.40600 21.68900
C  1.17200 8.95800 21.80500
C  1.31900 9.06000 23.36400
C  1.90100 6.58500 20.81000
C  0.04900 9.99200 21.23100
C  0.51000 11.29600 20.71300
N  1.49200 9.62500 26.22800
C  1.54600 10.61700 25.27200
C  1.69400 11.91200 25.88900
C  1.73800 11.64200 27.25700
C  1.65800 10.21600 27.40000
C  1.68500 13.30000 25.19300
C  1.89800 12.22600 28.56200
O  2.08300 13.33400 28.93700
C  1.90800 11.04800 29.55900
C  2.99800 11.12200 30.49400
O  4.13800 10.73500 30.25800
O  2.57600 11.65300 31.67100
C  3.54400 11.68600 32.77700
H  1.42500 4.15000 29.00900
H  0.65900 4.90300 22.67600
H  1.67400 11.24600 23.37900
H  2.50700 8.44100 31.21600
H  1.23600 5.94100 31.06500
H  3.91000 6.90200 30.93600
H  3.78100 5.46700 29.85400
H  3.39900 5.28900 31.55800
H  -0.31400 7.32600 31.29400
H  -0.08500 9.04300 30.81100
H  -0.41900 8.47200 33.39000
H  0.61900 9.76400 32.84500
H  -0.12200 1.64100 27.03800
H  0.50700 2.44500 28.46300
H  1.71500 1.73100 27.40300
H  0.26500 0.35600 23.51800
H  -0.23700 0.57400 25.18300
H  1.39600 0.71600 25.00700
H  -0.18900 7.25000 21.41200
H  2.11300 9.26900 21.35100
H  2.49700 5.90100 21.41300
H  2.45700 7.35900 20.28000
H  1.40700 5.93300 20.09000
H  -0.78500 10.16400 21.91200
H  -0.37800 9.44700 20.38900
H  1.39900 11.16000 20.09700
H  0.78700 12.02800 21.47100
H  -0.33800 11.74700 20.19800
H  1.36200 14.12000 25.83300
H  1.05400 13.25600 24.30600
H  2.70600 13.49100 24.86100
H  0.98700 11.21100 30.11900
H  4.41900 12.23700 32.43400
H  3.85300 10.66800 33.01500
H  3.15600 12.14900 33.68400
Mg 0.10900 43.44600 25.34700
C  2.41300 43.00000 27.90000
C  -2.43500 42.58400 27.46700
C  -2.08400 43.71000 22.83000
C  2.80400 43.65500 23.09800
N  0.03400 42.83900 27.48000
C  1.05400 42.86800 28.37000
C  0.47100 42.78200 29.84800
C  -0.96000 42.22400 29.54900
C  -1.16500 42.55200 28.06800
C  -1.21000 40.69100 29.96500
C  0.56100 44.18600 30.52900
C  0.50000 44.13000 32.09900
H  0.39000 42.76900 32.67800
N  -2.03100 43.31600 25.16100
C  -2.85700 42.93100 26.13800
C  -4.19500 42.95500 25.65700
C  -4.14700 43.42300 24.32500
C  -2.73000 43.55100 24.05900
C  -5.41000 42.71300 26.50500
C  -5.20500 43.93200 23.33200
O  -4.84500 44.48400 22.25700
C  -6.72500 43.81500 23.65300
N  0.35200 43.70000 23.26500
C  -0.74300 43.73200 22.43100
C  -0.26600 43.67200 20.94600
C  1.26500 43.98500 21.10400
C  1.51900 43.73800 22.56900
C  -0.57700 42.28800 20.24200
C  1.68300 45.33600 20.54700
C  1.09800 46.56200 21.13800
N  2.26000 43.27400 25.37500
C  3.18100 43.39500 24.41800
C  4.59100 43.37100 25.03700
C  4.27300 43.13100 26.37700
C  2.87300 43.09900 26.56200
C  5.87400 43.54600 24.34200
C  4.91500 42.92300 27.69700
O  6.06900 42.92700 28.04400
C  3.70400 42.81300 28.76000
C  3.79100 41.57000 29.50000
O  3.36800 40.51400 29.05200
O  4.36000 41.74700 30.77000
C  4.29200 40.61300 31.68600
H  -3.29100 42.34700 28.10200
H  -2.72200 43.66300 21.94500
H  3.57700 43.85400 22.35400
H  1.12700 42.06700 30.34400
H  -1.63900 42.79400 30.18400
H  -1.11500 39.87900 29.24500
H  -2.07500 40.71000 30.62700
H  -0.36900 40.45300 30.61600
H  -0.30500 44.74300 30.17300
H  1.50900 44.64200 30.24300
H  -0.31800 44.73900 32.48400
H  1.38500 44.63800 32.48400
H  -6.20900 42.15200 26.02000
H  -5.83900 43.68200 26.76000
H  -5.12300 42.12100 27.37300
H  -7.39000 44.23700 22.90100
H  -6.96200 44.30400 24.59800
H  -7.01500 42.77500 23.80800
H  -0.74600 44.56900 20.55500
H  1.89000 43.22100 20.64100
H  -0.82200 41.53000 20.98600
H  0.28300 41.90800 19.69100
H  -1.48600 42.24000 19.64200
H  1.22600 45.40400 19.56000
H  2.77200 45.39400 20.54200
H  0.75900 47.20000 20.32200
H  1.90100 47.10300 21.63900
H  0.21300 46.36400 21.74300
H  5.90400 44.38200 23.64300
H  6.27900 42.63600 23.89900
H  6.60500 43.89500 25.07100
H  3.82100 43.59100 29.51400
H  5.16200 40.71200 32.33500
H  4.34200 39.66000 31.16000
H  3.45400 40.82600 32.35100

