158

Mg -0.00200 7.91900 26.83800
C  1.07200 9.91800 29.47500
C  -0.16100 5.24100 29.03700
C  -0.55700 6.00400 24.14700
C  0.31400 10.72100 24.74800
N  0.50600 7.64500 28.91100
C  0.84300 8.57900 29.89200
C  0.78700 8.05200 31.38600
C  0.34500 6.61400 31.13500
C  0.26000 6.46900 29.60900
C  1.32000 5.52600 31.78800
C  -0.08000 8.80900 32.37300
C  0.38500 8.73900 33.86200
H  -0.44100 8.02400 34.88900
N  -0.23300 5.90400 26.64100
C  -0.31700 5.00800 27.64400
C  -0.71700 3.73200 26.98600
C  -0.67000 3.86700 25.57600
C  -0.45500 5.33800 25.41200
C  -1.00300 2.56100 27.83900
C  -0.96700 2.84400 24.43900
O  -0.99300 3.02200 23.23600
C  -1.15500 1.36900 24.84400
N  -0.02900 8.28700 24.77100
C  -0.33600 7.33400 23.84400
C  -0.56900 7.93200 22.46900
C  -0.61000 9.47700 22.76700
C  -0.10300 9.51900 24.15700
C  0.45500 7.42600 21.45800
C  -2.05000 10.09900 22.76600
C  -2.72600 10.34700 21.36900
N  0.43700 9.96000 27.01200
C  0.62900 10.95500 26.08200
C  1.09800 12.21700 26.71200
C  1.30700 11.76500 28.05100
C  0.96400 10.43700 28.15800
C  1.29900 13.45800 26.02200
C  1.77800 12.24700 29.30600
O  2.22500 13.31100 29.63600
C  1.52700 11.12000 30.27900
C  2.73900 10.82800 31.10100
O  3.76500 10.24400 30.76800
O  2.48300 11.39900 32.31300
C  3.67600 11.34900 33.27300
H  -0.31600 4.44700 29.77000
H  -0.77600 5.42700 23.24700
H  0.35000 11.59600 24.09600
H  1.80300 8.01400 31.78000
H  -0.68200 6.40500 31.43800
H  0.80800 4.62100 32.11500
H  1.69800 5.86400 32.75300
H  2.12000 5.08700 31.19100
H  -1.05800 8.35100 32.22400
H  -0.16600 9.86800 32.13000
H  0.67400 9.73500 34.20000
H  1.39100 8.34300 34.00100
H  -0.28700 1.75000 27.70900
H  -1.94200 2.13200 27.48900
H  -1.29800 2.71100 28.87700
H  -0.27600 1.11200 25.43500
H  -1.50100 0.52000 24.25400
H  -2.07400 1.52800 25.40900
H  -1.55300 7.63900 22.10300
H  0.03800 10.18600 22.25200
H  0.63400 8.05800 20.58900
H  0.12900 6.54600 20.90500
H  1.41200 7.15600 21.90400
H  -2.01800 11.10300 23.18900
H  -2.71000 9.60000 23.47600
H  -2.17000 9.89400 20.54800
H  -2.81100 11.43100 21.30300
H  -3.68900 9.83600 21.34900
H  0.48400 14.17700 26.10600
H  1.47600 13.46600 24.94600
H  2.14500 13.92700 26.52400
H  0.71200 11.51300 30.88700
H  4.62100 11.52000 32.75700
H  3.69400 10.37200 33.75500
H  3.60400 12.19300 33.95900
Mg 47.56000 25.35500 27.68500
C  48.70600 27.57700 30.32700
C  47.09200 23.03700 29.96700
C  46.84100 23.36800 25.12800
C  49.15700 27.62000 25.47600
N  47.84400 25.33000 29.87700
C  48.06000 26.40800 30.72200
C  47.82000 26.05100 32.16700
C  47.62600 24.43800 32.05800
C  47.56200 24.22900 30.54400
C  48.71200 23.68200 32.90200
C  46.61600 26.86100 32.66700
C  46.91600 27.49400 34.00200
H  45.78700 27.54500 35.01300
N  46.90300 23.52500 27.55300
C  46.80300 22.65700 28.60600
C  46.33900 21.34700 28.12200
C  46.12300 21.53600 26.73000
C  46.66800 22.87400 26.35600
C  45.97500 20.24000 29.03400
C  45.48600 20.62900 25.77500
O  45.35600 20.76200 24.56600
C  45.10300 19.25700 26.25100
N  47.86100 25.48900 25.59200
C  47.37700 24.60300 24.72700
C  47.60100 24.95300 23.25400
C  48.28900 26.36800 23.34900
C  48.41700 26.55500 24.92300
C  48.46400 23.91200 22.51000
C  47.47400 27.53600 22.67800
C  48.27100 28.77200 22.24500
N  48.78200 27.20100 27.78100
C  49.39900 27.94600 26.79500
C  50.02300 29.04300 27.37600
C  49.77700 28.95800 28.79400
C  49.04200 27.80300 28.95200
C  50.82000 30.06900 26.63100
C  49.95600 29.63600 30.01500
O  50.55400 30.68900 30.24700
C  49.26000 28.83300 31.15300
C  50.07400 28.48800 32.41100
O  50.75700 27.56200 32.71000
O  49.94700 29.57200 33.16900
C  50.49900 29.45100 34.60800
H  46.92300 22.26200 30.71800
H  46.56000 22.71500 24.29800
H  49.47200 28.35500 24.73100
H  48.69100 26.39900 32.72100
H  46.65300 24.22900 32.50400
H  49.14500 24.28400 33.70100
H  49.51500 23.29500 32.27500
H  48.17700 22.88300 33.41500
H  45.79700 26.16600 32.84700
H  46.26300 27.65900 32.01400
H  47.09700 28.56600 33.92300
H  47.69600 26.87200 34.44300
H  46.09700 20.44500 30.09700
H  46.56200 19.36600 28.75400
H  44.88700 20.20100 28.98000
H  44.29100 19.34200 26.97300
H  46.01400 18.83800 26.67800
H  44.83600 18.69500 25.35600
H  46.70400 25.07200 22.64600
H  49.29000 26.44700 22.92400
H  48.65100 23.05300 23.15400
H  49.39900 24.40000 22.23400
H  47.92000 23.54600 21.64000
H  46.61400 27.68800 23.33000
H  47.01800 27.14200 21.77000
H  48.01600 28.95300 21.20100
H  49.33600 28.61600 22.41600
H  48.10800 29.69400 22.80300
H  51.86800 29.79100 26.51700
H  50.72300 30.96100 27.24900
H  50.46200 30.15800 25.60600
H  48.45200 29.46600 31.52100
H  50.14900 28.60200 35.19500
H  50.10200 30.29200 35.17700
H  51.58400 29.41600 34.69900

