158

Mg 54.41100 23.93100 45.23400
C  52.26700 26.63800 44.13300
C  52.23100 21.68800 43.81300
C  56.88800 21.68500 45.33100
C  56.66000 26.42700 46.23800
N  52.49700 24.21200 44.05600
C  51.77400 25.36600 43.77300
C  50.45400 24.96800 43.09700
C  50.33000 23.42500 43.44100
C  51.78900 23.07900 43.80200
C  49.39100 23.15900 44.70600
C  50.28200 25.28400 41.60600
C  48.87500 25.38300 41.07900
H  48.46800 24.40300 39.98500
N  54.49800 21.86700 44.84100
C  53.44700 21.12800 44.23500
C  53.95500 19.81900 44.16400
C  55.24600 19.76700 44.76600
C  55.60600 21.12500 44.96600
C  53.10200 18.64300 43.70400
C  56.12200 18.57700 44.98700
O  55.80800 17.45400 44.58200
C  57.45500 18.53800 45.80500
N  56.59000 24.04300 45.63400
C  57.34500 22.96100 45.62900
C  58.77700 23.28600 46.00700
C  58.71200 24.85600 46.37700
C  57.23000 25.13800 46.08400
C  59.40400 22.29800 47.02800
C  59.81700 25.63100 45.51800
C  61.17900 25.47700 46.23000
N  54.40800 26.04900 45.42000
C  55.42600 26.91200 45.82900
C  55.04900 28.28800 45.78900
C  53.79000 28.20900 45.08800
C  53.46500 26.82300 44.89800
C  55.91000 29.45100 46.31100
C  52.70900 28.97200 44.53300
O  52.56500 30.20200 44.45500
C  51.68900 27.98900 43.90100
C  51.64300 28.16500 42.43100
O  52.55300 27.87700 41.61200
O  50.46100 28.80000 42.12200
C  50.08800 28.86700 40.68800
H  51.51500 21.07300 43.26400
H  57.77300 21.04500 45.34600
H  57.31700 27.25300 46.52200
H  49.73100 25.51900 43.69800
H  49.98300 22.84700 42.58400
H  49.81700 22.46500 45.43100
H  48.46500 22.62400 44.49700
H  49.09000 24.10900 45.14800
H  50.67200 24.44200 41.03500
H  50.84500 26.14900 41.25600
H  48.70300 26.37300 40.65600
H  48.17100 25.30000 41.90700
H  52.56300 18.97000 42.81500
H  52.54300 18.31600 44.58100
H  53.82200 17.87800 43.41600
H  58.25800 19.00600 45.23600
H  57.67000 17.54500 46.20000
H  57.28200 19.13600 46.70000
H  59.34300 23.08200 45.09800
H  58.95400 25.03900 47.42300
H  59.64300 22.90300 47.90300
H  60.20700 21.74500 46.54100
H  58.71500 21.47900 47.23700
H  59.58800 26.69700 45.52000
H  59.74600 25.21300 44.51400
H  61.57900 26.45700 46.49200
H  61.98000 25.00000 45.66600
H  61.06700 24.91100 47.15500
H  56.45700 29.13000 47.19700
H  55.17700 30.17300 46.67100
H  56.55900 29.81900 45.51600
H  50.70400 28.13500 44.34400
H  49.96800 29.93700 40.51700
H  49.18400 28.33600 40.38900
H  50.88400 28.49100 40.04600
Mg -10.18200 17.02600 41.47600
C  -6.86400 16.71000 41.25800
C  -9.88500 20.47000 40.77500
C  -13.60900 17.16100 40.92600
C  -10.52500 13.46000 41.39700
N  -8.55100 18.40800 40.93600
C  -7.24700 17.94900 41.00000
C  -6.30400 19.17900 40.76600
C  -7.26500 20.43400 41.00700
C  -8.63500 19.75500 40.76500
C  -7.12100 21.09100 42.40000
C  -5.77100 19.19000 39.32200
C  -4.30000 18.65400 39.05700
H  -4.14200 17.37800 38.32200
N  -11.59800 18.60500 40.97300
C  -11.24000 19.95000 40.82500
C  -12.46800 20.65100 40.72300
C  -13.57600 19.74200 40.82900
C  -12.97100 18.43900 40.85100
C  -12.50000 22.08300 40.48000
C  -15.00800 20.13700 40.72800
O  -15.40900 21.28400 40.58000
C  -16.08300 19.16900 40.82400
N  -11.86900 15.54300 41.09400
C  -13.12000 15.86000 40.96600
C  -14.04200 14.63500 41.01200
C  -13.03500 13.37300 41.06700
C  -11.71300 14.21500 41.23900
C  -15.17800 14.70000 42.14100
C  -13.11600 12.45500 39.80200
C  -12.79100 10.94200 40.09200
N  -9.02300 15.44100 41.66600
C  -9.25700 14.04800 41.54200
C  -8.04600 13.32500 41.57500
C  -7.04800 14.31100 41.45600
C  -7.69300 15.60800 41.57900
C  -7.75600 11.85800 41.54500
C  -5.61300 14.61900 41.30500
O  -4.65300 13.88900 41.17400
C  -5.48000 16.12900 41.35900
C  -4.69200 16.60800 42.60700
O  -3.96300 17.58100 42.71300
O  -4.79200 15.68400 43.63000
C  -3.65200 15.47300 44.66400
H  -9.89800 21.56100 40.73900
H  -14.70100 17.18100 40.94900
H  -10.62700 12.37300 41.42700
H  -5.56000 19.20900 41.56200
H  -7.06100 21.17500 40.23400
H  -8.04500 21.22700 42.96300
H  -6.70200 22.07100 42.17100
H  -6.32700 20.60600 42.96800
H  -5.91900 20.15900 38.84500
H  -6.39200 18.49200 38.76100
H  -3.82400 18.53200 40.03000
H  -3.71000 19.44000 38.58600
H  -13.39500 22.52200 40.92000
H  -12.15200 22.28500 39.46700
H  -11.68600 22.62700 40.96000
H  -15.93700 18.44500 40.02200
H  -17.05400 19.62900 40.63800
H  -16.15800 18.74000 41.82300
H  -14.56700 14.66400 40.05700
H  -13.11400 12.75800 41.96400
H  -15.22100 15.63100 42.70600
H  -14.91500 13.89300 42.82600
H  -16.15400 14.54400 41.68100
H  -12.43800 12.81000 39.02600
H  -14.08900 12.44500 39.31100
H  -13.74400 10.44400 39.91000
H  -12.66100 10.83300 41.16800
H  -11.92900 10.62500 39.50500
H  -7.71300 11.48700 40.52100
H  -8.44600 11.20100 42.07300
H  -6.78800 11.80300 42.04300
H  -4.96600 16.39800 40.43600
H  -3.83200 15.78100 45.69400
H  -2.65500 15.81700 44.38800
H  -3.59000 14.38600 44.70600

