158

Mg 7.58700 2.55600 27.08700
C  8.86800 1.20800 30.01700
C  5.47800 4.51000 28.99700
C  6.07300 3.63100 24.21300
C  8.97200 -0.13200 25.34600
N  7.06300 2.70900 29.28700
C  7.88300 2.16700 30.24800
C  7.48200 2.76900 31.60800
C  6.22800 3.71000 31.30700
C  6.28300 3.67000 29.77800
C  4.89000 3.06300 31.69700
C  8.64800 3.52400 32.23500
C  8.38500 3.96100 33.67200
H  9.41200 3.58000 34.79100
N  6.05900 3.93700 26.62400
C  5.30300 4.55700 27.55400
C  4.33300 5.44900 26.87900
C  4.61700 5.38200 25.52100
C  5.61700 4.26200 25.38900
C  3.39600 6.35300 27.63000
C  4.18400 6.21200 24.36500
O  4.43100 5.96500 23.19600
C  3.20400 7.37000 24.63900
N  7.46300 1.86300 25.13500
C  6.92000 2.57100 24.14600
C  7.10200 1.86300 22.83800
C  8.22900 0.72500 23.09700
C  8.17800 0.80800 24.64500
C  5.89200 1.32200 22.03400
C  9.59600 1.16500 22.44600
C  10.46400 2.09000 23.27700
N  8.68300 0.86900 27.48800
C  9.23900 -0.05000 26.71900
C  10.26900 -0.75500 27.43300
C  10.08000 -0.27500 28.75100
C  9.13200 0.71000 28.71800
C  11.24900 -1.77500 26.99600
C  10.51800 -0.54400 30.07600
O  11.30000 -1.37300 30.51700
C  9.82100 0.46400 30.95100
C  9.19000 -0.08400 32.14800
O  8.21700 -0.82200 32.25300
O  9.97800 0.26200 33.23800
C  9.43300 -0.06400 34.56800
H  4.96900 5.29100 29.56500
H  5.74100 3.94200 23.22100
H  9.50300 -0.92000 24.80800
H  7.26400 1.95700 32.30100
H  6.55500 4.65800 31.73500
H  4.44800 3.57400 32.55200
H  4.96200 1.99200 31.89200
H  4.14300 2.94400 30.91200
H  8.68900 4.50600 31.76400
H  9.57100 2.94600 32.17500
H  7.38500 3.68700 34.00800
H  8.42200 5.04800 33.74500
H  3.91800 7.30400 27.73700
H  3.31000 5.95600 28.64100
H  2.48300 6.43500 27.04000
H  2.22800 6.93300 24.84800
H  3.25900 8.02400 23.76900
H  3.52500 7.95300 25.50200
H  7.63700 2.52500 22.15600
H  7.89300 -0.25800 22.76400
H  5.06800 1.23700 22.74300
H  5.98200 0.33500 21.58000
H  5.75400 2.11600 21.30000
H  9.38300 1.64400 21.49000
H  10.03000 0.18600 22.24400
H  10.08800 2.23500 24.29000
H  10.57900 3.13400 22.98500
H  11.44100 1.61000 23.33600
H  11.08700 -1.76200 25.91800
H  10.88800 -2.73800 27.35700
H  12.30100 -1.53400 27.15200
H  10.47800 1.26400 31.29100
H  9.35300 -1.14600 34.67800
H  8.41100 0.30000 34.66700
H  10.05300 0.26000 35.40400
Mg -5.52700 24.91200 25.64300
C  -4.21800 25.99400 28.69300
C  -7.43700 22.64500 27.44900
C  -6.55600 23.65000 22.70700
C  -3.32100 27.07200 23.97400
N  -5.64100 24.32600 27.73300
C  -5.17200 24.97200 28.85400
C  -5.64600 24.43000 30.17800
C  -6.49800 23.23000 29.70100
C  -6.56000 23.42800 28.16500
C  -5.86700 21.81100 30.13600
C  -6.44900 25.58800 30.96300
C  -6.47100 25.47200 32.47500
H  -5.62500 24.33900 33.10000
N  -6.84200 23.37100 25.17000
C  -7.59400 22.60200 26.02500
C  -8.53500 21.78900 25.32500
C  -8.27400 21.97800 23.92300
C  -7.13300 23.02700 23.86200
C  -9.54600 20.87600 25.97100
C  -8.87800 21.25100 22.74000
O  -8.52000 21.56600 21.64100
C  -9.94000 20.14500 22.82000
N  -4.99000 25.19700 23.63200
C  -5.53400 24.54700 22.56300
C  -4.88300 24.93000 21.18700
C  -4.02300 26.20300 21.62000
C  -4.09000 26.17100 23.16100
C  -4.12100 23.77500 20.40800
C  -4.54300 27.66700 21.20500
C  -4.14000 28.12800 19.78200
N  -4.16700 26.33000 26.16400
C  -3.36200 27.14700 25.38500
C  -2.59400 27.91900 26.30500
C  -2.87000 27.41500 27.54700
C  -3.81200 26.54900 27.46300
C  -1.51800 28.91600 25.99100
C  -2.40900 27.63100 28.91300
O  -1.55800 28.40900 29.44400
C  -3.37200 26.69500 29.75400
C  -2.62000 25.88000 30.70300
O  -2.03900 24.83500 30.40200
O  -2.52500 26.53200 31.92000
C  -1.73900 25.83700 32.88900
H  -8.07500 22.07400 28.12700
H  -6.97000 23.18200 21.81100
H  -2.60000 27.76000 23.52800
H  -4.72500 24.10100 30.66000
H  -7.47100 23.21100 30.19100
H  -5.68500 21.19700 29.25400
H  -6.56800 21.22000 30.72600
H  -4.95400 21.89600 30.72600
H  -7.50000 25.52100 30.67900
H  -6.29000 26.65200 30.78800
H  -7.54100 25.32800 32.62200
H  -6.19900 26.44100 32.89200
H  -10.47100 21.01300 25.41100
H  -9.63400 21.01100 27.04900
H  -9.17500 19.86500 25.80500
H  -9.97900 19.61800 21.86700
H  -10.94300 20.48400 23.07500
H  -9.56600 19.48900 23.60600
H  -5.62400 25.25500 20.45600
H  -2.97400 26.26600 21.33000
H  -4.92500 23.29100 19.85300
H  -3.80300 22.94900 21.04400
H  -3.32100 24.22200 19.81800
H  -4.09700 28.39900 21.87800
H  -5.59600 27.63000 21.48500
H  -3.91500 27.26600 19.15300
H  -3.16600 28.60800 19.87500
H  -4.93000 28.78500 19.41800
H  -1.39100 29.02500 24.91400
H  -0.60100 28.58000 26.47700
H  -1.77800 29.86600 26.46000
H  -4.17600 27.27000 30.21400
H  -1.72600 24.74900 32.83300
H  -2.30700 25.98500 33.80800
H  -0.68600 26.11600 32.93400

