158

Mg 9.04800 3.83800 27.58800
C  10.60400 2.29600 30.39100
C  7.10900 5.66100 29.88500
C  7.27900 4.98700 25.03100
C  10.61900 1.50200 25.59600
N  8.70900 3.79200 29.88600
C  9.68100 3.30100 30.80900
C  9.31000 3.69300 32.28600
C  8.06100 4.67600 31.98700
C  7.91400 4.71100 30.44400
C  6.77800 4.29900 32.75800
C  10.64400 4.27400 32.94900
C  11.14300 3.59300 34.25400
H  11.28000 4.37700 35.56900
N  7.53500 5.21300 27.43200
C  6.86700 5.85700 28.45300
C  5.98200 6.80500 27.85300
C  6.11000 6.70300 26.46000
C  7.02100 5.61000 26.23900
C  5.24200 7.72400 28.83400
C  5.54100 7.52400 25.29100
O  5.69900 7.44300 24.10100
C  4.62100 8.56700 25.76600
N  8.94300 3.26500 25.58300
C  8.16000 3.95400 24.68500
C  8.42600 3.36200 23.28400
C  9.51300 2.25600 23.44000
C  9.73200 2.33700 24.92500
C  7.07400 2.79700 22.67400
C  10.77500 2.57700 22.63300
C  11.64800 1.41300 22.09100
N  10.42900 2.23300 27.89500
C  10.96300 1.38500 26.95300
C  11.91300 0.51100 27.60300
C  11.86500 0.87400 28.90400
C  10.92700 1.87800 29.08900
C  12.68600 -0.56600 26.99100
C  12.34700 0.51900 30.20900
O  13.00500 -0.45000 30.54300
C  11.56800 1.50700 31.25000
C  10.85400 0.76000 32.27600
O  9.65500 0.40500 32.21800
O  11.66600 0.48700 33.33800
C  11.14600 -0.01600 34.61700
H  6.54600 6.37700 30.48700
H  6.67200 5.23900 24.15900
H  11.24200 0.76800 25.08100
H  8.96800 2.78300 32.77900
H  8.34200 5.68700 32.28100
H  5.98000 4.09300 32.04500
H  6.40400 5.11000 33.38200
H  6.82900 3.36600 33.31900
H  10.30000 5.29300 33.12400
H  11.42100 4.21400 32.18600
H  12.15700 3.28100 34.00400
H  10.58700 2.67900 34.46400
H  4.88600 7.12000 29.66900
H  4.41200 8.23500 28.34500
H  5.95400 8.46600 29.19600
H  5.18600 9.16800 26.47900
H  3.70400 8.12000 26.14900
H  4.26800 9.11200 24.89100
H  8.79600 4.17500 22.66000
H  9.13100 1.31900 23.03400
H  6.57300 3.42100 21.93400
H  6.43700 2.69000 23.55200
H  7.31500 1.83400 22.22300
H  11.38500 3.25100 23.23400
H  10.58400 3.38700 21.92900
H  11.60400 1.39400 21.00200
H  11.22500 0.53700 22.58300
H  12.66300 1.66500 22.39700
H  13.32400 -0.22900 26.17300
H  12.06700 -1.45600 26.87500
H  13.40500 -0.86400 27.75400
H  12.35300 2.15700 31.63600
H  11.19700 0.76400 35.37600
H  11.82000 -0.78800 34.99000
H  10.18800 -0.52800 34.52400
Mg 24.26500 -5.35500 45.46000
C  26.57600 -3.19100 43.85900
C  21.79500 -4.10200 43.53200
C  22.41900 -8.06500 46.31300
C  27.12100 -6.74500 47.23400
N  24.20600 -3.94200 43.77600
C  25.27800 -3.19600 43.32100
C  24.84300 -2.32300 42.18200
C  23.28400 -2.23900 42.43600
C  23.00700 -3.44100 43.37400
C  22.71900 -0.86500 42.96000
C  25.48500 -2.86600 40.82200
C  26.07100 -1.77900 39.88600
H  26.17100 -2.08800 38.33100
N  22.25900 -5.97400 45.06000
C  21.41200 -5.31100 44.22700
C  20.12100 -5.97300 44.29000
C  20.20800 -7.11300 45.14900
C  21.64200 -7.15300 45.52500
C  18.94900 -5.54600 43.46300
C  19.17600 -8.22100 45.43900
O  18.04800 -8.14700 44.93500
C  19.35500 -9.45100 46.27200
N  24.74900 -7.13600 46.58800
C  23.76800 -8.09100 46.72200
C  24.40800 -9.35500 47.34800
C  25.75300 -8.79500 47.86900
C  25.88800 -7.45300 47.22400
C  23.59700 -10.20300 48.40000
C  26.95100 -9.73800 47.72100
C  27.86200 -9.80600 48.98400
N  26.32000 -4.94200 45.75000
C  27.32300 -5.62600 46.47800
C  28.59900 -4.87800 46.21600
C  28.31000 -3.94300 45.17400
C  26.95300 -4.05700 44.93000
C  29.83100 -4.99800 46.93100
C  28.94000 -2.99800 44.26400
O  30.09000 -2.79400 44.06800
C  27.78600 -2.44800 43.40500
C  27.71300 -1.03400 43.66600
O  28.02500 -0.19300 42.88000
O  27.07900 -0.80600 44.85900
C  26.73100 0.58400 45.17900
H  20.99400 -3.68500 42.91800
H  21.76600 -8.88500 46.61900
H  28.02600 -7.19500 47.64800
H  25.30800 -1.36200 42.40200
H  22.89500 -2.30400 41.42000
H  23.42600 -0.03500 42.95800
H  22.40300 -0.90300 44.00300
H  21.83500 -0.56100 42.39900
H  24.74600 -3.41000 40.23300
H  26.29800 -3.55200 41.05700
H  27.10900 -1.61300 40.17600
H  25.53000 -0.84700 40.04500
H  18.91200 -6.29400 42.67100
H  19.15000 -4.61500 42.93300
H  18.08800 -5.44600 44.12400
H  20.07200 -10.16900 45.87300
H  18.37600 -9.92400 46.35400
H  19.61800 -9.19100 47.29800
H  24.59800 -9.99400 46.48600
H  25.54000 -8.54800 48.90900
H  23.23500 -11.03600 47.79800
H  22.74300 -9.68700 48.83700
H  24.14400 -10.74800 49.16900
H  27.60400 -9.38900 46.92000
H  26.53900 -10.72500 47.51100
H  27.55400 -9.12700 49.77900
H  28.88800 -9.54100 48.73300
H  27.83700 -10.76000 49.51100
H  30.17800 -5.99300 46.65200
H  29.61500 -4.96700 47.99800
H  30.51300 -4.21600 46.59500
H  28.09000 -2.53800 42.36200
H  27.44400 1.01300 45.88300
H  25.77000 0.64100 45.69000
H  26.65200 1.32100 44.38000

