158

Mg 45.05200 4.48900 48.04200
C  43.02000 7.11700 47.05200
C  42.44900 2.16100 47.09200
C  47.18200 1.90500 48.15200
C  47.72200 6.75000 47.73000
N  42.91800 4.62700 47.30600
C  42.31200 5.82200 46.98700
C  40.93400 5.57200 46.35600
C  40.72900 4.00800 46.64600
C  42.17300 3.58000 47.03200
C  39.50600 3.64900 47.60800
C  40.87500 5.94400 44.77900
C  39.63900 6.79300 44.35500
H  39.94900 7.66800 43.12100
N  44.80600 2.33200 47.93600
C  43.64900 1.60500 47.56300
C  43.97300 0.17100 47.74200
C  45.32000 0.10300 48.14900
C  45.84700 1.47700 48.10600
C  42.94900 -0.93000 47.55700
C  46.09500 -1.16400 48.52600
O  45.56600 -2.25900 48.36200
C  47.48300 -1.07600 49.10900
N  47.12300 4.29200 47.87900
C  47.78900 3.16100 48.11900
C  49.31600 3.33100 48.22600
C  49.46300 4.89900 48.03500
C  48.03200 5.36500 47.86700
C  50.08600 2.73100 49.34900
C  50.33900 5.30100 46.82500
C  51.68800 5.94400 46.99700
N  45.36500 6.56100 47.71500
C  46.47700 7.33600 47.67800
C  46.07300 8.74700 47.73300
C  44.71100 8.75200 47.51200
C  44.32400 7.37700 47.43100
C  46.97200 9.90100 47.76800
C  43.53100 9.55800 47.33700
O  43.41300 10.76100 47.26900
C  42.42100 8.53900 46.97700
C  41.32500 8.72000 47.92500
O  41.37300 8.54400 49.13200
O  40.22600 9.17200 47.21100
C  38.95500 9.44200 47.95300
H  41.59600 1.50500 46.90900
H  47.99900 1.18200 48.09200
H  48.58400 7.42100 47.74900
H  40.24100 6.24600 46.86000
H  40.28100 3.62600 45.72900
H  39.96500 3.13900 48.45500
H  38.78800 2.96600 47.15300
H  38.90900 4.52200 47.87100
H  40.79000 5.02900 44.19200
H  41.76300 6.51800 44.51500
H  39.32100 7.46100 45.15500
H  38.68900 6.26400 44.28800
H  43.25200 -1.68800 46.83500
H  41.98100 -0.60900 47.17300
H  42.74700 -1.36100 48.53800
H  47.86600 -1.96300 49.61300
H  47.57300 -0.25000 49.81300
H  48.08200 -0.97800 48.20300
H  49.74200 2.83100 47.35600
H  49.87000 5.36600 48.93200
H  49.48400 2.37700 50.18600
H  50.67900 3.53500 49.78500
H  50.71200 1.90300 49.01900
H  49.66500 5.83500 46.15500
H  50.67600 4.40300 46.30700
H  52.57900 5.32700 46.88100
H  51.66700 6.29400 48.02900
H  51.77900 6.83000 46.36900
H  47.75200 9.80100 48.52300
H  46.35200 10.77100 47.98100
H  47.45500 10.00500 46.79600
H  42.20200 8.75200 45.93100
H  39.07500 9.87800 48.94500
H  38.40900 8.50600 48.06700
H  38.44900 10.21400 47.37400
Mg 29.98000 57.70900 40.03300
C  27.00100 55.82200 39.02700
C  31.94800 55.24600 38.77600
C  32.54400 59.95800 39.85600
C  27.67300 60.60200 40.20800
N  29.46000 55.77500 39.04700
C  28.23100 55.13000 38.88100
C  28.51400 53.62500 38.52900
C  30.07500 53.52500 38.26200
C  30.53600 54.91700 38.78700
C  30.79100 52.39400 39.04200
C  27.74500 53.07700 37.24700
C  27.50900 53.98100 36.01800
H  28.12900 53.82900 34.64700
N  31.99000 57.54600 39.60700
C  32.60200 56.43200 39.08900
C  34.01700 56.69900 38.86800
C  34.20000 58.05900 39.09800
C  32.88100 58.59700 39.52900
C  34.95700 55.58700 38.29300
C  35.49900 58.78300 38.87500
O  36.55700 58.20400 38.53000
C  35.65900 60.24300 39.12300
N  30.02700 60.03800 39.77600
C  31.30000 60.57100 39.98000
C  31.10900 62.06800 40.22200
C  29.55500 62.19800 40.48300
C  28.98600 60.93100 40.08000
C  32.10800 62.72700 41.31100
C  28.90600 63.44300 39.72600
C  28.22000 64.43000 40.64800
N  27.76700 58.18100 39.88200
C  27.07700 59.34300 40.00100
C  25.73900 59.05900 39.95500
C  25.63600 57.69500 39.52000
C  26.89400 57.18700 39.52800
C  24.63600 59.99700 40.19200
C  24.70300 56.66200 39.13200
O  23.49300 56.75000 39.01800
C  25.48100 55.45500 38.79500
C  25.04900 54.27500 39.65500
O  25.47400 54.05200 40.79300
O  24.07600 53.50500 39.06900
C  23.23000 52.63600 39.79600
H  32.62000 54.48500 38.37400
H  33.35500 60.66600 40.03400
H  26.92900 61.33800 40.52000
H  28.26900 53.00100 39.38900
H  30.25900 53.44100 37.19100
H  30.19900 51.68500 39.62000
H  31.46700 52.81400 39.78800
H  31.38200 51.79600 38.34900
H  26.78300 52.71000 37.60500
H  28.33100 52.18600 37.02000
H  27.78900 54.98300 36.34400
H  26.42200 53.95900 35.94200
H  35.13800 55.78400 37.23600
H  34.58200 54.58700 38.51200
H  35.86700 55.65900 38.88800
H  36.71800 60.43800 38.95300
H  35.45600 60.34400 40.18900
H  34.94500 60.76800 38.48800
H  31.18700 62.69200 39.33200
H  29.34600 62.21600 41.55300
H  33.05300 62.92000 40.80200
H  32.29800 62.09800 42.18000
H  31.59100 63.60500 41.69800
H  28.13000 63.11400 39.03600
H  29.58200 63.99100 39.06900
H  28.28300 65.44200 40.24900
H  28.56700 64.41400 41.68100
H  27.15000 64.22500 40.61900
H  24.76700 60.76400 40.95500
H  23.75300 59.43900 40.50300
H  24.55000 60.58600 39.27900
H  25.31700 55.24600 37.73800
H  23.74000 51.67900 39.89900
H  22.26000 52.55100 39.30700
H  23.03100 53.07500 40.77400

