158

Mg 7.97100 2.42500 27.99500
C  9.73100 1.07700 30.90400
C  6.05100 4.00200 30.27400
C  6.24800 3.44300 25.39600
C  9.69700 0.03400 26.13000
N  7.88400 2.47900 30.25800
C  8.77000 2.03300 31.23000
C  8.55200 2.67400 32.62500
C  7.26400 3.46800 32.40800
C  7.01300 3.28900 30.85600
C  6.09300 2.96800 33.28300
C  9.83600 3.47200 33.19100
C  10.36700 2.93700 34.55600
H  10.33800 3.98000 35.72200
N  6.42000 3.50200 27.82800
C  5.73200 4.12700 28.92400
C  4.59800 4.86800 28.34400
C  4.70200 4.78700 26.89700
C  5.85500 3.89700 26.62900
C  3.57800 5.58400 29.20300
C  3.91600 5.39300 25.76500
O  4.09800 5.13600 24.58400
C  2.88800 6.34700 26.08100
N  8.04400 1.90600 26.01600
C  7.16700 2.45900 25.10500
C  7.38100 1.79600 23.69400
C  8.55200 0.84400 23.93800
C  8.78000 0.88100 25.45600
C  6.07500 1.19500 23.09900
C  9.88200 1.22300 23.18700
C  10.80000 0.11000 22.77100
N  9.50200 0.80800 28.34500
C  10.01600 -0.03800 27.46000
C  10.96600 -0.87800 28.17400
C  10.88400 -0.44700 29.54100
C  9.95400 0.49200 29.59300
C  11.85800 -1.88300 27.52200
C  11.45000 -0.65800 30.88800
O  12.32800 -1.45300 31.20500
C  10.62200 0.33000 31.81700
C  9.71400 -0.53800 32.66100
O  8.75300 -1.19500 32.26300
O  10.05800 -0.41900 33.95700
C  9.40100 -1.23400 35.00200
H  5.52800 4.61400 31.01100
H  5.70700 3.59200 24.45800
H  10.25400 -0.67000 25.50800
H  8.42400 1.80200 33.26700
H  7.51300 4.48000 32.72800
H  6.49600 2.36100 34.09300
H  5.19500 2.56900 32.81000
H  5.71000 3.83200 33.82700
H  9.64800 4.52600 33.39700
H  10.68100 3.40300 32.50600
H  11.37100 2.51700 34.50700
H  9.76900 2.16300 35.03800
H  2.69300 4.95400 29.29300
H  3.08600 6.42900 28.72100
H  3.90100 5.76900 30.22700
H  2.12500 5.92800 26.73600
H  2.46200 6.64300 25.12300
H  3.34400 7.18800 26.60500
H  7.76900 2.45300 22.91500
H  8.16900 -0.09700 23.54200
H  6.11100 0.14100 22.82500
H  5.73300 1.84200 22.29200
H  5.28600 1.17300 23.85000
H  10.40500 1.91500 23.84700
H  9.72100 1.76700 22.25600
H  10.94700 0.09000 21.69100
H  10.40000 -0.83100 23.14800
H  11.78800 0.26200 23.20800
H  12.06800 -1.71400 26.46600
H  11.26200 -2.79500 27.55600
H  12.80700 -1.97500 28.05000
H  11.42300 0.93700 32.23900
H  10.13200 -1.94500 35.38400
H  8.55700 -1.82200 34.64100
H  8.97400 -0.61500 35.79200
Mg 47.95000 26.01300 29.25100
C  48.78300 28.16600 31.86100
C  46.51900 23.95100 31.59200
C  47.65400 23.60000 26.87300
C  49.85200 27.86300 27.12400
N  47.61600 26.14400 31.46000
C  48.01900 27.17700 32.33900
C  47.43600 26.96500 33.78700
C  46.87400 25.50800 33.62400
C  46.93000 25.13800 32.15000
C  47.47700 24.46500 34.54600
C  46.32500 28.07300 34.25600
C  46.33300 28.59800 35.64900
H  46.91900 27.77300 36.93800
N  47.24200 24.00200 29.21100
C  46.62800 23.44200 30.27700
C  46.15400 22.11400 29.89100
C  46.38400 22.04100 28.47100
C  47.15500 23.26900 28.12000
C  45.57700 21.10400 30.79100
C  45.97900 21.01800 27.45300
O  46.30000 21.01700 26.26500
C  45.16700 19.78800 28.04500
N  48.62200 25.79900 27.25800
C  48.42300 24.71900 26.46900
C  49.17900 24.84100 25.09800
C  49.50900 26.37300 25.09700
C  49.37100 26.71500 26.55600
C  50.33700 23.85800 25.03800
C  48.48200 27.24700 24.16500
C  49.16000 27.91200 23.01000
N  48.90800 27.78500 29.39600
C  49.71700 28.41500 28.39100
C  50.25700 29.63800 28.92800
C  49.93000 29.55600 30.36100
C  49.15400 28.40600 30.54300
C  51.15400 30.51100 28.23000
C  50.11200 30.16100 31.63800
O  50.69300 31.21700 31.98500
C  49.36800 29.34800 32.70100
C  50.39400 28.86300 33.70100
O  51.37800 28.15800 33.54500
O  50.12900 29.44900 34.89700
C  50.99400 28.96200 36.00200
H  46.03200 23.35600 32.36800
H  47.63300 22.82500 26.10400
H  50.28900 28.49700 26.35000
H  48.24200 26.96000 34.52100
H  45.82000 25.53800 33.89900
H  46.69400 24.00800 35.15100
H  48.31100 24.83200 35.14400
H  47.80900 23.63500 33.92200
H  45.33900 27.69800 33.98200
H  46.48000 28.88800 33.54900
H  45.28800 28.70200 35.93900
H  46.83600 29.56200 35.56600
H  44.51700 21.11200 30.53600
H  45.56000 21.27800 31.86700
H  45.98300 20.10400 30.63700
H  45.82800 19.46600 28.85000
H  44.91400 19.01900 27.31500
H  44.19800 19.99200 28.50000
H  48.45900 24.51800 24.34700
H  50.48700 26.63200 24.69100
H  51.33100 24.30300 24.99600
H  50.29600 23.13900 24.22000
H  50.37800 23.29800 25.97200
H  47.88700 27.94300 24.75700
H  47.70900 26.61900 23.72100
H  49.04800 27.21600 22.17800
H  50.21700 28.11200 23.18600
H  48.72500 28.85800 22.68800
H  52.05300 29.92400 28.04600
H  51.52900 31.33200 28.84100
H  50.71800 30.92300 27.32000
H  48.70500 29.96500 33.30600
H  52.00500 28.99100 35.59600
H  50.77900 27.95900 36.37100
H  50.86400 29.71300 36.78100

