158

Mg 48.09100 16.81100 27.86400
C  46.09700 16.68600 30.79300
C  50.47100 18.40400 29.54000
C  49.79100 17.25200 24.86200
C  45.50400 15.31800 26.08700
N  48.28100 17.43200 29.94000
C  47.34300 17.36900 30.96100
C  47.98100 17.82600 32.24100
C  49.27500 18.64500 31.77900
C  49.39300 18.07800 30.35500
C  49.19300 20.16800 31.81000
C  48.19300 16.62900 33.24000
C  48.08100 16.92800 34.79400
H  47.48900 18.22600 35.26700
N  49.96000 17.68200 27.28700
C  50.81500 18.14500 28.20600
C  52.09000 18.33300 27.59800
C  51.86100 18.25100 26.18000
C  50.46300 17.74400 26.03600
C  53.31000 18.62100 28.40200
C  52.74800 18.56400 25.03800
O  52.31600 18.63400 23.87900
C  54.20100 18.96300 25.27600
N  47.64500 16.41000 25.69100
C  48.48600 16.77700 24.70800
C  47.66400 16.62000 23.35400
C  46.47500 15.71100 23.82000
C  46.50700 15.79600 25.26000
C  47.18500 17.92500 22.71400
C  46.57700 14.17000 23.38400
C  45.59200 13.73100 22.26100
N  46.21100 15.93400 28.30300
C  45.29500 15.33000 27.47900
C  44.01400 15.16400 28.17100
C  44.28900 15.64600 29.48600
C  45.61300 16.14700 29.52800
C  42.70700 14.57600 27.68900
C  43.75400 15.83500 30.82300
O  42.59100 15.65700 31.18200
C  44.94300 16.43800 31.74300
C  44.48200 17.62600 32.55700
O  44.80900 18.80900 32.31700
O  43.72400 17.13400 33.54400
C  42.94100 18.14000 34.26800
H  51.19600 19.01000 30.08800
H  50.23400 17.66300 23.95300
H  44.62400 14.96000 25.54900
H  47.35900 18.61700 32.65900
H  50.13900 18.28400 32.33700
H  48.77200 20.47900 30.85400
H  50.21300 20.51400 31.97300
H  48.60200 20.50700 32.66100
H  49.22200 16.30800 33.07400
H  47.58200 15.80500 32.87300
H  49.07200 16.83000 35.23900
H  47.46100 16.13700 35.21600
H  53.26700 18.21900 29.41400
H  53.41700 19.70000 28.51500
H  54.26000 18.25400 28.01400
H  54.31800 19.85300 25.89400
H  54.65400 19.09300 24.29300
H  54.67900 18.07300 25.68500
H  48.30600 16.12100 22.62700
H  45.51900 16.14300 23.52500
H  46.12100 18.13100 22.83300
H  47.21900 17.78900 21.63300
H  47.88500 18.72700 22.95000
H  46.30200 13.46200 24.16500
H  47.62700 14.02700 23.12700
H  46.24000 13.14900 21.60600
H  45.17200 14.57800 21.71700
H  44.72900 13.22600 22.69400
H  42.65500 14.72700 26.61100
H  41.95600 15.16200 28.22000
H  42.53300 13.52600 27.92400
H  45.21400 15.58600 32.36600
H  42.02100 17.60300 34.49700
H  42.64200 19.00800 33.68000
H  43.44000 18.46600 35.18100
Mg 1.95500 41.82100 25.55300
C  3.06200 41.82800 28.92500
C  -1.00000 40.08500 26.74800
C  1.03000 41.00200 22.35700
C  5.04800 42.89300 24.50300
N  1.03200 41.26800 27.61600
C  1.71200 41.34000 28.81300
C  0.73700 41.07700 29.96700
C  -0.44300 40.38200 29.27800
C  -0.11600 40.48400 27.77900
C  -0.86500 38.98100 29.76400
C  0.38600 42.38100 30.87900
C  -0.21600 42.05600 32.29300
H  -1.53300 41.28900 32.28600
N  0.24800 40.66800 24.63600
C  -0.80600 40.12500 25.38800
C  -1.76400 39.61200 24.36100
C  -1.24100 39.91500 23.07700
C  0.04900 40.52800 23.29200
C  -3.11200 38.89300 24.67800
C  -1.75800 39.67100 21.66200
O  -1.12100 39.83000 20.63300
C  -3.08000 39.15500 21.42500
N  2.95200 41.74600 23.73000
C  2.32000 41.52700 22.54600
C  3.20000 41.99600 21.37200
C  4.28600 42.82800 22.01400
C  4.15300 42.42800 23.51200
C  3.63800 40.83500 20.35600
C  3.98900 44.34500 21.85000
C  3.94200 44.92300 20.48600
N  3.69300 42.33200 26.44100
C  4.89100 42.76000 25.92000
C  5.82500 43.15900 26.94400
C  5.14900 42.83400 28.13300
C  3.86400 42.24400 27.79700
C  7.09400 43.81500 26.66300
C  5.28000 42.86400 29.57500
O  6.13800 43.32300 30.33800
C  4.01400 42.06100 30.13400
C  4.43000 40.76200 30.84100
O  4.94400 39.71400 30.33600
O  4.41200 40.92100 32.19800
C  4.83000 39.73400 32.99200
H  -1.87200 39.46800 26.97300
H  0.83400 40.88000 21.29000
H  6.01800 43.32100 24.24500
H  1.24900 40.35300 30.60100
H  -1.32700 41.01900 29.30000
H  -1.90000 38.83100 30.07000
H  -0.25100 38.75200 30.63500
H  -0.66100 38.26400 28.96800
H  -0.28300 43.05500 30.34200
H  1.27300 42.98400 31.07100
H  -0.43400 43.08200 32.59000
H  0.64900 41.66800 32.83200
H  -3.39600 39.09400 25.71100
H  -3.13300 37.81600 24.51200
H  -3.98800 39.22900 24.12400
H  -2.97800 38.16800 21.87800
H  -3.36600 38.97800 20.38800
H  -3.87600 39.75800 21.86400
H  2.56000 42.66300 20.79400
H  5.28200 42.75000 21.57800
H  3.64400 39.87600 20.87400
H  4.68300 40.94000 20.06500
H  3.10400 40.86400 19.40600
H  4.81500 44.84300 22.35700
H  3.05600 44.61000 22.34800
H  4.27500 44.11800 19.83000
H  4.66200 45.74100 20.49000
H  2.92100 45.26600 20.32000
H  7.96700 43.18900 26.85000
H  7.05100 44.44500 27.55100
H  7.02500 44.41100 25.75300
H  3.50300 42.58200 30.94400
H  4.24200 39.93200 33.88900
H  5.91300 39.82800 33.06300
H  4.39900 38.82400 32.57300

