158

Mg 9.08300 3.15000 27.62200
C  9.92800 1.40400 30.59200
C  6.85600 5.03200 29.47500
C  8.01300 4.54500 24.75700
C  10.75400 0.68600 25.78900
N  8.64600 3.34000 29.79600
C  9.12500 2.52200 30.77900
C  8.61100 2.97400 32.13200
C  7.48300 4.06900 31.72900
C  7.67400 4.19000 30.23300
C  6.00600 3.69500 32.19100
C  9.69100 3.54700 33.10200
C  9.08000 4.37100 34.19200
H  9.61400 3.96300 35.57000
N  7.58100 4.56800 27.21500
C  6.79400 5.30900 28.08600
C  5.96700 6.28800 27.33000
C  6.38900 6.14400 25.93800
C  7.35500 5.02400 25.93300
C  4.99100 7.17400 28.00800
C  5.90400 6.91000 24.73100
O  6.18200 6.69100 23.57100
C  4.87400 7.86800 25.02900
N  9.30900 2.69300 25.55800
C  8.82600 3.43600 24.55500
C  9.20700 2.93600 23.11500
C  9.95900 1.62100 23.50900
C  10.03400 1.62200 25.05800
C  8.05600 2.61400 22.15800
C  11.35500 1.57000 22.84000
C  11.58300 0.53300 21.72200
N  10.16800 1.40700 28.03900
C  10.75600 0.49700 27.15300
C  11.30400 -0.53400 27.98800
C  11.13600 -0.11600 29.36500
C  10.35500 0.98200 29.32200
C  11.94400 -1.77400 27.50500
C  11.44100 -0.53100 30.67100
O  12.10200 -1.45000 31.03700
C  10.66100 0.47100 31.57800
C  9.78600 -0.38300 32.39800
O  8.65800 -0.82600 32.10000
O  10.38300 -0.49300 33.68100
C  9.53200 -1.10600 34.73300
H  6.22100 5.70700 30.05200
H  7.75700 5.07100 23.83400
H  11.07300 -0.06100 25.06000
H  8.21700 2.07700 32.61000
H  7.69100 5.04300 32.17200
H  6.10000 2.75900 32.74200
H  5.21600 3.50800 31.46300
H  5.52600 4.39100 32.87800
H  10.51200 3.96600 32.52000
H  10.12100 2.66100 33.56800
H  8.02800 4.13500 34.34700
H  9.33800 5.43000 34.16200
H  5.42200 8.17500 27.99000
H  4.90900 7.09500 29.09200
H  4.02300 7.16200 27.50800
H  3.97500 7.29200 25.25100
H  4.76100 8.44500 24.11100
H  5.29400 8.46100 25.84100
H  9.86500 3.72000 22.74100
H  9.26300 0.80100 23.33200
H  7.12000 2.73300 22.70400
H  8.14700 1.59500 21.78200
H  8.03700 3.28800 21.30100
H  12.10000 1.44100 23.62600
H  11.64500 2.54000 22.43800
H  10.65600 0.42000 21.16100
H  11.92200 -0.43200 22.10000
H  12.37500 0.94800 21.09800
H  12.29500 -2.42900 28.30200
H  12.89700 -1.44100 27.09300
H  11.42400 -2.39300 26.77400
H  11.16500 1.03800 32.36100
H  10.15300 -1.81900 35.27400
H  8.76300 -1.61000 34.14600
H  8.96400 -0.31900 35.22900
Mg 42.92300 3.86100 47.97800
C  41.02200 6.58800 47.04500
C  40.25000 1.84900 47.45800
C  45.02000 1.02500 48.08400
C  45.80800 5.83500 47.84400
N  40.89300 4.24500 47.15000
C  40.27300 5.44800 46.96900
C  38.76800 5.25200 46.64500
C  38.49300 3.71700 47.06400
C  39.95600 3.20600 47.21100
C  37.56900 3.52500 48.37500
C  38.51000 5.51900 45.12000
C  37.27000 6.48300 44.75600
H  37.44300 7.35600 43.44800
N  42.59200 1.69800 47.89600
C  41.44500 1.09300 47.71500
C  41.64400 -0.38100 47.62000
C  43.03700 -0.62400 47.81600
C  43.64400 0.75700 47.91900
C  40.51400 -1.36800 47.45900
C  43.76900 -1.96500 47.87400
O  43.16600 -3.01800 47.93100
C  45.28200 -2.10800 47.85000
N  45.08400 3.49300 48.10300
C  45.65800 2.27000 48.17700
C  47.13600 2.37100 48.37800
C  47.48600 3.87200 48.14200
C  46.02500 4.45700 48.02700
C  47.61400 1.69300 49.69900
C  48.48900 4.10600 46.95300
C  49.91100 4.37300 47.37900
N  43.38100 5.85400 47.67000
C  44.60100 6.42800 47.64100
C  44.30500 7.85900 47.34300
C  42.93100 7.98700 47.19700
C  42.41200 6.69000 47.27600
C  45.40700 8.88000 47.10600
C  41.90800 8.98100 46.89200
O  41.93100 10.15500 46.65800
C  40.60500 8.10600 46.84100
C  39.76800 8.63800 47.93500
O  39.86200 8.35600 49.11900
O  38.79000 9.42200 47.40500
C  37.87600 10.08800 48.28800
H  39.39800 1.17300 47.36300
H  45.71800 0.19700 48.22300
H  46.61600 6.56900 47.83600
H  38.13200 5.95200 47.18700
H  38.19000 3.01900 46.28300
H  37.43700 4.49700 48.85000
H  38.19800 2.84300 48.94700
H  36.57400 3.09200 48.27300
H  38.34800 4.57600 44.59800
H  39.44400 5.85300 44.67000
H  37.07300 7.19900 45.55400
H  36.31500 5.95900 44.72400
H  40.57600 -1.92800 46.52600
H  39.56700 -0.84400 47.59000
H  40.57100 -2.15800 48.20900
H  45.78500 -1.53700 47.07000
H  45.44300 -3.10200 47.43200
H  45.75400 -1.93000 48.81600
H  47.81000 2.00700 47.60200
H  48.05400 4.29600 48.96900
H  47.52900 0.61800 49.54200
H  46.96800 1.99000 50.52500
H  48.64400 1.93900 49.95700
H  48.08800 4.99200 46.46100
H  48.52400 3.24000 46.29200
H  50.55700 4.04000 46.56500
H  50.17700 3.90400 48.32600
H  49.98100 5.45800 47.45700
H  46.38200 8.42800 46.92300
H  45.41400 9.48900 48.01000
H  45.14800 9.60500 46.33400
H  40.00200 8.37100 45.97300
H  36.88800 9.63900 48.18600
H  37.74100 11.08400 47.86400
H  38.16100 10.12900 49.33900

