158

Mg 47.74000 24.50900 28.08600
C  48.41600 26.80900 30.55600
C  46.62100 22.28600 30.45900
C  47.25800 22.35700 25.64800
C  49.12400 26.84000 25.69700
N  47.64000 24.62800 30.33000
C  47.84600 25.68100 31.12400
C  47.54100 25.36600 32.55000
C  47.02600 23.86400 32.50600
C  47.14300 23.52100 31.01100
C  47.92700 22.81000 33.30300
C  46.55700 26.32200 33.27300
C  45.82900 25.69600 34.49000
H  45.54100 26.60400 35.66400
N  46.99200 22.56800 28.06300
C  46.50900 21.85400 29.15100
C  46.04000 20.57500 28.63000
C  46.12200 20.57800 27.15700
C  46.80600 21.84200 26.88500
C  45.53100 19.47500 29.50200
C  45.52300 19.63000 26.13600
O  45.41100 19.85800 24.98800
C  44.79400 18.44000 26.67500
N  48.09200 24.60600 25.98700
C  47.85200 23.57300 25.18100
C  48.17200 23.87900 23.68600
C  48.54000 25.45700 23.66700
C  48.68800 25.62800 25.17100
C  49.26200 22.94600 23.06300
C  47.58800 26.43000 23.02800
C  47.78000 26.67300 21.51100
N  48.43300 26.51200 28.02500
C  48.98900 27.29300 27.02200
C  49.41900 28.52100 27.55700
C  49.24200 28.38100 28.98300
C  48.61100 27.13500 29.13100
C  50.21600 29.54800 26.85700
C  49.55800 28.99100 30.21100
O  50.11700 30.02900 30.55300
C  48.88300 28.07400 31.31400
C  49.77000 27.78200 32.55100
O  50.73300 27.04800 32.47200
O  49.37900 28.42300 33.69000
C  50.30800 28.28000 34.82800
H  46.31200 21.52700 31.18000
H  46.96600 21.64400 24.87400
H  49.49300 27.46900 24.88400
H  48.47700 25.29200 33.10400
H  46.00500 23.76500 32.87400
H  47.36700 22.27600 34.07100
H  48.81700 23.29400 33.70400
H  48.34200 22.13000 32.55900
H  45.82400 26.61800 32.52300
H  47.18500 27.14100 33.62400
H  46.45100 24.84400 34.76400
H  44.88000 25.44800 34.01400
H  44.54400 19.10100 29.23300
H  45.52600 19.86500 30.52000
H  46.30000 18.71300 29.37300
H  45.42800 17.99300 27.44100
H  44.79400 17.78600 25.80200
H  43.79000 18.74100 26.97100
H  47.26700 23.77000 23.09000
H  49.56900 25.56800 23.32400
H  49.85000 22.40000 23.80000
H  49.91400 23.48200 22.37300
H  48.91900 22.12700 22.43100
H  47.62700 27.36500 23.58700
H  46.55500 26.10200 23.14400
H  46.77900 26.61300 21.08400
H  48.49100 25.95600 21.09900
H  48.20900 27.67100 21.41900
H  50.04000 29.82800 25.81900
H  51.25100 29.22700 26.97400
H  50.23500 30.41700 27.51500
H  48.00800 28.56200 31.74300
H  50.04200 27.48500 35.52500
H  50.27300 29.17700 35.44600
H  51.33600 28.21600 34.47100
Mg 6.54100 54.65100 39.84600
C  6.24600 51.13400 39.77000
C  9.86300 54.24100 39.02100
C  6.75600 57.94800 39.31500
C  3.08400 54.80400 40.31800
N  7.83700 52.88200 39.25400
C  7.54600 51.59400 39.43900
C  8.75900 50.77700 39.22900
C  9.89400 51.75800 39.51200
C  9.18700 53.03300 39.25200
C  10.58400 51.65600 40.86900
C  8.76500 50.03900 37.81500
C  8.52700 50.99000 36.64600
H  7.19500 50.94200 35.96200
N  8.11300 55.90600 39.18200
C  9.42000 55.58300 38.96200
C  10.25100 56.74800 38.78600
C  9.35700 57.85000 38.87700
C  7.97600 57.28300 39.10400
C  11.72900 56.79400 38.43700
C  9.75100 59.31900 38.53500
O  10.87200 59.66300 38.38500
C  8.63900 60.44600 38.58100
N  5.08300 56.21200 39.67200
C  5.42700 57.51800 39.57200
C  4.20300 58.43600 39.55700
C  3.08600 57.44700 40.10100
C  3.75800 56.06000 40.03900
C  4.45100 59.67900 40.46400
C  1.83600 57.53700 39.27500
C  0.49800 57.71300 39.94900
N  4.94900 53.29400 39.97700
C  3.61000 53.46900 40.22600
C  2.93800 52.17200 40.56200
C  3.95200 51.24800 40.37500
C  5.11800 51.97000 40.02500
C  1.48300 52.00700 40.98700
C  4.28200 49.80600 40.41700
O  3.60600 48.85200 40.77100
C  5.80000 49.63300 39.98600
C  5.62900 48.94600 38.63100
O  4.95000 49.29800 37.66700
O  6.32600 47.77000 38.68200
C  6.17200 46.77700 37.59900
H  10.94800 54.12700 39.07700
H  6.72200 59.03700 39.24300
H  2.01400 54.87600 40.52700
H  8.77300 50.05300 40.04400
H  10.65900 51.58600 38.75600
H  10.60300 52.64300 41.33100
H  11.60700 51.29800 40.74900
H  10.11500 50.91300 41.51400
H  7.91500 49.37300 37.66400
H  9.68100 49.47100 37.65200
H  9.17900 50.60700 35.86100
H  8.81200 52.00200 36.93300
H  11.62900 57.07800 37.39000
H  12.13200 55.78400 38.36100
H  12.41000 57.49300 38.92300
H  9.11100 61.40500 38.36600
H  8.19600 60.44600 39.57700
H  7.96200 60.19400 37.76400
H  3.98400 58.74200 38.53500
H  2.88200 57.68500 41.14500
H  4.10700 60.52000 39.86400
H  5.47200 59.83100 40.81500
H  3.89500 59.61000 41.39900
H  1.80300 56.68500 38.59600
H  1.95400 58.44500 38.68400
H  0.58400 57.44500 41.00200
H  -0.20100 57.05700 39.43100
H  0.14500 58.73100 39.78400
H  0.91500 52.54200 40.22500
H  1.30500 52.38300 41.99400
H  1.29900 50.93300 40.97800
H  6.33300 48.96500 40.66200
H  7.10500 46.21900 37.51300
H  5.84400 47.26200 36.68000
H  5.42800 46.08300 37.98900

