158

Mg 15.89600 -2.02800 27.80000
C  15.00600 0.17400 30.43500
C  18.10100 -3.46300 30.06600
C  17.26500 -3.59400 25.20600
C  14.36700 0.30900 25.56500
N  16.45800 -1.70900 30.01900
C  15.89800 -0.88600 30.91600
C  16.44700 -1.17600 32.38200
C  17.39900 -2.32900 32.13700
C  17.41000 -2.50200 30.64300
C  18.82200 -2.09200 32.77800
C  15.23900 -1.38400 33.36900
C  15.29600 -0.69900 34.70000
H  16.59700 -0.16800 35.24500
N  17.35600 -3.48200 27.64800
C  18.16500 -3.96900 28.62100
C  19.04000 -5.01800 28.06200
C  18.69700 -5.14200 26.71700
C  17.73900 -4.05200 26.46600
C  19.96200 -5.86200 28.83700
C  19.21400 -6.06100 25.67900
O  18.78800 -5.99100 24.51900
C  20.05700 -7.30300 26.05200
N  16.03700 -1.54500 25.70400
C  16.47100 -2.51200 24.85600
C  16.19300 -2.15000 23.34400
C  15.31700 -0.87000 23.46400
C  15.24800 -0.62200 25.02700
C  17.50300 -1.86500 22.63800
C  13.87600 -0.93000 22.76800
C  13.46800 0.33600 22.05200
N  14.80000 -0.20800 27.96300
C  14.22500 0.60500 26.97700
C  13.62000 1.74000 27.52200
C  13.86900 1.58600 28.90700
C  14.56500 0.39900 29.13300
C  12.92300 2.83200 26.78500
C  13.49000 2.15300 30.21900
O  12.95600 3.21000 30.51400
C  14.23300 1.23500 31.25200
C  15.06500 2.23700 32.00400
O  15.92300 2.98500 31.58400
O  14.52600 2.34700 33.31200
C  14.90400 3.50900 34.12300
H  18.71800 -4.05700 30.74400
H  17.70600 -4.00400 24.29600
H  13.96700 0.90000 24.73700
H  17.09400 -0.40800 32.80600
H  17.07300 -3.26900 32.58300
H  18.88300 -1.21600 33.42400
H  19.52200 -2.16300 31.94500
H  19.10100 -2.93800 33.40600
H  15.04000 -2.43700 33.57100
H  14.34400 -1.00400 32.87600
H  14.84700 -1.31200 35.48200
H  14.54000 0.08100 34.79400
H  20.96000 -5.98900 28.41700
H  19.62000 -6.89500 28.89600
H  20.00900 -5.58600 29.89100
H  20.27900 -7.80100 25.10800
H  19.40900 -7.86800 26.72200
H  21.01200 -6.89700 26.38500
H  15.63600 -3.01900 22.99300
H  15.74200 0.04300 23.04700
H  17.49700 -0.95400 22.04000
H  17.83300 -2.64400 21.95100
H  18.29900 -1.86800 23.38200
H  13.13300 -1.12600 23.54100
H  13.74600 -1.76600 22.08000
H  14.37300 0.88800 21.79800
H  12.86400 0.91100 22.75300
H  13.02600 0.08800 21.08700
H  12.26700 2.46200 25.99600
H  13.66400 3.49900 26.34600
H  12.35500 3.38000 27.53600
H  13.44200 0.80700 31.86700
H  15.75100 3.43900 34.80500
H  13.96900 3.71200 34.64600
H  15.10900 4.43200 33.58200
Mg 36.58100 49.21300 25.55000
C  36.49400 47.24900 28.52700
C  35.25800 51.84700 27.41700
C  36.32200 50.98700 22.68700
C  37.45300 46.36700 23.81400
N  35.88100 49.42000 27.64600
C  36.14700 48.55200 28.70000
C  35.96200 49.29000 30.06300
C  35.31500 50.65400 29.69800
C  35.50800 50.64200 28.18600
C  33.84100 50.86300 30.10300
C  37.32500 49.46400 30.92900
C  37.20200 49.65500 32.48200
H  35.81300 49.70000 33.01000
N  35.93400 51.16200 25.09600
C  35.43400 52.10200 25.99300
C  35.33300 53.35200 25.28800
C  35.65300 53.15800 23.90800
C  36.05900 51.73800 23.84000
C  34.87200 54.55000 26.00100
C  35.80200 54.24000 22.72600
O  36.19600 53.89600 21.64100
C  35.64200 55.72000 22.86500
N  36.66900 48.66100 23.52300
C  36.63700 49.64100 22.50900
C  36.99500 49.03300 21.16500
C  37.57600 47.66700 21.67300
C  37.23200 47.54500 23.04700
C  35.77800 49.14600 20.15300
C  39.10900 47.55300 21.31300
C  40.16600 48.34400 22.06100
N  36.86500 47.14300 26.01700
C  37.24700 46.14200 25.17600
C  37.59900 44.99900 26.04000
C  37.31800 45.38500 27.36800
C  36.82300 46.67000 27.31100
C  38.28400 43.77200 25.66800
C  37.29300 44.89900 28.71900
O  37.74500 43.83800 29.25700
C  36.65100 46.07200 29.51400
C  35.25700 45.80000 30.01600
O  34.28700 45.72500 29.31000
O  35.24200 45.83900 31.39500
C  33.94400 45.37600 31.97300
H  34.87100 52.67000 28.02100
H  36.27500 51.48900 21.71800
H  37.87700 45.41000 23.50500
H  35.30800 48.69000 30.69600
H  35.91000 51.48900 30.06700
H  33.81100 51.78600 30.68300
H  33.50800 50.03100 30.72300
H  33.14800 50.98300 29.27000
H  37.90100 50.29900 30.53100
H  37.92900 48.56500 30.80700
H  37.84900 50.47600 32.79000
H  37.66000 48.79100 32.96400
H  35.63400 55.30600 26.19400
H  34.33500 54.37600 26.93300
H  34.11000 55.06600 25.41700
H  35.16800 56.19100 23.72600
H  35.04100 56.00300 22.00100
H  36.66600 56.08600 22.79300
H  37.86300 49.58100 20.79800
H  37.03400 46.81700 21.25800
H  35.67300 48.17800 19.66400
H  36.03900 49.88800 19.39800
H  34.92400 49.46200 20.75200
H  39.04500 47.74000 20.24100
H  39.27500 46.48000 21.40300
H  39.82100 49.13800 22.72400
H  40.93100 48.75600 21.40200
H  40.71700 47.65100 22.69700
H  38.80100 43.97500 24.73100
H  37.58200 42.94200 25.59000
H  39.14000 43.58100 26.31600
H  37.19200 46.47000 30.37200
H  33.85400 45.71800 33.00400
H  34.02000 44.29200 32.05500
H  33.10300 45.74100 31.38300

