158

Mg 43.98100 3.46100 47.84900
C  41.38300 5.92400 46.85400
C  41.61200 1.14300 47.24100
C  46.34300 1.36100 47.83800
C  46.19000 6.25800 47.54700
N  41.79700 3.60000 47.01700
C  40.96500 4.64100 46.90100
C  39.52900 4.21700 46.62900
C  39.53700 2.70900 47.16300
C  41.04300 2.44000 47.13700
C  38.88500 2.50700 48.55400
C  39.13000 4.32400 45.15500
C  37.64900 4.42300 44.87900
H  37.20800 5.39700 43.80100
N  43.95300 1.52900 47.74000
C  42.90600 0.70500 47.48500
C  43.31500 -0.68800 47.58500
C  44.71600 -0.68400 47.84800
C  45.11300 0.78500 47.83500
C  42.39200 -1.84400 47.30400
C  45.65100 -1.90300 48.03900
O  45.16000 -3.03600 47.84400
C  47.04900 -1.85700 48.52500
N  45.97100 3.80100 47.60500
C  46.74900 2.67400 47.66300
C  48.22200 3.02600 47.90900
C  48.19500 4.59800 47.87900
C  46.76900 4.97200 47.61000
C  48.84900 2.36600 49.14300
C  49.27800 5.26900 46.93100
C  50.06800 6.56000 47.42600
N  43.86700 5.69700 47.44000
C  44.84600 6.64700 47.34500
C  44.28800 8.02100 47.11200
C  42.94500 7.77900 47.03800
C  42.72400 6.34100 47.06500
C  44.87500 9.29700 47.00800
C  41.63000 8.38200 46.82200
O  41.24900 9.57000 46.75500
C  40.58600 7.20200 46.68300
C  39.47600 7.39700 47.62000
O  39.52700 7.36600 48.81700
O  38.31100 7.61900 46.97900
C  37.07100 7.66000 47.79200
H  40.85600 0.39200 47.00000
H  47.13800 0.61400 47.88400
H  46.92600 7.06400 47.58900
H  38.82600 4.83400 47.18900
H  39.16900 1.98200 46.43900
H  38.12200 1.73200 48.49100
H  38.20400 3.26300 48.94500
H  39.69600 2.30700 49.25500
H  39.51100 3.41000 44.70200
H  39.61400 5.16500 44.65900
H  36.98900 4.61800 45.72400
H  37.43200 3.40600 44.55300
H  42.18200 -2.03400 46.25100
H  41.42100 -1.65600 47.76300
H  42.71800 -2.75900 47.79900
H  47.64600 -1.92800 47.61600
H  47.16700 -2.73500 49.15900
H  47.17600 -0.94500 49.10900
H  48.63600 2.71000 46.95100
H  48.45700 4.90500 48.89100
H  49.34800 3.09000 49.78700
H  49.45200 1.52700 48.79700
H  48.06000 1.88800 49.72300
H  48.73100 5.66800 46.07600
H  50.02900 4.52700 46.66200
H  51.12200 6.32100 47.56700
H  49.65200 7.02300 48.32000
H  50.06500 7.35200 46.67700
H  45.83900 9.40700 46.51200
H  45.14000 9.76900 47.95400
H  44.20700 9.98500 46.49100
H  40.24600 7.20000 45.64800
H  37.01100 6.84300 48.51100
H  36.26700 7.38200 47.11100
H  36.92400 8.59300 48.33700
Mg 26.06700 49.57200 26.64300
C  23.83500 51.00400 28.83100
C  28.26400 49.18000 29.11600
C  28.34200 48.78100 24.14200
C  23.88800 50.58600 23.97900
N  26.07600 50.26900 28.79800
C  24.95700 50.61900 29.52900
C  25.04100 50.36900 31.01200
C  26.62600 50.04400 31.07300
C  27.07100 49.75900 29.58000
C  27.50600 51.17900 31.77200
C  24.08600 49.25000 31.60600
C  23.85800 49.17400 33.24000
H  24.63900 50.15200 34.07300
N  27.98500 49.09400 26.63500
C  28.76000 48.97900 27.79000
C  30.04100 48.47300 27.36900
C  30.11600 48.48500 25.94700
C  28.79700 48.83400 25.55000
C  31.12600 48.11900 28.47500
C  31.35700 48.22800 24.99000
O  31.37700 48.44300 23.78400
C  32.64300 47.86000 25.63300
N  26.01400 49.43000 24.46000
C  27.05900 49.04200 23.66100
C  26.68400 48.94600 22.14600
C  25.29400 49.61700 22.10200
C  25.00100 49.87000 23.61900
C  27.70000 49.63300 21.13300
C  24.17300 48.79500 21.38200
C  23.23700 49.56600 20.39700
N  24.21400 50.45300 26.34800
C  23.47100 50.87100 25.23200
C  22.30500 51.50700 25.68200
C  22.31300 51.43600 27.06100
C  23.56200 50.88600 27.41300
C  21.26400 52.00800 24.79500
C  21.65200 51.84200 28.26200
O  20.59700 52.40700 28.39800
C  22.52700 51.46200 29.47200
C  22.86400 52.74100 30.32600
O  23.53500 53.72500 30.01000
O  22.26900 52.58000 31.62800
C  22.60700 53.66400 32.53500
H  28.94100 48.87600 29.91600
H  28.97100 48.44400 23.31500
H  23.21300 50.81400 23.15100
H  24.94600 51.26900 31.61900
H  26.93200 49.14400 31.60600
H  28.01200 50.78200 32.65200
H  26.87400 51.96400 32.18800
H  28.20500 51.58300 31.04100
H  24.62300 48.36400 31.26700
H  23.16400 49.49000 31.07600
H  23.98100 48.16600 33.63500
H  22.80400 49.45000 33.21500
H  32.05400 48.56500 28.11700
H  31.41700 47.07000 28.41500
H  31.02600 48.55900 29.46700
H  33.35800 47.32000 25.01200
H  32.34700 47.11300 26.37000
H  33.16400 48.72500 26.04400
H  26.66800 47.87200 21.96000
H  25.38700 50.60600 21.65300
H  28.40300 50.35600 21.54500
H  27.12100 50.10900 20.34100
H  28.24800 48.85900 20.59600
H  23.69000 48.26500 22.20200
H  24.70200 48.13500 20.69400
H  23.26700 50.65500 20.43800
H  22.20100 49.24000 20.48600
H  23.48400 49.36700 19.35400
H  21.14400 51.41100 23.89100
H  21.51800 53.04600 24.57600
H  20.26400 51.96600 25.22600
H  21.98300 50.59900 29.85700
H  22.90200 54.56100 31.99100
H  23.42800 53.38100 33.19400
H  21.72900 53.86900 33.14700

