158

Mg 35.93600 0.42800 29.49100
C  33.59100 1.55200 31.91400
C  38.27100 0.20600 32.10000
C  38.30000 -0.04700 27.13700
C  33.58200 1.18800 27.00200
N  35.86800 0.89400 31.72000
C  34.83100 1.30600 32.48600
C  35.28200 1.39600 33.94600
C  36.78100 1.00800 34.00400
C  36.99700 0.64900 32.55100
C  37.89500 1.93800 34.55400
C  34.33900 0.60300 34.92100
C  33.57000 1.36600 36.00600
H  34.31800 2.57200 36.58300
N  37.94900 -0.01100 29.60600
C  38.75800 -0.03100 30.76300
C  40.07800 -0.25200 30.37700
C  40.12200 -0.41200 28.92400
C  38.77800 -0.11300 28.51300
C  41.22800 -0.30000 31.36100
C  41.25000 -0.80200 28.04800
O  41.04400 -1.07400 26.83700
C  42.69400 -0.96900 28.61400
N  35.95900 0.53300 27.40400
C  37.03900 0.24700 26.65800
C  36.77700 0.33900 25.16800
C  35.24800 0.54500 25.12600
C  34.90500 0.80300 26.58600
C  37.39200 1.53300 24.42600
C  34.33300 -0.43400 24.26200
C  33.63400 -1.60200 25.00600
N  33.92400 1.00400 29.44300
C  33.15500 1.29900 28.35700
C  31.88600 1.65600 28.88000
C  31.96500 1.80400 30.22300
C  33.24900 1.44600 30.53200
C  30.60700 1.91700 27.99600
C  31.30100 2.12200 31.48200
O  30.08500 2.31900 31.61600
C  32.33800 1.99600 32.71700
C  32.53200 3.31900 33.38800
O  33.48400 4.01400 33.14100
O  31.43100 3.70400 34.05300
C  31.52000 5.12000 34.59000
H  38.89900 0.09400 32.98600
H  38.99500 -0.10100 26.29600
H  32.86500 1.20200 26.17800
H  35.16700 2.44000 34.23900
H  36.80500 0.11800 34.63300
H  38.59200 1.25300 35.03500
H  37.71200 2.58300 35.41300
H  38.39200 2.37900 33.69000
H  34.80200 -0.26300 35.39400
H  33.57700 0.14600 34.29000
H  33.55900 0.69500 36.86600
H  32.51900 1.59800 35.83400
H  40.79600 -0.57400 32.32400
H  41.90200 0.55600 31.40600
H  41.89000 -1.14500 31.17300
H  42.74600 -1.88600 29.20100
H  42.98200 0.00400 29.01200
H  43.37300 -1.03100 27.76400
H  37.11000 -0.52400 24.59100
H  34.93700 1.47600 24.65100
H  38.25400 1.19600 23.85100
H  37.74600 2.25200 25.16600
H  36.67100 1.95100 23.72300
H  34.86100 -0.72300 23.35300
H  33.46500 0.14500 23.94800
H  34.01300 -2.57300 24.68600
H  32.58700 -1.82900 24.80500
H  33.84100 -1.52400 26.07400
H  30.37000 0.99400 27.46600
H  30.92000 2.60700 27.21300
H  29.70000 2.07900 28.57800
H  31.89800 1.23500 33.36100
H  32.43700 5.35600 35.13000
H  30.76200 5.16900 35.37100
H  31.47300 5.72800 33.68600
Mg -10.86100 40.07000 42.15900
C  -9.56700 36.83400 41.44700
C  -8.10600 41.39200 40.60500
C  -12.32700 43.02600 42.32700
C  -13.88100 38.52400 43.02500
N  -9.10300 39.15600 40.98600
C  -8.72800 37.86300 40.98600
C  -7.45600 37.71300 40.12900
C  -6.90000 39.19700 40.07900
C  -8.11100 39.97900 40.54700
C  -5.62300 39.49800 40.80700
C  -7.77300 36.98300 38.78400
C  -6.78600 35.90100 38.36100
H  -5.76200 36.34900 37.26000
N  -10.26700 41.99100 41.61400
C  -9.09000 42.30500 41.00900
C  -8.96000 43.67400 40.90100
C  -10.12600 44.23100 41.52500
C  -11.01800 43.09400 41.79700
C  -7.77000 44.36800 40.30300
C  -10.40300 45.68500 41.87600
O  -9.58500 46.55500 41.58500
C  -11.63600 46.22900 42.63500
N  -12.85100 40.65500 42.47000
C  -13.19000 41.94500 42.56400
C  -14.61500 42.23700 43.02800
C  -15.14300 40.74400 43.16800
C  -13.92200 39.92600 42.88800
C  -14.65200 43.00300 44.38000
C  -16.24000 40.40600 42.13700
C  -17.57800 39.88300 42.77900
N  -11.63500 38.10400 42.29600
C  -12.82000 37.64800 42.77300
C  -12.81400 36.16200 42.81700
C  -11.51900 35.83900 42.28100
C  -10.87700 37.05800 41.92700
C  -13.92600 35.14600 43.23200
C  -10.61700 34.78700 41.93300
O  -10.82200 33.55700 42.07500
C  -9.32000 35.34600 41.31800
C  -8.23800 34.86200 42.14900
O  -7.87100 35.30800 43.18100
O  -7.68400 33.76800 41.48000
C  -6.37100 33.36400 41.93700
H  -7.24300 41.86700 40.13300
H  -12.82900 43.99200 42.41200
H  -14.84800 38.16100 43.37800
H  -6.73200 37.19900 40.76000
H  -6.78300 39.37900 39.01100
H  -4.97800 38.62300 40.89400
H  -5.75000 39.84500 41.83300
H  -5.00300 40.23800 40.30100
H  -7.70400 37.77600 38.03900
H  -8.82200 36.68800 38.75900
H  -7.40400 35.04400 38.09600
H  -6.20900 35.56200 39.22100
H  -8.01900 44.88100 39.37400
H  -6.88300 43.75100 40.15800
H  -7.35900 45.01800 41.07600
H  -12.56300 46.27900 42.06400
H  -11.31800 47.22100 42.95800
H  -11.70000 45.58200 43.51000
H  -15.09400 42.87700 42.28800
H  -15.42400 40.48500 44.18900
H  -13.66900 43.29700 44.74900
H  -15.25300 42.44200 45.09500
H  -15.14600 43.97300 44.32400
H  -15.95100 39.69300 41.36600
H  -16.45300 41.29900 41.54900
H  -18.30300 39.67100 41.99300
H  -18.18500 40.60200 43.32800
H  -17.50700 38.92100 43.28500
H  -13.44200 34.39700 43.85800
H  -14.54500 34.91000 42.36700
H  -14.52700 35.68600 43.96400
H  -9.36700 34.81200 40.36900
H  -5.88400 32.61700 41.31000
H  -6.35200 33.09800 42.99400
H  -5.66700 34.19500 41.94500

