158

Mg 42.64800 41.23400 27.87200
C  41.50700 43.63400 30.30200
C  43.37900 39.11200 30.40400
C  43.96600 39.24000 25.59300
C  42.65900 44.00900 25.50800
N  42.53700 41.48600 30.02800
C  41.94700 42.40800 30.79900
C  41.91700 42.00900 32.23200
C  42.71200 40.68200 32.26400
C  42.90700 40.37700 30.76400
C  44.05500 40.78900 33.02000
C  40.49600 42.02500 32.90500
C  40.30900 43.07000 34.04000
H  39.49900 42.51600 35.31900
N  43.45100 39.35700 27.95100
C  43.54300 38.55600 29.06300
C  43.94200 37.15900 28.71700
C  44.08800 37.21800 27.33200
C  43.92100 38.66700 26.88600
C  43.97400 36.04200 29.69800
C  44.30200 36.04200 26.41200
O  44.64300 36.14900 25.23900
C  44.13400 34.65600 27.03500
N  43.15000 41.59200 25.85600
C  43.70500 40.53900 25.11400
C  43.84500 40.93000 23.64200
C  43.30900 42.42600 23.58000
C  43.06800 42.75000 25.08200
C  45.25100 40.77900 23.04200
C  42.04400 42.57400 22.70800
C  40.67700 42.31400 23.43800
N  42.14700 43.35500 27.90500
C  42.20300 44.29100 26.78500
C  41.67900 45.53400 27.26000
C  41.32200 45.29400 28.66900
C  41.68200 43.97200 28.97700
C  41.37000 46.74900 26.42600
C  40.68400 45.88800 29.91900
O  40.18300 46.96000 30.13100
C  40.91900 44.87000 31.02100
C  41.93100 45.48200 31.94000
O  43.12800 45.27900 31.80200
O  41.27000 46.20300 32.92400
C  41.94900 46.74200 34.16000
H  43.54400 38.36600 31.18500
H  44.30000 38.53300 24.83200
H  42.56400 44.80400 24.76700
H  42.41900 42.80900 32.77700
H  42.07700 39.91500 32.70600
H  44.26400 40.00900 33.75200
H  44.06500 41.75100 33.53200
H  44.92600 40.96000 32.38700
H  40.25500 41.08500 33.40200
H  39.65400 42.11700 32.21800
H  39.75600 43.89000 33.58100
H  41.26000 43.41100 34.44900
H  43.15500 35.35500 29.48200
H  43.79000 36.29200 30.74300
H  44.84600 35.40100 29.57100
H  43.20900 34.48500 27.58500
H  44.96800 34.16200 27.53300
H  44.07700 33.96300 26.19500
H  43.11200 40.29600 23.14400
H  44.09400 43.11700 23.27500
H  45.22400 39.86000 22.45700
H  45.99200 40.53400 23.80200
H  45.53300 41.50100 22.27600
H  41.99200 41.86900 21.87900
H  41.98400 43.49900 22.13400
H  40.76000 42.01800 24.48300
H  39.93600 41.71200 22.91200
H  40.17200 43.28000 23.45100
H  40.52600 46.59600 25.75400
H  42.23100 47.08500 25.84700
H  41.07700 47.53400 27.12300
H  39.95300 44.60900 31.45400
H  42.89000 47.23500 33.91600
H  42.12900 45.96800 34.90600
H  41.25000 47.44800 34.60900
Mg 6.23000 53.71400 39.84000
C  5.66400 50.24800 39.62400
C  9.43600 53.35300 39.11700
C  6.38900 56.99700 39.51900
C  2.57900 53.99700 40.30100
N  7.34200 51.98300 39.35500
C  6.94100 50.63500 39.43800
C  8.18500 49.78200 39.22900
C  9.42900 50.76900 39.50300
C  8.69600 52.11700 39.33700
C  10.17000 50.62000 40.87200
C  8.28400 49.03800 37.84600
C  8.28400 49.97700 36.63600
H  7.43400 49.55600 35.40600
N  7.80600 55.05400 39.46300
C  8.99500 54.65200 39.05400
C  9.84900 55.82300 38.79900
C  8.98900 56.93100 39.04700
C  7.64400 56.39900 39.27000
C  11.31400 55.74500 38.55500
C  9.40600 58.35400 39.08600
O  10.58000 58.58700 38.80000
C  8.46900 59.45700 39.50600
N  4.64900 55.24100 39.81500
C  5.06500 56.53500 39.80300
C  3.96700 57.50700 40.09900
C  2.74300 56.62500 40.28100
C  3.34100 55.17900 40.13500
C  4.28900 58.34700 41.36400
C  1.61400 56.94100 39.20500
C  0.20800 57.28000 39.74800
N  4.43000 52.42200 40.00100
C  3.08400 52.69700 40.26400
C  2.40800 51.44100 40.44100
C  3.31400 50.44100 40.16700
C  4.57100 51.07800 39.89900
C  0.90800 51.28700 40.60700
C  3.53800 49.02500 40.01900
O  2.83200 48.04800 40.05900
C  5.03800 48.86000 39.63800
C  4.82800 48.23500 38.25000
O  4.15200 48.80600 37.38800
O  5.24200 47.00000 38.26800
C  4.74900 46.02300 37.29100
H  10.48700 53.06500 39.04400
H  6.25100 58.06900 39.36000
H  1.52100 54.13400 40.53800
H  8.17100 48.88600 39.84900
H  10.15500 50.66900 38.69600
H  10.01700 51.48100 41.52400
H  11.20800 50.64300 40.54200
H  10.01400 49.74700 41.50500
H  7.56700 48.21800 37.81800
H  9.27200 48.59400 37.96100
H  9.29000 50.09300 36.23400
H  8.03100 51.00000 36.91200
H  11.78700 54.78300 38.35500
H  11.85300 56.15200 39.41000
H  11.74900 56.39100 37.79300
H  8.98600 60.40900 39.38300
H  8.27200 59.37000 40.57400
H  7.54200 59.51700 38.93500
H  3.91400 58.15700 39.22600
H  2.35400 56.61100 41.30000
H  5.24100 58.02200 41.78500
H  3.53300 58.24100 42.14100
H  4.46600 59.38500 41.08000
H  1.50500 56.06300 38.56900
H  1.83300 57.74100 38.49800
H  -0.54300 56.72300 39.18800
H  0.02100 58.34500 39.87900
H  0.07600 56.92400 40.76900
H  0.53600 52.14500 40.04800
H  0.75500 51.24700 41.68500
H  0.49100 50.34400 40.25200
H  5.39500 48.06200 40.28800
H  4.92600 45.11700 37.87100
H  5.32100 46.06300 36.36400
H  3.69400 46.15900 37.05600

