158

Mg 24.52200 -8.08600 47.95600
C  26.89800 -5.71000 46.95600
C  22.33300 -6.61900 45.63600
C  22.48900 -10.77900 48.09600
C  26.95100 -9.77200 49.81500
N  24.61800 -6.19000 46.61200
C  25.67700 -5.37300 46.29500
C  25.46400 -4.45500 45.09200
C  23.92200 -4.68600 44.86000
C  23.51600 -5.88000 45.80400
C  22.92700 -3.53800 45.01500
C  26.36700 -4.89400 43.85300
C  26.83900 -3.70100 42.90500
H  26.19800 -3.59700 41.51400
N  22.64000 -8.64900 46.97200
C  21.88800 -7.87000 46.10100
C  20.70900 -8.61900 45.77700
C  20.71900 -9.80800 46.49200
C  22.00700 -9.76900 47.20600
C  19.60600 -8.09400 44.79100
C  19.65300 -10.92000 46.53500
O  18.60000 -10.74200 46.01000
C  19.83200 -12.14900 47.29800
N  24.65300 -9.96100 48.91600
C  23.62800 -10.87000 48.87500
C  23.93500 -12.09000 49.75900
C  25.28200 -11.71500 50.49900
C  25.65400 -10.44200 49.71500
C  22.76900 -12.34500 50.77400
C  26.35800 -12.89700 50.41700
C  27.48100 -12.85500 51.50100
N  26.46900 -7.81400 48.42500
C  27.33600 -8.54000 49.16200
C  28.68200 -7.97900 49.17400
C  28.48900 -6.82200 48.40000
C  27.15200 -6.78900 47.90300
C  29.96200 -8.48300 49.82400
C  29.14600 -5.63100 47.87500
O  30.28700 -5.24200 48.03600
C  28.20800 -4.94600 46.85100
C  28.06000 -3.47600 47.16800
O  27.56800 -2.90500 48.17100
O  28.72600 -2.77800 46.20000
C  28.54500 -1.28400 46.24800
H  21.70100 -6.22200 44.83900
H  21.92400 -11.67600 48.36000
H  27.70300 -10.26600 50.43400
H  25.67400 -3.44100 45.43200
H  23.82600 -5.05300 43.83800
H  22.56500 -3.29700 44.01500
H  23.51300 -2.66100 45.29200
H  22.10400 -3.73500 45.70100
H  25.76800 -5.62200 43.30600
H  27.08300 -5.55800 44.33700
H  27.88100 -3.94700 42.69800
H  26.94000 -2.79100 43.49600
H  19.88100 -7.27100 44.13100
H  18.75800 -7.70000 45.35000
H  19.16100 -8.97300 44.32400
H  20.70800 -12.70100 46.95800
H  19.01800 -12.87100 47.23500
H  19.83900 -11.95300 48.37000
H  23.93600 -12.84700 48.97500
H  25.22800 -11.40200 51.54100
H  22.56200 -13.41300 50.83000
H  21.85900 -11.77800 50.57700
H  23.22800 -12.13800 51.74100
H  26.87600 -12.75600 49.46800
H  25.87400 -13.87400 50.41800
H  27.28100 -12.16100 52.31800
H  28.44300 -12.67300 51.02300
H  27.42700 -13.88300 51.85900
H  29.81500 -8.87600 50.83000
H  30.69700 -7.68100 49.89700
H  30.29900 -9.33600 49.23500
H  28.66900 -5.08600 45.87400
H  29.17300 -0.79600 46.99300
H  27.51500 -0.96700 46.41000
H  28.84300 -0.95700 45.25200
Mg 25.75000 0.43700 29.15800
C  27.64000 -0.17200 32.04800
C  23.04400 1.11600 31.19500
C  24.03800 0.83200 26.39900
C  28.41500 -0.90100 27.25000
N  25.46600 0.74900 31.39300
C  26.39500 0.48600 32.36200
C  25.77200 0.54500 33.80100
C  24.25800 0.66600 33.45900
C  24.22100 0.98000 31.91000
C  23.38100 -0.51200 33.92500
C  26.32500 1.59500 34.79700
C  26.87100 1.00300 36.11100
H  26.74000 1.91400 37.30500
N  23.80700 0.91900 28.82100
C  22.81800 1.10000 29.81600
C  21.52500 1.23200 29.07700
C  21.81000 1.30000 27.65500
C  23.27800 1.06100 27.53900
C  20.21200 1.27300 29.75900
C  20.88900 1.41000 26.39700
O  21.24400 1.18800 25.21900
C  19.46300 1.79700 26.58400
N  26.22400 0.08900 27.12800
C  25.36400 0.38400 26.16000
C  26.01900 0.52300 24.78800
C  27.34800 -0.33600 24.93300
C  27.41700 -0.31200 26.55100
C  25.10500 0.03000 23.66500
C  28.54900 0.31500 24.27500
C  29.40300 1.47200 24.95200
N  27.64900 -0.19300 29.49500
C  28.61900 -0.78400 28.64900
C  29.69500 -1.29100 29.40100
C  29.33700 -1.01200 30.69700
C  28.09800 -0.43800 30.73700
C  30.95000 -1.99700 28.78500
C  29.86700 -1.12600 32.02700
O  30.97300 -1.63600 32.37000
C  28.75000 -0.62600 32.98700
C  28.43000 -1.65100 33.98600
O  27.54100 -2.41700 33.87700
O  29.26200 -1.61400 35.05100
C  29.01900 -2.45700 36.17500
H  22.12100 1.30300 31.74800
H  23.61500 0.99400 25.40500
H  29.27200 -1.22600 26.65600
H  25.95200 -0.44400 34.22300
H  23.81200 1.54800 33.91900
H  23.32600 -1.26200 33.13700
H  22.40700 -0.11500 34.21000
H  23.73400 -1.11900 34.75900
H  25.70900 2.45600 35.05500
H  27.18000 1.98400 34.24500
H  27.86700 0.62100 35.88600
H  26.37400 0.08200 36.41800
H  19.51200 0.48400 29.48500
H  19.75800 2.18700 29.37600
H  20.23400 1.17000 30.84400
H  18.86200 2.04500 25.70900
H  19.23800 2.63200 27.24700
H  18.95300 0.91300 26.96800
H  26.36700 1.54600 24.63800
H  27.17800 -1.37900 24.66700
H  24.33900 -0.61300 24.09800
H  25.66300 -0.39600 22.83100
H  24.40300 0.76400 23.27100
H  28.25400 0.62900 23.27300
H  29.23400 -0.52200 24.13200
H  28.94600 1.90700 25.84100
H  29.44500 2.27100 24.21200
H  30.43900 1.16000 25.09000
H  31.56700 -1.26400 28.26700
H  30.52000 -2.61200 27.99400
H  31.52000 -2.57400 29.51300
H  29.20600 0.19900 33.53400
H  28.88500 -3.44900 35.74500
H  28.09100 -2.15600 36.66200
H  29.85600 -2.51300 36.87100

