158

Mg 36.03000 48.56900 24.05900
C  36.51700 46.77000 27.04400
C  34.33700 50.93200 25.77500
C  35.39700 49.98200 21.14600
C  37.37000 45.65800 22.26200
N  35.46500 48.74200 26.14500
C  35.93600 48.04200 27.29500
C  35.54600 48.65600 28.56100
C  34.71900 49.92500 28.09100
C  34.76000 49.83200 26.58300
C  33.29000 50.19000 28.70100
C  36.84300 49.07900 29.34400
C  36.85800 48.89600 30.89600
H  35.56000 49.14400 31.63000
N  35.08200 50.25200 23.47500
C  34.40800 51.12600 24.33800
C  34.03000 52.30100 23.59900
C  34.23700 51.99200 22.21400
C  34.95600 50.69900 22.18800
C  33.56300 53.51200 24.31500
C  33.80500 52.78300 20.98700
O  34.12400 52.50200 19.82800
C  33.18400 54.10000 21.28300
N  36.46600 47.99200 21.99000
C  36.11300 48.80200 21.03000
C  36.49500 48.29600 19.63600
C  37.25600 46.90000 19.97500
C  37.07600 46.83500 21.47800
C  35.28500 48.02300 18.61400
C  38.81500 46.94800 19.65500
C  39.26900 46.18300 18.44000
N  36.73100 46.68200 24.50000
C  37.20400 45.60700 23.66300
C  37.36600 44.41400 24.50700
C  37.17400 44.87400 25.83300
C  36.72300 46.20300 25.77000
C  37.57200 43.03400 24.02000
C  37.27100 44.42200 27.26700
O  37.65100 43.42700 27.79400
C  36.87800 45.68400 28.04400
C  35.75900 45.44100 28.97300
O  34.62500 45.34700 28.59700
O  36.21100 45.28700 30.28000
C  35.11600 45.01500 31.27800
H  33.84700 51.73800 26.32500
H  35.23600 50.42600 20.16200
H  37.70500 44.76000 21.73700
H  34.80000 48.09500 29.12400
H  35.28800 50.82900 28.31200
H  33.37200 49.74500 29.69200
H  32.50000 49.71200 28.12000
H  33.08300 51.25800 28.76100
H  37.12500 50.07500 29.00300
H  37.66900 48.50400 28.92600
H  37.65600 49.52900 31.28400
H  37.24300 47.88600 31.03300
H  34.14800 54.30200 23.84300
H  33.81900 53.48600 25.37400
H  32.48100 53.48500 24.19200
H  32.27400 53.80500 21.80700
H  33.05000 54.53300 20.29100
H  33.78500 54.76100 21.90800
H  37.25900 48.96200 19.23500
H  36.80900 46.06900 19.43000
H  34.48300 48.69000 18.93200
H  34.93400 46.99100 18.58600
H  35.48800 48.38700 17.60700
H  39.47100 46.63400 20.46700
H  39.22100 47.94900 19.50800
H  38.49700 45.92500 17.71500
H  39.76800 45.23100 18.62000
H  39.96000 46.88500 17.97400
H  37.56100 42.33700 24.85800
H  38.55800 42.85700 23.59000
H  36.84500 42.68800 23.28500
H  37.69500 45.99400 28.69400
H  35.60900 44.94200 32.24700
H  34.75600 43.99600 31.13600
H  34.22600 45.64400 31.26900
Mg 26.98600 49.62500 25.71200
C  25.22200 50.87300 28.61700
C  29.52900 48.45900 27.91100
C  28.90400 48.99200 23.06800
C  24.73700 51.30500 23.70300
N  27.42100 49.87400 27.97700
C  26.44100 50.20600 28.95700
C  26.93600 49.81300 30.38400
C  28.47800 49.39000 30.15600
C  28.53200 49.23300 28.55800
C  29.51900 50.57200 30.54900
C  25.94800 48.83000 31.06400
C  25.48300 49.11000 32.52100
H  26.46900 49.51500 33.54700
N  28.78100 48.56900 25.53000
C  29.66300 48.15100 26.54700
C  30.85300 47.56700 25.91700
C  30.73200 47.83100 24.49400
C  29.44700 48.49800 24.31500
C  31.88200 46.78900 26.65300
C  31.69700 47.46200 23.40700
O  31.53500 47.77200 22.22700
C  32.96100 46.80500 23.67600
N  26.89000 50.20000 23.63700
C  27.76300 49.76000 22.75800
C  27.34700 50.03600 21.30400
C  25.91800 50.75100 21.59200
C  25.82100 50.72900 23.09200
C  28.29500 50.95300 20.56100
C  24.71600 50.10400 20.86800
C  24.23300 48.66200 21.18100
N  25.30000 50.83600 26.07500
C  24.50700 51.41600 25.10300
C  23.48400 52.09600 25.75400
C  23.65900 51.86800 27.08800
C  24.85100 51.18500 27.26400
C  22.26800 52.84000 25.17300
C  23.13400 52.08200 28.50200
O  22.07600 52.65100 28.77900
C  24.14300 51.38700 29.46700
C  24.49700 52.32500 30.57900
O  25.38200 53.10200 30.62800
O  23.67200 52.12100 31.61800
C  23.87200 53.07500 32.74700
H  30.23300 48.11600 28.67100
H  29.55200 48.80500 22.20900
H  24.06500 51.81900 23.01300
H  26.97900 50.74500 30.94700
H  28.80900 48.51500 30.71400
H  29.97400 51.02700 29.66800
H  30.34400 50.12900 31.10600
H  29.02200 51.35800 31.11800
H  26.27900 47.79100 31.03800
H  25.08800 48.90700 30.39800
H  25.10600 48.15100 32.87600
H  24.66700 49.82700 32.43400
H  32.11200 45.80200 26.25200
H  31.44800 46.64000 27.64200
H  32.82600 47.32700 26.74600
H  33.44500 47.38000 24.46500
H  33.55500 46.63800 22.77700
H  32.77100 45.86000 24.18600
H  27.19100 49.01800 20.94700
H  25.96600 51.82400 21.40600
H  28.50200 50.53400 19.57600
H  29.18900 51.20400 21.13300
H  27.92700 51.95100 20.32300
H  24.92800 50.04200 19.80100
H  23.95100 50.88100 20.85100
H  24.78100 47.92600 20.59300
H  23.21000 48.43400 20.88000
H  24.34300 48.39700 22.23300
H  22.56400 53.76500 24.68000
H  21.48900 52.99600 25.92000
H  21.74600 52.27700 24.39900
H  23.68900 50.52700 29.95900
H  24.58400 52.59300 33.41800
H  22.91700 53.07000 33.27200
H  24.27500 54.03500 32.42500

