158

Mg 9.29900 47.47100 26.43700
C  7.35200 47.88900 29.42900
C  12.14100 48.36800 28.17500
C  11.01600 47.27600 23.61300
C  6.28600 46.62800 24.77300
N  9.63800 48.25600 28.50600
C  8.70800 48.21200 29.57800
C  9.36600 48.60300 30.87000
C  10.83400 49.10200 30.39200
C  10.88900 48.58100 28.91700
C  11.23300 50.59000 30.45500
C  9.67400 47.35900 31.80900
C  9.13600 47.52400 33.20500
H  9.35100 46.37300 34.24900
N  11.27200 47.67800 26.01600
C  12.32200 47.95400 26.87000
C  13.60400 48.01400 26.17700
C  13.33200 47.79300 24.83100
C  11.85700 47.56200 24.75200
C  14.96700 48.35100 26.85400
C  14.20700 47.60900 23.63500
O  13.75700 47.30300 22.56300
C  15.59900 47.88200 23.77700
N  8.76300 47.01500 24.54400
C  9.70000 46.95700 23.53700
C  9.04900 46.53800 22.24100
C  7.59400 46.16700 22.61600
C  7.49200 46.71000 24.04500
C  9.10900 47.62100 21.07300
C  7.29900 44.73400 22.38400
C  8.10500 43.68400 23.12900
N  7.20900 47.32500 26.90500
C  6.14400 47.04400 26.06900
C  4.98400 47.09000 26.89800
C  5.39500 47.33800 28.19400
C  6.79500 47.55300 28.20600
C  3.57100 46.98100 26.38200
C  4.92000 47.55400 29.56000
O  3.85800 47.63700 30.10400
C  6.19000 47.79600 30.42000
C  6.30900 46.55300 31.30200
O  6.68400 45.44100 30.99500
O  5.82900 46.79700 32.57900
C  5.88800 45.74400 33.56100
H  12.98200 48.76900 28.74500
H  11.35400 47.32100 22.57500
H  5.45800 46.30400 24.13900
H  8.79800 49.42900 31.29700
H  11.66900 48.64500 30.92300
H  11.98900 50.68900 29.67600
H  11.51900 50.95500 31.44100
H  10.22700 50.95500 30.24400
H  10.72500 47.19000 32.04200
H  9.12900 46.48300 31.45800
H  8.05100 47.58200 33.12200
H  9.41800 48.49900 33.60100
H  15.63300 47.49800 26.72900
H  15.01600 48.67200 27.89400
H  15.43900 49.24300 26.44300
H  16.16600 47.76100 22.85400
H  15.81700 47.08200 24.48500
H  15.70300 48.85200 24.26400
H  9.67700 45.74300 21.83900
H  6.89400 46.82800 22.10500
H  9.53800 47.18000 20.17300
H  9.80700 48.41300 21.34100
H  8.11900 47.99800 20.81500
H  7.25200 44.49100 21.32300
H  6.29000 44.60400 22.77500
H  9.05200 44.01500 23.55500
H  8.26400 42.82000 22.48300
H  7.65400 43.27700 24.03300
H  2.87900 47.52900 27.02100
H  3.24100 45.96300 26.17200
H  3.51900 47.50600 25.42800
H  6.16100 48.75000 30.94600
H  4.92100 45.24400 33.61100
H  5.89100 46.25900 34.52200
H  6.72100 45.05400 33.42300
Mg -12.75600 16.97500 41.58100
C  -9.92100 15.08900 40.86500
C  -11.44600 19.63600 39.71600
C  -15.86700 18.35200 41.47600
C  -14.34800 13.92500 42.77000
N  -10.88200 17.32800 40.39100
C  -9.90400 16.36400 40.24800
C  -8.68800 17.02000 39.54200
C  -9.05400 18.48200 39.41300
C  -10.52300 18.52800 39.89100
C  -8.12300 19.43600 40.13700
C  -8.38800 16.29000 38.25000
C  -6.90100 15.83600 38.16600
H  -6.18300 16.52600 37.07900
N  -13.45900 18.69200 40.84800
C  -12.72500 19.72400 40.16700
C  -13.70100 20.79600 39.85700
C  -14.90400 20.52400 40.50000
C  -14.76800 19.11800 40.93300
C  -13.30500 22.02100 39.11700
C  -16.06700 21.51000 40.66700
O  -16.12600 22.56300 40.01600
C  -17.14300 21.30900 41.66000
N  -14.84100 16.17900 41.93300
C  -15.90600 17.02600 41.98100
C  -17.20600 16.36900 42.45300
C  -16.67300 14.94200 42.95100
C  -15.22400 14.97600 42.55100
C  -18.04000 17.10300 43.53800
C  -17.36900 13.69200 42.43700
C  -18.23400 12.83400 43.38600
N  -12.25300 15.00400 41.98300
C  -12.98000 13.92700 42.42800
C  -12.04900 12.79400 42.47400
C  -10.84000 13.19500 41.81800
C  -11.03500 14.55200 41.51900
C  -12.35200 11.42900 43.13500
C  -9.54800 12.69000 41.47100
O  -8.95900 11.61600 41.57900
C  -8.92100 13.90600 40.80400
C  -7.65900 14.11500 41.57400
O  -7.52900 14.64100 42.65600
O  -6.65400 13.69000 40.81100
C  -5.34900 13.94700 41.50700
H  -10.96200 20.39600 39.09900
H  -16.86600 18.79000 41.52500
H  -14.82400 13.03200 43.18200
H  -7.96800 16.94700 40.35700
H  -9.11600 18.76900 38.36300
H  -7.07600 19.35600 39.84300
H  -8.30700 19.30100 41.20300
H  -8.41700 20.44200 39.83900
H  -8.56600 16.87800 37.35000
H  -9.09500 15.47100 38.12300
H  -6.93700 14.75900 38.00500
H  -6.37800 16.07900 39.09200
H  -14.10600 22.26000 38.41800
H  -12.50200 21.96500 38.38200
H  -13.10300 22.80200 39.85000
H  -17.62300 22.20100 42.06300
H  -16.81100 20.86200 42.59700
H  -17.87300 20.77200 41.05500
H  -17.82500 16.17200 41.57700
H  -16.75000 14.88800 44.03700
H  -17.96500 16.65700 44.53000
H  -19.12100 17.13000 43.40300
H  -17.56000 18.08100 43.58300
H  -16.68200 13.00500 41.94200
H  -18.01100 13.96300 41.59800
H  -19.27500 12.70200 43.09100
H  -18.29900 13.20800 44.40800
H  -17.71100 11.88400 43.48800
H  -11.37300 11.00200 43.35300
H  -12.96700 10.87200 42.42900
H  -12.90400 11.43600 44.07500
H  -8.61600 13.62200 39.79700
H  -5.12600 13.24000 42.30600
H  -5.36800 14.89400 42.04700
H  -4.55200 13.92300 40.76300

