158

Mg 17.09400 51.95900 26.45000
C  19.10500 50.41000 28.87500
C  14.83300 52.67800 29.07300
C  14.99400 53.40200 24.23900
C  19.06300 50.70800 23.87200
N  16.95200 51.64300 28.63200
C  17.98200 51.01000 29.39000
C  17.60600 51.17800 30.92400
C  16.03400 51.47000 30.88100
C  15.96000 51.96700 29.44300
C  15.16700 50.22500 31.19100
C  18.49200 52.25400 31.60400
C  18.82800 52.03100 33.06800
H  17.82800 51.21900 33.85200
N  15.15300 52.83800 26.62500
C  14.47900 53.17800 27.83700
C  13.16300 53.77400 27.49900
C  13.13500 53.77000 26.06600
C  14.40100 53.32300 25.54300
C  12.02300 53.98100 28.56800
C  12.01500 54.29100 25.15100
O  12.21500 54.38100 23.94100
C  10.68700 54.74300 25.69800
N  17.06900 52.07600 24.44900
C  16.14200 52.79100 23.72400
C  16.48700 52.85700 22.22500
C  17.82800 52.00100 22.14200
C  18.07300 51.60600 23.58600
C  15.34400 52.23300 21.32500
C  19.09200 52.63700 21.50400
C  19.71600 53.83400 22.35200
N  18.77800 50.93300 26.38300
C  19.40600 50.43200 25.21700
C  20.56900 49.61700 25.69200
C  20.53900 49.68200 27.15000
C  19.42900 50.39100 27.46700
C  21.39000 48.81000 24.90200
C  21.09100 49.17800 28.46600
O  22.05200 48.44400 28.66500
C  20.29300 49.77300 29.64400
C  19.82000 48.75800 30.61200
O  19.03900 47.85100 30.53600
O  20.58900 48.97600 31.77500
C  20.59400 47.92700 32.87900
H  14.25500 52.85000 29.98400
H  14.33600 53.78400 23.45600
H  19.80800 50.37300 23.14800
H  17.83100 50.19900 31.34800
H  15.76400 52.22700 31.61700
H  15.78600 49.33500 31.30400
H  14.42400 50.05200 30.41200
H  14.64300 50.42000 32.12700
H  18.10600 53.26300 31.46100
H  19.44700 52.17700 31.08400
H  19.11400 53.01800 33.43100
H  19.66300 51.33400 33.00400
H  12.10400 53.47000 29.52800
H  11.04300 53.59800 28.28300
H  11.98300 55.06300 28.69700
H  10.14600 53.89200 26.11100
H  10.01900 55.07600 24.90300
H  10.99000 55.50100 26.42100
H  16.69800 53.89000 21.94900
H  17.67600 51.07000 21.59600
H  14.45700 52.02400 21.92300
H  15.63000 51.31200 20.81600
H  15.13800 52.95300 20.53300
H  18.85800 53.16400 20.57900
H  19.84200 51.87400 21.29700
H  19.34000 53.97200 23.36600
H  19.58900 54.77000 21.80800
H  20.77900 53.59300 22.37700
H  21.91800 48.15100 25.59100
H  22.15400 49.32200 24.31700
H  20.89200 48.13400 24.20800
H  20.97300 50.46300 30.14400
H  20.45700 46.93600 32.44600
H  19.78100 48.20300 33.55000
H  21.48800 47.91600 33.50400
Mg -12.96500 16.08100 42.07700
C  -9.94100 14.57700 41.48100
C  -11.68600 19.04200 40.55300
C  -16.04100 17.55400 42.38100
C  -14.41900 13.02100 42.87300
N  -10.92900 16.71700 41.14500
C  -9.84400 15.92200 41.07700
C  -8.65100 16.65200 40.38400
C  -9.23600 18.13200 40.31200
C  -10.69200 18.00000 40.70900
C  -8.42900 19.28900 41.01300
C  -8.09500 15.99200 39.12500
C  -6.58200 15.51600 39.07800
H  -5.69700 16.29100 38.12400
N  -13.74900 18.07100 41.59400
C  -13.01400 19.09600 41.01300
C  -13.93100 20.23200 40.87900
C  -15.19900 19.82200 41.42700
C  -15.03300 18.43600 41.87800
C  -13.42600 21.49200 40.22000
C  -16.45100 20.75300 41.61300
O  -16.49100 21.87400 41.12400
C  -17.59500 20.36700 42.50800
N  -14.96400 15.41800 42.51000
C  -16.01700 16.20300 42.73500
C  -17.22600 15.47100 43.28800
C  -16.77100 14.03900 43.14400
C  -15.27800 14.17300 42.85900
C  -17.60900 15.86400 44.83500
C  -17.49000 13.23100 42.00400
C  -17.43600 11.66500 42.06100
N  -12.28600 14.18800 42.35500
C  -13.01200 13.01800 42.67200
C  -12.05400 11.92600 42.76000
C  -10.82300 12.47600 42.32300
C  -11.01100 13.87200 42.05400
C  -12.30600 10.58100 43.27100
C  -9.42800 12.24000 41.96700
O  -8.83200 11.18400 41.88700
C  -8.82900 13.57200 41.52100
C  -7.79500 14.06000 42.48500
O  -7.99900 14.42100 43.64100
O  -6.57000 13.95700 41.84500
C  -5.32700 14.35600 42.60800
H  -11.28400 19.96100 40.12300
H  -17.02500 18.01500 42.27400
H  -14.89000 12.05200 43.05100
H  -7.84500 16.64800 41.11800
H  -9.21900 18.40100 39.25600
H  -7.54800 18.93100 41.54600
H  -9.19300 19.71800 41.66200
H  -8.23600 20.14300 40.36500
H  -8.28400 16.55500 38.21000
H  -8.66300 15.07900 38.95100
H  -6.75100 14.58100 38.54500
H  -6.06300 15.53600 40.03700
H  -13.77300 21.42800 39.18900
H  -12.33700 21.53500 40.20500
H  -13.76300 22.34800 40.80400
H  -18.37500 20.01100 41.83500
H  -17.88500 21.34300 42.89600
H  -17.32400 19.66000 43.29200
H  -18.12600 15.69600 42.71500
H  -16.99500 13.54500 44.08900
H  -18.00900 16.87800 44.84400
H  -16.74700 15.65600 45.46900
H  -18.40600 15.22800 45.22100
H  -16.89700 13.49400 41.12800
H  -18.51400 13.60300 41.99400
H  -16.85800 11.23800 41.24200
H  -18.41800 11.19600 41.99500
H  -17.05800 11.39600 43.04800
H  -13.20300 10.18300 42.79500
H  -12.42700 10.57100 44.35400
H  -11.46300 9.93200 43.03600
H  -8.39400 13.53800 40.52200
H  -4.57100 14.89600 42.03600
H  -4.75100 13.46300 42.85100
H  -5.60200 14.91600 43.50100

