158

Mg -1.62300 17.76900 25.99600
C  -1.74200 15.54000 28.87200
C  -2.55800 20.21900 27.97100
C  -1.65400 19.64100 23.29200
C  -1.46900 14.78000 23.96500
N  -2.25000 17.75500 28.13300
C  -2.05300 16.84600 29.17500
C  -2.58400 17.39700 30.52400
C  -2.93100 18.85400 30.07800
C  -2.58000 18.97000 28.61200
C  -4.25600 19.44300 30.59400
C  -1.57000 17.07600 31.66400
C  -1.36200 18.13400 32.65800
H  -0.79300 17.63200 33.98600
N  -1.77800 19.68800 25.75900
C  -2.25100 20.58700 26.68300
C  -2.21500 21.97000 26.09900
C  -1.70500 21.79800 24.79500
C  -1.62800 20.33500 24.58000
C  -2.70800 23.08000 26.82200
C  -1.34100 22.83300 23.71800
O  -1.11500 22.45800 22.57300
C  -1.15300 24.25000 24.17200
N  -1.82900 17.32800 23.96100
C  -1.72400 18.30900 22.99000
C  -2.05600 17.80800 21.57700
C  -1.58600 16.33400 21.80800
C  -1.61200 16.12100 23.32700
C  -3.53800 18.04400 21.18200
C  -0.19900 15.94600 21.12500
C  1.03700 16.32000 21.91800
N  -1.34800 15.58700 26.32600
C  -1.42000 14.55200 25.39700
C  -1.45400 13.24600 26.06900
C  -1.50300 13.59200 27.44900
C  -1.50700 15.05800 27.54200
C  -1.57000 11.91100 25.50900
C  -1.60100 13.00900 28.79200
O  -1.73600 11.83900 29.13400
C  -1.68100 14.25300 29.81800
C  -0.51300 14.13400 30.64900
O  0.63200 14.57100 30.40200
O  -0.94000 13.61800 31.84100
C  0.02000 13.36200 32.92300
H  -2.73800 21.00000 28.71300
H  -1.58700 20.22600 22.37300
H  -1.58200 13.85800 23.39000
H  -3.54200 16.89000 30.63700
H  -2.15700 19.49200 30.50400
H  -4.81600 18.63500 31.06500
H  -4.78800 20.00100 29.82300
H  -4.01500 20.15500 31.38400
H  -0.61000 16.96200 31.16100
H  -1.75700 16.12600 32.16500
H  -2.23400 18.76900 32.81700
H  -0.65300 18.87500 32.29100
H  -3.48700 22.94500 27.57100
H  -3.06900 23.85400 26.14500
H  -1.83400 23.43900 27.36600
H  -0.30500 24.21900 24.85600
H  -2.07800 24.63500 24.60200
H  -0.95000 24.73700 23.21800
H  -1.36500 18.23800 20.85100
H  -2.40200 15.69400 21.47300
H  -4.12000 17.97900 22.10200
H  -3.91300 17.28800 20.49200
H  -3.80100 19.03100 20.79900
H  -0.08300 16.64600 20.29700
H  -0.19000 14.95300 20.67700
H  0.80500 17.01400 22.72600
H  1.79900 16.90300 21.40000
H  1.44000 15.37800 22.29000
H  -1.03800 11.89500 24.55800
H  -2.59100 11.55200 25.38100
H  -1.02700 11.22800 26.16300
H  -2.50600 14.15300 30.52300
H  1.05100 13.47700 32.58800
H  -0.16100 12.33600 33.24600
H  -0.09600 13.96700 33.82200
Mg 8.95500 48.29800 27.71800
C  7.08600 47.89100 30.64900
C  11.65900 48.90900 29.78100
C  10.73800 49.33700 25.08100
C  6.05900 48.70400 25.95000
N  9.24800 48.67100 29.95800
C  8.42900 48.18400 30.91800
C  9.07600 48.26700 32.36800
C  10.49800 48.80900 32.12400
C  10.49000 48.74700 30.49200
C  10.85800 50.22500 32.65200
C  8.98700 46.98800 33.28000
C  8.40400 47.18100 34.67200
H  8.50100 45.94300 35.59000
N  10.94500 48.85300 27.46700
C  11.90400 48.91500 28.42000
C  13.18000 49.18300 27.82900
C  12.91100 49.31700 26.42000
C  11.48400 49.16800 26.23700
C  14.46200 49.37600 28.67200
C  13.92700 49.50600 25.31000
O  13.51400 49.66000 24.13100
C  15.35000 49.48900 25.63200
N  8.50800 48.91500 25.71300
C  9.44300 49.28300 24.83300
C  8.75100 49.78700 23.59600
C  7.23600 49.48800 23.87300
C  7.27300 48.93300 25.25100
C  9.11300 51.21800 23.06300
C  6.53100 48.56800 22.84500
C  6.86200 48.76400 21.33100
N  6.92100 48.11900 28.08000
C  5.83700 48.27700 27.25300
C  4.62000 48.01200 28.04000
C  5.05800 47.89900 29.38300
C  6.47800 47.91300 29.34400
C  3.25500 48.03900 27.51200
C  4.64000 47.78200 30.78600
O  3.51600 47.73300 31.31000
C  5.92800 47.68300 31.63200
C  5.87200 46.21400 32.21000
O  6.12500 45.12300 31.68800
O  5.47600 46.32500 33.52300
C  5.40800 45.09100 34.27100
H  12.47200 49.16400 30.46400
H  11.27300 49.58300 24.16100
H  5.14600 48.90300 25.38600
H  8.48000 49.04200 32.85100
H  11.26300 48.13200 32.50200
H  10.07000 50.60400 33.30300
H  11.00400 50.95500 31.85600
H  11.78900 50.23900 33.21900
H  9.96400 46.58700 33.54900
H  8.50900 46.14200 32.78600
H  7.40700 47.58700 34.50400
H  8.96000 47.98100 35.16000
H  14.57200 50.46000 28.64300
H  15.33600 49.02100 28.12600
H  14.39200 48.94700 29.67100
H  15.71300 50.18900 26.38500
H  15.84200 49.81000 24.71400
H  15.66400 48.49200 25.94000
H  8.99700 49.06400 22.81800
H  6.76000 50.46200 23.98800
H  8.23900 51.83700 23.26800
H  9.37100 51.30400 22.00800
H  9.85000 51.74300 23.67100
H  5.48500 48.87300 22.87100
H  6.68300 47.52300 23.11200
H  7.27400 49.76700 21.22100
H  5.93300 48.81000 20.76200
H  7.52300 47.99500 20.93200
H  3.22200 48.93100 26.88700
H  2.45800 48.03600 28.25600
H  3.20800 47.12600 26.91900
H  5.97100 48.42700 32.42700
H  4.62200 44.39700 33.97200
H  5.35300 45.37500 35.32200
H  6.32600 44.52800 34.10200

