158

Mg 41.38900 40.83400 27.38600
C  40.65200 43.32100 29.75700
C  42.41300 38.84900 29.95000
C  42.46500 38.62000 25.11500
C  40.59600 43.18200 24.91000
N  41.51700 41.09100 29.56100
C  41.15100 42.08800 30.30800
C  41.04900 41.69900 31.83300
C  41.82600 40.32400 31.86900
C  41.93400 40.05700 30.33400
C  43.19400 40.14300 32.70500
C  39.56600 41.63500 32.43600
C  39.22800 42.65000 33.54500
H  38.54000 42.04400 34.80800
N  42.21200 38.90900 27.49000
C  42.58000 38.26300 28.62900
C  43.17800 36.99200 28.34400
C  43.19700 36.92100 26.93900
C  42.63900 38.17400 26.45100
C  43.87600 36.19100 29.39700
C  43.78500 35.85500 26.06100
O  43.69700 35.87000 24.81100
C  44.48600 34.66400 26.65700
N  41.67800 40.97200 25.32700
C  42.08500 39.88800 24.58200
C  41.79300 40.18300 23.07200
C  41.01400 41.49700 23.05900
C  41.08700 41.90300 24.53400
C  43.16400 40.16900 22.17000
C  39.61700 41.33700 22.50200
C  38.52800 40.74300 23.43500
N  40.73700 42.84600 27.27800
C  40.40800 43.68400 26.18200
C  39.89900 44.93500 26.64200
C  40.05000 44.85100 28.03900
C  40.48900 43.56300 28.35600
C  39.49000 46.02500 25.73500
C  39.82100 45.60400 29.31500
O  39.53300 46.83500 29.56100
C  40.09500 44.52600 30.45400
C  41.07600 45.10800 31.42000
O  42.25900 45.27700 31.20800
O  40.37900 45.61100 32.48300
C  41.21200 46.43200 33.36000
H  42.71800 38.24900 30.81000
H  42.85300 38.01700 24.29100
H  40.32000 43.82600 24.07200
H  41.61400 42.43400 32.40600
H  41.30600 39.44800 32.25800
H  43.43200 41.14500 33.06400
H  44.05200 39.75200 32.15700
H  43.14800 39.52500 33.60200
H  39.39500 40.69100 32.95200
H  38.80900 41.73800 31.65900
H  38.55800 43.34300 33.03600
H  40.13400 43.19800 33.80600
H  44.90300 36.05500 29.05900
H  43.28400 35.28200 29.50200
H  43.84100 36.65900 30.38100
H  43.95900 34.28400 27.53100
H  45.52000 34.96300 26.82700
H  44.47500 33.95400 25.83000
H  41.11800 39.42300 22.68000
H  41.62400 42.23100 22.53400
H  43.29200 41.15300 21.71900
H  43.01500 39.39500 21.41700
H  44.09100 39.89500 22.67300
H  39.52100 40.77400 21.57400
H  39.25300 42.29700 22.13500
H  37.92400 40.03300 22.87000
H  37.85400 41.52500 23.78300
H  38.95900 40.20700 24.28000
H  39.05700 45.57100 24.84400
H  40.38200 46.60300 25.49000
H  38.79100 46.59500 26.34800
H  39.12500 44.33200 30.91000
H  41.87500 45.80600 33.95800
H  40.65400 47.05300 34.06100
H  41.78600 47.19300 32.83200
Mg 16.72300 51.70800 25.18300
C  18.73200 50.61400 27.89000
C  14.44200 52.65300 27.53200
C  14.98500 52.84800 22.66400
C  19.14200 50.42200 23.00300
N  16.65100 51.85200 27.43300
C  17.52400 51.21700 28.33400
C  17.14800 51.48800 29.83500
C  15.63800 51.90400 29.72500
C  15.58500 52.17800 28.14900
C  14.60800 50.90500 30.31900
C  18.01200 52.65800 30.37600
C  18.51100 52.64500 31.88000
H  17.52200 52.09400 32.94000
N  14.97200 52.64900 25.05300
C  14.17400 52.98100 26.11200
C  13.00900 53.60100 25.59700
C  13.10700 53.71400 24.23200
C  14.37700 53.05000 23.86100
C  11.86700 54.24200 26.54300
C  12.23500 54.38200 23.25700
O  12.46800 54.60800 22.08400
C  10.82000 54.84100 23.72400
N  17.02900 51.72500 23.08200
C  16.14900 52.20600 22.21000
C  16.53200 51.99100 20.71600
C  17.93900 51.37100 20.89200
C  18.03800 51.15700 22.38800
C  15.68800 51.13900 19.82500
C  19.11200 52.21000 20.32100
C  20.24700 51.33600 19.63800
N  18.58800 50.70900 25.35300
C  19.42000 50.16900 24.39700
C  20.46900 49.47100 24.99900
C  20.28900 49.63800 26.38400
C  19.08600 50.37600 26.54200
C  21.69200 48.75700 24.36000
C  20.76100 49.32300 27.67800
O  21.80900 48.85900 28.00600
C  19.84700 49.97200 28.76700
C  19.48900 49.05800 29.79700
O  18.65400 48.16000 29.67700
O  20.14400 49.29400 30.96100
C  19.65100 48.56300 32.14700
H  13.70700 52.96900 28.27600
H  14.36300 53.16900 21.82600
H  19.80400 49.92700 22.29000
H  17.28500 50.59200 30.44000
H  15.36400 52.84100 30.20900
H  13.85600 50.60000 29.59100
H  14.08700 51.35100 31.16600
H  15.06300 49.97900 30.67000
H  17.47200 53.60500 30.38500
H  18.93900 52.76700 29.81300
H  18.62600 53.70300 32.11700
H  19.41100 52.03100 31.89400
H  12.14500 54.40700 27.58400
H  10.98400 53.60800 26.47000
H  11.71900 55.24400 26.14100
H  10.33600 54.18900 24.45100
H  10.24400 54.95800 22.80600
H  10.84000 55.87600 24.06600
H  16.64700 52.94600 20.20400
H  17.99000 50.36400 20.48000
H  16.18600 50.54200 19.06100
H  14.95300 51.74700 19.29800
H  15.04000 50.48200 20.40400
H  19.51400 52.76100 21.17100
H  18.74700 53.00400 19.67000
H  20.34800 51.48600 18.56300
H  20.04500 50.27100 19.75600
H  21.24600 51.46700 20.05500
H  21.44900 48.39400 23.36100
H  21.97200 47.88700 24.95500
H  22.53000 49.44400 24.47500
H  20.54000 50.69200 29.20300
H  19.39100 47.59000 31.72900
H  18.79200 48.97200 32.67900
H  20.37000 48.53500 32.96500

