158

Mg 1.59400 -2.95900 45.00900
C  4.93300 -2.07600 44.32900
C  0.66800 -0.43000 42.97300
C  -1.49600 -4.37300 44.89100
C  2.75500 -5.82000 46.81200
N  2.79900 -1.46100 43.75800
C  4.12700 -1.34000 43.55800
C  4.34300 -0.19200 42.47800
C  2.90000 0.44100 42.30700
C  2.05200 -0.51900 43.17700
C  2.75900 1.88900 42.79600
C  4.83900 -0.69400 41.18300
C  5.98600 0.13300 40.49500
H  5.50400 0.85100 39.19800
N  -0.19900 -2.46500 44.09800
C  -0.34400 -1.34400 43.35800
C  -1.74800 -1.25800 42.92100
C  -2.40400 -2.39300 43.45500
C  -1.39200 -3.15700 44.20200
C  -2.37700 -0.14500 42.10200
C  -3.87500 -2.66000 43.31200
O  -4.57900 -1.88400 42.70700
C  -4.52700 -3.89500 44.02400
N  0.65500 -4.75200 45.79500
C  -0.62100 -5.13300 45.65600
C  -0.88700 -6.54800 46.00000
C  0.45400 -6.92600 46.89800
C  1.36700 -5.72800 46.54300
C  -2.14600 -6.85600 46.83800
C  1.10600 -8.30800 46.43000
C  1.48900 -9.21200 47.66300
N  3.40700 -3.82100 45.53300
C  3.74800 -4.92500 46.22300
C  5.19200 -4.99500 46.43700
C  5.67500 -3.87600 45.75300
C  4.54700 -3.22000 45.21200
C  5.99600 -6.07200 47.09500
C  6.93300 -3.16400 45.32200
O  8.07600 -3.43400 45.58500
C  6.47700 -2.12800 44.27100
C  6.99000 -0.85700 44.70600
O  6.95300 -0.48700 45.88100
O  7.70900 -0.26100 43.72900
C  8.45200 0.94400 44.02300
H  0.25600 0.37400 42.35800
H  -2.42300 -4.92800 44.73100
H  3.13100 -6.66800 47.38700
H  5.05500 0.51700 42.90000
H  2.63400 0.26700 41.26500
H  2.17500 2.16200 43.67500
H  2.38000 2.48300 41.96500
H  3.73200 2.21500 43.16200
H  4.06900 -0.80800 40.42100
H  5.28000 -1.66300 41.41400
H  6.81700 -0.52000 40.22700
H  6.38100 0.91700 41.14100
H  -3.12000 0.43900 42.64600
H  -2.86900 -0.61800 41.25200
H  -1.65200 0.51400 41.62500
H  -4.17700 -4.83000 43.58700
H  -5.61600 -3.91400 44.08200
H  -4.19300 -3.98100 45.05800
H  -0.74200 -7.10300 45.07300
H  0.25500 -6.87900 47.96900
H  -2.64500 -7.72700 46.41200
H  -2.76900 -5.96200 46.85300
H  -1.79000 -7.03200 47.85300
H  2.03300 -8.14800 45.87800
H  0.43300 -8.88700 45.79800
H  2.55900 -9.12100 47.84800
H  1.38300 -10.28600 47.50800
H  0.86900 -8.95400 48.52100
H  5.93300 -6.96700 46.47700
H  5.73400 -6.32700 48.12200
H  7.04400 -5.78200 47.17200
H  6.78600 -2.36000 43.25200
H  7.80400 1.80800 43.87900
H  9.28200 1.03300 43.32300
H  8.77000 0.97600 45.06600
Mg 45.69200 5.26600 47.33500
C  43.43300 7.88700 46.47700
C  42.95800 3.05900 46.91200
C  47.73100 2.64900 47.21200
C  48.28300 7.55300 47.45400
N  43.45900 5.45300 46.40900
C  42.82300 6.67500 46.23600
C  41.35100 6.46400 45.88500
C  41.17500 4.91400 46.26800
C  42.57700 4.41600 46.59200
C  40.27800 4.62700 47.41800
C  40.99400 6.78300 44.32800
C  39.97800 7.86000 44.02600
H  40.39000 8.83300 42.90900
N  45.43400 3.14900 47.09200
C  44.19800 2.45900 47.03900
C  44.49100 1.07200 46.92700
C  45.86600 0.81200 46.90600
C  46.43900 2.23900 47.00800
C  43.33700 0.06700 46.89600
C  46.51100 -0.60600 46.71900
O  45.80500 -1.58500 46.54200
C  48.01300 -0.69100 46.64200
N  47.72900 5.17100 47.22200
C  48.30000 3.95900 47.37200
C  49.87200 4.09700 47.52200
C  50.05400 5.65900 47.77300
C  48.59900 6.17100 47.49300
C  50.51200 3.24600 48.67700
C  51.08400 6.33700 46.83400
C  51.93700 7.62100 47.30800
N  45.86500 7.30000 47.14200
C  47.00900 8.12200 47.14400
C  46.56500 9.50200 47.00800
C  45.20300 9.43900 46.82200
C  44.78500 8.08400 46.80900
C  47.52500 10.59900 46.98500
C  44.03800 10.25900 46.62000
O  43.94500 11.47600 46.58000
C  42.86000 9.33400 46.28200
C  41.72500 9.55900 47.24000
O  41.48900 8.97300 48.29500
O  40.88000 10.44800 46.69400
C  39.56000 10.67100 47.45100
H  42.09800 2.39200 46.99300
H  48.45500 1.83300 47.26300
H  49.10900 8.21000 47.73100
H  40.81100 7.10800 46.57900
H  40.83300 4.32100 45.41900
H  40.49300 3.65800 47.87000
H  39.22400 4.78400 47.19000
H  40.42800 5.31100 48.25400
H  40.49500 5.91000 43.90700
H  41.92200 6.99500 43.79800
H  39.99800 8.47000 44.92900
H  39.04200 7.36400 43.77000
H  43.53400 -0.79700 47.53000
H  43.27700 -0.35700 45.89400
H  42.30500 0.38200 47.05300
H  48.54200 -0.39200 47.54700
H  48.32400 0.00100 45.85900
H  48.21900 -1.73900 46.42400
H  50.37700 3.95600 46.56700
H  50.32300 5.87700 48.80700
H  51.34600 2.64100 48.32200
H  49.72100 2.67700 49.16700
H  50.92300 3.71800 49.57000
H  50.60300 6.63700 45.90400
H  51.78300 5.51500 46.68100
H  52.79800 7.23900 47.85600
H  51.41600 8.18500 48.08100
H  52.08500 8.33200 46.49400
H  48.01500 10.77600 47.94300
H  46.90200 11.37600 46.54300
H  48.18900 10.15600 46.24200
H  42.52000 9.46600 45.25500
H  39.68400 11.33700 48.30500
H  39.07800 9.77100 47.83500
H  38.86300 11.08600 46.72300

