158

Mg -2.17500 17.40500 26.33500
C  -2.14100 15.04900 28.83500
C  -3.40900 19.73300 28.64700
C  -2.19000 19.59700 23.85500
C  -1.55300 14.76300 24.00900
N  -2.67900 17.45600 28.47100
C  -2.36500 16.39200 29.29900
C  -2.52300 16.77000 30.79300
C  -3.18900 18.18900 30.70000
C  -3.07800 18.50100 29.20700
C  -4.66800 18.14000 31.08800
C  -1.13800 16.73600 31.43200
C  -0.77800 17.44400 32.70800
H  -0.89700 16.61400 34.05700
N  -2.74500 19.38000 26.26200
C  -3.26500 20.18500 27.26200
C  -3.59900 21.42700 26.75600
C  -3.27200 21.44300 25.35800
C  -2.69300 20.07700 25.11600
C  -4.35300 22.49000 27.49600
C  -3.40700 22.55300 24.29700
O  -3.00200 22.50200 23.11300
C  -3.81700 23.89900 24.82400
N  -1.87700 17.14300 24.19000
C  -1.78400 18.30200 23.43500
C  -1.31700 18.01000 21.97900
C  -0.87500 16.50000 22.14800
C  -1.49700 16.09800 23.48100
C  -2.38700 18.23800 20.77800
C  0.67700 16.20100 22.01100
C  0.89200 14.92100 21.09800
N  -1.90800 15.34600 26.38500
C  -1.75300 14.43100 25.37200
C  -1.79300 13.07400 25.89500
C  -1.93600 13.26500 27.26100
C  -2.01400 14.64400 27.52700
C  -1.84900 11.84700 25.05100
C  -2.26100 12.60700 28.48600
O  -2.51000 11.43200 28.65400
C  -2.43800 13.72200 29.56000
C  -1.56700 13.45100 30.67300
O  -0.32200 13.51000 30.67200
O  -2.32000 13.14800 31.76900
C  -1.59500 12.64800 32.90800
H  -3.85000 20.44200 29.35100
H  -2.23800 20.27400 23.00000
H  -1.34600 13.92400 23.34200
H  -3.02400 15.89600 31.21100
H  -2.66700 18.93400 31.30200
H  -5.21300 17.86300 30.18500
H  -4.94900 19.12700 31.45500
H  -4.86800 17.41100 31.87200
H  -0.28100 16.78700 30.76000
H  -1.21200 15.77200 31.93500
H  -1.43500 18.29000 32.90800
H  0.19700 17.93000 32.67200
H  -4.46900 22.21300 28.54400
H  -5.36100 22.64200 27.11100
H  -3.77700 23.41500 27.51700
H  -4.85800 23.96100 25.14200
H  -3.58000 24.60200 24.02500
H  -3.21400 24.11900 25.70500
H  -0.41900 18.59500 21.78300
H  -1.41500 15.88400 21.42800
H  -3.22500 18.63400 21.35300
H  -2.65600 17.37600 20.16800
H  -1.84100 18.94700 20.15700
H  1.18800 16.00000 22.95300
H  1.21900 16.95200 21.43700
H  1.62100 14.23200 21.52400
H  1.18100 14.99300 20.05000
H  -0.03500 14.35000 21.16200
H  -1.94100 10.97500 25.69900
H  -0.84200 11.82700 24.63300
H  -2.58100 11.94100 24.24900
H  -3.48100 13.65400 29.87000
H  -1.61800 13.42500 33.67200
H  -0.57000 12.34700 32.69400
H  -2.04200 11.75100 33.33700
Mg 42.03300 40.83600 26.78900
C  41.19000 43.01900 29.44900
C  42.79900 38.51800 29.07500
C  42.79600 38.96700 24.19500
C  41.21100 43.54900 24.60300
N  41.95700 40.82800 29.01700
C  41.55700 41.77000 29.91100
C  41.55000 41.27200 31.39700
C  42.06400 39.78100 31.23200
C  42.29700 39.68200 29.71300
C  43.21800 39.30100 32.06600
C  40.06700 41.43200 31.97400
C  39.63600 40.65100 33.24300
H  39.33800 41.44000 34.44100
N  42.76300 39.01700 26.68500
C  42.95000 38.17800 27.72900
C  43.33400 36.86700 27.25500
C  43.51700 37.01400 25.77700
C  42.90500 38.37800 25.49400
C  43.63100 35.72700 28.11000
C  43.98400 35.95400 24.71400
O  43.97200 36.20800 23.50600
C  44.42500 34.60600 25.10200
N  42.03700 41.28600 24.71600
C  42.32400 40.26600 23.88400
C  42.21800 40.77600 22.36800
C  41.46700 42.09800 22.46500
C  41.63800 42.37800 24.00300
C  43.60800 40.77800 21.62500
C  39.99800 41.92200 22.07500
C  39.03100 40.97500 22.93600
N  41.41600 42.93000 26.91400
C  41.09000 43.88500 25.95100
C  40.69100 45.10400 26.60400
C  40.74600 44.81800 27.96700
C  41.18000 43.48500 28.10000
C  40.22600 46.29100 25.93000
C  40.54100 45.34600 29.23800
O  40.15500 46.44400 29.65400
C  40.70600 44.19200 30.24300
C  41.65300 44.67500 31.27500
O  42.86000 44.74500 31.15700
O  40.88000 45.03200 32.38200
C  41.58800 45.68800 33.47900
H  42.88100 37.62800 29.70200
H  43.16900 38.39700 23.34200
H  40.88600 44.31600 23.89600
H  42.25300 41.96500 31.85700
H  41.15000 39.20100 31.36200
H  43.34000 39.91600 32.95700
H  44.14200 39.10200 31.52500
H  42.93600 38.34400 32.50600
H  39.26800 41.38200 31.23400
H  39.96100 42.48500 32.23500
H  40.43600 39.92800 33.40400
H  38.75900 40.02500 33.08200
H  43.13000 34.91300 27.58600
H  43.20700 35.72200 29.11400
H  44.67900 35.43800 28.19300
H  45.16000 34.62200 25.90700
H  44.92800 34.10000 24.27800
H  43.65200 33.88200 25.35900
H  41.61700 40.14200 21.71500
H  41.90800 42.91300 21.89200
H  44.44900 40.92800 22.30100
H  43.82700 41.56200 20.90000
H  43.74400 39.82200 21.11900
H  40.01300 41.56700 21.04400
H  39.67900 42.96300 22.02000
H  39.40400 40.19400 23.59900
H  38.37500 40.50000 22.20600
H  38.39000 41.65400 23.49800
H  41.07000 46.74700 25.41400
H  40.08400 46.96300 26.77600
H  39.22900 46.24800 25.49200
H  39.72000 43.98600 30.65800
H  42.58000 46.01000 33.16300
H  41.62000 44.95200 34.28300
H  40.99100 46.54200 33.80000

