158

Mg 50.48900 46.37200 41.53400
C  47.42500 47.62400 40.75700
C  49.58400 43.20300 40.54400
C  53.91000 45.30200 41.71000
C  51.70900 49.69300 42.32300
N  48.61800 45.55700 40.90100
C  47.48900 46.20900 40.52000
C  46.44600 45.21900 39.95600
C  47.10300 43.77600 40.34700
C  48.52300 44.15700 40.68400
C  46.38400 43.03200 41.47800
C  45.91300 45.36400 38.42000
C  44.49100 45.01200 38.02500
H  44.42200 43.98900 36.85200
N  51.59900 44.55200 40.94100
C  50.99100 43.38300 40.58100
C  52.00300 42.40400 40.34700
C  53.24000 43.00900 40.67600
C  52.98000 44.38400 41.13900
C  51.65900 40.95700 39.96500
C  54.55200 42.34000 40.43400
O  54.53900 41.17000 40.07500
C  55.85200 42.91300 40.68900
N  52.63100 47.46500 41.70500
C  53.72100 46.71600 41.95900
C  54.89900 47.52600 42.50900
C  54.15400 48.80800 42.89100
C  52.74000 48.68900 42.27600
C  55.65600 46.88900 43.74100
C  54.90900 50.11900 42.40700
C  55.78000 50.86300 43.41900
N  49.69100 48.24000 41.76500
C  50.29300 49.47200 42.09000
C  49.24100 50.45600 42.01100
C  48.11800 49.72600 41.50900
C  48.43000 48.45700 41.31500
C  49.34700 51.88900 42.34100
C  46.68300 49.88300 41.17400
O  45.83500 50.75700 41.37600
C  46.26900 48.51400 40.52300
C  44.99100 47.93300 41.18500
O  45.03300 47.33800 42.20700
O  43.85800 48.06400 40.43500
C  42.61500 47.68300 41.12300
H  49.20900 42.20800 40.29400
H  54.87600 44.93600 42.06500
H  51.96800 50.67500 42.72200
H  45.55400 45.17800 40.58200
H  47.16400 43.09400 39.49900
H  47.11500 42.72700 42.22600
H  45.97200 42.11200 41.06200
H  45.64600 43.60800 42.03700
H  46.49800 44.70800 37.77500
H  46.09100 46.37500 38.05400
H  44.03700 45.95400 37.71500
H  43.92500 44.53400 38.82400
H  51.87100 40.23800 40.75600
H  52.27400 40.64700 39.12000
H  50.61800 40.98100 39.64300
H  56.02100 42.84600 41.76300
H  55.77600 43.95500 40.38000
H  56.61400 42.52300 40.01400
H  55.66400 47.65300 41.74300
H  53.96500 48.86500 43.96300
H  55.77700 47.66700 44.49400
H  56.60900 46.44600 43.45200
H  55.06500 46.08800 44.18600
H  54.10800 50.73600 42.00200
H  55.55000 50.05600 41.52700
H  55.35100 51.80900 43.74700
H  56.73700 51.02000 42.92000
H  55.90000 50.22400 44.29400
H  49.90500 52.49600 41.62800
H  49.83100 52.09000 43.29700
H  48.34400 52.29300 42.48000
H  46.13400 48.71300 39.46000
H  41.81000 47.73600 40.39000
H  42.35300 48.45200 41.85000
H  42.63200 46.69200 41.57700
Mg 42.01400 41.39300 26.72300
C  41.58400 43.76300 29.19200
C  43.71500 39.41100 28.99000
C  42.81800 39.26800 24.15200
C  41.67000 43.96100 24.15200
N  42.47600 41.47100 28.92700
C  42.08600 42.55500 29.68300
C  42.33500 42.20100 31.19400
C  43.31300 40.89400 31.14200
C  43.22700 40.58500 29.60100
C  44.71800 41.16400 31.76000
C  40.95000 42.15800 31.99200
C  40.74700 42.90200 33.25800
H  40.23800 42.06300 34.40500
N  42.96600 39.52500 26.55800
C  43.58000 38.91800 27.63600
C  43.93300 37.53600 27.19200
C  43.73100 37.47900 25.77500
C  43.13100 38.80400 25.39900
C  44.42600 36.46200 28.19200
C  44.01000 36.35000 24.83500
O  43.82000 36.40200 23.58100
C  44.79600 35.15200 25.33200
N  42.35300 41.63900 24.44100
C  42.50400 40.51100 23.72400
C  42.25200 40.76100 22.27000
C  42.14700 42.34900 22.21000
C  42.05100 42.69000 23.64400
C  43.25200 40.06600 21.30100
C  40.89900 42.82600 21.30400
C  41.20500 43.97400 20.46200
N  41.48700 43.37500 26.60700
C  41.41400 44.29100 25.56100
C  40.94100 45.60000 26.11900
C  40.97300 45.37200 27.53900
C  41.33400 44.05600 27.82300
C  40.49500 46.86300 25.45500
C  40.73600 46.04900 28.85700
O  40.30900 47.12400 29.24400
C  41.05100 44.97000 29.98100
C  42.17300 45.59700 30.79500
O  43.31400 45.71500 30.50100
O  41.65100 45.86100 32.10600
C  42.58300 46.42200 33.09500
H  44.21700 38.82200 29.76100
H  42.85600 38.48000 23.39700
H  41.63100 44.75600 23.40400
H  42.98000 43.01300 31.53100
H  42.93000 39.99600 31.62800
H  45.35600 40.57200 31.10300
H  44.73800 40.89400 32.81600
H  45.05800 42.19300 31.64600
H  40.79600 41.08100 32.06900
H  40.13400 42.27300 31.28000
H  40.11400 43.76000 33.03300
H  41.66400 43.41000 33.55500
H  45.42800 36.33700 27.78000
H  43.90800 35.50400 28.17200
H  44.47000 36.84800 29.21100
H  44.27400 34.63200 26.13500
H  45.75600 35.53300 25.67800
H  44.97500 34.52800 24.45700
H  41.24900 40.47200 21.95700
H  43.08200 42.76500 21.83500
H  43.03600 38.99700 21.31600
H  44.26600 40.29300 21.63000
H  43.21400 40.57000 20.33600
H  40.02900 43.03300 21.92700
H  40.67400 41.98400 20.64900
H  40.50700 44.68600 20.90200
H  41.03500 43.82400 19.39600
H  42.25100 44.27100 20.52900
H  39.88300 46.57000 24.60200
H  41.30500 47.54500 25.19800
H  39.76500 47.30600 26.13300
H  40.26900 44.67300 30.67900
H  42.08400 47.34900 33.37700
H  43.56600 46.73800 32.74500
H  42.47700 45.79700 33.98200

