158

Mg 1.27600 6.95100 25.87600
C  1.87500 8.95600 28.69400
C  1.35400 4.25800 27.88300
C  1.47800 5.10100 23.13600
C  1.65300 9.94800 23.86300
N  1.62500 6.70600 27.94800
C  1.67100 7.66000 28.96900
C  1.44200 7.00400 30.36400
C  1.63100 5.49800 30.02800
C  1.44900 5.50700 28.54400
C  2.92300 4.81500 30.41800
C  0.01900 7.39600 30.86300
C  -0.18200 7.53300 32.40400
H  0.87700 6.79900 33.26000
N  1.16200 4.99000 25.56400
C  1.29400 4.02400 26.51700
C  1.22400 2.71600 25.88000
C  1.16400 3.00200 24.43100
C  1.20900 4.41100 24.32100
C  1.12200 1.46900 26.67300
C  1.06900 2.07100 23.30300
O  0.77900 2.38600 22.14200
C  1.25100 0.57300 23.59700
N  1.54100 7.44500 23.78700
C  1.52700 6.47300 22.87000
C  1.62600 7.10900 21.42300
C  1.40600 8.57700 21.71800
C  1.55800 8.65000 23.19700
C  3.03900 6.77500 20.90800
C  -0.04400 9.03800 21.34700
C  -0.03800 10.38000 20.38900
N  1.66500 9.09000 26.14300
C  1.78600 10.13400 25.24700
C  2.06300 11.30900 25.96900
C  2.09300 10.90100 27.31600
C  1.88500 9.53600 27.37400
C  2.27800 12.72700 25.44700
C  2.31200 11.40200 28.64900
O  2.71100 12.51200 29.03700
C  2.01300 10.24800 29.59300
C  3.12100 10.17000 30.64100
O  4.26400 9.88700 30.37300
O  2.64400 10.51200 31.87400
C  3.63300 10.50000 32.94300
H  1.17100 3.37800 28.50300
H  1.47200 4.47600 22.24100
H  1.68200 10.76600 23.14000
H  2.24200 7.45600 30.95000
H  0.86000 4.92600 30.54300
H  3.62400 5.57300 30.76900
H  3.46700 4.47400 29.53800
H  2.81300 4.09200 31.22700
H  -0.66500 6.64000 30.47800
H  -0.12000 8.34500 30.34500
H  -1.19200 7.19500 32.63700
H  -0.18300 8.59700 32.63900
H  0.10400 1.16800 26.92000
H  1.61700 1.53100 27.64200
H  1.68000 0.78800 26.03000
H  2.20800 0.51200 24.11500
H  1.30500 0.15000 22.59300
H  0.37300 0.21600 24.13500
H  0.87500 6.64500 20.78300
H  1.98800 9.26600 21.10500
H  3.67400 6.36200 21.69200
H  3.49800 7.64700 20.44400
H  3.07000 6.07600 20.07200
H  -0.52100 9.45400 22.23500
H  -0.64700 8.28300 20.84300
H  -0.13300 10.11600 19.33600
H  0.88400 10.95000 20.50400
H  -0.96300 10.88400 20.67200
H  1.34200 13.28400 25.40600
H  2.73800 12.71000 24.45900
H  2.86400 13.27500 26.18500
H  1.07700 10.51700 30.08200
H  3.61900 11.46800 33.44300
H  4.64700 10.43500 32.54700
H  3.35000 9.74600 33.67700
Mg 29.26400 57.91100 40.66400
C  26.53100 56.09100 39.71800
C  31.36200 55.30000 39.47700
C  32.15900 60.02800 40.83500
C  27.38800 60.62100 41.26600
N  28.96100 55.91800 39.73900
C  27.74400 55.33900 39.52900
C  27.79500 53.92100 39.08800
C  29.39000 53.58700 39.24300
C  29.94600 55.05400 39.51500
C  29.93000 52.57000 40.22100
C  27.32200 53.67200 37.58600
C  27.92100 54.40100 36.40300
H  27.08300 55.46000 35.69500
N  31.41500 57.69100 40.28500
C  32.06700 56.56800 39.75600
C  33.47200 56.82000 39.54900
C  33.77400 58.12700 40.06400
C  32.38400 58.68500 40.45600
C  34.41500 55.76500 38.99100
C  35.23400 58.70100 40.25100
O  36.21900 58.05100 39.98100
C  35.50300 60.06500 40.81400
N  29.70900 60.04400 41.01100
C  30.94400 60.66600 41.06100
C  30.85900 62.17200 41.46800
C  29.32900 62.29800 41.75700
C  28.75400 60.90300 41.37900
C  31.80100 62.73700 42.53400
C  28.64300 63.51900 41.04500
C  27.89600 64.42200 42.03600
N  27.38900 58.32500 40.52800
C  26.70700 59.48500 40.80600
C  25.27200 59.33200 40.65600
C  25.16700 57.95300 40.30100
C  26.47000 57.38600 40.20900
C  24.27600 60.33000 40.81100
C  24.19500 56.98500 39.83000
O  23.00400 57.03800 39.66700
C  25.03700 55.64100 39.52500
C  24.47300 54.54600 40.34100
O  24.39500 54.55200 41.55100
O  23.99600 53.53200 39.44500
C  23.18400 52.54400 40.15400
H  31.86100 54.39300 39.12900
H  32.98600 60.73100 40.71400
H  26.75700 61.48700 41.47300
H  27.21000 53.41500 39.85500
H  29.63100 53.21100 38.24900
H  29.08000 52.32600 40.85600
H  30.74100 52.91700 40.86100
H  30.21800 51.65800 39.69800
H  26.24200 53.68400 37.43800
H  27.49600 52.60300 37.46100
H  28.29900 53.65400 35.70600
H  28.76900 54.99800 36.74000
H  33.88200 55.01100 38.41100
H  34.95200 55.25500 39.79100
H  35.12000 56.17800 38.26800
H  35.32400 60.93100 40.17700
H  36.57100 60.04500 41.03200
H  34.83700 60.01400 41.67500
H  31.10400 62.75000 40.57700
H  29.27800 62.44500 42.83500
H  32.31500 61.83200 42.85500
H  31.21000 63.06300 43.39000
H  32.44200 63.55000 42.19400
H  28.08700 63.31000 40.13100
H  29.53000 64.09800 40.78700
H  28.59500 65.25200 42.13500
H  27.66100 63.89400 42.96000
H  26.96500 64.86600 41.68100
H  23.47700 60.11800 40.10000
H  24.63500 61.32900 40.56400
H  23.88900 60.26600 41.82800
H  25.02300 55.38900 38.46500
H  23.64600 51.57700 39.95700
H  22.21800 52.57000 39.65100
H  22.95800 52.64800 41.21600

