158

Mg 24.00300 -5.67400 45.78200
C  26.13400 -3.34500 44.38400
C  21.55000 -4.74100 43.47900
C  22.16800 -8.66900 46.19000
C  26.74300 -7.24800 47.32400
N  23.88100 -4.17000 44.16500
C  24.85100 -3.29100 43.76300
C  24.42600 -2.27300 42.68900
C  22.86500 -2.49800 42.81200
C  22.74800 -3.98600 43.48200
C  22.15400 -1.47200 43.69700
C  25.16600 -2.62400 41.28800
C  26.09400 -1.52800 40.59800
H  26.01900 -1.26200 39.08300
N  21.96600 -6.50700 45.10600
C  21.20800 -5.86600 44.18100
C  19.97600 -6.62200 44.07800
C  20.11800 -7.83400 44.80900
C  21.40800 -7.72600 45.52300
C  18.75400 -6.23700 43.20400
C  19.01100 -8.89100 44.89100
O  17.88700 -8.69700 44.36300
C  19.16900 -10.13200 45.79100
N  24.36300 -7.60500 46.63400
C  23.49700 -8.64300 46.69000
C  23.99700 -9.84000 47.53600
C  25.43700 -9.40200 47.87500
C  25.56500 -8.01600 47.26400
C  23.05800 -10.23100 48.66400
C  26.53200 -10.44800 47.42700
C  26.95000 -11.46100 48.55400
N  25.99700 -5.23900 46.03700
C  27.01000 -5.96700 46.68700
C  28.25300 -5.23400 46.58900
C  28.02300 -4.15100 45.61800
C  26.59300 -4.30300 45.38400
C  29.51300 -5.52800 47.22200
C  28.56000 -3.04400 44.82800
O  29.63700 -2.56700 44.69500
C  27.35900 -2.44500 44.03100
C  27.19700 -0.95500 44.22000
O  26.68200 -0.46100 45.19400
O  27.75200 -0.30400 43.19800
C  27.70500 1.09500 43.07900
H  20.78000 -4.44800 42.76300
H  21.56900 -9.55100 46.42500
H  27.58900 -7.65700 47.87900
H  24.86600 -1.33400 43.02700
H  22.52500 -2.47000 41.77700
H  22.83000 -0.96900 44.38700
H  21.40500 -2.00800 44.28000
H  21.62900 -0.76900 43.04900
H  24.47100 -3.08400 40.58500
H  25.84500 -3.43700 41.54800
H  27.10800 -1.78200 40.90600
H  25.74700 -0.63500 41.11800
H  18.62800 -6.97100 42.40900
H  18.79400 -5.25900 42.72500
H  17.95900 -6.10300 43.93800
H  19.24500 -9.86300 46.84400
H  19.99500 -10.71400 45.38200
H  18.24400 -10.70500 45.85700
H  23.89600 -10.61200 46.77400
H  25.56600 -9.28700 48.95100
H  23.57400 -10.43100 49.60300
H  22.50700 -11.14200 48.43200
H  22.31000 -9.48000 48.92100
H  27.47000 -10.05200 47.03700
H  26.09200 -11.08500 46.66000
H  26.98200 -12.37800 47.96700
H  26.19700 -11.36300 49.33700
H  27.97000 -11.20100 48.83700
H  29.88000 -4.67800 47.79700
H  30.27000 -5.72500 46.46200
H  29.54700 -6.40900 47.86200
H  27.65500 -2.64100 43.00000
H  28.68200 1.57800 43.06500
H  27.29500 1.52700 43.99200
H  27.07000 1.42400 42.25600
Mg -5.48600 25.24200 26.44000
C  -4.06300 26.34000 29.39400
C  -7.03300 22.66200 28.29300
C  -6.12600 23.53500 23.55000
C  -3.30900 27.33100 24.61800
N  -5.48000 24.53900 28.62900
C  -5.00200 25.36200 29.64000
C  -5.62000 24.78600 30.98200
C  -6.07500 23.31100 30.67400
C  -6.23000 23.47900 29.09900
C  -5.14000 22.14500 31.07200
C  -6.81400 25.68300 31.45400
C  -6.71400 26.11200 33.02000
H  -5.93800 25.09800 33.95000
N  -6.71800 23.65400 25.97500
C  -7.31500 22.77900 26.87800
C  -8.10400 21.82600 26.11400
C  -7.75900 21.96500 24.79000
C  -6.79900 23.07500 24.69800
C  -9.07000 20.79900 26.77400
C  -8.25700 21.18700 23.55900
O  -7.82700 21.31000 22.42500
C  -9.29100 20.04400 23.72400
N  -4.88600 25.42900 24.35800
C  -5.32000 24.65300 23.34900
C  -4.80000 25.16400 21.98800
C  -3.99000 26.37100 22.37000
C  -4.06500 26.38800 23.93300
C  -4.00100 24.19000 21.11200
C  -4.47500 27.61400 21.63000
C  -3.52800 28.85100 21.42000
N  -3.99500 26.53600 26.90200
C  -3.34600 27.43200 26.06400
C  -2.43600 28.17900 26.93500
C  -2.77600 27.86200 28.21900
C  -3.66300 26.81600 28.13600
C  -1.35000 29.13000 26.47700
C  -2.32500 28.08600 29.63900
O  -1.44600 28.74200 30.17100
C  -3.24200 27.08800 30.46200
C  -2.34900 26.18600 31.23800
O  -1.45900 25.54200 30.68700
O  -2.40700 26.54000 32.50700
C  -1.31800 26.13300 33.36200
H  -7.45000 21.84700 28.88800
H  -6.28500 23.02900 22.59600
H  -2.57200 27.94600 24.09600
H  -4.85500 24.71300 31.75500
H  -7.04900 23.14000 31.13100
H  -5.87400 21.55000 31.61700
H  -4.41600 22.62300 31.73100
H  -4.64500 21.70800 30.20500
H  -7.79900 25.21700 31.41600
H  -6.92700 26.56900 30.82900
H  -7.71500 26.01700 33.44100
H  -6.20700 27.06800 33.14700
H  -8.73700 19.78000 26.57900
H  -10.11800 21.00000 26.55100
H  -9.08900 21.03100 27.83900
H  -9.03500 19.11500 24.23400
H  -9.54100 19.89200 22.67400
H  -10.11600 20.49200 24.28000
H  -5.55000 25.45000 21.25100
H  -2.95800 26.20200 22.06100
H  -4.15700 23.25800 21.65500
H  -2.92100 24.29300 21.21700
H  -4.34900 24.13900 20.08000
H  -5.40300 27.91000 22.11800
H  -4.83000 27.33300 20.63900
H  -3.54000 29.16300 20.37500
H  -2.50600 28.57000 21.67400
H  -3.75700 29.61600 22.16000
H  -1.73000 30.12000 26.22300
H  -0.83300 28.75600 25.59300
H  -0.66500 29.23000 27.31900
H  -3.90900 27.71900 31.04900
H  -0.41700 26.51400 32.88300
H  -1.37300 25.04900 33.45700
H  -1.39100 26.65400 34.31700

