158

Mg 24.83700 -5.17100 45.38000
C  26.63900 -2.58700 43.75400
C  22.17300 -4.46400 43.46700
C  23.73400 -8.17200 46.11300
C  27.99500 -5.95200 47.02700
N  24.50900 -3.75000 43.82800
C  25.33000 -2.76500 43.35200
C  24.75000 -2.08500 42.15000
C  23.32000 -2.44700 42.26900
C  23.26500 -3.61500 43.35800
C  22.17000 -1.35500 42.45600
C  25.34600 -2.38700 40.73000
C  25.55900 -1.13700 39.84200
H  24.78400 -1.10800 38.52600
N  23.20400 -6.20100 44.81800
C  22.12700 -5.71700 44.14800
C  20.97300 -6.61600 44.22800
C  21.40200 -7.81900 44.86400
C  22.87900 -7.43400 45.29400
C  19.64100 -6.44200 43.60700
C  20.62400 -9.15800 44.95900
O  19.49500 -9.26100 44.49000
C  21.16800 -10.40900 45.49300
N  25.85900 -6.91400 46.26900
C  25.09900 -7.99900 46.48600
C  25.78200 -8.98500 47.36700
C  27.04500 -8.23900 47.78600
C  26.99500 -6.92700 46.99500
C  24.97600 -9.66300 48.52000
C  28.26700 -9.15100 47.57400
C  29.49800 -9.10700 48.56900
N  26.82700 -4.40400 45.55900
C  27.96800 -4.78000 46.28700
C  29.08900 -3.88100 46.03200
C  28.66200 -3.07400 44.98400
C  27.27100 -3.38200 44.73700
C  30.43300 -3.95100 46.50000
C  29.11200 -2.15000 43.99000
O  30.19200 -1.66500 43.72100
C  27.73600 -1.71300 43.25800
C  27.59700 -0.32000 43.65600
O  27.01200 0.13900 44.62600
O  28.21400 0.42100 42.70100
C  28.21900 1.86400 42.80700
H  21.26900 -4.09300 42.97900
H  23.31200 -9.15300 46.34100
H  28.89400 -6.27200 47.55800
H  24.88500 -1.01800 42.32700
H  23.01400 -2.98500 41.37100
H  21.41000 -1.47900 41.68400
H  22.61500 -0.38600 42.23200
H  21.75100 -1.40900 43.46100
H  24.74300 -3.04500 40.10400
H  26.30800 -2.89300 40.80900
H  26.62200 -1.04300 39.62000
H  25.25700 -0.22600 40.35700
H  19.64100 -5.39000 43.32200
H  18.93300 -6.58700 44.42300
H  19.43600 -7.08200 42.74900
H  20.34000 -11.11400 45.56600
H  21.62000 -10.30000 46.47900
H  21.93600 -10.66400 44.76200
H  25.96700 -9.74900 46.61100
H  27.01500 -7.88900 48.81700
H  24.13300 -9.04000 48.81800
H  25.61100 -9.80700 49.39500
H  24.63900 -10.65400 48.21600
H  28.67600 -9.00300 46.57500
H  27.95400 -10.19200 47.49000
H  29.57300 -10.03600 49.13300
H  29.38800 -8.37000 49.36500
H  30.43500 -8.90500 48.04900
H  30.70900 -4.86600 45.97600
H  30.65900 -4.00300 47.56500
H  31.03900 -3.08300 46.23900
H  27.79900 -1.74200 42.17100
H  27.63600 2.10100 41.91700
H  29.24300 2.23600 42.82200
H  27.71800 2.20200 43.71500
Mg 36.09700 49.32400 25.07900
C  36.06400 47.48900 27.98100
C  34.84800 52.03800 26.58400
C  35.77900 50.83700 22.00100
C  36.90700 46.32200 23.35700
N  35.62800 49.70400 27.15800
C  35.71800 48.85200 28.18600
C  35.20600 49.59800 29.43700
C  34.66800 51.02500 28.91000
C  35.06300 50.93400 27.44800
C  33.14700 51.28000 29.21500
C  36.23100 49.65800 30.56400
C  35.61400 49.63900 32.01000
H  34.15100 49.92700 32.36500
N  35.50700 51.22000 24.40300
C  35.06000 52.22000 25.19700
C  34.80400 53.45300 24.41400
C  35.18200 53.09100 23.09600
C  35.51200 51.65500 23.07700
C  34.29600 54.64600 25.11600
C  35.22000 53.99200 21.86100
O  35.58200 53.53900 20.77000
C  34.97000 55.47300 21.97000
N  36.26100 48.63200 22.95700
C  35.98800 49.42400 21.92800
C  36.20100 48.77800 20.62700
C  36.73600 47.38700 21.03900
C  36.67000 47.47300 22.52200
C  34.96500 48.77700 19.65900
C  38.15100 47.03400 20.42500
C  39.39800 47.88600 20.92200
N  36.52000 47.29100 25.54600
C  36.77500 46.24300 24.72500
C  36.89400 45.06500 25.56100
C  36.63900 45.51200 26.84200
C  36.43600 46.86100 26.79300
C  37.33700 43.76400 25.05200
C  36.58700 45.10000 28.20800
O  36.71100 43.98900 28.73400
C  36.21200 46.38100 29.03100
C  34.96200 46.12900 29.88600
O  33.82900 45.94500 29.46900
O  35.26600 46.21200 31.22300
C  34.20900 45.92100 32.19000
H  34.67300 52.93000 27.18900
H  35.81700 51.31700 21.02100
H  37.10100 45.41600 22.77900
H  34.40900 49.01600 29.89900
H  35.26000 51.84200 29.32300
H  32.56500 51.08800 28.31400
H  32.97700 52.32200 29.48400
H  32.79000 50.62700 30.01200
H  36.77300 50.59500 30.43300
H  37.02700 48.92000 30.47100
H  36.23900 50.33700 32.56700
H  35.89000 48.64100 32.35100
H  33.77100 55.42700 24.56500
H  35.16400 55.03300 25.65000
H  33.74500 54.37300 26.01700
H  33.88700 55.58000 21.90800
H  35.58800 55.84200 21.15200
H  35.48200 55.76200 22.88800
H  36.99700 49.22400 20.03000
H  36.12700 46.54200 20.71800
H  34.03400 48.47200 20.13600
H  35.17300 48.25500 18.72500
H  34.81700 49.80000 19.31300
H  38.06700 47.23700 19.35700
H  38.38900 45.97800 20.55400
H  39.81300 48.41200 20.06200
H  40.20800 47.21200 21.19900
H  39.16000 48.61000 21.70000
H  38.23000 43.93600 24.45000
H  36.58800 43.21500 24.48200
H  37.51500 43.12500 25.91600
H  37.09300 46.57000 29.64400
H  34.64600 46.07600 33.17600
H  34.03600 44.85800 32.02000
H  33.25100 46.44100 32.15300

