158

Mg 47.99300 35.22600 26.43800
C  46.54500 33.65200 29.35400
C  48.29600 38.09500 28.53800
C  49.37900 36.82000 23.90300
C  47.41300 32.38000 24.61400
N  47.33900 35.80100 28.71300
C  46.99700 34.93400 29.73100
C  47.19900 35.60600 31.04900
C  47.17200 37.11200 30.65600
C  47.59800 37.03000 29.18600
C  45.85100 37.93500 30.88800
C  48.50300 35.17500 31.82100
C  48.38600 34.93300 33.35800
H  47.20800 35.73800 33.95100
N  48.82800 37.08800 26.24100
C  48.82700 38.07000 27.24100
C  49.48300 39.24100 26.63900
C  49.88300 38.88500 25.29600
C  49.33300 37.55200 25.10600
C  49.67200 40.57200 27.36500
C  50.76900 39.64800 24.24000
O  51.19600 39.25800 23.17000
C  50.98400 41.10500 24.46700
N  48.27900 34.69300 24.58700
C  48.91800 35.52200 23.63100
C  49.05100 34.84300 22.33100
C  48.88700 33.36000 22.79300
C  48.11000 33.46000 24.09800
C  48.02800 35.34600 21.28200
C  50.18800 32.51500 22.94900
C  50.06800 31.09900 22.46700
N  47.04500 33.45600 26.75900
C  46.88000 32.35300 25.87300
C  46.15400 31.32000 26.59800
C  46.10700 31.79500 27.94700
C  46.60100 33.10100 28.01600
C  45.71300 30.00900 25.94700
C  45.72500 31.32200 29.25600
O  45.22200 30.31100 29.65000
C  45.79200 32.62700 30.19300
C  46.19300 32.33400 31.59500
O  47.36500 32.28200 31.93400
O  45.14600 32.13000 32.45200
C  45.41600 31.80600 33.86700
H  48.67100 38.89100 29.18600
H  49.83700 37.28500 23.02800
H  47.21300 31.46300 24.05600
H  46.26400 35.46000 31.58900
H  47.92700 37.69200 31.18800
H  45.20800 37.57700 31.69200
H  45.41600 38.06900 29.89700
H  46.20800 38.93600 31.12700
H  49.31000 35.88800 31.65100
H  48.78100 34.23900 31.33700
H  49.31300 35.39500 33.69500
H  48.46800 33.87000 33.58400
H  50.71300 40.81900 27.57000
H  49.16400 40.67400 28.32500
H  49.37300 41.33900 26.65000
H  50.09500 41.73400 24.40500
H  51.76700 41.50300 23.82200
H  51.53100 41.11100 25.41000
H  50.07600 34.99900 21.99600
H  48.24200 32.79600 22.11900
H  48.60300 35.73700 20.44300
H  47.24100 36.04100 21.57800
H  47.47300 34.51400 20.85000
H  50.67100 32.54500 23.92500
H  50.99600 32.99000 22.39200
H  49.24700 31.06500 21.75100
H  49.84400 30.29900 23.17200
H  51.02500 30.84300 22.01200
H  46.20800 29.76700 25.00700
H  44.63600 30.14000 25.84600
H  45.89300 29.18000 26.63100
H  44.77200 32.99000 30.31700
H  44.67800 31.11700 34.27800
H  45.53000 32.72900 34.43500
H  46.36300 31.35600 34.16400
Mg -5.50000 25.68100 26.03200
C  -4.26500 27.22900 29.05600
C  -7.35300 23.53600 28.10700
C  -6.38800 23.91100 23.40100
C  -3.23400 27.60700 24.21700
N  -5.82700 25.51100 28.31400
C  -5.23200 26.23000 29.27700
C  -5.80400 25.88600 30.67700
C  -6.46900 24.56400 30.36800
C  -6.52700 24.47800 28.80400
C  -5.54000 23.29200 30.83200
C  -6.67800 26.99100 31.35100
C  -6.79200 26.96700 32.86900
H  -6.07500 25.79900 33.63400
N  -6.74300 23.94300 25.74000
C  -7.42400 23.19800 26.75000
C  -8.33600 22.28100 26.05300
C  -8.06000 22.40900 24.65400
C  -7.02200 23.44500 24.56200
C  -9.29900 21.37800 26.78200
C  -8.70100 21.70500 23.48500
O  -8.37200 21.96300 22.31400
C  -9.63500 20.53100 23.74200
N  -4.81100 25.71500 24.10100
C  -5.38300 24.84700 23.14900
C  -4.55500 24.98700 21.90000
C  -3.65500 26.28600 21.98500
C  -3.91100 26.58800 23.53600
C  -3.76500 23.70900 21.59100
C  -4.16400 27.54400 21.10700
C  -3.28700 28.21900 20.04100
N  -4.02600 27.21300 26.53100
C  -3.23900 27.94500 25.67700
C  -2.54000 28.96400 26.45800
C  -2.88300 28.70700 27.78700
C  -3.77400 27.62400 27.82900
C  -1.58100 29.95500 25.95800
C  -2.64700 29.07500 29.14200
O  -1.86800 29.92600 29.57700
C  -3.62200 28.23000 30.04300
C  -2.79400 27.53300 31.06000
O  -1.99400 26.62300 30.79400
O  -3.08000 28.13500 32.31600
C  -2.23600 27.54900 33.36700
H  -7.94300 22.83900 28.70600
H  -6.66100 23.41900 22.46500
H  -2.54100 28.18600 23.60400
H  -4.89200 25.78800 31.26700
H  -7.49200 24.61500 30.74000
H  -4.46900 23.42800 30.98300
H  -5.68400 22.50600 30.09100
H  -5.91800 23.02100 31.81800
H  -7.71800 26.83300 31.06400
H  -6.35900 27.97000 30.99200
H  -7.83500 27.05100 33.17400
H  -6.32400 27.91700 33.12600
H  -10.28400 21.84400 26.80200
H  -8.86500 21.20200 27.76600
H  -9.34100 20.33600 26.46500
H  -9.11800 19.72800 24.26700
H  -10.14200 20.21400 22.83100
H  -10.46100 20.85000 24.37900
H  -5.26900 25.17400 21.09900
H  -2.59100 26.11700 21.82100
H  -4.00400 23.49500 20.54900
H  -4.13600 22.90400 22.22500
H  -2.68900 23.88400 21.57700
H  -4.40000 28.37900 21.76700
H  -5.10700 27.26100 20.63800
H  -3.89200 28.37400 19.14700
H  -2.48700 27.54000 19.74700
H  -2.82600 29.17700 20.28000
H  -0.97600 29.50100 25.17300
H  -1.03200 30.39900 26.78900
H  -2.26800 30.70300 25.56300
H  -4.44500 28.85700 30.38400
H  -2.79100 27.60800 34.30300
H  -1.33300 28.13900 33.52800
H  -1.97600 26.50800 33.17300

