158

Mg 9.21400 3.26800 27.29500
C  10.58000 1.83100 30.15800
C  7.92500 5.75800 29.27500
C  7.67500 4.52600 24.60400
C  10.46900 0.77600 25.43800
N  9.14500 3.68000 29.56300
C  9.78400 2.90800 30.54000
C  9.53100 3.60000 31.93000
C  8.78500 4.91900 31.50200
C  8.56700 4.77600 30.06200
C  7.55800 5.35600 32.36300
C  10.90100 3.84400 32.66800
C  10.81000 4.80400 33.81200
H  11.55000 4.54200 35.10900
N  8.06700 4.95100 26.99400
C  7.62900 5.86600 27.92600
C  6.70000 6.77200 27.32200
C  6.49900 6.29500 25.98000
C  7.40900 5.19100 25.79500
C  6.15700 8.00900 27.96800
C  5.53000 6.87300 25.00500
O  5.38300 6.39100 23.85700
C  4.76100 8.11300 25.26400
N  9.28200 2.92000 25.27000
C  8.50600 3.48600 24.36800
C  8.61600 2.82100 22.95500
C  9.75400 1.80700 23.21200
C  9.85500 1.80800 24.72000
C  7.36300 2.18600 22.37200
C  11.05200 2.10000 22.47200
C  10.96000 1.76000 20.96700
N  10.41600 1.67700 27.67000
C  10.75100 0.69400 26.80100
C  11.43800 -0.43000 27.49200
C  11.45900 0.02000 28.83300
C  10.84200 1.31200 28.88200
C  12.08300 -1.53200 26.78000
C  11.82800 -0.27800 30.18800
O  12.50700 -1.22800 30.64200
C  11.35300 0.87400 31.09100
C  10.62300 0.34800 32.29000
O  9.47700 -0.12300 32.22300
O  11.38600 0.39300 33.43000
C  10.68600 -0.11500 34.63400
H  7.67200 6.63200 29.87800
H  7.05900 4.78000 23.73900
H  10.89700 0.03900 24.75500
H  8.85800 2.96700 32.50800
H  9.44300 5.78800 31.53700
H  7.18800 6.34000 32.07200
H  7.69000 5.32800 33.44500
H  6.72400 4.69300 32.13400
H  11.68300 4.23400 32.01600
H  11.22800 2.93400 33.17100
H  9.79800 4.97100 34.18000
H  11.32500 5.68500 33.42900
H  6.15600 8.84300 27.26600
H  6.86100 8.34800 28.72800
H  5.14000 7.77600 28.28300
H  4.01900 8.04300 24.46800
H  5.40000 8.99400 25.20200
H  4.32400 8.01400 26.25700
H  8.88000 3.62200 22.26400
H  9.41200 0.80300 22.96400
H  6.58100 2.24900 23.12900
H  7.40200 1.18500 21.94300
H  7.02100 2.83000 21.56200
H  11.78100 1.42500 22.92100
H  11.18800 3.16900 22.63800
H  10.10800 1.09000 20.84200
H  11.94200 1.35500 20.72700
H  10.72000 2.53100 20.23600
H  11.37600 -2.36200 26.77200
H  12.98400 -1.85600 27.30000
H  12.30000 -1.28200 25.74200
H  12.30400 1.23600 31.48400
H  10.18300 0.70900 35.14000
H  11.41700 -0.52400 35.33100
H  9.94700 -0.89300 34.44300
Mg 16.02400 52.54300 25.50300
C  18.05200 51.52000 28.37600
C  13.46300 52.95600 27.66300
C  14.16600 53.28900 22.81700
C  18.72300 51.45900 23.48400
N  15.78700 52.11200 27.72000
C  16.73300 51.89000 28.70400
C  16.21100 52.30000 30.13700
C  14.68400 52.36900 29.88000
C  14.62700 52.53800 28.30200
C  13.91600 51.15600 30.49800
C  16.91100 53.62700 30.64600
C  16.76700 53.89800 32.17900
H  16.19000 52.78700 33.04400
N  14.08500 53.10500 25.27900
C  13.17700 53.19700 26.25200
C  11.89800 53.63900 25.77300
C  12.04500 53.73500 24.39300
C  13.47700 53.38400 24.07200
C  10.68900 53.92100 26.56700
C  11.02800 54.23800 23.31700
O  11.42500 54.39800 22.18700
C  9.49500 54.52700 23.60000
N  16.35500 52.32900 23.43900
C  15.42900 52.77800 22.52700
C  16.03100 52.74800 21.09800
C  17.42800 52.09000 21.35200
C  17.52000 51.91400 22.85500
C  15.16700 52.27300 19.93000
C  18.57100 52.83300 20.64500
C  19.29700 53.85200 21.51300
N  17.99600 51.67600 25.78500
C  19.04600 51.33600 24.86100
C  20.08500 50.79500 25.58300
C  19.77000 50.84100 26.90600
C  18.53300 51.44100 27.00400
C  21.43600 50.39400 25.03500
C  20.31400 50.60500 28.17400
O  21.45100 50.19700 28.43800
C  19.21400 50.96000 29.20600
C  18.83500 49.74600 30.07700
O  18.39500 48.65200 29.69500
O  19.14600 50.00000 31.40700
C  18.65100 49.03800 32.43200
H  12.68400 53.06100 28.42100
H  13.59600 53.50200 21.91000
H  19.52100 51.03500 22.87000
H  16.51200 51.44800 30.74600
H  14.31000 53.29100 30.32600
H  13.25500 51.57800 31.25500
H  14.63300 50.55400 31.05600
H  13.36600 50.64600 29.70700
H  16.40500 54.45000 30.14200
H  17.91900 53.71400 30.24000
H  16.07300 54.73700 32.20600
H  17.67000 54.17300 32.72400
H  9.99400 53.08400 26.49000
H  10.28800 54.87500 26.22600
H  10.99500 54.08400 27.60100
H  9.09200 53.74200 24.23900
H  8.89300 54.71700 22.71100
H  9.37000 55.44000 24.18300
H  16.23300 53.81300 20.97900
H  17.31400 51.09000 20.93500
H  14.84800 51.27000 20.21500
H  15.86600 52.29100 19.09400
H  14.31500 52.89300 19.65300
H  18.26200 53.30300 19.71100
H  19.28600 52.04700 20.40100
H  19.26100 54.82200 21.01700
H  20.32800 53.54100 21.68000
H  19.00300 54.15400 22.51800
H  21.58200 49.31500 24.99600
H  22.20300 50.93400 25.59000
H  21.46800 50.64000 23.97300
H  19.56300 51.79200 29.81800
H  17.67600 48.63000 32.16600
H  18.75300 49.47800 33.42500
H  19.34600 48.20100 32.49400

