158

Mg -0.59400 7.24700 25.79800
C  0.18700 9.19400 28.66500
C  -0.62700 4.52600 27.87000
C  -0.77600 5.34200 23.07300
C  0.13000 10.06800 23.81700
N  -0.29300 6.94600 28.01600
C  -0.09300 7.85100 28.98400
C  -0.26700 7.26000 30.33500
C  -0.10100 5.77300 30.11100
C  -0.39000 5.73700 28.58800
C  1.26000 5.23800 30.43500
C  -1.69900 7.57700 30.95600
C  -1.67800 8.24400 32.35500
H  -0.62800 7.96800 33.46800
N  -0.73900 5.19600 25.57000
C  -0.81000 4.25000 26.48100
C  -1.08100 3.01200 25.86500
C  -1.15600 3.18900 24.46500
C  -0.82800 4.63100 24.29300
C  -1.19700 1.71500 26.66300
C  -1.43000 2.14100 23.37300
O  -1.35800 2.33200 22.12600
C  -1.80600 0.69300 23.71100
N  -0.45400 7.66200 23.75600
C  -0.66500 6.76400 22.86600
C  -0.58800 7.33800 21.45400
C  -0.59100 8.83200 21.75700
C  -0.19200 8.85300 23.17600
C  0.78200 6.86100 20.73100
C  -2.01600 9.46300 21.34000
C  -2.13900 10.13900 20.03800
N  -0.01700 9.24300 26.10600
C  0.27200 10.24200 25.22500
C  0.55300 11.44300 25.89600
C  0.58700 11.12300 27.28800
C  0.19200 9.78300 27.37000
C  0.68200 12.78100 25.41100
C  0.77600 11.61400 28.64900
O  1.14600 12.73200 28.99100
C  0.46600 10.38000 29.54800
C  1.61000 10.23000 30.56600
O  2.59000 9.49100 30.42300
O  1.36000 11.05600 31.66700
C  2.33900 10.82400 32.71900
H  -0.63800 3.58900 28.43000
H  -0.80800 4.91100 22.07100
H  0.22800 10.96400 23.20000
H  0.60100 7.54800 30.92900
H  -0.84400 5.23400 30.69900
H  1.78500 6.00700 31.00000
H  1.84700 5.02700 29.54100
H  1.18500 4.31800 31.01500
H  -2.20300 6.62700 31.13200
H  -2.13800 8.23100 30.20300
H  -2.59800 7.81300 32.75000
H  -1.84500 9.30800 32.18700
H  -2.20900 1.49400 27.00200
H  -0.59500 1.71900 27.57100
H  -0.81200 0.89800 26.05200
H  -0.99800 0.12000 24.16500
H  -2.13000 0.22000 22.78400
H  -2.71800 0.63700 24.30600
H  -1.45600 7.12200 20.83200
H  0.21200 9.31500 21.20000
H  0.88600 5.81300 21.01300
H  1.63900 7.46300 21.03000
H  0.61900 6.89000 19.65300
H  -2.26800 10.25500 22.04400
H  -2.82800 8.74900 21.47900
H  -3.05200 9.74900 19.58900
H  -1.29500 9.88600 19.39600
H  -2.21900 11.21400 20.19600
H  -0.12400 12.95200 24.69700
H  1.59200 13.04300 24.87100
H  0.66900 13.51100 26.22100
H  -0.45600 10.62700 30.07500
H  3.29300 10.38800 32.42200
H  1.81300 10.35300 33.54900
H  2.57900 11.85100 32.99400
Mg 7.55700 2.65300 27.40100
C  9.22800 1.16400 30.15800
C  5.89600 4.74100 29.65600
C  6.12200 3.94700 24.78600
C  8.75000 0.01200 25.46400
N  7.42700 2.72200 29.67600
C  8.29800 2.14600 30.54800
C  8.17000 2.74700 31.98200
C  6.93000 3.77300 31.91900
C  6.76700 3.78300 30.29900
C  5.60700 3.30700 32.54200
C  9.45200 3.44600 32.50300
C  9.25000 4.32700 33.79200
H  10.27900 4.16000 34.87400
N  6.11100 4.17000 27.20800
C  5.53000 4.89500 28.22500
C  4.65400 5.91700 27.67400
C  4.79400 5.72100 26.25700
C  5.72100 4.57800 25.98200
C  3.84900 6.83500 28.43000
C  4.04800 6.41100 25.05400
O  4.29200 6.18100 23.85500
C  3.31600 7.55300 25.36500
N  7.33300 1.92600 25.45900
C  6.77700 2.73100 24.55200
C  6.94000 2.29700 23.06700
C  7.75600 1.02200 23.31000
C  8.01600 0.98200 24.80600
C  5.51100 1.92600 22.50400
C  9.15800 0.91900 22.60800
C  9.49600 -0.48000 21.95200
N  8.63600 0.93400 27.67600
C  9.02500 -0.08900 26.85600
C  9.88600 -1.04000 27.40800
C  10.01600 -0.54300 28.73200
C  9.25600 0.64400 28.87600
C  10.45800 -2.19700 26.73600
C  10.66000 -0.81400 29.98200
O  11.52200 -1.63300 30.40600
C  10.26500 0.39100 30.93200
C  9.74300 -0.16900 32.21600
O  8.71700 -0.86900 32.33800
O  10.70700 0.03500 33.22400
C  10.48000 -0.69300 34.46300
H  5.49000 5.58300 30.22100
H  5.67300 4.26800 23.84400
H  9.24000 -0.82500 24.96200
H  8.05700 1.96300 32.73100
H  7.15700 4.80300 32.19500
H  5.57600 2.25500 32.82700
H  4.92200 3.30400 31.69400
H  5.30400 4.04600 33.28400
H  9.85200 4.06800 31.70300
H  10.16400 2.63400 32.65200
H  8.29700 3.96900 34.18300
H  9.20000 5.37900 33.51400
H  3.80600 6.60000 29.49400
H  2.82100 6.66900 28.11100
H  4.30100 7.80100 28.20400
H  3.93500 8.35100 25.77600
H  2.44300 7.27200 25.95400
H  2.90400 8.02500 24.47300
H  7.46600 3.05800 22.49100
H  7.13300 0.17900 23.01200
H  4.76100 2.06200 23.28300
H  5.37400 0.89700 22.17200
H  5.38500 2.63500 21.68600
H  9.95700 1.16700 23.30700
H  9.18000 1.74700 21.90000
H  9.82000 -0.35100 20.91900
H  8.61700 -1.10700 22.10600
H  10.37100 -0.96900 22.38100
H  11.22100 -1.87200 26.02800
H  9.67800 -2.77300 26.23800
H  10.90700 -2.89100 27.44700
H  11.12600 1.03900 31.09800
H  9.88200 -1.59000 34.29600
H  9.87500 -0.13100 35.17400
H  11.47400 -0.76400 34.90400

