158

Mg 42.39700 41.69400 26.14000
C  41.79000 44.03300 28.62000
C  43.59100 39.51500 28.54700
C  43.24600 39.62800 23.55400
C  41.55900 44.12700 23.70100
N  42.44600 41.72100 28.35800
C  42.26700 42.80200 29.18200
C  42.34900 42.41900 30.67500
C  43.28200 41.16700 30.57500
C  43.01100 40.72800 29.06400
C  44.74100 41.25700 30.99500
C  40.99500 42.27300 31.48000
C  40.60000 43.34700 32.48400
H  41.50300 43.61800 33.71600
N  43.24500 39.81200 26.13000
C  43.66100 39.10100 27.18000
C  44.10200 37.82500 26.66800
C  43.97600 37.79600 25.26500
C  43.43200 39.12100 24.86300
C  44.63100 36.74000 27.58400
C  44.33500 36.69400 24.27600
O  44.07000 36.74000 23.04900
C  45.03900 35.39700 24.70600
N  42.25900 41.77700 24.01800
C  42.70000 40.84200 23.16800
C  42.67000 41.30700 21.70500
C  41.78500 42.54000 21.80400
C  41.82100 42.83900 23.32600
C  44.06700 41.54900 21.05300
C  40.29500 42.34400 21.46800
C  39.60200 41.16500 22.09500
N  41.78300 43.60800 26.15400
C  41.60100 44.49800 25.05700
C  41.30700 45.82000 25.59500
C  41.28400 45.59900 27.00900
C  41.64700 44.27200 27.28200
C  41.04000 47.10100 24.85700
C  41.06500 46.31600 28.27700
O  40.67600 47.46300 28.49600
C  41.32900 45.32300 29.40100
C  42.36100 45.87800 30.34500
O  43.52300 45.53400 30.39700
O  41.81500 46.92600 31.08600
C  42.79800 47.50900 32.02200
H  43.92600 38.77100 29.27200
H  43.55700 39.05200 22.68000
H  41.20200 44.89300 23.01000
H  42.93900 43.17400 31.19400
H  42.94700 40.32600 31.18200
H  45.03800 42.28200 31.21600
H  45.31700 40.74500 30.22400
H  44.89700 40.66300 31.89500
H  40.76000 41.32100 31.95500
H  40.32800 42.32900 30.61900
H  39.57700 43.11900 32.78400
H  40.63200 44.32400 32.00200
H  45.72000 36.70700 27.58200
H  44.28300 35.78800 27.18300
H  44.43900 36.86400 28.64900
H  45.26800 34.91200 23.75600
H  44.43800 34.65400 25.23000
H  45.93200 35.80500 25.17900
H  42.07100 40.49900 21.28800
H  42.23500 43.40000 21.31000
H  44.30200 42.49600 20.56800
H  44.12700 40.75400 20.31000
H  44.87900 41.24600 21.71500
H  40.20000 42.26600 20.38500
H  39.70600 43.23300 21.69600
H  38.65600 41.51100 22.51300
H  40.17200 40.68100 22.88800
H  39.37100 40.44300 21.31200
H  41.44900 47.13700 23.84700
H  41.37900 47.96600 25.42700
H  39.95200 47.16200 24.84000
H  40.37400 45.20300 29.91300
H  43.22600 46.77300 32.70200
H  42.11400 48.11000 32.62100
H  43.58700 48.02100 31.47100
Mg -5.46900 25.21200 25.77900
C  -3.85000 26.52900 28.72800
C  -7.02200 23.04200 27.95300
C  -6.72700 23.84500 23.14800
C  -3.21600 27.06600 23.95600
N  -5.38200 24.87900 28.06800
C  -4.85200 25.59200 29.05400
C  -5.46400 25.30800 30.39500
C  -6.18900 24.00400 30.11200
C  -6.09000 23.80800 28.59000
C  -5.71400 22.79800 30.93300
C  -6.36500 26.53000 30.93300
C  -6.22700 26.94600 32.32600
H  -5.66400 25.88400 33.33500
N  -6.75300 23.68400 25.57400
C  -7.33400 22.95400 26.57300
C  -8.34200 22.01600 25.99800
C  -8.30200 22.22500 24.57500
C  -7.25300 23.29200 24.36500
C  -9.15400 21.02200 26.76000
C  -9.12700 21.69300 23.42800
O  -9.00600 22.03600 22.24200
C  -10.21000 20.77400 23.84300
N  -5.00900 25.47100 23.86200
C  -5.72300 24.78800 22.93100
C  -5.19600 25.08200 21.54800
C  -4.16100 26.31000 21.73000
C  -4.13400 26.27400 23.27600
C  -4.64700 23.85000 20.98300
C  -4.54300 27.68100 21.15900
C  -3.40600 28.37600 20.44000
N  -3.84400 26.51800 26.22200
C  -3.07800 27.20300 25.33600
C  -2.06700 28.08300 26.00900
C  -2.32500 27.85400 27.36000
C  -3.40700 26.86400 27.44300
C  -1.27200 29.16400 25.29700
C  -2.00700 28.23900 28.70300
O  -1.20200 29.09900 29.06800
C  -2.94200 27.41600 29.59900
C  -1.99000 26.57100 30.40500
O  -1.40200 25.58300 30.04700
O  -1.87800 27.13100 31.64500
C  -0.92300 26.43400 32.52000
H  -7.68700 22.46500 28.59800
H  -7.22900 23.46200 22.25700
H  -2.56600 27.68100 23.33000
H  -4.75200 24.95200 31.13900
H  -7.22700 24.22400 30.36100
H  -4.89000 22.27700 30.44500
H  -6.58300 22.14100 30.92600
H  -5.45700 22.89400 31.98800
H  -7.39200 26.20400 30.77300
H  -6.23200 27.45900 30.37800
H  -7.19700 27.29600 32.67900
H  -5.54100 27.78800 32.23000
H  -10.13200 21.41600 27.03800
H  -8.60800 20.73600 27.65900
H  -9.19900 20.08100 26.21300
H  -9.60200 19.94400 24.20300
H  -10.72400 20.38800 22.96300
H  -10.91900 21.16200 24.57300
H  -5.93600 25.33800 20.78900
H  -3.15500 26.01100 21.43500
H  -3.58000 24.03600 20.86500
H  -5.13600 23.57000 20.04900
H  -4.64500 23.06000 21.73400
H  -4.81800 28.23200 22.05800
H  -5.35000 27.56400 20.43700
H  -2.63200 27.66400 20.15500
H  -2.99200 29.14300 21.09400
H  -3.87400 28.79800 19.55000
H  -1.93800 29.92400 24.88800
H  -0.63500 28.67100 24.56300
H  -0.78400 29.75000 26.07600
H  -3.57600 28.10700 30.15500
H  -1.22200 25.38700 32.46500
H  -0.88700 26.62200 33.59300
H  0.05900 26.44900 32.04800

