158

Mg 1.87500 -1.80000 43.95400
C  5.23500 -1.40100 43.40900
C  1.32200 1.12700 42.38400
C  -1.37800 -2.58500 44.10100
C  2.53700 -5.06700 45.14500
N  3.17800 -0.36900 42.83200
C  4.51700 -0.36100 42.85400
C  5.05300 0.82700 42.08400
C  3.79700 1.78400 41.85800
C  2.68700 0.79700 42.40000
C  3.82000 3.19100 42.60800
C  5.70400 0.51200 40.73000
C  6.87000 1.40700 40.41200
H  6.73800 2.24400 39.18000
N  0.18800 -0.80900 43.34000
C  0.12100 0.46400 42.81400
C  -1.20800 0.78900 42.63200
C  -2.06200 -0.22500 43.20900
C  -1.07600 -1.30100 43.61400
C  -1.74100 2.06600 42.08600
C  -3.62400 -0.22800 43.42400
O  -4.29700 0.56500 42.81000
C  -4.28400 -1.13600 44.35500
N  0.73200 -3.59300 44.56200
C  -0.57200 -3.67600 44.55200
C  -1.15900 -5.05700 44.91600
C  0.08300 -5.88100 45.09700
C  1.20200 -4.78200 44.91700
C  -2.16000 -4.98400 46.04700
C  0.38800 -7.05800 44.01900
C  0.15600 -8.50700 44.46900
N  3.55900 -3.03500 44.33100
C  3.69000 -4.29800 44.84700
C  5.12900 -4.60100 44.92200
C  5.78400 -3.48700 44.39000
C  4.78300 -2.55200 44.07900
C  5.77400 -5.79200 45.51500
C  6.96200 -2.96200 44.06800
O  8.09300 -3.44000 44.23000
C  6.72600 -1.52000 43.43700
C  7.45000 -0.45000 44.23900
O  7.57200 -0.34100 45.46500
O  8.01000 0.48600 43.43300
C  8.80000 1.54000 44.23500
H  1.04400 2.02900 41.83500
H  -2.41000 -2.93900 44.15000
H  2.74500 -6.10800 45.40300
H  5.73500 1.35200 42.75300
H  3.61800 1.98300 40.80200
H  3.90100 4.03900 41.92800
H  4.72300 3.27400 43.21200
H  3.03200 3.25800 43.35900
H  4.96000 0.67100 39.95000
H  5.89300 -0.53800 40.50600
H  7.81900 0.88800 40.28000
H  7.15900 2.10700 41.19700
H  -2.61600 1.85400 41.47200
H  -1.09000 2.58600 41.38300
H  -1.86300 2.93900 42.72800
H  -5.25800 -0.67400 44.51900
H  -3.57700 -1.36700 45.15100
H  -4.43000 -2.03200 43.75300
H  -1.71200 -5.36400 44.02900
H  0.25400 -6.13100 46.14400
H  -1.84800 -5.75700 46.75000
H  -3.18800 -5.07900 45.69800
H  -2.08600 -4.00400 46.51800
H  1.45000 -7.03900 43.77400
H  -0.14000 -6.73800 43.12100
H  -0.50800 -9.05800 43.80300
H  -0.44700 -8.59200 45.37300
H  1.09500 -9.04100 44.61900
H  6.40700 -6.34000 44.81800
H  4.96500 -6.43800 45.85900
H  6.32000 -5.35900 46.35300
H  7.29800 -1.53300 42.50900
H  8.01700 2.23100 44.54700
H  9.57200 1.99100 43.61300
H  9.45500 1.10400 44.98900
Mg 24.16900 -7.64000 47.09400
C  26.82800 -5.67700 46.25600
C  22.35700 -6.49100 44.48600
C  21.80600 -9.87400 47.80800
C  26.43500 -9.52500 49.28500
N  24.61600 -6.29800 45.56100
C  25.65000 -5.41100 45.46800
C  25.53700 -4.49500 44.22800
C  23.98500 -4.64700 43.87100
C  23.66400 -5.99600 44.66700
C  23.08300 -3.40800 44.12300
C  26.47900 -4.75700 43.00900
C  27.23300 -3.46300 42.53600
H  26.99500 -3.05500 41.10800
N  22.34200 -8.03000 46.30700
C  21.76500 -7.45900 45.21900
C  20.40300 -7.82100 45.14100
C  20.19600 -8.77400 46.17000
C  21.50200 -8.97300 46.82100
C  19.46200 -7.20900 44.10800
C  18.91800 -9.53800 46.42500
O  17.87600 -9.34900 45.73300
C  18.67800 -10.51300 47.62800
N  24.16100 -9.55000 48.28200
C  23.01500 -10.27900 48.37100
C  23.22000 -11.46500 49.38000
C  24.62900 -11.20800 49.96000
C  25.13600 -10.04600 49.13900
C  22.12300 -11.72300 50.40200
C  25.55900 -12.44600 49.99000
C  26.33000 -12.71200 51.36500
N  26.26500 -7.63900 47.74100
C  26.99100 -8.40000 48.56500
C  28.29300 -7.79100 48.68100
C  28.29100 -6.71900 47.81900
C  27.02700 -6.70100 47.24000
C  29.34600 -8.37400 49.55500
C  29.00500 -5.57100 47.25800
O  30.10600 -5.14600 47.47000
C  28.09600 -4.89900 46.14600
C  27.78900 -3.51900 46.55400
O  27.36200 -3.12600 47.63100
O  28.05100 -2.75500 45.52000
C  27.76000 -1.31300 45.55000
H  21.81800 -5.92900 43.72000
H  21.00700 -10.53800 48.14500
H  27.13500 -10.14800 49.84700
H  25.80500 -3.50600 44.59900
H  23.86100 -4.69600 42.78900
H  23.75500 -2.64300 44.51300
H  22.25700 -3.72500 44.75900
H  22.60100 -3.05900 43.20900
H  25.87100 -5.28500 42.27600
H  27.13900 -5.57100 43.30800
H  28.30600 -3.59200 42.68000
H  26.98100 -2.57300 43.11100
H  19.40600 -7.94200 43.30300
H  19.86400 -6.25600 43.76400
H  18.52300 -7.15300 44.65700
H  19.04700 -10.18500 48.60000
H  19.27100 -11.39600 47.38800
H  17.62700 -10.79800 47.58400
H  23.37500 -12.36100 48.78000
H  24.54600 -10.77800 50.95800
H  22.38100 -11.34400 51.39100
H  21.89800 -12.78700 50.47000
H  21.21600 -11.20800 50.08500
H  26.32600 -12.20900 49.25200
H  25.06100 -13.34700 49.63200
H  26.44400 -13.77100 51.59700
H  25.75500 -12.32300 52.20600
H  27.30900 -12.23500 51.35000
H  30.32300 -7.89000 49.52800
H  29.44700 -9.41500 49.25100
H  28.76100 -8.22600 50.46300
H  28.59600 -4.99800 45.18300
H  27.98200 -0.84700 44.59100
H  28.20800 -0.86900 46.43900
H  26.68700 -1.15400 45.44100

