158

Mg 8.78500 48.08200 27.50500
C  6.76200 47.84600 30.41600
C  11.56100 48.00900 29.52300
C  10.63000 48.60300 24.80000
C  5.85800 48.61200 25.55000
N  9.03500 48.33700 29.78500
C  8.11100 47.95200 30.79300
C  8.76200 47.71200 32.18600
C  10.27000 48.06300 31.81300
C  10.32800 48.17200 30.24500
C  10.75300 49.30600 32.54600
C  8.72400 46.27600 32.82400
C  9.83400 45.83400 33.83700
H  9.39300 45.47200 35.24300
N  10.80100 48.28900 27.20400
C  11.76900 48.12900 28.16000
C  13.07200 48.23000 27.52500
C  12.83900 48.25400 26.15100
C  11.37500 48.25000 25.94000
C  14.37500 48.32600 28.37200
C  13.81900 48.14100 25.05400
O  13.55000 48.09900 23.86800
C  15.27500 48.14300 25.41000
N  8.25500 48.59000 25.48200
C  9.25200 48.74800 24.55900
C  8.68700 49.15200 23.19000
C  7.15600 48.91900 23.33500
C  7.05400 48.72400 24.82200
C  9.10900 50.57800 22.72900
C  6.68600 47.70500 22.45300
C  7.03900 46.30100 22.84500
N  6.76000 48.20000 27.90500
C  5.68700 48.34400 26.97700
C  4.47400 48.18400 27.72700
C  4.85000 48.00000 29.02900
C  6.25300 47.94400 29.10900
C  3.05200 48.18600 27.25900
C  4.29100 47.66600 30.34300
O  3.13600 47.64100 30.75900
C  5.55200 47.53800 31.27300
C  5.54000 46.17200 31.92100
O  5.95000 45.12200 31.45500
O  5.16000 46.25500 33.20700
C  5.23000 45.04900 33.96700
H  12.46000 47.80000 30.10800
H  11.24800 48.67300 23.90300
H  5.01400 48.81000 24.88500
H  8.37200 48.35900 32.97200
H  10.91800 47.20800 32.00400
H  10.78000 50.05900 31.75900
H  11.72700 49.17400 33.01700
H  10.12700 49.66300 33.36400
H  8.63900 45.56200 32.00500
H  7.84500 46.28700 33.46900
H  10.47900 46.68800 34.04300
H  10.33400 44.94700 33.44900
H  14.99000 47.43400 28.25700
H  14.32300 48.53200 29.44100
H  14.97000 49.16100 28.00100
H  15.55700 49.09300 25.86400
H  15.93400 48.10200 24.54300
H  15.50200 47.31400 26.08000
H  9.14300 48.42500 22.51700
H  6.63500 49.79700 22.95500
H  8.23600 51.23000 22.70200
H  9.42700 50.61100 21.68800
H  9.96200 50.92600 23.31100
H  7.06200 47.77300 21.43200
H  5.60300 47.82200 22.42000
H  6.20200 45.67500 23.15200
H  7.93500 46.28800 23.46600
H  7.40400 45.74800 21.97900
H  2.89600 47.33000 26.60300
H  2.71400 49.12000 26.80900
H  2.36700 47.88500 28.05200
H  5.37000 48.21700 32.10600
H  5.46000 45.19200 35.02300
H  6.06000 44.37900 33.74400
H  4.32700 44.45700 33.82000
Mg 0.46300 43.73700 26.28300
C  2.34100 43.13200 29.16600
C  -2.36700 42.73500 28.14300
C  -1.32500 43.58500 23.38300
C  3.30200 44.27300 24.50400
N  0.05000 43.10100 28.44900
C  0.98000 43.00700 29.43500
C  0.36200 42.72500 30.76800
C  -1.11600 42.32000 30.37700
C  -1.13900 42.75500 28.92500
C  -1.28000 40.79800 30.57100
C  0.44000 44.11400 31.59400
C  0.46300 43.97600 33.13200
H  0.31300 42.55600 33.62400
N  -1.62400 43.37700 25.79700
C  -2.58700 43.04900 26.75200
C  -3.88000 42.99100 26.12100
C  -3.60700 43.20200 24.71900
C  -2.12600 43.44300 24.56000
C  -5.30100 42.70500 26.75300
C  -4.55500 43.17200 23.47900
O  -4.07000 43.33600 22.35000
C  -6.02400 43.14300 23.57900
N  0.87100 43.91400 24.29500
C  0.02600 43.71800 23.23900
C  0.71200 43.73600 21.84500
C  2.13200 44.24400 22.33100
C  2.11600 44.17000 23.83600
C  0.74400 42.28100 21.14700
C  2.46600 45.57500 21.62300
C  2.22600 46.91600 22.49600
N  2.41100 43.63000 26.68000
C  3.41200 43.86900 25.87800
C  4.68500 43.73400 26.60100
C  4.26900 43.38500 27.93900
C  2.87000 43.43800 27.96100
C  6.06800 43.85400 26.15700
C  4.80100 43.01500 29.19600
O  5.97200 42.73600 29.56400
C  3.56300 42.97100 30.09100
C  3.63500 41.70200 30.93300
O  3.04300 40.65100 30.66700
O  4.34200 42.04400 32.04800
C  4.49800 40.86900 33.04600
H  -3.31400 42.51000 28.63700
H  -1.83200 43.57600 22.41600
H  4.21600 44.54600 23.97300
H  0.91100 41.87200 31.16700
H  -1.87100 42.93900 30.86200
H  -1.84100 40.43100 29.71100
H  -2.01100 40.68800 31.37200
H  -0.37900 40.20500 30.72700
H  -0.43100 44.74700 31.42900
H  1.29200 44.72700 31.29800
H  -0.23800 44.61700 33.66700
H  1.48600 44.24400 33.39800
H  -6.07900 43.43500 26.53200
H  -5.26900 42.61200 27.83900
H  -5.49800 41.71400 26.34400
H  -6.42300 44.11500 23.87100
H  -6.30300 42.49600 24.41000
H  -6.37100 42.83500 22.59200
H  0.02900 44.35100 21.25800
H  2.88700 43.52300 22.01700
H  0.14500 41.58200 21.73200
H  1.74400 41.84800 21.19300
H  0.47000 42.36900 20.09600
H  1.91000 45.81300 20.71600
H  3.48900 45.61400 21.25000
H  1.28100 46.94300 23.03800
H  2.30700 47.85100 21.94100
H  2.98200 46.96600 23.28000
H  6.05900 44.29800 25.16200
H  6.63000 42.92300 26.08700
H  6.48700 44.51100 26.91900
H  3.64700 43.92800 30.60600
H  4.50600 39.85400 32.64800
H  3.66600 40.89500 33.74900
H  5.43500 40.93500 33.59800

