158

Mg 2.10400 -1.69500 44.24100
C  5.33400 -0.81200 43.30200
C  0.98400 0.83100 42.35100
C  -0.84700 -3.04100 44.68700
C  3.55300 -4.86500 45.45700
N  3.10400 -0.20400 42.99600
C  4.37600 -0.06900 42.66100
C  4.53900 0.96700 41.59100
C  3.21200 1.77100 41.56300
C  2.33700 0.69000 42.29400
C  3.30200 3.14600 42.41100
C  5.04500 0.31200 40.19600
C  6.35100 0.90500 39.57600
H  6.18400 1.68300 38.24700
N  0.29800 -1.09500 43.70600
C  0.00900 -0.05200 42.93600
C  -1.43900 0.10600 42.79900
C  -1.97300 -0.94100 43.53300
C  -0.84300 -1.76900 44.00600
C  -2.09200 1.26500 42.00400
C  -3.49400 -1.23500 43.73600
O  -4.38300 -0.42200 43.47200
C  -3.93900 -2.49400 44.40400
N  1.44700 -3.69800 45.10100
C  0.14400 -4.00000 45.11500
C  -0.19300 -5.40700 45.55200
C  1.23100 -5.97800 45.69200
C  2.19100 -4.79100 45.37000
C  -1.03000 -5.41300 46.78700
C  1.43000 -7.18400 44.78100
C  1.92200 -8.49900 45.37200
N  3.92400 -2.67500 44.42800
C  4.37300 -3.85400 45.05600
C  5.82500 -3.82300 45.17900
C  6.18300 -2.66100 44.45800
C  5.03900 -1.98900 44.08000
C  6.58600 -4.88900 45.86200
C  7.38600 -1.92000 44.00200
O  8.58300 -2.21300 44.10800
C  6.85300 -0.70900 43.20100
C  7.43900 0.50100 43.84500
O  8.20400 1.22300 43.27000
O  7.03600 0.62900 45.14100
C  7.35000 1.92700 45.76200
H  0.44400 1.60500 41.80200
H  -1.81900 -3.32600 45.09500
H  3.99300 -5.75800 45.90700
H  5.30000 1.60500 42.04200
H  2.93000 2.01700 40.53900
H  4.08800 3.07800 43.16400
H  2.39400 3.45800 42.92700
H  3.63700 4.02300 41.85700
H  4.28200 0.37800 39.42100
H  5.17500 -0.75300 40.39100
H  6.97000 0.04500 39.31800
H  6.93400 1.41700 40.34100
H  -1.46000 1.70000 41.23000
H  -2.41500 2.03300 42.70700
H  -3.05500 0.95700 41.59800
H  -5.02400 -2.51700 44.30700
H  -3.67000 -2.62600 45.45200
H  -3.39200 -3.34400 43.99600
H  -0.79100 -5.75000 44.70800
H  1.36600 -6.40200 46.68700
H  -0.67400 -4.62400 47.44900
H  -0.80300 -6.38400 47.22700
H  -2.07500 -5.21300 46.54900
H  2.16500 -6.97900 44.00300
H  0.47300 -7.28000 44.26800
H  1.03900 -9.06000 45.68000
H  2.54300 -8.37400 46.25900
H  2.38200 -9.10600 44.59300
H  6.75600 -5.87000 45.41800
H  6.00000 -5.12500 46.75000
H  7.57000 -4.53600 46.16900
H  7.21600 -0.85300 42.18300
H  8.40500 2.08000 45.53700
H  7.09000 2.04500 46.81400
H  6.71800 2.69200 45.31100
Mg 49.00300 45.90000 43.59900
C  45.93500 46.49900 42.00800
C  49.23900 43.06300 41.57900
C  52.52000 45.78400 44.09600
C  49.01200 49.23400 44.68100
N  47.62700 44.81400 42.03700
C  46.40800 45.24800 41.59100
C  45.98500 44.26600 40.46500
C  46.87200 43.05000 40.70800
C  48.03900 43.64900 41.41500
C  46.24600 41.87900 41.53300
C  46.19300 44.89600 39.04600
C  44.96900 44.90200 38.14000
H  44.95600 44.24000 36.74800
N  50.58200 44.55300 43.01600
C  50.45500 43.45700 42.28200
C  51.70100 42.80200 42.11000
C  52.69100 43.54200 42.74500
C  51.97900 44.67200 43.38700
C  51.83800 41.43800 41.46100
C  54.15900 43.24500 42.73000
O  54.52900 42.21000 42.11100
C  55.16500 44.14300 43.35500
N  50.57400 47.27600 44.25300
C  51.81800 46.94200 44.53400
C  52.58700 48.11000 45.14200
C  51.42800 49.15200 45.40500
C  50.21800 48.55400 44.66400
C  53.52600 47.85200 46.32900
C  51.83000 50.60800 44.87400
C  51.13900 51.80900 45.54800
N  47.74100 47.41000 43.53100
C  47.82900 48.68800 44.13200
C  46.58100 49.40600 43.89200
C  45.82300 48.59700 42.99600
C  46.57600 47.36400 42.84900
C  46.25200 50.79900 44.41700
C  44.60600 48.49300 42.21800
O  43.70400 49.25400 42.12100
C  44.75600 47.19900 41.43300
C  43.46900 46.37200 41.70600
O  43.23400 45.75700 42.74000
O  42.58400 46.38200 40.58500
C  41.39200 45.45500 40.74500
H  49.38900 42.10300 41.08000
H  53.59200 45.78900 44.30300
H  49.05900 50.21400 45.16100
H  44.91800 44.09600 40.60900
H  47.11700 42.63500 39.73000
H  45.22200 42.07900 41.84800
H  46.79900 41.78300 42.46700
H  46.07400 40.94800 40.99400
H  46.89200 44.27400 38.48600
H  46.51100 45.92200 39.23100
H  44.81600 45.96600 37.96100
H  44.06000 44.59700 38.65900
H  51.91700 41.65800 40.39600
H  50.94700 40.81200 41.50300
H  52.69100 40.89000 41.86000
H  55.07300 44.14100 44.44100
H  54.91500 45.14500 43.00400
H  56.18400 43.78500 43.21100
H  53.17500 48.42200 44.27900
H  51.30700 49.35300 46.46900
H  53.19200 48.36600 47.23100
H  54.55800 48.16000 46.16000
H  53.48100 46.78000 46.52000
H  51.63200 50.62800 43.80200
H  52.90500 50.72000 45.01100
H  50.63200 52.31100 44.72400
H  51.85200 52.35900 46.16200
H  50.36400 51.42600 46.21100
H  46.18200 51.53000 43.61100
H  47.03500 51.26300 45.01500
H  45.20400 50.81300 44.71700
H  44.82700 47.45700 40.37600
H  40.82700 45.92800 41.54800
H  41.67900 44.44300 41.03000
H  40.90400 45.53100 39.77300

