158

Mg 1.83200 -2.24400 44.46600
C  5.19500 -1.42800 43.68800
C  0.87100 0.43900 42.53400
C  -1.42200 -3.27300 44.68000
C  2.99300 -5.29000 45.72600
N  2.91500 -0.80000 43.09300
C  4.28600 -0.62100 43.07700
C  4.60500 0.73500 42.40600
C  3.21700 1.31100 42.00600
C  2.30000 0.33500 42.63100
C  3.06600 2.79500 42.59200
C  5.52300 0.42500 41.22200
C  6.77800 1.32600 41.06800
H  6.77700 2.18000 39.72700
N  -0.07000 -1.51200 43.78600
C  -0.20000 -0.42500 42.92700
C  -1.53600 -0.15400 42.70500
C  -2.27300 -1.19200 43.44100
C  -1.21700 -2.08400 43.96100
C  -2.08300 0.99100 41.90500
C  -3.83700 -1.28000 43.56900
O  -4.67300 -0.54100 43.02900
C  -4.34800 -2.15500 44.65900
N  0.89400 -4.09700 45.02700
C  -0.47400 -4.17100 45.15400
C  -0.76900 -5.50500 45.94900
C  0.63000 -6.17700 46.06900
C  1.57900 -5.14400 45.54800
C  -1.51700 -5.34700 47.30200
C  0.78300 -7.50200 45.20500
C  1.42000 -8.71900 45.89600
N  3.67500 -3.19400 44.68600
C  4.01500 -4.40500 45.29800
C  5.47000 -4.52900 45.38500
C  5.96200 -3.35000 44.81100
C  4.84200 -2.66800 44.30500
C  6.22700 -5.68000 45.99300
C  7.16600 -2.62100 44.50800
O  8.35100 -2.84100 44.64600
C  6.70000 -1.33400 43.91000
C  6.98600 -0.11600 44.82000
O  6.33100 0.21600 45.81200
O  8.04400 0.63900 44.29900
C  8.33500 1.90300 45.03100
H  0.52100 1.34500 42.03400
H  -2.43400 -3.63900 44.86500
H  3.47700 -6.10000 46.27500
H  5.06200 1.35000 43.18100
H  2.98900 1.49500 40.95600
H  3.58800 2.86300 43.54600
H  2.04400 2.96800 42.92900
H  3.31200 3.47400 41.77500
H  4.85100 0.36400 40.36600
H  5.84000 -0.61700 41.26100
H  7.72300 0.78400 41.08900
H  6.75500 2.17800 41.74700
H  -3.16300 1.13100 41.94700
H  -1.77700 1.02000 40.85900
H  -1.62100 1.91500 42.25200
H  -5.32600 -1.88400 45.05800
H  -3.71100 -2.18600 45.54200
H  -4.21800 -3.15500 44.24400
H  -1.50100 -6.08400 45.38600
H  0.96000 -6.38000 47.08800
H  -1.18500 -4.39900 47.72400
H  -1.16600 -6.13900 47.96300
H  -2.59100 -5.34800 47.11600
H  1.43400 -7.23800 44.37200
H  -0.16100 -7.81900 44.76200
H  1.24600 -9.59100 45.26500
H  1.02100 -8.76200 46.91000
H  2.47900 -8.57200 46.10500
H  7.23100 -5.30700 46.19500
H  6.36400 -6.47100 45.25500
H  5.85600 -6.03500 46.95400
H  7.27100 -1.27600 42.98300
H  8.91800 1.71400 45.93300
H  7.36700 2.34600 45.26500
H  8.85400 2.66600 44.45100
Mg 0.80900 8.01900 27.04600
C  1.70100 10.05200 29.73400
C  0.71900 5.37100 29.25000
C  0.58600 6.02900 24.32300
C  1.09100 10.72500 24.92000
N  1.17300 7.78100 29.18900
C  1.31000 8.76000 30.11600
C  1.08200 8.28200 31.57800
C  1.17400 6.72900 31.29000
C  0.95900 6.65000 29.78400
C  2.49100 6.03400 31.79600
C  -0.20100 8.79700 32.31200
C  -0.22000 8.91700 33.81800
H  1.00700 8.55400 34.66100
N  0.72600 5.94400 26.81400
C  0.68100 5.06100 27.87200
C  0.73000 3.70700 27.23500
C  0.62100 3.86300 25.83000
C  0.64000 5.33500 25.61900
C  0.72000 2.40600 27.98700
C  0.46400 2.90700 24.75400
O  0.45100 3.31200 23.60700
C  0.30400 1.43100 24.96600
N  1.01200 8.33200 24.88900
C  0.63900 7.39800 24.00300
C  0.61100 7.93800 22.53300
C  0.38300 9.49200 22.88400
C  0.78600 9.50700 24.33200
C  1.91000 7.69400 21.72100
C  -1.05800 9.87300 22.45000
C  -1.21500 10.86100 21.23200
N  1.45200 10.01400 27.20100
C  1.50600 10.98500 26.31000
C  1.99100 12.15300 26.90900
C  2.14000 11.83600 28.30600
C  1.78800 10.53500 28.42800
C  1.99800 13.57000 26.33700
C  2.44000 12.44300 29.58000
O  2.83300 13.51900 30.05700
C  2.10800 11.30500 30.59000
C  3.33900 11.16400 31.45700
O  4.34300 10.58200 31.16400
O  3.05600 11.79000 32.61300
C  4.04400 11.80300 33.67900
H  0.66600 4.57500 29.99500
H  0.38600 5.42700 23.43400
H  0.95300 11.58800 24.26600
H  1.99600 8.50600 32.12900
H  0.35500 6.18000 31.75400
H  3.06600 6.77200 32.35600
H  3.14800 5.85800 30.94500
H  2.19900 5.14200 32.35000
H  -1.00200 8.13000 31.99500
H  -0.39100 9.79200 31.91000
H  -0.99300 8.20000 34.09300
H  -0.63100 9.89600 34.06500
H  0.95300 2.63800 29.02600
H  1.47900 1.78400 27.51200
H  -0.25700 1.92300 27.99400
H  -0.04200 0.88600 24.08700
H  -0.37500 1.22100 25.79200
H  1.25900 1.02700 25.30200
H  -0.25200 7.51700 22.01600
H  1.15000 10.01200 22.31000
H  2.41200 8.62400 21.45200
H  1.69100 7.23700 20.75600
H  2.61600 7.12500 22.32600
H  -1.53900 10.25700 23.34900
H  -1.68000 9.02200 22.17100
H  -0.28500 10.92300 20.66700
H  -1.64400 11.83400 21.46900
H  -1.98900 10.36900 20.64300
H  2.65700 14.30700 26.79500
H  0.97700 13.93900 26.43800
H  2.20100 13.55300 25.26600
H  1.21400 11.64600 31.11300
H  4.53600 12.77500 33.72200
H  4.83600 11.05500 33.67000
H  3.52400 11.73400 34.63400

