158

Mg 1.48500 -1.84400 43.42800
C  4.82400 -0.79700 43.18800
C  0.66700 0.83000 41.50200
C  -1.62500 -3.04600 43.24100
C  2.57500 -4.80800 44.93800
N  2.65800 -0.10100 42.59400
C  3.98500 0.14100 42.59100
C  4.29000 1.37500 41.67000
C  2.87200 2.05300 41.59200
C  1.99400 0.80900 41.92000
C  2.63100 3.15600 42.65600
C  5.03300 1.13800 40.33900
C  6.18500 2.11600 40.15700
H  6.19000 2.86400 38.87300
N  -0.27400 -1.09900 42.48900
C  -0.43100 0.01800 41.73200
C  -1.84400 0.29000 41.45100
C  -2.51800 -0.88300 42.00100
C  -1.49400 -1.74600 42.64300
C  -2.41800 1.49100 40.74200
C  -3.92400 -1.02200 41.93900
O  -4.70900 -0.19200 41.48400
C  -4.58200 -2.16000 42.48900
N  0.60600 -3.67400 43.96500
C  -0.72100 -3.90300 43.88600
C  -1.14100 -5.27900 44.54200
C  0.14300 -5.80000 45.14400
C  1.18900 -4.70400 44.68700
C  -2.28400 -5.01400 45.56600
C  0.65300 -7.26500 44.70300
C  0.49100 -8.41300 45.79300
N  3.28100 -2.72900 43.84800
C  3.60600 -3.92500 44.48000
C  5.06400 -4.01700 44.76000
C  5.57400 -2.86500 44.13900
C  4.42600 -2.08700 43.76800
C  5.85900 -5.17500 45.35000
C  6.78200 -2.20900 43.81600
O  7.96500 -2.56200 43.94500
C  6.35800 -0.80400 43.16600
C  7.02700 0.35700 43.83700
O  6.99200 0.50700 45.04300
O  7.79400 1.05900 42.92600
C  8.55300 2.17200 43.54400
H  0.28900 1.67100 40.91600
H  -2.64200 -3.44600 43.23100
H  2.85000 -5.65400 45.57200
H  4.87700 2.06200 42.28000
H  2.70900 2.46600 40.59700
H  3.55200 3.58800 43.04600
H  2.15900 2.80700 43.57500
H  2.01200 3.86900 42.11100
H  4.36600 1.23600 39.48300
H  5.38900 0.11100 40.41700
H  7.17700 1.66300 40.15800
H  6.28200 2.83900 40.96600
H  -2.80700 2.16700 41.50300
H  -3.28300 1.20800 40.14100
H  -1.68900 2.04000 40.14700
H  -5.63800 -2.05200 42.24400
H  -4.38500 -2.25500 43.55700
H  -4.25100 -3.01000 41.89000
H  -1.46900 -5.94900 43.74800
H  0.16700 -5.74300 46.23200
H  -2.19400 -3.98600 45.91800
H  -2.09000 -5.70100 46.38900
H  -3.24800 -5.27200 45.12700
H  1.71400 -7.23800 44.45600
H  0.19700 -7.61200 43.77600
H  -0.35700 -8.97200 45.39700
H  0.16100 -7.97800 46.73700
H  1.40600 -8.99800 45.87700
H  6.78300 -5.38700 44.81400
H  5.26400 -6.08000 45.23000
H  6.06100 -5.06800 46.41600
H  6.68200 -0.82100 42.12500
H  7.95900 3.08500 43.51300
H  9.37100 2.23300 42.82600
H  8.95400 2.13100 44.55700
Mg 17.53900 -0.99800 27.87100
C  16.50100 0.83600 30.65000
C  19.67800 -2.78000 29.91500
C  19.29600 -2.10600 25.14600
C  15.65900 1.18400 25.76600
N  17.99200 -0.91000 29.95700
C  17.45100 -0.09200 30.96000
C  17.92700 -0.48100 32.33800
C  19.17600 -1.45900 32.07000
C  18.91200 -1.77000 30.56400
C  20.61100 -0.89900 32.36300
C  16.85900 -1.04700 33.28900
C  16.82800 -0.42600 34.67900
H  18.17600 -0.17400 35.28900
N  19.16200 -2.40900 27.57700
C  19.80300 -3.13800 28.56100
C  20.73400 -4.09400 27.91400
C  20.56000 -3.83900 26.50900
C  19.72200 -2.69100 26.36900
C  21.68100 -4.97400 28.78700
C  21.25000 -4.51700 25.45100
O  21.19400 -4.17900 24.25100
C  21.89200 -5.83800 25.75200
N  17.49700 -0.47400 25.83500
C  18.38100 -0.97800 24.94100
C  18.15500 -0.50600 23.50800
C  16.81200 0.30800 23.70700
C  16.63900 0.35000 25.18800
C  19.35200 0.31200 22.80500
C  15.49300 -0.05500 22.94000
C  15.42200 0.55400 21.47800
N  16.19700 0.51600 28.10900
C  15.46200 1.30600 27.20400
C  14.65900 2.23600 27.93700
C  14.96000 2.06900 29.34400
C  15.95300 1.03100 29.34300
C  13.82200 3.37500 27.31000
C  14.70700 2.53800 30.65800
O  14.04200 3.48300 31.02600
C  15.65700 1.68700 31.59100
C  16.44900 2.68800 32.34700
O  17.52400 3.13700 31.97600
O  15.71400 3.02500 33.45400
C  16.29500 3.98400 34.37900
H  20.30900 -3.29900 30.64000
H  19.69300 -2.54100 24.22600
H  15.08300 1.88500 25.15800
H  18.33400 0.41200 32.81400
H  19.00300 -2.36200 32.65500
H  20.95400 -1.50800 33.19900
H  20.57600 0.15600 32.63500
H  21.35000 -0.95800 31.56400
H  17.13700 -2.10000 33.30200
H  15.94400 -0.92100 32.70900
H  16.29400 -1.06400 35.38300
H  16.19400 0.45200 34.55600
H  21.59500 -4.66400 29.82800
H  22.72200 -4.78500 28.52700
H  21.32500 -5.98900 28.61000
H  21.14100 -6.51500 26.16000
H  22.84500 -5.79400 26.27900
H  22.26500 -6.18900 24.79000
H  17.86600 -1.35700 22.89000
H  17.17200 1.31500 23.49600
H  20.19100 0.50700 23.47300
H  18.95900 1.24800 22.40700
H  19.70500 -0.30200 21.97700
H  14.57800 0.22400 23.46300
H  15.63500 -1.10500 22.68300
H  14.81000 1.45600 21.47100
H  15.26200 -0.21000 20.71700
H  16.43100 0.89200 21.24100
H  12.78600 3.17800 27.58300
H  13.79100 3.35800 26.22000
H  14.21100 4.35700 27.58000
H  14.94200 1.07700 32.14200
H  17.00400 3.34000 34.90000
H  15.48500 4.23000 35.06600
H  16.63100 4.85100 33.81000

