158

Mg 1.64400 -2.39400 43.32200
C  4.90100 -1.77600 42.90700
C  0.57900 0.31800 41.65600
C  -1.75100 -3.54700 43.47300
C  2.54400 -5.53600 44.80900
N  2.66700 -0.91500 42.37200
C  4.04700 -0.81900 42.25200
C  4.40400 0.39100 41.42700
C  2.91300 1.13300 41.31200
C  1.94100 0.13200 41.85500
C  2.93600 2.43300 42.18800
C  5.07000 0.07400 40.03000
C  6.39200 0.76800 39.77100
H  6.39000 1.81000 38.69400
N  -0.32600 -1.63500 42.78500
C  -0.53400 -0.46100 42.06500
C  -1.96200 -0.26900 41.92300
C  -2.62500 -1.28300 42.63000
C  -1.58400 -2.27700 42.96900
C  -2.48700 1.05100 41.30800
C  -4.16700 -1.35500 42.83000
O  -4.90800 -0.45600 42.47300
C  -4.91200 -2.52100 43.45200
N  0.46700 -4.26900 44.17000
C  -0.83600 -4.43700 44.10100
C  -1.23500 -5.78200 44.75800
C  0.20900 -6.45000 45.06200
C  1.17000 -5.35300 44.64400
C  -2.27100 -5.85800 45.91300
C  0.47000 -7.83600 44.43100
C  0.75100 -8.97100 45.43700
N  3.34500 -3.50300 43.86000
C  3.58600 -4.65800 44.49700
C  5.07900 -4.85300 44.66700
C  5.67000 -3.68700 44.06700
C  4.54900 -2.95400 43.56300
C  5.88800 -5.96200 45.32200
C  6.92200 -2.94000 43.76600
O  8.08800 -3.12700 44.06000
C  6.42900 -1.67300 42.88900
C  6.96000 -0.62000 43.70300
O  6.70300 -0.40700 44.86300
O  7.93200 -0.02900 42.98200
C  8.50900 1.20400 43.66100
H  0.44500 1.26600 41.13000
H  -2.76800 -3.94600 43.46500
H  2.97100 -6.46500 45.19100
H  5.09200 0.98900 42.02400
H  2.89900 1.43600 40.26500
H  3.02900 3.27900 41.50700
H  3.73000 2.45900 42.93500
H  1.96600 2.51600 42.67900
H  4.40600 0.40000 39.23000
H  5.26800 -0.99800 40.03800
H  7.08200 -0.00700 39.43700
H  6.91000 1.25800 40.59600
H  -3.01300 0.77000 40.39500
H  -1.70900 1.81300 41.26000
H  -3.29300 1.45300 41.92200
H  -5.96500 -2.25200 43.52600
H  -4.48900 -2.83200 44.40700
H  -4.92700 -3.33900 42.73100
H  -1.66800 -6.29300 43.89700
H  0.09400 -6.67300 46.12300
H  -3.13800 -5.26900 45.61500
H  -1.82500 -5.51900 46.84800
H  -2.58700 -6.89200 46.05700
H  1.41000 -7.78900 43.88000
H  -0.36500 -8.14000 43.80000
H  1.79100 -9.27700 45.31900
H  0.07600 -9.82700 45.45500
H  0.82800 -8.54100 46.43600
H  5.30000 -6.57300 46.00700
H  6.73400 -5.53200 45.85900
H  6.30000 -6.62800 44.56400
H  6.94900 -1.71300 41.93200
H  8.84900 1.89800 42.89300
H  9.27200 0.97900 44.40700
H  7.75100 1.79800 44.17200
Mg 35.91300 2.04100 30.52900
C  33.24900 3.11000 32.59400
C  38.04800 2.73000 33.10900
C  38.40500 1.02100 28.44900
C  33.61000 2.05100 27.78800
N  35.65400 2.80200 32.60600
C  34.46600 3.15800 33.28000
C  34.70300 3.26700 34.84000
C  36.25100 3.31300 34.89400
C  36.71400 2.92000 33.46400
C  36.89600 4.69100 35.35800
C  34.09000 2.10300 35.63200
C  33.80700 2.24900 37.11300
H  34.21000 3.57800 37.76000
N  37.91100 1.86800 30.72100
C  38.59300 2.09200 31.91400
C  39.90400 1.57100 31.76400
C  40.08700 1.20500 30.36300
C  38.77300 1.39900 29.76500
C  40.96900 1.50400 32.85900
C  41.29400 0.70900 29.65200
O  41.29700 0.66200 28.43700
C  42.71700 0.41200 30.32900
N  36.02200 1.60500 28.48300
C  37.16600 1.11900 27.86900
C  36.81200 0.74500 26.39900
C  35.34500 1.10900 26.21100
C  34.91800 1.60900 27.60600
C  37.76300 1.24800 25.30800
C  34.42600 -0.14100 25.76600
C  33.21400 0.11200 24.89400
N  33.75900 2.43000 30.20500
C  33.02300 2.43600 29.03400
C  31.56300 2.77200 29.37500
C  31.68100 3.02700 30.73300
C  33.01200 2.90800 31.18800
C  30.30000 2.78900 28.47000
C  30.88500 3.33900 31.94500
O  29.68800 3.51900 32.11400
C  31.89400 3.42300 33.08300
C  31.74400 4.75600 33.72200
O  32.19600 5.86000 33.34400
O  31.17900 4.49200 34.95200
C  30.88900 5.69700 35.71400
H  38.77200 2.74000 33.92600
H  39.19000 0.74300 27.74300
H  33.14900 2.18900 26.80800
H  34.39200 4.23500 35.23200
H  36.56300 2.45300 35.48600
H  36.13500 5.44100 35.57500
H  37.50000 5.12700 34.56100
H  37.66000 4.59400 36.12900
H  34.71500 1.22500 35.46700
H  33.10500 2.04300 35.16800
H  34.27500 1.46100 37.70400
H  32.74600 2.00700 37.17500
H  41.54300 0.57900 32.90800
H  40.50600 1.90000 33.76300
H  41.71100 2.25700 32.59300
H  43.39400 0.46800 29.47600
H  42.66000 -0.53600 30.86300
H  43.04500 1.19700 31.01100
H  36.84800 -0.33500 26.53900
H  35.21100 1.97600 25.56500
H  38.73900 1.68100 25.52500
H  37.17900 1.96100 24.72600
H  38.02800 0.39900 24.67800
H  34.06000 -0.67700 26.64100
H  35.09100 -0.77100 25.17600
H  33.39800 -0.37400 23.93500
H  32.95200 1.15500 24.71600
H  32.36800 -0.38900 25.36500
H  30.11500 1.84300 27.96100
H  30.36500 3.59300 27.73700
H  29.45500 2.99000 29.12900
H  31.61100 2.64600 33.79400
H  31.71200 6.41100 35.73300
H  30.63400 5.53300 36.76100
H  29.96700 6.11000 35.30500

