158

Mg -2.31500 17.24400 27.28200
C  -2.82900 15.39700 30.15600
C  -2.82600 20.12600 29.22200
C  -2.44200 19.13700 24.53500
C  -2.29700 14.33100 25.39900
N  -2.71800 17.63400 29.50600
C  -2.77700 16.75000 30.51000
C  -2.89300 17.43200 31.79000
C  -3.11900 18.88200 31.46800
C  -2.77200 18.87200 29.99300
C  -4.39800 19.55600 31.98000
C  -1.70200 17.19300 32.76000
C  -1.50600 18.05600 34.07800
H  -1.14100 17.39100 35.42700
N  -2.49900 19.35500 26.98400
C  -2.80800 20.31100 27.84200
C  -2.91700 21.56700 27.16300
C  -2.51400 21.35400 25.77600
C  -2.43000 19.86600 25.70400
C  -3.24100 22.86200 27.98000
C  -2.42100 22.36300 24.63100
O  -2.20500 22.02400 23.50500
C  -2.61800 23.81100 24.92200
N  -2.46400 16.67900 25.24300
C  -2.48600 17.68700 24.34400
C  -2.50800 17.07600 22.89600
C  -2.11200 15.63200 23.21500
C  -2.36000 15.47900 24.65600
C  -3.96800 17.28800 22.26500
C  -0.71500 15.20700 22.83300
C  0.41600 16.11700 23.17200
N  -2.40900 15.20400 27.66300
C  -2.41300 14.18600 26.80600
C  -2.58100 12.92000 27.52500
C  -2.69500 13.35300 28.85300
C  -2.59300 14.72300 28.90400
C  -2.80800 11.50200 26.99200
C  -3.05400 12.90100 30.20000
O  -3.38000 11.83100 30.77900
C  -2.93700 14.16900 31.07900
C  -1.73000 13.86500 31.83800
O  -0.62300 14.24600 31.52300
O  -2.01300 13.43500 33.04800
C  -0.92000 13.41100 34.09900
H  -3.03700 20.99800 29.84400
H  -2.47500 19.68100 23.58900
H  -1.98700 13.45400 24.82700
H  -3.80700 17.14400 32.30900
H  -2.27400 19.42400 31.89300
H  -4.12900 20.32400 32.70600
H  -4.97400 18.83300 32.55800
H  -5.04300 19.91500 31.17900
H  -0.79800 17.29200 32.16000
H  -1.69200 16.21300 33.23700
H  -2.26600 18.82900 34.19300
H  -0.57000 18.56000 33.83800
H  -3.65000 22.68100 28.97400
H  -3.95900 23.47500 27.43500
H  -2.38900 23.52300 28.14100
H  -2.32300 24.33600 24.01300
H  -2.02300 24.09500 25.79000
H  -3.69700 23.89400 25.05200
H  -1.80500 17.61800 22.26300
H  -2.73400 14.84500 22.78800
H  -4.54100 17.97500 22.88700
H  -4.57300 16.39100 22.39200
H  -3.81400 17.50700 21.20800
H  -0.76900 15.16100 21.74600
H  -0.45700 14.17700 23.08100
H  -0.08100 16.64100 23.98800
H  0.77900 16.81100 22.41500
H  1.24300 15.54100 23.58700
H  -3.85000 11.40100 27.29400
H  -2.10400 10.92300 27.58900
H  -2.73100 11.38400 25.91100
H  -3.81700 14.24000 31.71700
H  -0.87600 14.33600 34.67300
H  0.12000 13.32300 33.78300
H  -0.86500 12.64000 34.86700
Mg 30.50400 56.88400 39.78100
C  27.96800 54.86800 38.83800
C  32.78000 54.45900 38.88900
C  32.92000 59.26000 39.66600
C  28.06000 59.37000 40.52300
N  30.32700 54.88900 39.01600
C  29.16600 54.24600 38.82600
C  29.47100 52.79500 38.42100
C  30.94400 52.65300 38.66400
C  31.39700 54.08600 39.01600
C  31.27200 51.50200 39.62900
C  28.98000 52.37800 37.06000
C  29.36100 53.28100 35.77600
H  28.24300 53.67300 34.76900
N  32.59300 56.85100 39.34300
C  33.31700 55.74200 39.05300
C  34.69500 56.17300 38.84700
C  34.72900 57.60100 38.94200
C  33.41500 57.95800 39.39100
C  35.78200 55.27800 38.29900
C  35.82700 58.53300 38.56200
O  36.90400 58.06400 38.31400
C  35.69800 60.05600 38.52900
N  30.52900 58.97300 40.20000
C  31.65200 59.75400 40.09000
C  31.27900 61.26000 40.11200
C  29.91700 61.23500 40.75900
C  29.41800 59.79700 40.48800
C  32.39600 62.05200 40.84900
C  28.97000 62.35400 40.14000
C  28.09200 63.11800 41.23100
N  28.39800 57.14000 39.81600
C  27.54200 58.15900 40.17000
C  26.20900 57.75000 40.02800
C  26.30500 56.46700 39.48300
C  27.67300 56.16300 39.34500
C  24.90700 58.43700 40.36000
C  25.57100 55.40800 38.95000
O  24.35600 55.22500 38.89000
C  26.61300 54.24300 38.52000
C  26.21300 53.03200 39.30800
O  26.43000 52.86700 40.50200
O  25.46000 52.19700 38.51300
C  24.68100 51.23500 39.22800
H  33.35100 53.58400 38.57200
H  33.61500 60.08700 39.50500
H  27.36500 60.20600 40.61900
H  28.90100 52.23600 39.16300
H  31.44000 52.53000 37.70100
H  30.37800 51.09000 40.09900
H  31.92700 51.86100 40.42300
H  31.99200 50.80800 39.19500
H  27.90300 52.21100 37.09400
H  29.52500 51.43600 37.00300
H  29.99800 52.64700 35.15800
H  29.83000 54.22700 36.04700
H  36.71200 55.22600 38.86400
H  36.17200 55.56600 37.32200
H  35.43700 54.24800 38.19900
H  36.60000 60.51200 38.12000
H  35.46300 60.61600 39.43400
H  34.85700 60.21100 37.85300
H  31.22700 61.57700 39.07100
H  29.91600 61.24800 41.84900
H  33.01600 62.50900 40.07800
H  33.09300 61.45000 41.43200
H  31.92700 62.81900 41.46500
H  28.30000 61.89800 39.41100
H  29.40900 63.10500 39.48200
H  27.02700 62.97500 41.04700
H  28.21300 64.20200 41.25000
H  28.33100 62.80200 42.24600
H  24.27800 57.71700 40.88400
H  24.38700 58.73400 39.45000
H  25.17700 59.24400 41.04100
H  26.52600 54.12400 37.44000
H  25.35000 50.50900 39.68900
H  24.02700 50.77000 38.49000
H  24.17700 51.87300 39.95500

