158

Mg 1.12400 7.65000 25.10500
C  1.84100 9.32000 28.06300
C  0.85700 4.73300 26.82900
C  0.70400 6.17400 22.17100
C  2.09900 10.57900 23.40300
N  1.34200 7.14100 27.21100
C  1.55000 7.99300 28.26400
C  1.45700 7.23600 29.61600
C  1.51700 5.72300 29.13400
C  1.16500 5.88000 27.63700
C  2.83500 5.00500 29.42300
C  0.28200 7.66800 30.43600
C  0.58500 8.03700 31.87700
H  1.80500 7.24500 32.48200
N  0.73100 5.73700 24.55100
C  0.64500 4.66600 25.38800
C  0.39600 3.44700 24.66800
C  0.43400 3.83000 23.21800
C  0.64800 5.31100 23.27200
C  0.22400 2.12700 25.32300
C  0.34000 2.98100 21.97700
O  0.49200 3.47300 20.87700
C  0.08700 1.51600 22.20300
N  1.26500 8.30800 23.08100
C  1.05400 7.49600 22.02600
C  1.03500 8.30400 20.74300
C  1.63100 9.63000 21.14800
C  1.64900 9.50600 22.64500
C  1.79500 7.56500 19.62500
C  0.85000 10.90300 20.57400
C  -0.46200 11.38800 21.25000
N  1.79300 9.67800 25.58900
C  2.16400 10.72400 24.77700
C  2.52100 11.86900 25.63400
C  2.33700 11.36900 26.91200
C  1.99100 10.04000 26.82900
C  2.96500 13.24600 25.10600
C  2.54500 11.75500 28.27000
O  3.06200 12.79000 28.75700
C  2.06500 10.46200 29.06500
C  3.13200 10.25100 30.08000
O  3.98300 9.37600 29.96300
O  3.03900 11.14400 31.12800
C  4.02900 11.10800 32.19000
H  0.88000 3.73900 27.28100
H  0.25600 5.73500 21.27800
H  2.34200 11.42500 22.75700
H  2.39900 7.52600 30.08000
H  0.71300 5.15000 29.59700
H  3.38500 5.65700 30.10200
H  3.42800 4.97600 28.50900
H  2.64500 4.01400 29.83500
H  -0.52400 6.93500 30.40700
H  -0.17300 8.54300 29.97200
H  -0.34800 7.85300 32.40900
H  0.64500 9.11800 32.00400
H  1.16600 1.57800 25.33400
H  -0.51600 1.53100 24.78700
H  -0.17900 2.29000 26.32200
H  -0.94000 1.25200 22.45200
H  0.85000 1.14000 22.88400
H  0.37900 1.00800 21.28400
H  -0.01200 8.42700 20.46700
H  2.64900 9.73000 20.77000
H  2.36600 6.77400 20.11100
H  2.42800 8.27700 19.09600
H  1.16100 6.95500 18.98200
H  0.65800 10.74800 19.51200
H  1.42400 11.82300 20.68200
H  -0.75800 10.69500 22.03800
H  -1.31000 11.46100 20.56800
H  -0.31600 12.34600 21.74900
H  3.60800 13.81700 25.77500
H  2.18700 13.82600 24.61000
H  3.58100 12.87000 24.28900
H  1.11700 10.81600 29.47000
H  3.63000 10.44000 32.95400
H  4.22400 12.07900 32.64500
H  4.95500 10.70700 31.77900
Mg 36.92600 49.55900 24.37100
C  36.96400 47.72200 27.36100
C  35.69800 52.27200 26.37100
C  36.06700 51.10200 21.57500
C  37.53300 46.68500 22.63700
N  36.51400 49.95000 26.59300
C  36.69300 49.07500 27.63900
C  36.47600 49.78400 29.02400
C  36.15200 51.26100 28.65500
C  36.16100 51.17000 27.09900
C  34.88100 51.81400 29.33800
C  37.85400 49.61800 29.87000
C  37.87200 49.16900 31.31800
H  36.54500 48.95100 32.05000
N  36.06200 51.39200 24.06600
C  35.71500 52.42100 24.95000
C  35.19000 53.54500 24.17000
C  35.27400 53.21100 22.79600
C  35.85600 51.89600 22.78900
C  34.82000 54.76300 24.97500
C  34.80700 53.95900 21.54800
O  34.87700 53.48800 20.43500
C  34.15400 55.35500 21.71300
N  36.73100 48.93600 22.37700
C  36.44700 49.76900 21.34000
C  36.80800 49.23000 20.03800
C  37.42700 47.85400 20.39600
C  37.21100 47.77200 21.87700
C  35.56800 49.34900 19.08200
C  38.96600 47.82700 20.14400
C  39.35200 46.49900 19.55900
N  37.28600 47.61200 24.86600
C  37.50800 46.53200 24.02200
C  37.69100 45.37300 24.82200
C  37.54200 45.81500 26.16500
C  37.25300 47.16200 26.12700
C  37.86100 44.02100 24.33800
C  37.46300 45.38000 27.53900
O  37.82000 44.29900 28.01700
C  37.08600 46.57500 28.31000
C  35.79900 46.28800 29.08900
O  34.65500 46.69700 28.80300
O  36.14000 45.60100 30.17000
C  34.95400 45.23700 30.92900
H  35.28700 53.19100 26.79400
H  35.94000 51.58600 20.60400
H  37.71800 45.74900 22.10500
H  35.61500 49.40600 29.57600
H  36.97700 51.94200 28.86300
H  34.10700 52.06700 28.61400
H  35.01300 52.67700 29.99200
H  34.53300 51.06000 30.04400
H  38.42300 50.54800 29.85600
H  38.43000 48.91700 29.26500
H  38.44400 49.90200 31.88800
H  38.31000 48.17200 31.26000
H  34.34200 55.52900 24.36400
H  35.68800 55.14000 25.51500
H  34.07200 54.49800 25.72200
H  33.75200 55.69900 20.76000
H  34.87200 56.13300 21.97300
H  33.33000 55.36100 22.42700
H  37.62800 49.88500 19.74200
H  37.00100 47.01300 19.84900
H  34.68300 49.74300 19.58200
H  35.33900 48.34300 18.73000
H  35.81400 49.91000 18.18100
H  39.59900 47.92900 21.02500
H  39.36500 48.58500 19.47000
H  39.09000 45.69500 20.24600
H  40.42800 46.39400 19.41800
H  38.85500 46.40000 18.59400
H  38.87600 43.91600 23.95400
H  37.02700 43.76900 23.68300
H  37.83100 43.47300 25.27900
H  37.77000 46.93300 29.07900
H  35.17700 44.61600 31.79600
H  34.27200 44.62600 30.33600
H  34.31900 46.03000 31.32400

