158

Mg 5.93800 55.12200 40.76800
C  3.46900 52.66900 41.20200
C  7.88900 52.81600 39.21300
C  8.17600 57.53300 40.07900
C  3.57600 57.42900 41.77000
N  5.56200 53.10800 39.97000
C  4.56700 52.23800 40.39700
C  4.69700 50.93100 39.66800
C  6.24500 50.92400 39.29400
C  6.62600 52.36800 39.56000
C  7.13400 49.99300 40.16400
C  3.92500 50.78400 38.36600
C  3.74100 49.23300 37.89000
H  4.63700 48.76200 36.85200
N  7.66400 55.23100 39.56500
C  8.37000 54.15200 39.16000
C  9.74700 54.49700 38.76600
C  9.87900 55.85400 39.03900
C  8.54200 56.25400 39.62100
C  10.76600 53.42900 38.37500
C  11.17500 56.66300 38.91700
O  12.23600 56.10800 38.70000
C  11.29600 58.13600 39.03000
N  5.90500 57.12000 40.87200
C  6.97800 57.87500 40.67700
C  6.76600 59.29400 41.21600
C  5.17500 59.39100 41.34200
C  4.86500 57.88500 41.32200
C  7.49200 59.52800 42.63100
C  4.34200 60.24000 40.28400
C  4.09100 61.74600 40.61400
N  3.90300 55.10100 41.48000
C  3.06200 56.13200 41.83100
C  1.82600 55.63000 42.29500
C  2.02600 54.24600 42.18300
C  3.27200 53.95000 41.68800
C  0.58000 56.41800 42.74600
C  1.34600 52.93500 42.33100
O  0.22500 52.66600 42.74000
C  2.38800 51.88200 41.91600
C  1.63400 50.91500 41.11900
O  1.07000 51.05800 40.06200
O  1.66300 49.79400 41.92800
C  1.08500 48.63600 41.29500
H  8.54300 52.01700 38.85900
H  9.01900 58.21900 39.97500
H  2.85700 58.19000 42.07900
H  4.40100 50.12400 40.33800
H  6.43100 50.63900 38.25800
H  7.63100 49.24600 39.54600
H  6.55100 49.38600 40.85700
H  7.81700 50.57300 40.78600
H  4.57200 51.20200 37.59600
H  2.94100 51.24700 38.44200
H  2.68700 49.25600 37.61300
H  3.78200 48.71500 38.84800
H  11.63900 53.68700 37.77700
H  10.20600 52.71400 37.77200
H  10.97200 52.75300 39.20500
H  12.17400 58.51600 38.50900
H  11.17900 58.49300 40.05300
H  10.43700 58.61400 38.56100
H  7.11200 60.00600 40.46600
H  4.84200 59.77800 42.30500
H  6.90500 59.08500 43.43600
H  7.75700 60.56500 42.83800
H  8.46000 59.02700 42.65100
H  3.36900 59.75600 40.19400
H  4.95700 60.15000 39.38900
H  3.03700 61.88700 40.37700
H  4.72800 62.50700 40.16400
H  4.12300 61.85900 41.69700
H  0.62400 57.48800 42.54300
H  0.47700 56.32100 43.82700
H  -0.32300 56.12900 42.20700
H  2.69100 51.42100 42.85600
H  0.14100 48.94400 40.84500
H  0.95000 47.90400 42.09100
H  1.81000 48.34600 40.53400
Mg -1.55800 34.42400 27.53400
C  -3.58400 32.81000 30.10000
C  -0.30500 36.47100 30.06200
C  -0.06300 36.22000 25.08400
C  -3.32500 32.53200 25.19500
N  -1.89000 34.51400 29.84200
C  -2.71000 33.74300 30.63600
C  -2.65900 34.07500 32.15700
C  -1.61600 35.36800 32.10900
C  -1.22500 35.52800 30.56400
C  -2.14100 36.63200 32.78100
C  -2.17800 32.81400 33.01900
C  -2.94200 32.51500 34.31300
H  -2.07500 32.12800 35.48400
N  -0.19900 36.06600 27.55300
C  0.22500 36.69100 28.73500
C  1.15000 37.74500 28.41400
C  1.16700 37.79900 26.97400
C  0.27700 36.65200 26.43700
C  1.93800 38.56900 29.44700
C  1.91000 38.82700 26.08600
O  1.79900 38.84300 24.87700
C  2.88800 39.85300 26.67300
N  -1.72800 34.37100 25.45800
C  -0.90600 35.13900 24.64900
C  -1.28800 34.90700 23.15600
C  -1.93700 33.45300 23.21900
C  -2.40700 33.44800 24.68100
C  -2.24800 36.03200 22.67900
C  -0.96800 32.25200 23.02000
C  -0.85000 31.56400 21.63400
N  -3.09600 32.97600 27.60300
C  -3.67100 32.26600 26.48100
C  -4.53800 31.30600 26.98700
C  -4.56300 31.49900 28.37800
C  -3.63000 32.47000 28.70500
C  -5.41200 30.46500 26.06500
C  -5.14000 31.00600 29.68700
O  -5.99000 30.20700 29.90200
C  -4.51300 31.85300 30.80200
C  -5.59000 32.51800 31.60600
O  -6.11600 33.58500 31.28300
O  -5.84000 31.69200 32.71700
C  -6.71400 32.35700 33.79800
H  0.04900 37.12800 30.85900
H  0.48800 36.69700 24.27000
H  -3.52400 31.83300 24.37900
H  -3.64800 34.42000 32.46000
H  -0.69400 35.04400 32.59000
H  -1.53300 36.74200 33.67900
H  -3.20500 36.47100 32.95100
H  -1.99200 37.50500 32.14500
H  -1.13000 33.00700 33.24800
H  -2.24100 31.92600 32.39100
H  -3.48100 31.59700 34.07800
H  -3.53800 33.40900 34.49600
H  2.96500 38.54000 29.08400
H  1.94600 38.09000 30.42600
H  1.45400 39.54400 29.49300
H  2.42400 40.63100 27.28000
H  3.34200 40.33500 25.80700
H  3.75000 39.34800 27.10800
H  -0.41500 35.08300 22.52700
H  -2.87200 33.38000 22.66500
H  -2.02900 36.43600 21.69100
H  -2.18600 36.84300 23.40500
H  -3.21800 35.53700 22.64200
H  -1.02700 31.43200 23.73500
H  -0.03200 32.78200 23.19400
H  0.03900 31.95400 21.13900
H  -1.73500 31.74600 21.02500
H  -0.88100 30.47500 21.67700
H  -5.06700 29.43200 26.04400
H  -5.34900 30.87300 25.05600
H  -6.44100 30.54200 26.41700
H  -4.04400 31.07600 31.40500
H  -5.97800 32.52900 34.58300
H  -7.32000 31.51200 34.12400
H  -7.30300 33.26400 33.65400

