158

Mg 8.27200 3.32800 27.31900
C  9.64100 1.72100 30.24800
C  6.55400 5.50000 29.44200
C  6.49400 4.38900 24.74200
C  9.77800 0.79200 25.43600
N  8.11100 3.49900 29.57900
C  8.78500 2.84700 30.54400
C  8.54000 3.43800 31.94300
C  7.42200 4.50900 31.71000
C  7.30000 4.50200 30.16100
C  6.17200 4.30000 32.61700
C  9.77400 3.97800 32.77700
C  10.00600 3.25100 34.13400
H  10.48300 4.21300 35.24900
N  6.89600 4.88600 27.06900
C  6.35100 5.68100 28.07400
C  5.49200 6.62400 27.42700
C  5.44400 6.31600 26.05400
C  6.25500 5.16400 25.88100
C  4.81900 7.81900 28.19700
C  4.74000 7.06600 24.98400
O  4.59600 6.68000 23.84200
C  3.93600 8.36200 25.29900
N  8.13400 2.59300 25.39700
C  7.29000 3.22000 24.48500
C  7.43800 2.44000 23.13500
C  8.57600 1.42100 23.35600
C  8.82400 1.64100 24.80700
C  6.00600 1.76900 22.79200
C  9.78100 1.61200 22.42600
C  9.85900 0.58300 21.16800
N  9.62800 1.67900 27.67500
C  10.12600 0.72800 26.81400
C  11.00400 -0.18000 27.55500
C  10.82000 0.15800 28.90300
C  9.88100 1.27100 28.92300
C  11.87200 -1.22800 26.98700
C  11.22500 -0.16900 30.31600
O  11.92200 -1.09200 30.79600
C  10.42400 0.99500 31.16900
C  9.61400 0.33200 32.27800
O  8.47100 -0.10500 32.15400
O  10.38400 0.28100 33.36800
C  9.72000 -0.43000 34.51000
H  5.93400 6.13800 30.07500
H  6.02500 4.72800 23.81600
H  10.16800 -0.01000 24.80500
H  8.06800 2.65800 32.54100
H  7.75800 5.51100 31.98000
H  6.38000 4.78000 33.57300
H  6.01600 3.31000 33.04500
H  5.29100 4.60800 32.05300
H  9.70900 5.05200 32.94700
H  10.67000 3.75900 32.19700
H  10.83700 2.54800 34.19500
H  9.09300 2.74300 34.44400
H  5.24700 8.72000 27.75900
H  5.13800 7.99200 29.22500
H  3.75700 7.65400 28.01600
H  3.06700 8.21100 25.93900
H  3.49200 8.74700 24.38000
H  4.61400 9.14800 25.63100
H  7.70800 3.23600 22.44200
H  8.24200 0.38400 23.39700
H  6.10700 0.69700 22.62200
H  5.66700 2.07200 21.80100
H  5.24800 1.93600 23.55700
H  10.69900 1.42800 22.98400
H  9.86700 2.64900 22.10300
H  10.12200 1.12700 20.26000
H  8.94300 0.00100 21.06200
H  10.71100 -0.03400 21.44900
H  12.41000 -1.70700 27.80500
H  12.56700 -1.02700 26.17100
H  11.12600 -1.89300 26.55200
H  11.17000 1.54600 31.74200
H  10.36800 -1.18300 34.95900
H  8.79700 -0.93300 34.22100
H  9.50200 0.33200 35.25900
Mg -10.54100 17.27800 42.69600
C  -7.08600 16.64700 42.53000
C  -9.95800 20.40100 41.39200
C  -13.78600 17.83900 42.65200
C  -11.14000 13.82000 43.09600
N  -8.71600 18.26200 41.90800
C  -7.40800 17.91600 42.19500
C  -6.32300 19.05100 41.91000
C  -7.35500 20.30900 41.72900
C  -8.75800 19.66500 41.63600
C  -7.20700 21.54100 42.66100
C  -5.34200 18.85900 40.70400
C  -5.77500 18.10100 39.43700
H  -5.54400 18.86600 38.11100
N  -11.69900 18.92500 42.04500
C  -11.29700 20.11000 41.56000
C  -12.39700 20.97400 41.39200
C  -13.59100 20.24300 41.69200
C  -13.08200 18.96200 42.13500
C  -12.18900 22.38700 40.96900
C  -15.01300 20.78800 41.56200
O  -15.18600 21.96100 41.22100
C  -16.12100 19.96400 42.04200
N  -12.24900 15.99200 42.61900
C  -13.47100 16.55100 42.92500
C  -14.48000 15.50400 43.43600
C  -13.71900 14.15000 43.12900
C  -12.24300 14.65800 42.93100
C  -14.93000 15.73400 44.92200
C  -14.21800 13.40400 41.89200
C  -15.19600 12.22500 42.25900
N  -9.38000 15.55000 42.91400
C  -9.73000 14.22600 43.03900
C  -8.49600 13.42600 43.36200
C  -7.42800 14.32300 43.11700
C  -8.02200 15.59900 42.82700
C  -8.46400 11.96400 43.76200
C  -5.99100 14.53600 43.14600
O  -5.02200 13.76100 43.34000
C  -5.73300 16.02100 42.65400
C  -4.80300 16.65200 43.75200
O  -3.61100 17.00700 43.53100
O  -5.47500 16.74900 44.88200
C  -4.74300 17.48000 45.96100
H  -9.66100 21.43100 41.18800
H  -14.85400 17.81500 42.88100
H  -11.29800 12.77400 43.36800
H  -5.68400 19.14300 42.78800
H  -7.25100 20.78600 40.75500
H  -8.19000 21.82400 43.03800
H  -6.83400 22.38900 42.08700
H  -6.53400 21.38800 43.50400
H  -4.37400 18.52800 41.08000
H  -5.20600 19.90300 40.42100
H  -6.78000 17.68800 39.52900
H  -5.16700 17.21200 39.27300
H  -13.04900 23.00300 41.23000
H  -12.09400 22.39900 39.88300
H  -11.38300 22.96100 41.42400
H  -15.97200 18.94000 41.69900
H  -16.96000 20.37100 41.47700
H  -16.21700 20.16100 43.10900
H  -15.36700 15.58700 42.80700
H  -13.68600 13.60100 44.07000
H  -15.93200 16.16100 44.88600
H  -14.24200 16.44500 45.37900
H  -15.00600 14.75800 45.40100
H  -13.38500 12.97500 41.33500
H  -14.75600 14.10000 41.24800
H  -14.79200 11.28300 41.88700
H  -16.16000 12.44100 41.79800
H  -15.21900 12.03300 43.33200
H  -7.63900 11.94200 44.47400
H  -8.28100 11.32800 42.89600
H  -9.33400 11.57000 44.28700
H  -5.25800 15.95100 41.67500
H  -3.77600 17.96300 45.81500
H  -4.51100 16.79300 46.77400
H  -5.44000 18.17400 46.43200

