158

Mg 17.53900 -0.99800 27.87100
C  16.50100 0.83600 30.65000
C  19.67800 -2.78000 29.91500
C  19.29600 -2.10600 25.14600
C  15.65900 1.18400 25.76600
N  17.99200 -0.91000 29.95700
C  17.45100 -0.09200 30.96000
C  17.92700 -0.48100 32.33800
C  19.17600 -1.45900 32.07000
C  18.91200 -1.77000 30.56400
C  20.61100 -0.89900 32.36300
C  16.85900 -1.04700 33.28900
C  16.82800 -0.42600 34.67900
H  18.17600 -0.17400 35.28900
N  19.16200 -2.40900 27.57700
C  19.80300 -3.13800 28.56100
C  20.73400 -4.09400 27.91400
C  20.56000 -3.83900 26.50900
C  19.72200 -2.69100 26.36900
C  21.68100 -4.97400 28.78700
C  21.25000 -4.51700 25.45100
O  21.19400 -4.17900 24.25100
C  21.89200 -5.83800 25.75200
N  17.49700 -0.47400 25.83500
C  18.38100 -0.97800 24.94100
C  18.15500 -0.50600 23.50800
C  16.81200 0.30800 23.70700
C  16.63900 0.35000 25.18800
C  19.35200 0.31200 22.80500
C  15.49300 -0.05500 22.94000
C  15.42200 0.55400 21.47800
N  16.19700 0.51600 28.10900
C  15.46200 1.30600 27.20400
C  14.65900 2.23600 27.93700
C  14.96000 2.06900 29.34400
C  15.95300 1.03100 29.34300
C  13.82200 3.37500 27.31000
C  14.70700 2.53800 30.65800
O  14.04200 3.48300 31.02600
C  15.65700 1.68700 31.59100
C  16.44900 2.68800 32.34700
O  17.52400 3.13700 31.97600
O  15.71400 3.02500 33.45400
C  16.29500 3.98400 34.37900
H  20.30900 -3.29900 30.64000
H  19.69300 -2.54100 24.22600
H  15.08300 1.88500 25.15800
H  18.33400 0.41200 32.81400
H  19.00300 -2.36200 32.65500
H  20.95400 -1.50800 33.19900
H  20.57600 0.15600 32.63500
H  21.35000 -0.95800 31.56400
H  17.13700 -2.10000 33.30200
H  15.94400 -0.92100 32.70900
H  16.29400 -1.06400 35.38300
H  16.19400 0.45200 34.55600
H  21.59500 -4.66400 29.82800
H  22.72200 -4.78500 28.52700
H  21.32500 -5.98900 28.61000
H  21.14100 -6.51500 26.16000
H  22.84500 -5.79400 26.27900
H  22.26500 -6.18900 24.79000
H  17.86600 -1.35700 22.89000
H  17.17200 1.31500 23.49600
H  20.19100 0.50700 23.47300
H  18.95900 1.24800 22.40700
H  19.70500 -0.30200 21.97700
H  14.57800 0.22400 23.46300
H  15.63500 -1.10500 22.68300
H  14.81000 1.45600 21.47100
H  15.26200 -0.21000 20.71700
H  16.43100 0.89200 21.24100
H  12.78600 3.17800 27.58300
H  13.79100 3.35800 26.22000
H  14.21100 4.35700 27.58000
H  14.94200 1.07700 32.14200
H  17.00400 3.34000 34.90000
H  15.48500 4.23000 35.06600
H  16.63100 4.85100 33.81000
Mg 55.31500 24.81800 44.49600
C  52.62800 26.69200 43.53000
C  54.04700 22.06900 42.93500
C  58.41700 23.44000 44.53100
C  56.84800 27.91700 45.64900
N  53.60300 24.50300 43.25500
C  52.59800 25.36100 43.03700
C  51.44200 24.73000 42.28700
C  51.75000 23.22200 42.45400
C  53.18700 23.22100 42.97300
C  50.68700 22.43600 43.33500
C  51.41600 25.10900 40.74200
C  49.98500 25.40700 40.21500
H  49.47100 24.54400 39.09100
N  56.14900 22.96700 43.97700
C  55.39200 21.91600 43.39400
C  56.25900 20.78700 43.32300
C  57.56600 21.13700 43.86000
C  57.39100 22.56600 44.22300
C  55.69600 19.44100 42.74000
C  58.74100 20.19100 44.00000
O  58.66100 19.00900 43.56400
C  60.06700 20.66200 44.61300
N  57.39000 25.59100 45.07100
C  58.45500 24.83100 44.80400
C  59.75900 25.54500 45.25400
C  59.24600 27.09000 45.24300
C  57.73200 26.85100 45.38000
C  60.44300 24.94700 46.48900
C  59.63500 27.87200 43.89800
C  60.40100 29.17400 44.09300
N  54.80500 26.87700 44.72500
C  55.44100 27.97200 45.28100
C  54.48100 29.07300 45.38300
C  53.34400 28.59700 44.75300
C  53.63400 27.26500 44.23000
C  54.70900 30.41600 46.08800
C  51.97700 28.91800 44.41700
O  51.35300 29.92200 44.68300
C  51.48100 27.77500 43.61500
C  51.03400 28.33300 42.32600
O  51.79900 28.90700 41.50300
O  49.68100 28.21700 42.13800
C  49.07200 28.89100 41.00700
H  53.54300 21.20000 42.50800
H  59.41800 23.00800 44.48000
H  57.34100 28.78400 46.09300
H  50.53900 24.99900 42.83400
H  51.69600 22.74400 41.47700
H  50.25500 21.62300 42.75100
H  49.93300 23.05400 43.82100
H  51.36200 22.06000 44.10400
H  51.89300 24.31800 40.16400
H  52.08300 25.96300 40.62900
H  49.90500 26.44400 39.88900
H  49.20000 25.25300 40.95600
H  54.66300 19.50800 42.39800
H  55.80000 18.80900 43.62300
H  56.28100 19.05300 41.90600
H  60.51400 21.44100 43.99500
H  60.74400 19.80800 44.59400
H  59.94300 21.00000 45.64200
H  60.57100 25.47200 44.53100
H  59.58100 27.56100 46.16800
H  61.34100 24.47600 46.09000
H  59.86900 24.10200 46.86900
H  60.89500 25.62200 47.21600
H  58.73000 28.18000 43.37400
H  60.18800 27.22900 43.21300
H  59.75100 30.01300 44.33900
H  60.88300 29.53600 43.18600
H  61.17200 29.00500 44.84500
H  53.72300 30.67900 46.47100
H  55.01700 31.07500 45.27600
H  55.59700 30.19400 46.68000
H  50.61800 27.38100 44.15200
H  49.78600 28.95000 40.18600
H  48.75500 29.91300 41.21700
H  48.25200 28.35500 40.53000

