158

Mg 40.54200 8.02200 29.28400
C  42.19600 9.44200 31.94200
C  38.37600 6.67900 31.51400
C  38.79700 6.86500 26.78300
C  43.25000 8.72500 27.26600
N  40.34900 8.06400 31.51400
C  41.03500 8.84200 32.34800
C  40.43900 8.78700 33.75500
C  39.36300 7.61200 33.59600
C  39.36600 7.37600 32.11000
C  39.73900 6.33700 34.42200
C  39.87100 10.20100 34.21400
C  39.85100 10.43100 35.75500
H  40.92700 11.36200 36.35900
N  38.80600 7.01400 29.18000
C  38.03800 6.45500 30.18800
C  37.00700 5.63300 29.61400
C  37.07800 5.81000 28.20600
C  38.24700 6.63400 27.98400
C  36.05000 4.88400 30.60500
C  36.13300 5.33100 27.13900
O  36.29700 5.74200 25.99400
C  34.97600 4.45800 27.44100
N  40.97000 7.89500 27.30100
C  40.02600 7.51000 26.38700
C  40.67000 7.25800 24.92800
C  41.98300 8.09600 25.07200
C  42.07700 8.29300 26.63000
C  40.88300 5.79900 24.39000
C  41.87700 9.46800 24.30000
C  41.07300 10.61300 25.00600
N  42.41600 8.95200 29.44000
C  43.44000 9.10600 28.61800
C  44.54500 9.76900 29.23600
C  44.11900 9.98900 30.53200
C  42.79300 9.37700 30.64000
C  45.84500 9.99700 28.55700
C  44.41200 10.49300 31.87000
O  45.43300 11.01600 32.19100
C  43.22100 10.24300 32.80200
C  43.72200 9.45300 34.00200
O  44.03800 8.26500 34.04100
O  43.71000 10.27200 35.09400
C  43.88700 9.52500 36.30000
H  37.78900 6.18600 32.29200
H  38.42400 6.41600 25.86000
H  44.11100 8.95100 26.63300
H  41.16800 8.54800 34.52900
H  38.41400 8.03600 33.92400
H  38.99700 6.07000 35.17400
H  40.69700 6.51900 34.91100
H  39.89200 5.58600 33.64700
H  38.79900 10.19000 34.01900
H  40.31400 11.02300 33.65000
H  39.74300 9.45300 36.22500
H  38.87300 10.86400 35.96900
H  36.21400 5.16500 31.64500
H  36.33100 3.83100 30.59900
H  34.98900 4.87100 30.35500
H  35.27900 3.76500 28.22500
H  34.67600 4.00900 26.49500
H  34.15200 5.08300 27.78600
H  40.11700 7.86000 24.20700
H  42.79600 7.49700 24.66200
H  41.04100 5.07000 25.18500
H  41.72600 5.75600 23.70100
H  39.97000 5.43700 23.91800
H  41.44600 9.25800 23.32100
H  42.88400 9.84600 24.12300
H  40.21100 10.95600 24.43500
H  41.78100 11.43600 25.10200
H  40.59200 10.35600 25.95000
H  45.81800 10.99800 28.12700
H  46.09800 9.28700 27.77000
H  46.58100 9.87000 29.35100
H  42.79100 11.18600 33.13900
H  43.53800 10.12500 37.14100
H  44.94500 9.27500 36.37500
H  43.15800 8.71500 36.31900
Mg 47.49800 34.47800 27.68400
C  46.03000 32.77900 30.34800
C  47.77100 37.22800 29.60100
C  48.77200 36.00700 24.97400
C  46.50000 31.72500 25.58100
N  47.11700 34.86300 29.76700
C  46.62100 34.02200 30.69600
C  46.62300 34.68400 32.04100
C  46.65100 36.22500 31.69500
C  47.13400 36.15100 30.24500
C  45.39500 37.12300 31.79800
C  47.83300 34.11500 32.80500
C  48.21000 34.51100 34.25200
H  47.10900 35.21300 35.11800
N  48.35000 36.37300 27.35200
C  48.39100 37.34000 28.23600
C  49.03700 38.46900 27.63900
C  49.40000 38.11700 26.26100
C  48.82300 36.77500 26.10600
C  49.18200 39.79200 28.39000
C  50.07700 38.89200 25.25200
O  50.38700 38.42100 24.19500
C  50.62900 40.33000 25.50600
N  47.54300 33.95800 25.50700
C  48.17100 34.76600 24.66000
C  48.24400 34.09800 23.28200
C  47.41200 32.78800 23.42300
C  47.11700 32.80200 24.93200
C  47.84900 35.04000 22.13900
C  48.10200 31.54300 22.96600
C  47.18900 30.51800 22.24800
N  46.45600 32.71500 27.84700
C  46.21600 31.63000 26.93400
C  45.61000 30.49800 27.66400
C  45.52600 30.88500 29.02200
C  46.05300 32.22300 29.05200
C  45.32200 29.14500 27.12000
C  45.15800 30.51700 30.38900
O  44.64700 29.48100 30.81300
C  45.13900 31.84700 31.16200
C  45.23600 31.72000 32.62000
O  46.24400 31.27900 33.17400
O  44.04400 32.13300 33.19300
C  43.96300 32.24800 34.61500
H  47.80000 38.15000 30.18600
H  49.24000 36.48900 24.11300
H  46.14000 30.93200 24.92200
H  45.67900 34.36800 32.48600
H  47.50400 36.63000 32.23900
H  45.13600 37.36300 32.83000
H  44.51700 36.60900 31.40500
H  45.43000 38.09600 31.30900
H  48.73500 34.46100 32.29900
H  47.89400 33.03400 32.68100
H  49.11500 35.10200 34.39500
H  48.38900 33.61700 34.84900
H  50.18900 39.93600 28.78200
H  48.49000 39.83700 29.23100
H  49.01100 40.69000 27.79700
H  51.19700 40.65700 24.63400
H  51.08900 40.35400 26.49400
H  49.75600 40.97700 25.59400
H  49.28500 33.84900 23.07700
H  46.47700 32.89200 22.87200
H  47.09900 35.78700 22.40000
H  47.31100 34.46100 21.38800
H  48.73000 35.58900 21.80900
H  48.52400 30.91200 23.74800
H  48.97800 31.65800 22.32800
H  46.53100 30.92500 21.48000
H  46.53900 30.12400 23.03000
H  47.72700 29.65400 21.85800
H  45.46300 29.15400 26.03900
H  44.27300 28.92100 27.31700
H  46.00000 28.44400 27.60700
H  44.13300 32.22600 30.98000
H  44.51800 31.44800 35.10600
H  42.91700 32.27300 34.92100
H  44.55400 33.11800 34.90000

