158

Mg 26.08200 0.93600 28.92200
C  27.95500 0.02400 31.76800
C  23.27100 0.97500 31.04400
C  24.27900 1.35900 26.28500
C  28.85600 0.23700 26.96800
N  25.73100 0.47100 31.16200
C  26.62000 0.21300 32.12400
C  26.10300 0.53700 33.59900
C  24.56100 0.65500 33.26000
C  24.50600 0.76900 31.74500
C  23.74400 -0.55600 33.65800
C  26.90500 1.67700 34.36900
C  27.72200 1.17500 35.53800
H  27.41400 1.91700 36.84200
N  24.08600 1.18100 28.70300
C  23.09300 1.10400 29.66900
C  21.82200 1.33700 29.05500
C  22.04500 1.48900 27.66600
C  23.52300 1.33800 27.46400
C  20.46200 1.27600 29.83500
C  21.09400 1.51600 26.53200
O  21.40200 1.68400 25.34600
C  19.58000 1.46900 26.80100
N  26.49000 0.52500 26.85900
C  25.53800 0.93600 25.98300
C  26.08400 0.93300 24.54400
C  27.61000 0.55000 24.73900
C  27.69600 0.51500 26.30100
C  25.42600 -0.11600 23.51900
C  28.63000 1.64100 24.17700
C  29.90300 1.07300 23.48400
N  28.07700 0.34900 29.26600
C  29.07900 0.11000 28.38300
C  30.32500 -0.13900 29.06300
C  29.95800 -0.21200 30.40500
C  28.58500 0.09600 30.52200
C  31.66600 -0.47100 28.51000
C  30.39100 -0.45800 31.77200
O  31.51800 -0.76300 32.13800
C  29.13900 -0.35500 32.68900
C  29.05900 -1.63000 33.40900
O  28.54500 -2.64200 32.98600
O  29.60000 -1.41900 34.63800
C  29.34900 -2.37100 35.71400
H  22.41500 0.96900 31.72300
H  23.78900 1.59600 25.33800
H  29.77300 0.17500 26.37900
H  26.28300 -0.39600 34.13400
H  24.09600 1.57200 33.62100
H  23.06800 -0.85000 32.85600
H  23.15500 -0.29400 34.53800
H  24.46300 -1.33600 33.90900
H  26.10400 2.26100 34.82200
H  27.54900 2.23900 33.69200
H  28.76500 1.43600 35.35700
H  27.61900 0.10100 35.69200
H  20.14500 0.23600 29.76100
H  19.82000 2.01200 29.34900
H  20.54300 1.60800 30.87000
H  18.95200 1.55200 25.91400
H  19.17000 2.26400 27.42400
H  19.36300 0.52000 27.29100
H  25.84000 1.89700 24.09800
H  27.96500 -0.42500 24.40600
H  24.91500 -0.81200 24.18500
H  26.11900 -0.74400 22.96000
H  24.74400 0.33100 22.79600
H  28.88400 2.37500 24.94200
H  28.03600 2.15300 23.42000
H  30.71700 1.79100 23.38400
H  29.54600 0.70500 22.52200
H  30.18100 0.20900 24.08700
H  31.38500 -1.37300 27.96600
H  32.44700 -0.55000 29.26600
H  31.91600 0.33300 27.81800
H  29.41400 0.52500 33.27100
H  28.57200 -1.89300 36.31000
H  30.20900 -2.62700 36.33300
H  28.84700 -3.27500 35.37000
Mg 35.89100 47.97600 26.60400
C  36.07600 46.00900 29.49200
C  34.81400 50.54600 28.58200
C  36.11800 49.86000 23.89400
C  36.46300 45.05500 24.72000
N  35.58400 48.27700 28.84700
C  35.75100 47.32200 29.78000
C  35.58300 47.94600 31.15400
C  34.64800 49.20100 30.83400
C  34.95500 49.34000 29.32600
C  33.10700 49.04400 31.07600
C  36.95300 48.53400 31.74800
C  37.14700 48.38900 33.26700
H  36.72600 49.47900 34.21900
N  35.43500 49.91100 26.22400
C  34.98600 50.89900 27.20600
C  34.90700 52.17700 26.60400
C  35.23600 51.98800 25.25700
C  35.62400 50.57700 25.07200
C  34.39200 53.45900 27.40400
C  35.29700 53.05400 24.05800
O  35.38500 52.74200 22.87700
C  35.08700 54.53300 24.27400
N  36.07700 47.42600 24.49100
C  36.25100 48.47900 23.60700
C  36.65200 47.88500 22.16800
C  36.57000 46.31200 22.41000
C  36.39400 46.20100 23.93100
C  35.76900 48.29500 20.96200
C  37.73300 45.45600 21.90200
C  37.55700 44.80200 20.56000
N  36.14300 45.92800 26.94200
C  36.39400 44.85500 26.04900
C  36.58400 43.60500 26.84300
C  36.57400 44.07300 28.16700
C  36.21100 45.43400 28.18100
C  36.73900 42.17300 26.28000
C  36.72300 43.63500 29.53800
O  37.07400 42.56100 29.94700
C  36.45900 44.91700 30.48400
C  35.37600 44.58700 31.40800
O  34.24400 44.19500 31.13800
O  35.84400 44.80000 32.68400
C  34.85300 44.58800 33.75600
H  34.48400 51.39100 29.19000
H  36.24300 50.54000 23.04800
H  36.65400 44.10300 24.21900
H  35.07700 47.27200 31.84600
H  34.94900 50.08900 31.38900
H  33.04400 48.15800 31.70800
H  32.58400 49.05100 30.12000
H  32.71200 49.88100 31.65300
H  37.04100 49.58000 31.45300
H  37.74800 47.94700 31.28900
H  38.21200 48.27800 33.47300
H  36.69300 47.44200 33.55900
H  34.75600 54.40400 27.00100
H  34.69200 53.31700 28.44200
H  33.30300 53.41400 27.41900
H  34.27000 54.67500 24.98300
H  34.68400 55.06300 23.41100
H  35.93000 55.08100 24.69600
H  37.67000 48.17600 21.91100
H  35.69900 45.88700 21.91100
H  34.96500 48.97200 21.25000
H  35.40400 47.49600 20.31600
H  36.35000 48.92900 20.29200
H  37.89700 44.69200 22.66300
H  38.66800 46.01000 21.81600
H  38.43600 44.99200 19.94300
H  36.67000 45.04200 19.97400
H  37.52300 43.72200 20.70400
H  36.35300 41.42500 26.97300
H  37.77300 41.99800 25.98400
H  36.18300 41.99500 25.36000
H  37.38600 45.15300 31.00700
H  35.33800 44.87100 34.69000
H  34.60200 43.54500 33.94600
H  33.95600 45.13100 33.46100

