158

Mg 2.48400 -0.48000 43.89800
C  5.86000 0.58000 43.91300
C  1.45700 2.60000 42.85800
C  -0.61400 -1.73100 43.65700
C  3.67600 -3.72400 44.80800
N  3.62700 1.40200 43.45000
C  4.97400 1.62900 43.54200
C  5.30800 3.06600 43.18500
C  3.84500 3.70000 43.01500
C  2.89800 2.49200 43.10700
C  3.54100 4.92000 43.97200
C  6.19500 3.29100 41.90700
C  5.65200 2.76200 40.56800
H  5.65400 3.72000 39.42000
N  0.66000 0.30000 43.21400
C  0.44100 1.62700 42.87400
C  -0.97100 1.74000 42.40800
C  -1.58900 0.48900 42.65700
C  -0.51900 -0.41200 43.25600
C  -1.52700 3.03500 41.86100
C  -3.04700 0.22400 42.46400
O  -3.77300 1.10600 42.07000
C  -3.61600 -1.08900 42.87700
N  1.68000 -2.64000 43.66200
C  0.32100 -2.75800 43.83000
C  0.05000 -4.05200 44.63200
C  1.38700 -4.64400 44.98800
C  2.34500 -3.66800 44.31100
C  -0.98200 -4.09400 45.71800
C  1.72100 -6.17300 44.66800
C  1.75400 -7.13400 45.85500
N  4.30500 -1.42000 44.31000
C  4.66800 -2.69600 44.70600
C  6.10100 -2.81100 44.94400
C  6.62600 -1.55200 44.59800
C  5.46800 -0.75900 44.26400
C  6.85500 -4.10500 45.42900
C  7.77700 -0.83100 44.51100
O  8.96100 -1.12400 44.73700
C  7.40700 0.57000 43.96900
C  8.05100 1.65700 44.74900
O  8.90700 2.44900 44.35100
O  7.46200 1.75700 45.92700
C  7.63300 3.07900 46.59700
H  1.10700 3.63400 42.83600
H  -1.61400 -2.03100 43.97800
H  4.00600 -4.62200 45.33500
H  5.74100 3.47300 44.09900
H  3.62900 4.03600 42.00100
H  3.38900 5.88300 43.48400
H  4.31100 5.02100 44.73700
H  2.62200 4.69500 44.51400
H  7.16000 2.80500 42.05200
H  6.20500 4.37300 41.77500
H  4.62500 2.41900 40.68900
H  6.26400 1.88900 40.34700
H  -0.69900 3.56700 41.39200
H  -1.95600 3.64100 42.65900
H  -2.34400 2.90200 41.15200
H  -3.53600 -1.18600 43.95900
H  -3.02300 -1.83900 42.35300
H  -4.65800 -1.01400 42.56700
H  -0.35000 -4.81000 43.95900
H  1.44900 -4.53200 46.07000
H  -1.10200 -3.01700 45.83900
H  -0.63100 -4.53000 46.65300
H  -1.86900 -4.62100 45.36700
H  2.61100 -6.15700 44.04000
H  0.91300 -6.60800 44.08000
H  1.08400 -7.98600 45.73900
H  1.54500 -6.56700 46.76200
H  2.75300 -7.57100 45.84600
H  7.24800 -4.67200 44.58500
H  6.36000 -4.80300 46.10400
H  7.69700 -3.67400 45.97100
H  7.88200 0.57000 42.98700
H  7.43900 3.99200 46.03400
H  8.68800 3.22000 46.83000
H  7.18200 3.14400 47.58700
Mg 41.62100 41.31100 27.41900
C  40.95300 43.77400 29.75800
C  41.98700 39.00500 29.89500
C  42.52800 39.11400 25.02200
C  41.69500 43.93100 24.99800
N  41.40100 41.34700 29.57800
C  40.99000 42.47400 30.34500
C  40.83400 42.14700 31.77900
C  41.22900 40.64700 31.86500
C  41.51100 40.25900 30.37400
C  42.34300 40.23800 32.83300
C  39.47900 42.58900 32.51000
C  38.90900 41.81700 33.73500
H  38.18900 42.65700 34.80500
N  42.14300 39.34400 27.47100
C  42.18000 38.50400 28.57000
C  42.45300 37.12000 28.16100
C  42.63600 37.18400 26.75600
C  42.41800 38.56100 26.37300
C  42.57300 35.88300 29.06100
C  42.99400 36.03500 25.71900
O  43.26900 36.17500 24.51400
C  43.14600 34.62800 26.28200
N  42.13900 41.49900 25.42100
C  42.43800 40.44400 24.59000
C  42.60200 40.84000 23.13800
C  42.10800 42.31700 23.15600
C  41.99100 42.67100 24.63300
C  44.08600 40.65600 22.57300
C  40.83400 42.77900 22.38600
C  39.50200 42.12600 22.92000
N  41.33600 43.41900 27.35800
C  41.38000 44.33600 26.37600
C  41.10800 45.65700 26.79500
C  40.87500 45.53300 28.19000
C  41.09800 44.12600 28.45900
C  41.02800 46.91800 26.01900
C  40.53100 46.15900 29.35600
O  40.27400 47.34500 29.56100
C  40.57100 45.02400 30.46100
C  41.54700 45.42700 31.59300
O  42.72500 45.12700 31.57900
O  40.77000 45.98500 32.59600
C  41.45600 46.13300 33.86300
H  42.13900 38.23000 30.64900
H  42.84200 38.36500 24.29100
H  41.54000 44.68100 24.22000
H  41.67700 42.74900 32.11900
H  40.30200 40.17900 32.19400
H  42.15400 39.26900 33.29600
H  42.16500 41.03800 33.55100
H  43.36700 40.38300 32.48800
H  38.62300 42.61700 31.83600
H  39.73000 43.62100 32.75500
H  39.73600 41.39500 34.30600
H  38.27300 40.96900 33.48200
H  42.59000 36.35600 30.04300
H  43.50600 35.36200 28.84500
H  41.80400 35.12100 28.93700
H  42.20000 34.35900 26.75100
H  43.90100 34.66000 27.06800
H  43.48000 34.01800 25.44200
H  41.84400 40.19800 22.68900
H  42.91800 42.95600 22.80600
H  44.67600 40.11400 23.31200
H  44.53500 41.57600 22.19900
H  43.97600 39.93300 21.76400
H  40.98900 42.42800 21.36600
H  40.80500 43.86700 22.43400
H  39.64000 41.60600 23.86800
H  39.10100 41.44400 22.17000
H  38.73600 42.87100 23.13900
H  40.18900 46.88800 25.32300
H  41.93400 47.07600 25.43500
H  40.97600 47.70700 26.76900
H  39.54300 44.86600 30.78700
H  42.53000 46.31100 33.81600
H  41.26800 45.33000 34.57600
H  41.09900 47.07000 34.29200

