158

Mg 47.79400 15.28000 29.13800
C  45.96800 15.06300 32.01500
C  49.81100 17.71500 30.80700
C  49.45600 15.95900 26.21400
C  45.32500 13.42100 27.41900
N  47.74200 16.39000 31.07200
C  47.08600 15.81000 32.22900
C  47.70700 16.36200 33.53800
C  48.48200 17.53100 33.04800
C  48.72400 17.17200 31.51700
C  47.78700 19.01400 33.19400
C  48.42100 15.31900 34.38200
C  48.17900 15.36100 35.89900
H  47.86600 16.58400 36.67400
N  49.44700 16.53800 28.61200
C  50.15500 17.40800 29.46200
C  51.25200 18.02200 28.69700
C  51.13000 17.59100 27.33000
C  49.98400 16.63000 27.32300
C  52.14000 19.01300 29.31000
C  51.97900 17.96100 26.10800
O  51.84500 17.48000 25.03100
C  53.02300 19.00800 26.29700
N  47.43100 14.76700 27.08200
C  48.30700 15.14300 26.09700
C  47.82000 14.57700 24.77700
C  46.57500 13.73200 25.16300
C  46.40500 13.92400 26.64400
C  47.48500 15.71300 23.76000
C  46.68400 12.19400 24.86600
C  46.16600 11.86800 23.41700
N  45.94900 14.46300 29.51100
C  45.07300 13.72800 28.75300
C  43.93100 13.29200 29.57000
C  44.25600 13.81000 30.83800
C  45.47800 14.45300 30.76700
C  42.78600 12.41600 29.24400
C  43.79800 13.80000 32.23500
O  42.79200 13.26900 32.75100
C  44.88300 14.55500 32.97500
C  44.31700 15.67000 33.80400
O  44.04700 16.77300 33.44700
O  44.22600 15.28300 35.11100
C  43.86700 16.33900 36.05700
H  50.51400 18.35500 31.34400
H  50.04800 16.13400 25.31300
H  44.63700 12.71900 26.94300
H  46.87300 16.70300 34.15100
H  49.42400 17.61400 33.59100
H  48.24300 19.35800 34.12200
H  46.71800 18.96100 33.40000
H  48.00800 19.73300 32.40600
H  49.48900 15.52400 34.29900
H  48.35300 14.32000 33.95200
H  49.05000 14.90300 36.36700
H  47.28700 14.73300 35.90100
H  53.19400 18.76500 29.18400
H  51.92600 19.17900 30.36500
H  51.91900 20.00400 28.91200
H  52.62200 19.93400 26.71000
H  53.36100 19.16400 25.27300
H  53.83900 18.66200 26.93200
H  48.52900 13.91900 24.27500
H  45.74900 14.25000 24.67600
H  47.55600 16.66500 24.28600
H  46.47600 15.59100 23.36600
H  48.13500 15.74400 22.88600
H  46.18500 11.71500 25.70900
H  47.74300 11.96100 24.97800
H  45.37400 11.12000 23.46800
H  46.95500 11.39600 22.83100
H  45.81600 12.77700 22.92800
H  41.87000 12.71600 29.75400
H  43.06500 11.38100 29.44000
H  42.57900 12.43900 28.17400
H  45.26700 13.82400 33.68600
H  42.78400 16.46000 36.04100
H  44.22000 17.35300 35.86800
H  44.12400 16.12500 37.09400
Mg 48.01000 24.59000 27.88200
C  48.79000 26.72200 30.46800
C  47.43400 22.06800 30.11900
C  47.24300 22.57100 25.38300
C  49.41100 26.90400 25.59600
N  47.97700 24.44000 30.04600
C  48.39000 25.43400 30.92200
C  48.21600 25.02500 32.41500
C  47.76700 23.51900 32.21200
C  47.81900 23.28500 30.70200
C  48.64500 22.49700 33.04500
C  47.27900 26.02800 33.14300
C  46.91300 25.61100 34.61100
H  46.99500 26.68300 35.72500
N  47.41700 22.57500 27.82400
C  47.15100 21.71100 28.81400
C  46.74200 20.40500 28.39200
C  46.59700 20.51800 26.96200
C  47.06300 21.94800 26.65400
C  46.41100 19.20300 29.32500
C  46.24800 19.46200 25.94900
O  46.13200 19.67700 24.70200
C  45.96700 18.05600 26.43600
N  48.13200 24.75400 25.78400
C  47.75300 23.71800 24.96900
C  47.91200 24.15200 23.52900
C  48.67500 25.45900 23.56100
C  48.78300 25.72400 25.02900
C  48.69900 23.12000 22.72100
C  47.91600 26.71000 22.89900
C  48.69100 27.46700 21.86200
N  48.87900 26.52000 27.94900
C  49.44400 27.23700 26.99200
C  49.80100 28.49300 27.56100
C  49.71800 28.31200 28.97500
C  48.97000 27.12900 29.10600
C  50.49600 29.61000 26.87100
C  50.04700 28.93900 30.25300
O  50.65400 29.99000 30.49800
C  49.32600 27.92500 31.23600
C  50.27900 27.51400 32.34600
O  51.15500 26.64100 32.26100
O  49.93500 28.09100 33.57800
C  50.80900 27.64100 34.63600
H  47.10300 21.33600 30.85900
H  46.84600 21.93500 24.58900
H  49.84200 27.60500 24.87800
H  49.18300 25.00600 32.91800
H  46.71200 23.50900 32.48500
H  47.98500 22.08800 33.81000
H  49.50400 23.01100 33.47500
H  49.01800 21.67800 32.43100
H  46.41100 26.07800 32.48600
H  47.75600 26.99100 33.32800
H  47.45800 24.73700 34.96900
H  45.90200 25.20300 34.62400
H  46.30900 19.50500 30.36800
H  47.20500 18.45600 29.34300
H  45.52100 18.67100 28.98900
H  46.73000 17.65100 27.10000
H  45.71100 17.40500 25.60000
H  45.04400 18.09400 27.01500
H  46.86100 24.20300 23.24600
H  49.68000 25.30100 23.16900
H  49.54900 22.66900 23.23300
H  48.95400 23.31900 21.68000
H  47.94900 22.33000 22.74900
H  47.58600 27.46800 23.61000
H  47.03400 26.34300 22.37300
H  48.74900 28.52800 22.10800
H  48.26800 27.27800 20.87500
H  49.71300 27.09000 21.88700
H  49.73900 30.33000 26.55900
H  51.09900 29.26300 26.03200
H  51.24500 30.08500 27.50600
H  48.43200 28.38900 31.65300
H  50.49900 26.69900 35.08900
H  50.76700 28.40500 35.41200
H  51.85700 27.65400 34.33500

