158

Mg 3.13400 -3.50800 44.83500
C  6.08700 -1.75600 44.43100
C  1.59900 -1.20900 42.71000
C  0.51600 -5.50900 44.69800
C  5.00000 -6.10100 46.37200
N  3.78800 -1.71900 43.63000
C  5.06100 -1.19300 43.59800
C  5.14400 0.00700 42.76600
C  3.57700 0.43500 42.67600
C  2.92200 -0.91000 43.02800
C  3.10600 1.62700 43.61400
C  5.73300 -0.49300 41.39400
C  6.63700 0.52700 40.61200
H  5.96300 1.40600 39.53200
N  1.26300 -3.33400 43.91400
C  0.80500 -2.30200 43.09100
C  -0.56500 -2.54800 42.70800
C  -0.96700 -3.80100 43.24800
C  0.25900 -4.28800 44.01200
C  -1.42900 -1.52300 41.90200
C  -2.36300 -4.43900 43.14800
O  -3.22800 -3.88100 42.50800
C  -2.75000 -5.75200 43.79100
N  2.76900 -5.51400 45.48000
C  1.57500 -6.09100 45.37100
C  1.51300 -7.55300 45.96400
C  3.00900 -7.67900 46.49500
C  3.64300 -6.33900 46.18600
C  0.40100 -7.63500 47.08000
C  3.76100 -8.84100 45.84100
C  4.36400 -9.97000 46.79100
N  5.07800 -3.86000 45.43600
C  5.74800 -4.97000 45.99400
C  7.07300 -4.56900 46.27900
C  7.22200 -3.32300 45.74500
C  6.04000 -2.97200 45.09400
C  8.22700 -5.36400 46.93200
C  8.15900 -2.29400 45.48800
O  9.32700 -2.11700 45.76800
C  7.44800 -1.16100 44.63800
C  7.33900 0.04000 45.48500
O  6.35600 0.24600 46.24200
O  8.30200 0.96500 45.17500
C  8.06900 2.25000 45.65600
H  1.15700 -0.43200 42.08300
H  -0.39300 -6.11400 44.69800
H  5.48700 -6.94500 46.86600
H  5.57100 0.91800 43.18600
H  3.23100 0.60100 41.65500
H  2.98600 1.32700 44.65500
H  2.21600 2.09900 43.19800
H  3.89000 2.38300 43.66500
H  4.88100 -0.65500 40.73300
H  6.35400 -1.36400 41.60300
H  7.45800 -0.07100 40.21500
H  7.08500 1.08100 41.43700
H  -2.37400 -1.40100 42.43200
H  -1.75000 -1.90600 40.93300
H  -1.01100 -0.52400 41.77500
H  -2.01900 -6.42700 43.34600
H  -3.73400 -6.06500 43.44000
H  -2.64100 -5.60600 44.86500
H  1.29900 -8.15400 45.08000
H  3.20600 -7.72800 47.56600
H  0.93800 -7.73000 48.02300
H  -0.21800 -8.52600 46.98100
H  -0.24000 -6.75400 47.04200
H  4.68600 -8.45200 45.41500
H  3.21400 -9.30400 45.02000
H  4.12900 -9.86900 47.85100
H  5.45100 -10.03600 46.74600
H  3.93200 -10.95000 46.59000
H  8.43900 -4.89700 47.89400
H  9.11900 -5.40900 46.30700
H  7.91100 -6.40300 47.02400
H  8.01600 -0.94100 43.73400
H  7.32200 2.44100 46.42700
H  7.91300 2.99200 44.87400
H  9.03500 2.49700 46.09500
Mg -4.40900 25.29700 26.06800
C  -2.83500 26.51900 28.96900
C  -6.21600 23.23900 27.82000
C  -5.43700 23.75200 23.16000
C  -2.09200 27.14500 24.10700
N  -4.43700 24.91400 28.17500
C  -3.81000 25.59100 29.18500
C  -4.43700 25.16900 30.50500
C  -5.32900 23.96700 30.12100
C  -5.30100 24.07600 28.59400
C  -4.82400 22.62500 30.72000
C  -5.30900 26.36000 31.11600
C  -5.32500 26.51000 32.64300
H  -4.74000 25.32400 33.46100
N  -5.89700 23.93600 25.59200
C  -6.55100 23.15200 26.47400
C  -7.48900 22.21700 25.80400
C  -7.25200 22.48200 24.37900
C  -6.14000 23.41100 24.29400
C  -8.58100 21.38400 26.44200
C  -7.91200 21.88500 23.14000
O  -7.54800 22.17400 21.99400
C  -9.09600 20.92900 23.28700
N  -3.81100 25.38800 23.94900
C  -4.39100 24.67000 22.97300
C  -3.70200 24.90400 21.58600
C  -2.78800 26.12200 21.93000
C  -2.93200 26.28200 23.42400
C  -2.98800 23.70700 20.93500
C  -3.07000 27.50300 21.14200
C  -1.77300 27.91400 20.31900
N  -2.76300 26.62300 26.46100
C  -2.00300 27.31000 25.57600
C  -0.98200 28.07600 26.28800
C  -1.26800 27.84900 27.65500
C  -2.40400 26.92800 27.67400
C  0.08300 28.91000 25.65600
C  -0.91300 28.19400 28.99900
O  -0.08700 28.99200 29.42400
C  -1.95700 27.40100 29.92600
C  -1.12500 26.62600 30.85100
O  -0.80600 25.48200 30.66100
O  -0.84900 27.27600 32.02400
C  -0.16700 26.53200 33.13200
H  -6.76100 22.53900 28.45700
H  -5.45200 23.14000 22.25600
H  -1.33600 27.64800 23.50100
H  -3.63700 24.87300 31.18300
H  -6.37500 24.16300 30.35700
H  -3.78400 22.55100 31.03500
H  -4.90200 21.84900 29.95800
H  -5.43200 22.40900 31.59900
H  -6.32100 26.44000 30.72100
H  -4.82800 27.28500 30.79800
H  -6.38700 26.58400 32.87700
H  -4.70100 27.35200 32.94500
H  -8.59800 21.62800 27.50500
H  -8.25900 20.36900 26.21200
H  -9.60400 21.60900 26.14000
H  -8.91300 20.20100 24.07800
H  -9.18600 20.51200 22.28300
H  -9.99400 21.51500 23.48200
H  -4.56500 25.31100 21.05900
H  -1.79500 25.69800 21.78000
H  -3.05700 22.87100 21.63100
H  -1.98600 24.04300 20.67000
H  -3.47500 23.57200 19.96900
H  -3.44000 28.27700 21.81400
H  -3.78700 27.32200 20.34000
H  -2.24400 27.95100 19.33600
H  -1.08400 27.07000 20.28500
H  -1.28300 28.77800 20.76800
H  -0.23600 29.51900 24.81000
H  1.00000 28.32800 25.56500
H  0.29400 29.62200 26.45300
H  -2.66200 28.04800 30.44700
H  0.90900 26.69400 33.19700
H  -0.30400 25.45100 33.09800
H  -0.62800 26.86300 34.06200

