158

Mg 47.74200 16.68800 28.52200
C  45.93000 16.93500 31.50000
C  50.26800 18.46000 30.07700
C  49.29400 16.96900 25.49400
C  44.84700 15.78800 26.76800
N  47.92600 17.68600 30.60200
C  47.20000 17.50100 31.71800
C  47.83500 18.07200 32.94900
C  49.20300 18.54200 32.38700
C  49.09400 18.33700 30.92800
C  49.69700 19.99200 32.68200
C  47.98600 16.99900 34.03000
C  48.71300 17.62600 35.23400
H  48.12900 18.97400 35.90700
N  49.59100 17.49300 27.90200
C  50.45900 18.27300 28.69700
C  51.59700 18.60000 27.82900
C  51.34500 18.03300 26.52800
C  50.00800 17.44000 26.57600
C  52.78100 19.36400 28.29200
C  52.27900 17.89500 25.33000
O  51.93400 17.44600 24.25600
C  53.72700 18.40700 25.40800
N  47.21800 16.26300 26.46700
C  48.01200 16.37500 25.43800
C  47.32900 15.97900 24.09400
C  45.91300 15.61500 24.49400
C  46.04200 15.79500 25.99200
C  47.33000 17.09700 23.05000
C  45.24200 14.28000 24.06900
C  45.69400 13.53600 22.81300
N  45.84200 16.40500 28.95900
C  44.76600 15.95700 28.18900
C  43.58400 15.78100 28.97000
C  43.99600 16.10500 30.30000
C  45.39400 16.49400 30.21300
C  42.19900 15.24400 28.56900
C  43.63600 16.14300 31.68600
O  42.55700 15.90800 32.17300
C  44.87700 16.65300 32.52300
C  44.50700 17.84400 33.36200
O  44.70600 19.00600 33.07000
O  43.80100 17.41900 34.46500
C  43.26600 18.39000 35.33400
H  51.10400 19.02400 30.49500
H  49.73200 17.00600 24.49400
H  43.95800 15.61300 26.15700
H  47.28600 18.94600 33.30000
H  49.99700 17.86600 32.70600
H  48.88500 20.58500 33.10300
H  50.16000 20.49900 31.83500
H  50.45500 19.88400 33.45800
H  48.62600 16.17300 33.72200
H  47.00200 16.75200 34.43000
H  49.76600 17.86300 35.08500
H  48.56800 16.95900 36.08300
H  53.73200 18.83200 28.33400
H  52.58900 19.86900 29.23900
H  52.87600 20.22100 27.62400
H  53.75300 19.47400 25.63000
H  54.11800 18.14100 24.42600
H  54.25700 17.75500 26.10200
H  47.87200 15.18800 23.57700
H  45.25200 16.42700 24.19100
H  48.38900 17.18900 22.80800
H  46.93500 18.05700 23.38300
H  46.85200 16.67000 22.16800
H  44.15900 14.24200 23.95100
H  45.51800 13.64400 24.91000
H  46.25900 14.22700 22.18900
H  44.88100 13.36700 22.10700
H  46.14700 12.59200 23.11400
H  41.80900 15.81500 27.72500
H  41.45500 15.33700 29.35900
H  42.37900 14.18000 28.41800
H  45.09500 15.82800 33.20200
H  43.10500 19.41500 34.99900
H  43.79300 18.30300 36.28400
H  42.29400 17.94600 35.55200
Mg 36.57200 49.18400 25.10600
C  36.65200 47.25800 28.08900
C  35.17600 51.87700 27.01900
C  35.84300 50.87000 22.35400
C  37.67500 46.46700 23.32300
N  36.01000 49.48600 27.30300
C  36.22200 48.54200 28.32800
C  35.96700 49.19600 29.67300
C  35.31100 50.57400 29.33000
C  35.48100 50.67100 27.78900
C  33.80700 50.79400 29.83000
C  37.34300 49.44800 30.44000
C  37.32800 49.10800 31.91100
H  36.00500 49.32700 32.68200
N  35.67100 51.11000 24.68600
C  35.19300 52.01200 25.62200
C  34.73500 53.13900 24.91200
C  34.99500 52.92800 23.56700
C  35.47600 51.54500 23.51800
C  34.17400 54.38000 25.53000
C  34.88200 53.85900 22.32900
O  35.02000 53.44100 21.18300
C  34.55700 55.22800 22.50200
N  36.71500 48.76900 23.05100
C  36.37200 49.63300 22.09600
C  36.92800 49.11200 20.73000
C  37.59000 47.79700 21.06300
C  37.37000 47.68100 22.54300
C  35.79400 49.11500 19.61500
C  39.05400 47.59800 20.60000
C  40.13300 48.45900 21.31600
N  36.93700 47.29800 25.57400
C  37.47000 46.31100 24.70500
C  37.92700 45.14100 25.55500
C  37.37800 45.39600 26.81100
C  36.90200 46.77900 26.79100
C  38.44400 43.83200 25.07500
C  37.27700 44.86500 28.14200
O  37.53600 43.72900 28.51200
C  36.84800 46.06500 29.00600
C  35.52900 45.78600 29.76500
O  34.44800 45.83400 29.23200
O  35.82200 45.36300 31.06600
C  34.64900 45.12100 31.88500
H  34.73200 52.70400 27.57600
H  35.69400 51.26500 21.34700
H  38.21200 45.71300 22.74500
H  35.26400 48.64500 30.29700
H  35.86600 51.36500 29.83400
H  33.26000 49.89400 30.11000
H  33.29900 51.09500 28.91400
H  33.63800 51.64000 30.49600
H  37.71800 50.47100 30.46800
H  38.05500 48.72400 30.04400
H  37.93200 49.73300 32.57000
H  37.57500 48.06000 32.07600
H  33.69100 54.19000 26.48800
H  33.34500 54.63300 24.87000
H  34.86600 55.22100 25.58600
H  33.50600 55.25900 22.79200
H  34.57100 55.68200 21.51200
H  35.26300 55.75300 23.14600
H  37.76900 49.78500 20.56700
H  36.98900 47.04200 20.55600
H  35.80800 50.01200 18.99600
H  34.85100 49.16000 20.15900
H  35.86200 48.24000 18.96800
H  39.06600 48.00100 19.58800
H  39.43300 46.57800 20.65000
H  40.85400 48.94000 20.65400
H  40.78800 47.83400 21.92300
H  39.67500 49.23700 21.92700
H  39.48600 43.98100 24.79400
H  37.88200 43.58900 24.17300
H  38.39200 43.11100 25.89100
H  37.56300 46.30200 29.79400
H  33.93000 45.93900 31.84500
H  34.95500 45.07700 32.93000
H  34.13100 44.21800 31.56200

