158

Mg 9.35500 48.13200 25.88000
C  7.26000 48.73300 28.60100
C  12.02200 49.11200 27.85600
C  11.31800 47.58700 23.30300
C  6.53400 47.82900 23.90000
N  9.58900 48.98700 27.98500
C  8.61000 48.95600 28.91700
C  9.16700 49.29100 30.34600
C  10.63700 49.66900 29.95100
C  10.76400 49.16800 28.50800
C  11.16400 51.10000 30.14300
C  9.15900 48.17000 31.53600
C  9.78900 48.53800 32.89400
H  9.14800 48.00700 34.22300
N  11.45100 48.35200 25.58900
C  12.37000 48.74700 26.54400
C  13.72000 48.59100 25.97700
C  13.46800 48.06600 24.60800
C  12.05000 48.07300 24.43300
C  15.00400 48.77200 26.77000
C  14.45700 47.58500 23.58600
O  14.16800 47.19600 22.44000
C  15.92200 47.46300 24.01000
N  8.96400 47.75100 23.80600
C  10.00300 47.52500 22.95600
C  9.41500 46.96900 21.60500
C  7.86300 47.05100 21.81700
C  7.73900 47.47800 23.24200
C  9.98200 47.75200 20.40300
C  7.02300 45.74400 21.52200
C  5.80700 45.97500 20.55500
N  7.35100 48.19400 26.15900
C  6.31800 48.04000 25.25900
C  5.01700 48.12300 25.89700
C  5.38700 48.42100 27.26000
C  6.77500 48.42900 27.33900
C  3.57800 47.98900 25.31700
C  4.82100 48.72700 28.55700
O  3.64800 48.82200 28.82700
C  6.04000 48.90100 29.49000
C  5.81400 47.79700 30.47200
O  5.62400 46.63000 30.23100
O  5.68000 48.30700 31.74500
C  5.19300 47.43200 32.76500
H  12.78900 49.27400 28.61600
H  12.01000 47.46400 22.46700
H  5.67600 47.69800 23.23700
H  8.70600 50.21300 30.70200
H  11.31900 49.06200 30.54600
H  10.42300 51.58900 30.77500
H  11.32500 51.67200 29.22900
H  12.09000 51.13700 30.71700
H  9.68600 47.32100 31.10100
H  8.12000 47.91600 31.74800
H  9.81100 49.62300 32.99500
H  10.82800 48.21800 32.97200
H  15.61900 49.53300 26.29000
H  15.52900 47.81900 26.70900
H  14.95200 49.14800 27.79200
H  16.55600 47.19100 23.16500
H  15.93300 46.75300 24.83600
H  16.14100 48.51200 24.21200
H  9.63400 45.90200 21.55600
H  7.53300 47.85400 21.15700
H  10.55500 48.64900 20.63600
H  9.16500 47.98500 19.72000
H  10.77700 47.12100 20.00600
H  6.79600 45.14600 22.40500
H  7.71700 45.17000 20.90800
H  5.59000 46.96100 20.14400
H  4.93900 45.54900 21.05800
H  6.05100 45.40800 19.65700
H  3.52300 47.50500 24.34200
H  3.04800 48.93600 25.21600
H  3.09600 47.30800 26.01800
H  5.98200 49.89900 29.92400
H  4.12500 47.30600 32.58900
H  5.39600 47.94300 33.70700
H  5.71500 46.47800 32.69800
Mg -6.12500 24.70900 26.94100
C  -4.94500 26.68300 29.74000
C  -8.01000 22.97800 29.01000
C  -6.96700 22.99100 24.20000
C  -3.95400 26.85700 24.90200
N  -6.24300 24.74800 29.15900
C  -5.78200 25.60500 30.06700
C  -6.39200 25.33100 31.46700
C  -7.27200 24.08800 31.18000
C  -7.22200 23.91100 29.72300
C  -6.76700 22.83300 31.97100
C  -7.15000 26.51600 32.19200
C  -7.12600 26.73000 33.76200
H  -6.66600 25.51100 34.54500
N  -7.37600 23.19200 26.62400
C  -8.03800 22.58200 27.64600
C  -8.96500 21.64500 27.01700
C  -8.67000 21.57400 25.57500
C  -7.65800 22.60900 25.40900
C  -9.96600 20.98000 27.83600
C  -9.29700 20.73700 24.51200
O  -9.12100 20.95200 23.31900
C  -10.18200 19.53200 24.80600
N  -5.48400 24.91300 24.85300
C  -5.93200 23.95300 24.01100
C  -5.30300 24.15600 22.60500
C  -4.39800 25.39300 22.76300
C  -4.54700 25.70000 24.26000
C  -4.50900 22.87700 22.08000
C  -4.74400 26.58900 21.82400
C  -6.16200 27.18300 21.97900
N  -4.79000 26.46300 27.14600
C  -4.03200 27.19000 26.28000
C  -3.44300 28.37500 26.94800
C  -3.68300 28.13700 28.28800
C  -4.48800 26.97900 28.38200
C  -2.66200 29.42200 26.22900
C  -3.52700 28.68500 29.59100
O  -2.90500 29.64500 29.94900
C  -4.24400 27.75500 30.51600
C  -3.44300 27.27500 31.63200
O  -2.52900 26.50900 31.54800
O  -3.82200 27.92500 32.80800
C  -3.03300 27.59100 34.01800
H  -8.72800 22.40400 29.59900
H  -7.10000 22.30500 23.36100
H  -3.31300 27.48200 24.27600
H  -5.52400 25.12100 32.09100
H  -8.27100 24.39100 31.49200
H  -7.05000 21.90400 31.47500
H  -7.39800 22.78600 32.85900
H  -5.77300 22.87400 32.41600
H  -8.18200 26.53900 31.84300
H  -6.69300 27.45100 31.86700
H  -8.08900 27.12800 34.08200
H  -6.46900 27.57200 33.97800
H  -10.47100 20.17100 27.30900
H  -10.79700 21.60700 28.15900
H  -9.57300 20.37000 28.65000
H  -9.85000 18.91200 25.63900
H  -10.29600 18.91500 23.91500
H  -11.12100 19.91400 25.20700
H  -6.05400 24.30000 21.82800
H  -3.35500 25.11900 22.60500
H  -3.53800 23.12600 21.65200
H  -5.21300 22.28900 21.49200
H  -4.32300 22.17100 22.88900
H  -4.72000 26.28200 20.77800
H  -3.99000 27.33400 22.07800
H  -6.69200 26.71800 22.81100
H  -6.62100 26.99300 21.00900
H  -5.98600 28.25400 22.07300
H  -3.34100 29.96000 25.56800
H  -1.76800 29.00500 25.76600
H  -2.27800 30.04800 27.03500
H  -5.07500 28.32300 30.93500
H  -3.04500 26.51400 34.18500
H  -3.58000 28.05500 34.83900
H  -2.00500 27.94400 33.94300

