158

Mg -0.06900 7.71800 26.23000
C  0.86700 9.62900 29.16500
C  -0.22500 4.98400 28.10700
C  -0.36300 6.04300 23.34300
C  0.28300 10.76700 24.36900
N  0.24400 7.38000 28.38000
C  0.45600 8.30700 29.40100
C  0.24700 7.55600 30.80400
C  0.31200 6.03300 30.35100
C  0.05700 6.11700 28.86400
C  1.70000 5.37000 30.71600
C  -1.08700 7.99200 31.43200
C  -1.06000 8.30800 32.88300
H  0.13900 7.99500 33.78900
N  -0.22900 5.75000 25.73900
C  -0.29900 4.76200 26.69100
C  -0.53700 3.49700 25.97800
C  -0.57000 3.78300 24.57900
C  -0.33100 5.27300 24.49200
C  -0.58900 2.19100 26.70100
C  -0.77500 2.80300 23.38600
O  -0.88900 3.17100 22.21300
C  -0.80700 1.28100 23.60900
N  0.04000 8.30300 24.17700
C  -0.08800 7.41000 23.21800
C  -0.05900 8.13300 21.84100
C  -0.35900 9.65900 22.24700
C  -0.05500 9.61000 23.70900
C  1.27200 7.77100 21.06300
C  -1.84400 10.05600 21.98300
C  -2.00500 11.45500 21.31500
N  0.44400 9.80200 26.61900
C  0.61500 10.86100 25.75900
C  1.12300 12.01100 26.50500
C  1.19600 11.56800 27.85500
C  0.86500 10.20700 27.87100
C  1.32900 13.39600 25.96400
C  1.49300 11.98400 29.22100
O  1.90100 13.05800 29.66200
C  1.16000 10.76300 30.18300
C  2.17200 10.49700 31.22900
O  3.14600 9.79800 31.05000
O  1.89200 11.33700 32.27900
C  3.10300 11.51300 33.14700
H  -0.48900 4.10900 28.70500
H  -0.53300 5.62300 22.35000
H  0.10900 11.66900 23.77900
H  1.14000 7.78400 31.38400
H  -0.46800 5.49800 30.89300
H  2.17700 5.19100 29.75200
H  1.55000 4.37500 31.13600
H  2.36500 5.93000 31.37300
H  -1.78000 7.15500 31.34500
H  -1.45700 8.89000 30.93800
H  -1.93700 7.92100 33.40200
H  -1.24400 9.38200 32.85700
H  0.21400 1.58100 26.28900
H  -1.52000 1.69700 26.42400
H  -0.53500 2.31500 27.78300
H  -0.79600 0.64900 22.72000
H  -1.73200 1.09400 24.15400
H  -0.04900 0.87300 24.27800
H  -0.87700 7.77700 21.21400
H  0.41100 10.22000 21.71800
H  1.10000 7.01000 20.30200
H  1.96900 7.31500 21.76700
H  1.78900 8.63600 20.64800
H  -2.40700 10.14500 22.91200
H  -2.30700 9.28100 21.37300
H  -2.40800 11.27300 20.31800
H  -1.06100 11.96900 21.13200
H  -2.59600 12.16000 21.90000
H  2.41400 13.48600 25.91500
H  0.97500 14.04000 26.76800
H  0.75300 13.55200 25.05200
H  0.20000 10.91000 30.67600
H  3.08100 12.57900 33.37400
H  4.06900 11.22500 32.73300
H  3.01000 10.89800 34.04200
Mg -5.81300 25.10500 25.31200
C  -4.14500 26.37900 28.24800
C  -7.61700 23.23100 27.16600
C  -6.77400 23.78700 22.48700
C  -3.29600 26.93400 23.52900
N  -5.79900 24.78100 27.49700
C  -5.19300 25.49100 28.51700
C  -5.71800 25.08500 29.86900
C  -6.72900 23.91100 29.55300
C  -6.74700 23.92700 28.00600
C  -6.37700 22.46400 30.10500
C  -6.52300 26.26600 30.45900
C  -7.14900 26.01700 31.86700
H  -6.60500 24.82100 32.67200
N  -7.07800 23.73600 24.87900
C  -7.86000 23.10500 25.82300
C  -8.79500 22.23600 25.13700
C  -8.61800 22.49200 23.79200
C  -7.41700 23.32600 23.67800
C  -9.77500 21.36000 25.80700
C  -9.36800 21.96500 22.63300
O  -9.08300 22.24700 21.46100
C  -10.43900 21.00700 22.83500
N  -4.86100 25.05400 23.30700
C  -5.58900 24.51000 22.33100
C  -4.88800 24.68800 20.93100
C  -3.91600 25.92900 21.24800
C  -4.00500 25.93800 22.77800
C  -4.18100 23.36800 20.45000
C  -4.31500 27.30800 20.53300
C  -3.12800 27.95600 19.77200
N  -4.15100 26.47400 25.77600
C  -3.28500 27.17600 24.89500
C  -2.44200 28.02200 25.62100
C  -2.68900 27.66400 26.95800
C  -3.67000 26.72700 26.98100
C  -1.63600 29.19700 25.15600
C  -2.33600 28.04300 28.34300
O  -1.50600 28.76100 28.90800
C  -3.27800 27.15700 29.23000
C  -2.64700 26.31700 30.27800
O  -1.91100 25.35600 30.17100
O  -3.06400 26.79600 31.50400
C  -2.69400 26.04400 32.73300
H  -8.28900 22.67100 27.81900
H  -7.03900 23.30900 21.54200
H  -2.68400 27.44700 22.78400
H  -4.95300 24.77700 30.58300
H  -7.72500 24.17800 29.90700
H  -7.29800 22.06000 30.52600
H  -5.60300 22.50200 30.87200
H  -6.14400 21.79000 29.28100
H  -7.43700 26.32800 29.86900
H  -5.90300 27.16000 30.39200
H  -8.23500 25.96600 31.78500
H  -6.85900 26.90400 32.42900
H  -10.76000 21.78700 25.62200
H  -9.52500 21.29200 26.86600
H  -9.72300 20.35200 25.39600
H  -10.74700 20.71900 21.83000
H  -11.32500 21.40300 23.33200
H  -10.19700 20.07500 23.34600
H  -5.69200 24.91400 20.23100
H  -2.94800 25.61500 20.85900
H  -4.23900 22.65500 21.27200
H  -3.15000 23.53900 20.13700
H  -4.82700 23.04200 19.63400
H  -4.80900 28.07600 21.12800
H  -5.18000 27.00900 19.94100
H  -2.91200 27.38400 18.87000
H  -2.27100 28.15900 20.41500
H  -3.52500 28.93100 19.49200
H  -2.22900 29.84200 24.50800
H  -0.89200 28.85200 24.43800
H  -1.24800 29.77000 25.99900
H  -3.82400 27.92900 29.77400
H  -2.80400 24.96200 32.66500
H  -3.29600 26.48400 33.52700
H  -1.62500 26.12600 32.92800

