158

Mg 1.01600 8.03200 27.92400
C  1.37200 10.21100 30.51900
C  1.39300 5.35900 30.00600
C  1.64900 6.07900 25.21600
C  1.15900 10.80000 25.71200
N  1.49000 7.83800 30.02700
C  1.33100 8.85600 30.92000
C  1.34100 8.31400 32.40500
C  1.48000 6.79100 32.18800
C  1.41800 6.66800 30.63500
C  2.83100 6.19500 32.72000
C  0.15700 8.79100 33.27400
C  0.49700 9.16300 34.76400
H  0.04900 8.12500 35.73600
N  1.28600 5.97300 27.63700
C  1.34100 5.05100 28.58000
C  1.45300 3.78000 28.02200
C  1.62500 3.98200 26.61600
C  1.52200 5.39800 26.44700
C  1.36600 2.50600 28.86300
C  1.72900 2.90000 25.39600
O  1.95400 3.12500 24.25900
C  1.64600 1.46000 25.83400
N  1.23200 8.33800 25.85900
C  1.45800 7.37200 24.87600
C  1.75600 7.88400 23.47600
C  1.34500 9.36300 23.59200
C  1.20400 9.51900 25.15300
C  3.24400 7.58000 23.03800
C  0.15500 9.81900 22.71200
C  -1.28200 9.39700 23.09200
N  1.22700 10.14200 28.01400
C  1.20900 11.07000 27.11100
C  1.42600 12.30300 27.71600
C  1.58000 12.11400 29.06300
C  1.34300 10.69100 29.18600
C  1.41000 13.64000 27.10200
C  1.87200 12.67900 30.42600
O  2.20700 13.82800 30.79200
C  1.63600 11.43700 31.43200
C  2.80300 11.35000 32.28200
O  3.92900 10.95300 31.94200
O  2.57600 11.95800 33.51700
C  3.71300 12.25400 34.37800
H  1.32200 4.60100 30.79000
H  1.97700 5.54100 24.32400
H  1.28400 11.66700 25.06000
H  2.23900 8.78900 32.80000
H  0.64900 6.17400 32.52900
H  3.29800 5.71800 31.85800
H  2.59500 5.46500 33.49400
H  3.56300 6.90400 33.10800
H  -0.51500 7.93400 33.24000
H  -0.32200 9.64000 32.78700
H  0.10900 10.16500 34.94600
H  1.58300 9.21800 34.84000
H  2.18700 1.86500 28.54200
H  0.44700 2.11400 28.42800
H  1.32000 2.56100 29.95100
H  2.50900 1.24400 26.46400
H  1.68000 0.81900 24.95300
H  0.70400 1.21700 26.32600
H  1.10300 7.33900 22.79500
H  2.24300 9.93000 23.34400
H  3.90300 7.39300 23.88700
H  3.60600 8.48000 22.54000
H  3.38200 6.83000 22.26000
H  0.36800 9.38600 21.73400
H  0.23000 10.88800 22.51100
H  -1.76600 8.67400 22.43600
H  -1.84600 10.32800 23.16100
H  -1.35200 9.06300 24.12700
H  0.75900 14.39200 27.54900
H  1.14600 13.58400 26.04600
H  2.39400 14.09500 27.21600
H  0.78100 11.75500 32.02900
H  4.23600 13.13800 34.01400
H  4.46900 11.47800 34.50500
H  3.24800 12.67600 35.26900
Mg -5.83400 24.71500 26.32000
C  -4.89900 26.44000 29.23000
C  -7.66400 22.64400 28.30900
C  -6.53800 22.78300 23.59900
C  -3.49300 26.49400 24.43900
N  -6.17900 24.54900 28.49100
C  -5.67400 25.37800 29.47400
C  -6.37200 25.13200 30.82800
C  -7.13200 23.81200 30.52500
C  -6.99600 23.63500 29.03000
C  -6.60600 22.54700 31.31600
C  -7.26200 26.36000 31.27200
C  -7.04500 26.69800 32.83000
H  -6.55100 25.66800 33.80900
N  -7.09000 23.12100 25.98800
C  -7.79300 22.38400 26.96800
C  -8.67500 21.36900 26.34400
C  -8.25600 21.39700 24.92800
C  -7.27200 22.46100 24.74900
C  -9.53800 20.55300 27.14000
C  -8.68200 20.45600 23.83800
O  -8.22900 20.40300 22.72200
C  -9.74400 19.47900 24.12700
N  -5.05700 24.64400 24.32500
C  -5.50700 23.67000 23.43800
C  -4.71200 23.76900 22.10500
C  -3.99500 25.16900 22.27100
C  -4.15600 25.47400 23.73100
C  -3.93700 22.53900 21.84000
C  -4.62800 26.38500 21.39900
C  -3.65100 27.02900 20.40300
N  -4.46700 26.11100 26.73000
C  -3.63200 26.87900 25.81100
C  -3.00700 27.97000 26.49000
C  -3.51700 27.82500 27.79800
C  -4.36800 26.68400 27.94000
C  -2.08000 29.05800 25.90000
C  -3.45300 28.39900 29.13200
O  -2.93200 29.40300 29.50600
C  -4.33200 27.53800 30.10900
C  -3.35900 26.88500 31.07700
O  -2.48000 26.01400 30.85000
O  -3.65000 27.49400 32.32300
C  -2.75300 27.20600 33.42400
H  -8.26300 22.01600 28.97200
H  -6.81500 22.31200 22.65300
H  -2.94100 27.13000 23.74400
H  -5.48900 25.09000 31.46600
H  -8.17900 23.99700 30.76200
H  -6.55400 21.68900 30.64600
H  -7.24300 22.45200 32.19500
H  -5.57900 22.76400 31.61100
H  -8.29700 26.06100 31.10400
H  -7.00200 27.21500 30.64800
H  -7.95600 27.17800 33.18700
H  -6.34700 27.53100 32.91900
H  -10.57800 20.64600 26.82600
H  -9.58800 20.90200 28.17200
H  -9.40700 19.47200 27.07500
H  -10.00500 19.08800 23.14400
H  -10.52600 20.04700 24.63100
H  -9.49900 18.71700 24.86700
H  -5.34800 23.95600 21.24000
H  -2.94700 25.14900 21.97100
H  -2.85800 22.65900 21.93500
H  -4.17400 22.25900 20.81400
H  -4.09600 21.73400 22.55900
H  -4.84900 27.25100 22.02200
H  -5.53800 26.06000 20.89500
H  -4.23000 27.33200 19.53000
H  -2.83800 26.35000 20.14600
H  -3.17500 27.92800 20.79500
H  -2.51800 29.58300 25.05200
H  -1.10200 28.64400 25.65400
H  -1.78900 29.78300 26.66000
H  -5.07500 28.13400 30.63900
H  -3.27400 26.70300 34.23800
H  -2.38900 28.15300 33.82200
H  -1.89500 26.58100 33.17600

