158

Mg 36.12100 0.90300 29.73300
C  33.72100 2.49400 31.84600
C  38.31400 1.12000 32.36100
C  38.37500 -0.28800 27.61100
C  33.66400 1.08100 27.11500
N  35.99800 1.74000 31.83800
C  34.97300 2.23500 32.51300
C  35.26100 2.40200 33.99100
C  36.78600 2.40300 34.03800
C  37.04000 1.76600 32.61000
C  37.62000 3.75200 34.15600
C  34.46700 1.41600 34.89600
C  33.61000 2.04800 36.02000
H  34.21800 3.14200 36.95900
N  38.11000 0.42100 29.99300
C  38.84700 0.61500 31.12700
C  40.15700 0.16800 30.90100
C  40.23300 -0.26100 29.55400
C  38.86600 0.02400 28.95500
C  41.24100 0.20400 31.98800
C  41.46000 -0.68400 28.78500
O  41.40900 -0.98700 27.60700
C  42.82800 -0.83300 29.49100
N  36.08000 0.63200 27.64300
C  37.10900 0.01300 27.05000
C  36.77000 -0.27000 25.56000
C  35.28600 0.09700 25.44700
C  34.97800 0.71200 26.79600
C  37.76100 0.45000 24.64100
C  34.46300 -1.07200 25.07000
C  34.18900 -2.12300 26.20400
N  34.16400 1.62400 29.45700
C  33.24200 1.58700 28.37300
C  31.98200 2.22700 28.79700
C  32.06200 2.54700 30.14700
C  33.42700 2.15100 30.50200
C  30.68800 2.37800 27.97800
C  31.40400 3.10500 31.31300
O  30.24300 3.54100 31.45400
C  32.46300 3.10500 32.45000
C  32.67800 4.49800 32.89300
O  33.55300 5.30100 32.64300
O  31.72500 4.76400 33.86200
C  31.95500 6.03400 34.61400
H  38.92400 1.03100 33.26300
H  39.14300 -0.66800 26.93400
H  32.86700 0.91000 26.38900
H  34.89600 3.39200 34.26400
H  37.18400 1.73300 34.79900
H  38.11300 4.00600 33.21800
H  38.40300 3.78900 34.91200
H  36.98900 4.57400 34.49200
H  35.08100 0.70800 35.45300
H  33.88800 0.77000 34.23700
H  33.31300 1.17900 36.60700
H  32.69200 2.46500 35.60400
H  41.51800 -0.74800 32.43900
H  40.89800 0.78300 32.84600
H  42.11800 0.73500 31.61800
H  43.16500 0.11500 29.91000
H  43.59100 -1.38000 28.93700
H  42.63300 -1.36900 30.42000
H  36.80200 -1.35900 25.51500
H  35.18700 0.87000 24.68500
H  38.08000 -0.27200 23.88900
H  38.60500 0.80000 25.23500
H  37.37800 1.30700 24.08700
H  35.08700 -1.53500 24.30500
H  33.59500 -0.68400 24.53600
H  35.01000 -2.79800 26.44200
H  33.37900 -2.73400 25.80700
H  33.82400 -1.60000 27.08800
H  30.64900 3.01900 27.09700
H  29.91900 2.75400 28.65300
H  30.31400 1.42800 27.59800
H  32.02500 2.48100 33.22900
H  31.10300 6.26600 35.25400
H  31.97200 6.92800 33.99100
H  32.82600 5.97900 35.26700
Mg 47.72400 45.95700 43.55300
C  44.47500 46.34500 42.47500
C  47.67200 42.69300 42.35300
C  50.96300 45.63300 44.24000
C  47.72800 49.16000 44.82700
N  46.28300 44.75100 42.25400
C  45.00400 45.14000 41.99100
C  44.17900 43.96600 41.42000
C  45.13100 42.72500 41.49900
C  46.40900 43.36300 42.10500
C  44.61500 41.47900 42.34100
C  43.55600 44.31500 39.98100
C  42.27600 43.64200 39.59100
H  42.53100 42.58000 38.49800
N  49.13500 44.32200 43.46000
C  48.93100 43.11000 42.89600
C  50.15100 42.26500 43.03600
C  51.14300 43.08600 43.63400
C  50.41200 44.42300 43.83300
C  50.18100 40.84000 42.68100
C  52.52500 42.67100 43.91600
O  52.85000 41.59200 43.54700
C  53.53800 43.71500 44.46000
N  49.17100 47.29500 44.22900
C  50.43700 46.91000 44.49700
C  51.28400 48.10300 45.10200
C  50.26900 49.28200 45.17300
C  48.96400 48.57100 44.75400
C  51.91500 47.83300 46.43800
C  50.67200 50.47200 44.20200
C  51.31200 51.70300 44.88700
N  46.40600 47.49400 43.54400
C  46.55000 48.71300 44.26100
C  45.27500 49.37100 44.27100
C  44.44500 48.47800 43.65900
C  45.15800 47.36400 43.19900
C  45.02000 50.85800 44.83900
C  43.06900 48.27400 43.25200
O  42.05300 48.97000 43.25100
C  43.11300 46.91500 42.39900
C  42.04500 45.98100 42.75200
O  41.06200 45.76200 42.06700
O  42.20300 45.46200 44.03900
C  41.21800 44.49100 44.43700
H  47.63200 41.67500 41.96200
H  52.02900 45.67900 44.47400
H  47.61300 50.09900 45.37300
H  43.42700 43.61900 42.12900
H  45.39100 42.32800 40.51800
H  45.41000 41.02500 42.93300
H  44.13700 40.79900 41.63600
H  43.79500 41.71500 43.02000
H  44.30300 44.01400 39.24700
H  43.33200 45.38100 39.94300
H  41.52000 44.32900 39.21100
H  41.92900 43.10700 40.47500
H  50.05400 40.61900 41.62100
H  49.30100 40.36900 43.11900
H  50.99900 40.23300 43.07100
H  53.64500 44.46900 43.68000
H  54.49000 43.27400 44.75400
H  53.05100 44.09900 45.35700
H  52.05700 48.20700 44.34100
H  50.03900 49.58200 46.19500
H  53.00500 47.81500 46.45300
H  51.41400 46.94500 46.82600
H  51.64800 48.62100 47.14300
H  49.77500 50.60800 43.59600
H  51.42800 50.09800 43.51200
H  52.26900 51.95600 44.43100
H  51.55200 51.33200 45.88300
H  50.56700 52.49400 44.79200
H  44.00300 51.11600 45.13400
H  45.28500 51.59200 44.07800
H  45.57800 50.97600 45.76800
H  42.88200 47.34600 41.42500
H  41.57700 43.51900 44.09900
H  40.25000 44.55800 43.94000
H  41.08100 44.56600 45.51500

