158

Mg 27.37500 49.01200 26.57800
C  25.27000 50.06300 29.17700
C  29.74200 48.16900 29.04700
C  29.47400 48.19800 24.08700
C  24.86700 50.13400 24.33600
N  27.44100 49.16700 28.83600
C  26.48400 49.51200 29.69500
C  26.80000 49.29500 31.16100
C  28.39200 48.98900 31.09100
C  28.57000 48.80400 29.57500
C  29.24100 50.07800 31.82700
C  25.82300 48.27500 31.69200
C  25.33200 48.21200 33.12800
H  26.13900 48.73800 34.31600
N  29.33200 48.26300 26.63200
C  30.09800 47.92000 27.71100
C  31.33300 47.44000 27.20000
C  31.33400 47.60500 25.77700
C  30.02400 48.07000 25.41400
C  32.39000 47.01100 28.14300
C  32.42400 47.26200 24.77700
O  32.24700 47.42300 23.57100
C  33.69100 46.55700 25.13900
N  27.21600 49.21600 24.57400
C  28.12000 48.66800 23.76000
C  27.62800 48.69400 22.30800
C  26.17400 49.27200 22.41200
C  26.08500 49.60300 23.87400
C  28.58700 49.47900 21.37900
C  25.12900 48.25100 21.80600
C  24.16500 48.95400 20.83500
N  25.47300 50.05100 26.68400
C  24.54800 50.37200 25.69400
C  23.36100 51.02300 26.30100
C  23.55600 50.84700 27.69800
C  24.87500 50.28100 27.83700
C  22.20500 51.66800 25.55900
C  23.00500 50.97700 28.98700
O  21.87200 51.34800 29.39400
C  24.03700 50.45700 30.01400
C  24.26800 51.56400 31.01200
O  25.06500 52.46600 30.77100
O  23.49900 51.37600 32.13800
C  23.65500 52.41700 33.18700
H  30.52400 47.96600 29.78300
H  30.07600 48.06300 23.18600
H  24.07400 50.25200 23.59500
H  26.58300 50.19800 31.73100
H  28.50900 47.98500 31.49800
H  29.39300 49.98800 32.90300
H  28.73700 51.01900 31.61100
H  30.24300 50.03200 31.40000
H  26.43100 47.37200 31.63500
H  25.01100 48.04700 31.00200
H  25.02100 47.20100 33.39300
H  24.38600 48.75000 33.18100
H  32.69300 45.97200 28.01600
H  32.18100 47.20600 29.19500
H  33.36500 47.46800 27.97400
H  34.26500 46.59600 24.21300
H  33.54000 45.50400 25.37900
H  34.30900 47.04900 25.89000
H  27.56500 47.71800 21.82600
H  26.02100 50.20800 21.87400
H  27.97900 50.18800 20.81800
H  29.13100 48.90900 20.62600
H  29.28800 50.01900 22.01600
H  24.43200 47.99500 22.60400
H  25.52100 47.36900 21.30000
H  23.19100 48.58100 21.15300
H  24.46400 48.78500 19.80000
H  23.99400 50.02300 20.96600
H  21.37400 51.59000 26.25900
H  22.11100 51.11000 24.62700
H  22.45900 52.71700 25.40800
H  23.57100 49.59500 30.49200
H  24.54100 52.10900 33.74100
H  22.75000 52.40500 33.79400
H  23.70100 53.35100 32.62600
Mg -6.13400 25.16400 25.42500
C  -4.79500 26.54900 28.25900
C  -8.11800 23.12800 27.31400
C  -7.03600 23.53300 22.54300
C  -4.01300 27.27700 23.44300
N  -6.17500 24.67100 27.52500
C  -5.66900 25.53000 28.51400
C  -6.38400 25.18500 29.90400
C  -7.22600 23.91600 29.55400
C  -7.18900 23.88800 28.08900
C  -6.65100 22.58100 30.18400
C  -7.19500 26.36200 30.45900
C  -6.93300 26.64600 32.01100
H  -6.40600 25.52400 32.88800
N  -7.51500 23.75700 24.98300
C  -8.24600 22.93500 25.87700
C  -9.26600 22.22000 25.11000
C  -8.92300 22.32000 23.69300
C  -7.71800 23.21800 23.73500
C  -10.42100 21.53500 25.80700
C  -9.54400 21.58600 22.47800
O  -9.10200 21.59600 21.34400
C  -10.82300 20.82300 22.50000
N  -5.60500 25.33600 23.23700
C  -6.11400 24.52500 22.24700
C  -5.44300 24.88900 20.93800
C  -4.50500 26.05000 21.22300
C  -4.75000 26.30700 22.68800
C  -4.72100 23.65400 20.32100
C  -4.75900 27.30800 20.29000
C  -3.62600 27.62700 19.36200
N  -4.64900 26.57600 25.73200
C  -3.97700 27.47300 24.89400
C  -3.20600 28.37500 25.68800
C  -3.53900 28.13600 26.99800
C  -4.35400 26.95900 26.97500
C  -2.34100 29.44700 25.10200
C  -3.23700 28.54000 28.35900
O  -2.50000 29.42600 28.79200
C  -4.08300 27.51500 29.20100
C  -3.01700 26.92400 30.04200
O  -2.15700 26.12700 29.66800
O  -3.13000 27.36700 31.30300
C  -2.13900 26.80200 32.19300
H  -8.98200 22.71400 27.83800
H  -7.34800 22.99000 21.64900
H  -3.50400 28.01900 22.82500
H  -5.56600 24.94500 30.58400
H  -8.26000 23.89300 29.89700
H  -6.04200 22.21500 29.35700
H  -7.34600 21.81100 30.51800
H  -6.10800 22.75800 31.11200
H  -8.23400 26.11200 30.24200
H  -7.15600 27.26400 29.84700
H  -7.83300 26.96300 32.53800
H  -6.12200 27.36200 32.14700
H  -11.10000 21.07900 25.08700
H  -11.01200 22.28800 26.32900
H  -10.13300 20.76500 26.52300
H  -10.78700 20.05000 23.26700
H  -11.03800 20.32900 21.55200
H  -11.64000 21.48100 22.79500
H  -6.24700 25.19200 20.26700
H  -3.45800 25.75800 21.14300
H  -5.28200 23.27700 19.46600
H  -4.56800 22.85200 21.04200
H  -3.74500 23.92200 19.91500
H  -5.10500 28.05500 21.00300
H  -5.51400 26.89700 19.62000
H  -3.27000 28.53400 19.85000
H  -4.08200 27.88500 18.40700
H  -2.89600 26.81900 19.40500
H  -2.85300 29.95900 24.28800
H  -1.34600 29.07700 24.85400
H  -2.14100 30.20300 25.86200
H  -4.70100 28.07200 29.90600
H  -1.17200 26.61600 31.72400
H  -2.51600 25.90700 32.68700
H  -1.98400 27.53400 32.98600

