158

Mg 1.45000 -1.86200 45.40800
C  4.87300 -0.86000 44.88400
C  0.50000 0.76200 43.45500
C  -1.55600 -3.16300 45.48500
C  2.76300 -4.84800 46.74200
N  2.63700 -0.11900 44.36800
C  3.99300 -0.00200 44.21800
C  4.30000 1.25700 43.36100
C  2.85300 1.92000 43.21800
C  1.93800 0.77600 43.59500
C  2.72900 3.21700 44.07700
C  4.96500 0.81500 41.97400
C  6.45200 1.17200 41.66400
H  6.60100 1.61400 40.21400
N  -0.27500 -1.29100 44.54500
C  -0.49300 -0.13100 43.89000
C  -1.88600 0.01000 43.57000
C  -2.54000 -1.02000 44.28800
C  -1.47200 -1.87800 44.87000
C  -2.36400 1.26100 42.90500
C  -3.99200 -1.17800 44.32600
O  -4.76800 -0.45300 43.67600
C  -4.67800 -2.06400 45.24400
N  0.78700 -3.89200 45.63200
C  -0.56300 -4.08800 45.83000
C  -0.90200 -5.43200 46.52900
C  0.48300 -6.05900 46.71000
C  1.43100 -4.84100 46.29900
C  -1.73300 -5.31000 47.84800
C  0.81200 -7.30000 45.82100
C  1.51600 -8.45200 46.59600
N  3.42400 -2.69300 45.94400
C  3.72300 -3.92000 46.48400
C  5.19800 -3.96700 46.77600
C  5.67200 -2.77800 46.09300
C  4.55000 -2.03400 45.60000
C  6.03300 -5.07500 47.44400
C  6.81300 -2.15100 45.61800
O  8.02400 -2.45600 45.64400
C  6.41200 -0.84100 44.88600
C  6.83600 0.38600 45.67300
O  6.86400 0.52100 46.83100
O  7.22400 1.35300 44.75000
C  7.70500 2.62100 45.23900
H  0.25200 1.64900 42.86700
H  -2.55900 -3.55300 45.67000
H  3.10100 -5.74400 47.26800
H  4.97200 1.88800 43.94200
H  2.67200 2.28700 42.20700
H  3.72700 3.57200 44.33400
H  2.03700 3.18200 44.91900
H  2.21100 3.90500 43.40800
H  4.42700 1.16500 41.09200
H  4.88600 -0.26900 41.90200
H  6.96500 0.22000 41.80000
H  6.97400 1.94500 42.22900
H  -2.56300 1.96100 43.71700
H  -3.28700 1.08600 42.35400
H  -1.61500 1.59200 42.18500
H  -3.99700 -1.99400 46.09300
H  -4.74700 -3.06400 44.81600
H  -5.64400 -1.61600 45.47300
H  -1.46300 -6.01400 45.79800
H  0.56700 -6.26100 47.77800
H  -2.79300 -5.23000 47.60500
H  -1.45200 -4.44800 48.45400
H  -1.70800 -6.23200 48.42900
H  1.47400 -6.90900 45.04800
H  -0.11500 -7.65700 45.37000
H  0.98500 -9.38800 46.41900
H  1.55600 -8.36900 47.68200
H  2.51600 -8.45900 46.16400
H  6.19400 -5.90400 46.75500
H  5.56200 -5.49400 48.33300
H  7.08000 -4.85900 47.65400
H  6.87100 -0.90800 43.89900
H  8.15200 2.61700 46.23300
H  6.80900 3.24200 45.23600
H  8.29800 3.00500 44.40900
Mg 16.78300 51.67600 26.08600
C  18.62700 50.22100 28.66300
C  14.28100 52.45000 28.40900
C  15.02200 52.94000 23.66300
C  19.45800 50.89300 23.96600
N  16.51600 51.37300 28.27400
C  17.44300 50.85500 29.12700
C  17.07600 51.22000 30.56600
C  15.60200 51.57800 30.41900
C  15.42100 51.84500 28.93000
C  14.70200 50.42600 31.00800
C  17.99400 52.27900 31.15300
C  18.20200 52.33100 32.63100
H  17.07200 51.70800 33.49400
N  14.93100 52.53800 26.01700
C  14.04800 52.76800 27.04900
C  12.84300 53.47200 26.60900
C  13.08300 53.73700 25.21700
C  14.35900 53.05100 24.89100
C  11.81700 54.20700 27.48900
C  12.41800 54.62500 24.19500
O  12.85900 54.84900 23.09000
C  11.09700 55.30300 24.53200
N  17.09200 51.76300 24.06800
C  16.26900 52.43000 23.30000
C  16.80700 52.70700 21.94400
C  18.39000 52.36600 22.21300
C  18.34500 51.62700 23.49400
C  16.09800 51.86700 20.83100
C  19.31500 53.57100 22.31400
C  20.68700 53.53500 21.52000
N  18.62900 50.68600 26.22200
C  19.53600 50.37500 25.27000
C  20.55000 49.50400 25.85900
C  20.23500 49.46200 27.18600
C  19.06400 50.11000 27.33700
C  21.75900 49.06700 25.09600
C  20.68500 49.04000 28.52000
O  21.71500 48.49800 28.89900
C  19.65000 49.56500 29.55700
C  19.10900 48.49400 30.41800
O  18.60000 47.44200 30.00600
O  19.19000 48.83000 31.74900
C  18.63900 47.80600 32.68700
H  13.46400 52.71900 29.08100
H  14.50800 53.23700 22.74700
H  20.33600 50.66700 23.35800
H  17.13000 50.28700 31.12700
H  15.32500 52.50700 30.91700
H  14.25900 49.92100 30.15000
H  13.85900 50.74400 31.62100
H  15.20400 49.67600 31.61900
H  17.70700 53.22000 30.68400
H  19.01000 52.13000 30.78700
H  18.39700 53.35200 32.96000
H  19.05700 51.70700 32.89100
H  10.82400 54.17300 27.04100
H  12.11200 55.25600 27.48000
H  11.72700 53.94800 28.54400
H  11.24500 55.82000 25.48000
H  10.39400 54.49600 24.74000
H  10.72300 56.00200 23.78400
H  16.74900 53.76800 21.70200
H  18.82700 51.66700 21.49900
H  16.74500 51.01700 20.61200
H  15.90700 52.45500 19.93300
H  15.09900 51.60900 21.18100
H  19.64900 53.64500 23.34900
H  18.78900 54.48400 22.03500
H  21.03800 54.52700 21.23400
H  20.59900 53.00600 20.57100
H  21.41900 53.01500 22.13800
H  22.18900 49.65300 24.28300
H  21.51600 48.06300 24.74800
H  22.45800 48.87400 25.90900
H  20.11900 50.21900 30.29300
H  19.46900 47.44400 33.29500
H  18.14300 46.94700 32.23600
H  17.99800 48.21000 33.47000

