158

Mg 0.96100 6.86400 26.20300
C  1.99000 9.37600 28.66500
C  1.00000 4.61200 28.71000
C  0.24000 4.77300 23.92400
C  1.68000 9.47400 23.76400
N  1.44700 7.04100 28.45200
C  1.75000 8.07800 29.25300
C  1.56200 7.76000 30.68500
C  1.52300 6.19000 30.66500
C  1.31600 5.91400 29.17400
C  2.79000 5.46200 31.18200
C  0.28000 8.49900 31.41000
C  0.45400 8.72700 32.97000
H  1.75500 8.36900 33.72600
N  0.63300 4.96900 26.28300
C  0.74600 4.11100 27.38300
C  0.37600 2.72100 26.99900
C  0.01500 2.78900 25.60900
C  0.38500 4.17100 25.18000
C  0.19000 1.58100 28.06000
C  -0.50200 1.66300 24.71300
O  -0.95200 1.86600 23.61500
C  -0.52700 0.23800 25.26100
N  1.32200 7.00200 23.97000
C  0.65500 6.00100 23.33300
C  0.07400 6.48300 21.95000
C  0.58400 8.00400 21.88800
C  1.17500 8.24200 23.30900
C  0.45100 5.61200 20.72800
C  -0.43400 9.08100 21.49600
C  -0.05200 10.27500 20.62200
N  1.72100 9.00700 26.14500
C  1.92200 9.88700 25.08700
C  2.42300 11.10200 25.57300
C  2.38100 10.96100 26.93700
C  2.00200 9.66100 27.24900
C  3.08100 12.22800 24.72800
C  2.64300 11.71100 28.14200
O  3.00300 12.87700 28.25700
C  2.25300 10.76700 29.33100
C  3.40100 10.61900 30.20200
O  4.45700 10.08500 29.86200
O  3.14100 11.28600 31.40700
C  4.27400 11.50900 32.29900
H  0.99200 3.84300 29.48500
H  -0.09900 4.04400 23.18600
H  1.66100 10.28200 23.02900
H  2.40500 8.19900 31.21800
H  0.64700 5.92200 31.25700
H  2.52700 4.82600 32.02700
H  3.59000 6.14800 31.45900
H  3.08900 4.77200 30.39300
H  -0.62500 7.89500 31.47000
H  0.11900 9.46100 30.92500
H  -0.35500 8.17500 33.44900
H  0.20800 9.74300 33.28100
H  0.57300 0.61600 27.72900
H  -0.87900 1.50800 28.25900
H  0.56500 2.04300 28.97300
H  -0.96100 0.05600 26.24400
H  0.52700 0.04600 25.46300
H  -0.75200 -0.54900 24.54200
H  -1.01400 6.42300 21.97800
H  1.45000 8.04100 21.22700
H  0.98500 4.69500 20.97900
H  1.21900 6.11000 20.13700
H  -0.35300 5.36500 20.03500
H  -0.71700 9.45400 22.48100
H  -1.26300 8.64600 20.93900
H  -0.91100 10.75200 20.14900
H  0.63000 10.00800 19.81500
H  0.23400 11.07700 21.30300
H  2.38400 12.71900 24.04900
H  3.77600 11.77200 24.02200
H  3.47900 13.05500 25.31600
H  1.39600 11.03400 29.94900
H  4.83100 12.39500 31.99300
H  4.91900 10.65200 32.49200
H  3.83700 11.81400 33.25000
Mg 35.35300 1.39800 29.36000
C  32.89700 2.44900 31.56200
C  37.78200 1.59100 31.67100
C  37.64900 0.82300 26.86500
C  32.84600 1.64600 26.72600
N  35.40500 2.17300 31.37800
C  34.20500 2.40800 32.09700
C  34.58600 2.46000 33.62600
C  36.17400 2.31100 33.59700
C  36.49800 1.99100 32.12400
C  36.85700 3.55800 34.13900
C  33.88100 1.32600 34.43800
C  33.51400 1.55400 35.93300
H  33.74400 2.93400 36.38200
N  37.41000 1.04900 29.34800
C  38.21800 1.07500 30.41800
C  39.52500 0.49700 30.11700
C  39.49800 0.32000 28.64700
C  38.15100 0.76300 28.20400
C  40.53800 0.10000 31.10700
C  40.59700 -0.31700 27.68600
O  40.45900 -0.43100 26.48100
C  41.84200 -0.87000 28.35600
N  35.30600 1.33000 27.12700
C  36.38500 0.95500 26.38600
C  36.05500 0.70800 24.93300
C  34.46500 0.92300 24.87100
C  34.14000 1.34200 26.28300
C  36.83500 1.59300 24.00100
C  33.53500 -0.22000 24.33500
C  32.74600 0.18900 23.08100
N  33.26500 1.83500 29.16800
C  32.39300 1.88600 28.05700
C  31.04500 2.33800 28.57500
C  31.16800 2.39500 29.99600
C  32.58600 2.26300 30.23900
C  29.82300 2.42000 27.80800
C  30.44400 2.79800 31.19600
O  29.29500 3.14100 31.35700
C  31.56200 2.75300 32.29600
C  31.70500 3.97500 33.07500
O  32.32500 4.94600 32.65400
O  30.93400 3.94300 34.28700
C  30.77500 5.30200 34.89100
H  38.53400 1.45600 32.45100
H  38.34600 0.59000 26.05700
H  32.22300 1.89800 25.86500
H  34.25000 3.46900 33.86500
H  36.39700 1.42800 34.19500
H  37.86600 3.56000 33.72800
H  36.92400 3.44300 35.22100
H  36.30000 4.48000 33.97100
H  34.56300 0.47700 34.48900
H  33.03900 0.86400 33.92200
H  34.12800 0.95000 36.60100
H  32.44800 1.33800 36.01300
H  40.77300 -0.92800 30.83100
H  40.20600 0.01200 32.14200
H  41.35100 0.82500 31.11800
H  42.62400 -1.18200 27.66300
H  41.57600 -1.69100 29.02100
H  42.26600 -0.08400 28.98100
H  36.25400 -0.33300 24.67800
H  34.18300 1.80000 24.28900
H  37.26500 0.94700 23.23600
H  37.57700 2.12900 24.59300
H  36.12800 2.26400 23.51300
H  32.83500 -0.53700 25.10800
H  34.13200 -1.11200 24.14200
H  31.77900 -0.31300 23.07700
H  33.27900 -0.13500 22.18800
H  32.54500 1.24900 22.92800
H  29.69800 3.41300 27.37700
H  29.06400 2.21300 28.56200
H  29.88500 1.63000 27.05900
H  31.45600 1.91700 32.98800
H  30.30000 5.14900 35.86000
H  30.10500 5.84000 34.22000
H  31.68800 5.89100 34.97500

