158

Mg 48.87000 45.48200 42.99900
C  45.33700 45.66700 42.08100
C  48.88500 42.48400 41.65100
C  52.24600 45.68700 43.14100
C  48.51600 48.77400 44.22000
N  47.29700 44.38300 41.80200
C  46.00800 44.58800 41.55200
C  45.36600 43.40600 40.78100
C  46.48200 42.31000 40.98500
C  47.61000 43.07900 41.62700
C  46.10000 41.07900 41.80300
C  45.02600 43.86000 39.31400
C  43.67000 43.37900 38.77200
H  43.71500 42.33000 37.60500
N  50.35200 44.23400 42.45100
C  50.17300 42.96400 41.91200
C  51.46400 42.22900 41.92500
C  52.44500 43.16900 42.32200
C  51.69600 44.43400 42.68700
C  51.70900 40.76300 41.41000
C  53.95200 42.86600 42.52400
O  54.38200 41.84800 42.00100
C  54.87900 43.62900 43.25700
N  50.22600 47.07500 43.39600
C  51.57400 46.92100 43.50000
C  52.26100 48.23100 44.05000
C  51.00300 49.21500 44.24300
C  49.81200 48.19400 44.13000
C  53.28100 48.11100 45.17300
C  51.00200 50.34300 43.16300
C  51.43900 51.73500 43.53000
N  47.26000 46.74000 43.33800
C  47.32900 48.07200 43.87500
C  45.90500 48.57500 43.88100
C  45.16500 47.62000 43.27600
C  46.01300 46.58300 42.86100
C  45.51300 49.97800 44.42500
C  43.79700 47.36300 42.80300
O  42.71000 47.88700 43.06300
C  43.88300 46.10800 41.92800
C  42.79600 45.08900 42.26600
O  41.91000 44.70800 41.48900
O  42.88300 44.65000 43.59800
C  41.67700 43.89300 44.03700
H  48.89000 41.41500 41.42900
H  53.29000 45.67200 43.46200
H  48.33800 49.80300 44.54000
H  44.46000 43.00300 41.23400
H  46.86400 41.93100 40.03700
H  46.25800 40.21500 41.15800
H  45.02500 41.13700 41.97800
H  46.59300 40.88100 42.75400
H  45.78800 43.40900 38.67800
H  45.08100 44.94900 39.29100
H  43.16000 44.23000 38.31900
H  43.06100 43.09900 39.63100
H  52.46500 40.67300 40.63000
H  50.74000 40.39300 41.07700
H  52.02200 40.18900 42.28200
H  55.02900 44.56500 42.71800
H  55.84000 43.12000 43.33700
H  54.50200 43.92400 44.23600
H  52.88500 48.59500 43.23300
H  50.90700 49.66700 45.23000
H  52.69600 48.19300 46.08900
H  53.95300 48.94900 44.98800
H  53.76900 47.13800 45.23000
H  50.08000 50.25900 42.59000
H  51.81600 50.14300 42.46600
H  51.45700 51.77600 44.61900
H  50.62500 52.34300 43.13600
H  52.43600 52.00900 43.18400
H  45.86500 50.73100 43.72000
H  45.86400 50.15300 45.44200
H  44.42400 49.94500 44.47500
H  43.59100 46.42500 40.92700
H  41.81600 42.84200 43.78400
H  40.76100 44.26900 43.58100
H  41.56200 44.03500 45.11100
Mg 0.29600 43.67700 25.93000
C  2.47200 43.92600 28.67900
C  -2.16400 42.72700 28.14400
C  -1.62700 42.96500 23.29700
C  3.08900 43.97800 23.77100
N  0.16300 43.50000 28.14500
C  1.14700 43.76800 29.05400
C  0.64700 43.83600 30.47700
C  -0.83500 43.25100 30.39200
C  -0.99700 43.09400 28.81400
C  -1.17100 41.95100 31.22200
C  0.69000 45.22400 31.22500
C  0.81100 45.39000 32.81800
H  0.57800 44.08700 33.59800
N  -1.64100 42.98200 25.82300
C  -2.50700 42.70000 26.79000
C  -3.83600 42.29200 26.21000
C  -3.63400 42.23900 24.82200
C  -2.26600 42.74200 24.59200
C  -4.99900 42.10300 27.07400
C  -4.67200 41.84700 23.66000
O  -4.39100 41.74300 22.46000
C  -6.11400 41.46000 24.10500
N  0.69100 43.54000 23.88000
C  -0.31400 43.34400 23.05600
C  0.25100 43.44000 21.57100
C  1.67300 43.96600 21.70600
C  1.82900 43.80200 23.20900
C  0.08000 42.14300 20.72100
C  1.82300 45.44700 21.30700
C  1.20200 46.59700 22.17000
N  2.34300 44.03500 26.09900
C  3.33500 44.16600 25.12900
C  4.65900 44.30700 25.83800
C  4.43400 44.22200 27.19000
C  2.96500 44.02600 27.28600
C  6.00900 44.52200 25.16400
C  4.95100 44.16500 28.55100
O  6.10000 44.15500 29.02000
C  3.76900 44.08600 29.56100
C  4.06700 42.79500 30.26400
O  4.26500 41.67100 29.82600
O  3.95100 43.10200 31.63300
C  4.34000 42.01400 32.54600
H  -3.03600 42.45900 28.74300
H  -2.30000 42.93900 22.43800
H  3.72300 44.03100 22.88300
H  1.16600 43.05500 31.03200
H  -1.53100 44.04500 30.66300
H  -1.47900 41.23600 30.45900
H  -1.91500 42.14500 31.99500
H  -0.24100 41.59700 31.66600
H  -0.21600 45.76600 30.95300
H  1.52100 45.70300 30.70900
H  0.09900 46.15700 33.12300
H  1.84000 45.72800 32.94700
H  -5.88900 42.54300 26.62400
H  -4.87600 42.67000 27.99700
H  -5.25900 41.13400 27.50100
H  -5.94300 40.71400 24.88000
H  -6.57100 40.99600 23.23100
H  -6.61100 42.35300 24.48400
H  -0.24200 44.32800 21.17500
H  2.42300 43.41000 21.14400
H  -0.56400 41.41100 21.20800
H  0.98300 41.63700 20.37900
H  -0.49700 42.45900 19.85200
H  1.36400 45.44200 20.31800
H  2.86800 45.68500 21.11200
H  0.78600 46.24000 23.11100
H  0.43500 46.92100 21.46600
H  1.96600 47.36400 22.29700
H  6.54000 43.57100 25.20400
H  6.57300 45.22800 25.77300
H  5.82100 44.82500 24.13400
H  3.75700 44.98200 30.18100
H  5.39800 41.88000 32.31800
H  3.94900 41.03400 32.27200
H  4.16800 42.39500 33.55300

