158

Mg 26.05100 0.23900 29.53500
C  28.08900 -0.24100 32.32700
C  23.39300 0.89000 31.52500
C  24.16200 0.31300 26.77000
C  28.84000 -0.77500 27.57300
N  25.84700 0.32400 31.78200
C  26.77000 0.00900 32.73900
C  26.12100 0.11200 34.09900
C  24.62300 0.35200 33.78900
C  24.60100 0.67400 32.27800
C  23.62300 -0.66400 34.32700
C  26.82600 1.20700 34.99100
C  26.00100 1.70700 36.26800
H  26.78400 2.06600 37.52700
N  24.04600 0.63800 29.13400
C  23.07800 0.91500 30.13200
C  21.85600 1.25100 29.44100
C  22.05600 1.15000 28.06300
C  23.46900 0.67300 27.91500
C  20.62300 1.58200 30.21400
C  21.17000 1.49700 26.91100
O  21.43200 1.19700 25.71400
C  19.85900 2.09200 27.23800
N  26.40400 -0.46100 27.42800
C  25.42300 -0.19500 26.48900
C  26.03000 -0.39300 25.07400
C  27.56300 -0.66200 25.31700
C  27.62000 -0.58200 26.82600
C  25.31200 -1.48500 24.25700
C  28.50200 0.38100 24.56400
C  29.74600 -0.18300 23.89400
N  28.03500 -0.30800 29.82300
C  29.02900 -0.70900 28.96900
C  30.32500 -0.83700 29.63500
C  29.94800 -0.74200 30.97600
C  28.62100 -0.36900 31.01100
C  31.64700 -1.06000 29.05100
C  30.45200 -0.85400 32.29800
O  31.55000 -1.05300 32.81300
C  29.26300 -0.45000 33.28800
C  28.97600 -1.57600 34.29500
O  28.26100 -2.54500 34.12200
O  29.61400 -1.32800 35.43100
C  29.58300 -2.46800 36.31700
H  22.59600 0.87200 32.27100
H  23.49300 0.29100 25.90700
H  29.70600 -1.12400 27.00700
H  26.17100 -0.88300 34.54100
H  24.21700 1.25400 34.24700
H  24.12100 -1.23600 35.11000
H  23.49200 -1.32200 33.46800
H  22.66100 -0.30100 34.69000
H  27.10300 1.97400 34.26700
H  27.73900 0.75000 35.37200
H  25.13400 1.08400 36.48800
H  25.57500 2.65700 35.94500
H  19.88200 0.83100 29.94100
H  20.20600 2.53600 29.89000
H  20.69800 1.50600 31.29900
H  19.30900 1.18400 27.48700
H  19.46900 2.60600 26.35900
H  19.95200 2.92800 27.93200
H  25.84500 0.57700 24.61100
H  27.87600 -1.67600 25.06700
H  24.65600 -2.04200 24.92600
H  26.07100 -2.11600 23.79500
H  24.75500 -1.11500 23.39600
H  28.72600 1.05600 25.39000
H  28.03800 0.97300 23.77500
H  30.52600 0.34100 24.44600
H  29.70600 0.04300 22.82800
H  29.84900 -1.25600 24.05400
H  31.82100 -2.12100 28.87200
H  32.39800 -0.56400 29.66400
H  31.64300 -0.45000 28.14800
H  29.57200 0.48500 33.75500
H  30.43100 -2.20500 36.94900
H  29.82100 -3.45300 35.91600
H  28.66000 -2.39800 36.89200
Mg 6.06200 54.64600 39.71500
C  5.99500 51.12800 39.19800
C  9.43900 54.55600 38.97800
C  6.04800 57.95300 39.43400
C  2.65100 54.59000 39.95200
N  7.50100 53.04000 38.71000
C  7.25000 51.65200 38.82600
C  8.59000 50.85800 38.79300
C  9.65600 51.98000 39.04900
C  8.81100 53.29800 38.89700
C  10.50200 51.81200 40.33200
C  8.82000 50.24100 37.38000
C  8.45800 51.15400 36.21500
H  7.07300 51.08900 35.66000
N  7.56900 56.07500 39.36000
C  8.87500 55.86100 39.09000
C  9.58100 57.14700 38.90600
C  8.61200 58.19500 39.12800
C  7.34400 57.45400 39.32500
C  11.11500 57.27900 38.53900
C  8.91500 59.69900 39.03600
O  10.06000 60.10600 38.74900
C  7.84600 60.73300 39.21400
N  4.50600 56.05200 39.47200
C  4.79700 57.38800 39.48800
C  3.49700 58.18800 39.83100
C  2.53200 57.14300 40.20300
C  3.22400 55.84300 39.71100
C  3.70900 59.12900 40.98900
C  1.12700 57.33600 39.53400
C  -0.08100 57.32600 40.47700
N  4.56800 53.13500 39.66600
C  3.22600 53.27600 39.91700
C  2.67900 52.01100 40.25200
C  3.72000 51.17600 39.98400
C  4.89200 51.90700 39.60100
C  1.27300 51.58400 40.73100
C  4.10300 49.80900 40.06600
O  3.48300 48.88100 40.60100
C  5.58600 49.70400 39.50800
C  5.54900 48.73600 38.38700
O  5.09700 49.02800 37.29400
O  6.02000 47.55700 38.82500
C  5.96200 46.37900 37.89900
H  10.52400 54.53000 38.85400
H  6.02400 59.03200 39.60000
H  1.57000 54.59000 40.11100
H  8.49500 50.18000 39.64000
H  10.35700 51.94300 38.21500
H  11.50000 52.16800 40.07700
H  10.46100 50.77000 40.65000
H  10.06000 52.45200 41.09600
H  8.20400 49.34900 37.26900
H  9.87300 49.97000 37.31800
H  9.22900 50.97300 35.46600
H  8.59900 52.18800 36.53200
H  11.19200 58.06600 37.78800
H  11.52400 56.35800 38.12300
H  11.51400 57.52400 39.52300
H  7.17200 60.71600 38.35700
H  8.33400 61.70600 39.27700
H  7.35700 60.63400 40.18300
H  3.18100 58.76800 38.96300
H  2.51000 56.91800 41.27000
H  3.14100 58.95100 41.90200
H  3.33100 60.05900 40.56200
H  4.74300 59.18500 41.32900
H  1.06800 56.59500 38.73700
H  1.12400 58.36000 39.16300
H  0.17800 57.18400 41.52700
H  -0.70600 56.49900 40.14000
H  -0.51300 58.32600 40.44200
H  1.17900 51.15900 41.73000
H  0.87700 51.00100 39.90000
H  0.67400 52.49500 40.70400
H  6.16100 49.29400 40.33800
H  6.46600 45.59200 38.45900
H  6.46600 46.59700 36.95800
H  4.94700 46.10500 37.61100

