158

Mg 23.22600 -6.35200 45.84600
C  25.43300 -3.92600 44.85200
C  20.88800 -5.06700 43.66700
C  21.21700 -9.10800 46.34800
C  25.89400 -8.09500 47.29800
N  23.12800 -4.66600 44.54000
C  24.16300 -3.78600 44.33000
C  23.73700 -2.71100 43.33400
C  22.17600 -2.89700 43.24800
C  22.08000 -4.26800 43.81800
C  21.36600 -1.83800 44.02400
C  24.51800 -2.62400 41.97500
C  25.11700 -1.13400 41.59600
H  24.59200 -0.41000 40.40600
N  21.18800 -6.96600 45.21600
C  20.43800 -6.34900 44.23200
C  19.17400 -7.09900 44.03800
C  19.24600 -8.32100 44.78100
C  20.57900 -8.19400 45.49900
C  18.18100 -6.51400 43.07300
C  18.15200 -9.33200 44.86400
O  17.19700 -9.26400 44.07200
C  18.19800 -10.49600 45.83400
N  23.52700 -8.33500 46.75700
C  22.49300 -9.19800 46.92900
C  22.91700 -10.43300 47.64300
C  24.43600 -10.05600 47.95900
C  24.64700 -8.73800 47.35900
C  22.00600 -10.74800 48.85400
C  25.50400 -11.06700 47.60400
C  26.55300 -11.27800 48.63200
N  25.25500 -6.11300 46.15300
C  26.23800 -6.90900 46.69000
C  27.49200 -6.14300 46.74100
C  27.22700 -4.98000 46.03100
C  25.86300 -4.96800 45.70100
C  28.80600 -6.64900 47.42700
C  27.78000 -3.78600 45.48600
O  28.91100 -3.28200 45.59200
C  26.65700 -3.05200 44.75100
C  26.51000 -1.76200 45.46800
O  25.88400 -1.64800 46.52400
O  27.16900 -0.67200 44.88700
C  26.97700 0.53000 45.62500
H  20.11300 -4.55500 43.09100
H  20.64100 -9.95000 46.73800
H  26.72500 -8.61800 47.77700
H  23.92800 -1.82500 43.93900
H  21.72600 -3.00300 42.26100
H  20.38400 -2.22700 44.29200
H  21.24600 -1.07600 43.25300
H  21.92200 -1.42900 44.86800
H  23.81500 -2.79200 41.16000
H  25.24000 -3.42600 41.81700
H  26.18800 -1.29500 41.46900
H  24.99900 -0.44000 42.42800
H  18.24300 -7.07000 42.13700
H  18.38200 -5.50300 42.71700
H  17.16800 -6.66500 43.44400
H  17.28200 -11.07000 45.97200
H  18.50200 -10.21900 46.84400
H  19.02700 -11.14000 45.54300
H  22.87600 -11.20700 46.87700
H  24.44900 -9.82300 49.02300
H  21.14200 -10.08700 48.92700
H  22.60100 -10.85800 49.76100
H  21.60800 -11.75100 48.69900
H  26.02900 -10.72200 46.71300
H  25.16200 -12.05600 47.29700
H  27.53100 -10.87000 48.37800
H  26.66400 -12.34800 48.81100
H  26.21200 -10.80800 49.55400
H  28.98700 -7.70300 47.21300
H  28.67200 -6.55200 48.50500
H  29.55600 -6.00300 46.97000
H  27.00900 -2.81000 43.74800
H  27.59600 1.27300 45.12200
H  27.41500 0.50200 46.62200
H  25.92600 0.78500 45.48400
Mg 49.72400 35.83900 27.38400
C  47.43800 34.27300 29.63200
C  50.11300 38.24500 29.72500
C  51.37200 37.51300 25.19500
C  49.04000 33.23800 25.10300
N  48.80900 36.20300 29.38700
C  48.06800 35.40700 30.16800
C  48.14800 35.69900 31.68400
C  48.64900 37.19600 31.54000
C  49.21500 37.21300 30.14600
C  47.68600 38.44100 31.76900
C  49.09600 34.71300 32.54400
C  49.67800 35.08400 33.95200
H  48.68900 35.85600 34.88400
N  50.67400 37.63100 27.41900
C  50.73500 38.47500 28.49600
C  51.55200 39.55500 28.18800
C  51.93900 39.41400 26.85400
C  51.28700 38.16700 26.41400
C  51.84400 40.57500 29.23600
C  52.71600 40.34300 25.90900
O  53.02800 40.15000 24.77900
C  53.19100 41.62100 26.53500
N  49.94300 35.46300 25.30100
C  50.85600 36.25700 24.68400
C  51.10100 35.73900 23.29700
C  50.65600 34.25600 23.35600
C  49.80900 34.27400 24.59100
C  50.47100 36.54200 22.18300
C  51.80000 33.21500 23.34000
C  52.43000 32.93600 24.70100
N  48.38600 34.19900 27.27300
C  48.28200 33.20900 26.31900
C  47.36300 32.18000 26.70400
C  46.97500 32.56100 27.99400
C  47.62300 33.75400 28.30200
C  47.02500 30.93200 26.02900
C  46.12200 32.19500 29.09000
O  45.31000 31.31300 29.26500
C  46.35300 33.37400 30.22700
C  46.62500 32.70200 31.53700
O  47.45300 31.80800 31.69600
O  45.76400 33.03100 32.53500
C  45.99500 32.32400 33.80800
H  50.24400 38.97700 30.52500
H  51.94800 38.01100 24.41300
H  48.89700 32.34200 24.49400
H  47.10400 35.75700 31.99500
H  49.55100 37.25600 32.14900
H  47.81700 38.79000 32.79300
H  46.66800 38.21900 31.44700
H  47.89000 39.20600 31.02000
H  49.95300 34.43800 31.92900
H  48.62200 33.75200 32.74700
H  50.57900 35.69400 33.88100
H  49.85500 34.12400 34.43600
H  52.06300 40.05800 30.17100
H  51.05200 41.27700 29.49700
H  52.80000 41.03800 28.99500
H  52.38400 42.11600 27.07600
H  53.55000 42.26000 25.72800
H  53.97600 41.49900 27.28200
H  52.18500 35.78800 23.19900
H  49.96300 34.04200 22.54100
H  50.05800 35.91600 21.39300
H  51.31200 37.04200 21.70200
H  49.83400 37.26900 22.68500
H  52.64200 33.36400 22.66400
H  51.31800 32.28500 23.03800
H  52.42200 33.63300 25.53900
H  53.46500 32.61700 24.57800
H  51.87600 32.06000 25.03400
H  46.11400 30.49100 26.43300
H  47.83400 30.20300 26.09200
H  46.84200 31.12400 24.97200
H  45.45100 33.98100 30.15400
H  47.04300 32.34300 34.10500
H  45.63200 31.30600 33.66600
H  45.43200 32.81900 34.59900

