158

Mg -2.27400 17.52500 27.40600
C  -2.67100 15.29300 30.04900
C  -2.86600 20.14900 29.59200
C  -2.08500 19.73900 24.77200
C  -1.99800 14.82000 25.26000
N  -2.76900 17.62900 29.49900
C  -2.83800 16.63700 30.42000
C  -2.95200 17.17000 31.86900
C  -3.04900 18.69300 31.66700
C  -2.85700 18.86800 30.11900
C  -4.34200 19.38100 32.31900
C  -1.76500 16.67500 32.85000
C  -1.33600 17.51800 34.03200
H  -0.75800 16.78500 35.23600
N  -2.31600 19.69900 27.22600
C  -2.68300 20.56100 28.23100
C  -2.68100 21.93700 27.66000
C  -2.45700 21.77900 26.28600
C  -2.32200 20.32400 26.02300
C  -2.84400 23.11800 28.52100
C  -2.33000 22.92200 25.24900
O  -1.98400 22.69800 24.12000
C  -2.64300 24.29600 25.51500
N  -2.11500 17.36100 25.33400
C  -2.05100 18.36200 24.46600
C  -1.89100 17.90300 22.96700
C  -1.66300 16.39400 23.19500
C  -1.91100 16.16200 24.72600
C  -3.11500 18.19600 22.00900
C  -0.32600 15.73500 22.63000
C  0.92400 15.89000 23.49400
N  -2.36200 15.50600 27.52000
C  -2.23700 14.51300 26.56200
C  -2.49300 13.22300 27.12700
C  -2.66200 13.48600 28.48800
C  -2.50200 14.87200 28.73400
C  -2.50300 11.81700 26.49800
C  -2.76900 12.81600 29.78300
O  -2.86100 11.67300 30.24300
C  -2.87300 13.98400 30.89600
C  -1.84000 13.57000 31.83200
O  -0.64000 13.73800 31.69900
O  -2.42500 12.90300 32.89600
C  -1.56700 12.34500 33.96500
H  -3.01600 20.92100 30.35000
H  -2.05700 20.38600 23.89300
H  -1.84500 13.98200 24.57700
H  -3.90100 16.83000 32.28400
H  -2.11700 19.06200 32.09600
H  -4.84100 18.74900 33.05400
H  -5.04900 19.66200 31.53800
H  -3.96800 20.31300 32.74200
H  -0.96400 16.40300 32.16200
H  -2.15800 15.77300 33.31900
H  -2.26700 17.95400 34.39500
H  -0.72500 18.37400 33.74500
H  -2.53700 23.03600 29.56400
H  -3.89600 23.40500 28.51500
H  -2.18900 23.87700 28.09200
H  -3.50400 24.24000 26.18100
H  -2.75500 24.87400 24.59800
H  -1.94200 24.81400 26.17100
H  -0.94300 18.23900 22.54700
H  -2.40000 15.82100 22.63100
H  -2.53300 18.50700 21.14100
H  -3.58200 19.08800 22.42700
H  -3.86300 17.41900 21.85300
H  -0.15500 16.12700 21.62700
H  -0.57200 14.67400 22.61100
H  1.59600 16.45300 22.84700
H  1.43100 14.97400 23.79800
H  0.77700 16.40400 24.44400
H  -2.94900 11.07200 27.15800
H  -1.46400 11.59100 26.25900
H  -3.10800 11.80300 25.59100
H  -3.74300 13.98700 31.55200
H  -2.17300 12.10700 34.83900
H  -0.76900 12.99700 34.32200
H  -1.06200 11.40700 33.73300
Mg -2.04500 34.68900 27.50700
C  -3.72900 33.20800 30.22900
C  -0.72500 36.96600 29.71100
C  -0.80100 36.29700 24.98200
C  -3.80100 32.54400 25.38600
N  -2.38300 35.15300 29.67400
C  -2.89800 34.25600 30.58500
C  -2.71800 34.73300 32.06300
C  -1.89100 36.08400 31.94300
C  -1.63600 36.10700 30.35300
C  -2.65300 37.43500 32.48000
C  -1.99000 33.70500 33.00000
C  -1.42900 34.28200 34.37000
H  -1.59700 33.46400 35.56300
N  -0.94100 36.37000 27.40100
C  -0.41800 37.16900 28.39300
C  0.42500 38.25200 27.81600
C  0.34000 38.03600 26.38200
C  -0.55100 36.83600 26.19300
C  1.01400 39.40100 28.69900
C  1.00300 38.91000 25.24400
O  0.97200 38.70600 24.05600
C  1.77400 40.15800 25.55600
N  -2.30100 34.47300 25.43500
C  -1.57500 35.18300 24.59500
C  -1.76000 34.71400 23.14800
C  -2.67000 33.44600 23.30100
C  -2.83700 33.40800 24.81200
C  -2.21600 35.80400 22.18400
C  -1.87400 32.07800 22.89600
C  -2.67200 30.97600 22.28400
N  -3.54000 33.20300 27.74500
C  -4.15600 32.42700 26.77100
C  -5.03600 31.46100 27.36400
C  -4.90300 31.71200 28.77900
C  -4.03500 32.81000 28.87300
C  -5.81000 30.48400 26.72700
C  -5.29800 31.28000 30.06300
O  -5.98500 30.34900 30.47200
C  -4.45400 32.18600 31.07200
C  -5.34900 32.71800 32.08500
O  -6.18300 33.57000 31.83700
O  -5.22000 32.01400 33.22100
C  -6.30100 32.00800 34.13000
H  -0.10000 37.58100 30.36300
H  -0.40200 36.88100 24.15100
H  -4.34200 31.86500 24.72400
H  -3.70200 34.79500 32.52700
H  -0.94400 36.05300 32.48200
H  -2.15200 37.71600 33.40600
H  -3.69600 37.22600 32.71700
H  -2.57000 38.26900 31.78300
H  -1.11700 33.30600 32.48300
H  -2.55300 32.79100 33.19100
H  -1.81700 35.24800 34.69400
H  -0.36300 34.47600 34.24900
H  2.06000 39.13300 28.84900
H  0.46800 39.36800 29.64200
H  0.89200 40.35700 28.19100
H  1.09500 40.86600 26.03100
H  2.13600 40.66800 24.66400
H  2.61600 39.85000 26.17600
H  -0.76100 34.39500 22.85300
H  -3.63700 33.55300 22.80800
H  -2.20900 36.79000 22.64900
H  -3.14900 35.56900 21.67000
H  -1.42000 35.81700 21.44000
H  -1.25400 31.69700 23.70700
H  -1.12000 32.25000 22.12800
H  -3.71600 31.28200 22.21300
H  -2.45700 30.10100 22.89800
H  -2.32000 30.70400 21.28900
H  -5.82300 29.60600 27.37300
H  -5.36300 30.24400 25.76300
H  -6.80900 30.81900 26.44700
H  -3.72900 31.54000 31.56700
H  -5.99400 32.63900 34.96400
H  -6.56100 31.01200 34.48900
H  -7.15600 32.51000 33.67700

