158

Mg 29.30900 57.40500 41.68800
C  26.82800 55.08500 40.61400
C  31.52900 55.61100 40.03100
C  31.47900 59.85800 42.31100
C  26.75200 59.33900 43.16700
N  29.12000 55.58700 40.28200
C  28.08700 54.74400 40.15700
C  28.40200 53.64700 39.17700
C  29.93800 53.64400 39.22400
C  30.24100 55.05700 39.75400
C  30.59300 52.46900 39.97200
C  27.78100 54.12300 37.74100
C  27.31600 52.96100 36.90900
H  27.94100 52.84800 35.49900
N  31.35000 57.73500 41.19200
C  32.09000 56.80100 40.57200
C  33.44100 57.18200 40.65100
C  33.54000 58.43800 41.38000
C  32.08800 58.72500 41.68800
C  34.65400 56.44100 40.00200
C  34.68300 59.20300 41.59300
O  35.81400 58.75300 41.41300
C  34.60100 60.51000 42.40800
N  29.13000 59.34400 42.55900
C  30.21300 60.21600 42.64800
C  29.76700 61.58600 43.12200
C  28.34800 61.27600 43.77200
C  28.03700 59.90600 43.07100
C  30.83500 62.38000 43.99400
C  27.22600 62.41000 43.66600
C  27.40000 63.62400 42.66500
N  27.21600 57.25300 41.94500
C  26.33200 58.09200 42.59300
C  25.00900 57.48600 42.58800
C  25.10100 56.30100 41.79100
C  26.52400 56.25800 41.42600
C  23.78800 58.02500 43.22100
C  24.39800 55.17000 41.23600
O  23.28900 54.74700 41.40000
C  25.50000 54.38700 40.36500
C  25.60100 52.99400 40.90000
O  26.27400 52.54400 41.84600
O  24.70600 52.17700 40.19500
C  25.02200 50.79700 40.04700
H  32.28500 54.93400 39.62700
H  32.16900 60.69800 42.42300
H  26.08000 59.94000 43.78400
H  27.97500 52.70100 39.51000
H  30.27500 53.61400 38.18800
H  29.87100 51.74800 40.35600
H  31.15700 52.86900 40.81500
H  31.18900 51.82600 39.32500
H  28.63100 54.45300 37.14300
H  27.07800 54.94400 37.88000
H  26.24300 52.85200 36.75200
H  27.56600 52.03900 37.43400
H  35.36900 57.05400 39.45300
H  34.35900 55.79900 39.17200
H  35.07800 55.72800 40.70900
H  34.12100 61.24800 41.76600
H  35.61400 60.87800 42.57000
H  34.08000 60.39400 43.35800
H  29.57000 62.14100 42.20500
H  28.56700 61.05000 44.81600
H  30.76600 63.37800 43.56300
H  31.89600 62.13600 44.04500
H  30.49900 62.51000 45.02300
H  26.91300 62.83300 44.62100
H  26.33500 61.87900 43.33200
H  28.44900 63.85300 42.47300
H  26.93800 64.47100 43.17200
H  26.88700 63.37600 41.73600
H  23.67500 57.28000 44.00800
H  22.96000 58.04500 42.51300
H  23.98900 59.03400 43.58200
H  25.16600 54.40900 39.32700
H  26.07900 50.57700 39.90100
H  24.36400 50.27300 39.35300
H  24.77600 50.33900 41.00400
Mg 17.11200 50.99400 26.56000
C  19.12200 49.67300 29.04400
C  14.82000 51.94100 28.85500
C  15.32100 52.29600 24.00800
C  19.42600 49.69000 24.27500
N  16.94400 50.76200 28.65600
C  17.93400 50.29500 29.50100
C  17.60200 50.56300 30.96600
C  16.05900 50.95100 30.86200
C  15.91800 51.29600 29.36700
C  15.04700 49.88200 31.34900
C  18.55200 51.65000 31.55100
C  18.91700 51.44200 33.02700
H  17.88300 50.76800 33.99000
N  15.37500 52.04100 26.39800
C  14.58100 52.32500 27.46800
C  13.38700 53.12800 27.04500
C  13.57300 53.25700 25.66900
C  14.76900 52.48300 25.25000
C  12.42800 53.61300 28.00300
C  12.72300 54.00600 24.72200
O  13.00400 54.25700 23.59200
C  11.34700 54.42000 25.07700
N  17.31200 50.90600 24.50700
C  16.47600 51.59500 23.66400
C  16.80600 51.35600 22.19900
C  18.18100 50.70100 22.22400
C  18.35400 50.37000 23.73300
C  15.82000 50.61600 21.32100
C  19.26600 51.55100 21.55100
C  20.19600 52.42500 22.45300
N  18.84600 49.88200 26.59600
C  19.67900 49.44300 25.61400
C  20.85600 48.73200 26.14700
C  20.64000 48.80400 27.50800
C  19.48300 49.57200 27.72000
C  21.82000 48.02400 25.28300
C  21.22100 48.41500 28.68600
O  22.27900 47.83200 28.86600
C  20.27300 48.93000 29.79600
C  19.86900 47.78100 30.65100
O  19.26400 46.83100 30.14900
O  20.07700 48.01900 31.99900
C  19.48700 46.96500 32.86100
H  14.14400 52.43800 29.55300
H  14.67400 52.65800 23.20600
H  20.26300 49.33100 23.67100
H  17.63200 49.61700 31.50500
H  15.78100 51.86800 31.38200
H  14.53100 49.41000 30.51200
H  14.36200 50.32100 32.07500
H  15.56900 49.03200 31.78700
H  18.06600 52.60900 31.37400
H  19.50700 51.82400 31.05600
H  19.11200 52.39000 33.52800
H  19.91500 51.00800 33.09400
H  11.93100 54.49500 27.59900
H  12.89200 53.91300 28.94200
H  11.75500 52.78100 28.21100
H  11.35100 55.46700 25.38100
H  10.94800 53.81300 25.89000
H  10.72700 54.38700 24.18100
H  16.96500 52.33700 21.75000
H  18.18600 49.76400 21.66700
H  14.99600 50.22700 21.92000
H  16.22800 49.80400 20.71900
H  15.36800 51.30100 20.60300
H  18.87400 51.89900 20.59500
H  19.99300 50.76100 21.36600
H  19.82200 52.50100 23.47400
H  20.27600 53.45400 22.10100
H  21.23300 52.09900 22.53400
H  22.24600 47.11600 25.71000
H  22.58200 48.71800 24.93000
H  21.18100 47.65300 24.48100
H  20.75700 49.65600 30.44900
H  18.43500 46.91900 32.57900
H  19.49800 47.39900 33.86100
H  19.99700 46.00200 32.85700

