158

Mg 42.29900 41.62200 25.76800
C  41.26200 43.90800 28.18400
C  43.51200 39.68900 28.34500
C  43.55100 39.50000 23.44100
C  41.64900 44.05100 23.25800
N  42.20900 41.67600 28.02900
C  41.72500 42.70500 28.81800
C  41.91300 42.44600 30.35000
C  42.95200 41.27000 30.23700
C  42.89800 40.84500 28.82500
C  44.38700 41.70800 30.68900
C  40.58500 42.18700 31.05600
C  40.33400 43.00400 32.35900
H  41.27600 42.74300 33.51100
N  43.21000 39.82600 25.89000
C  43.65000 39.21000 27.01400
C  44.41700 38.03700 26.63900
C  44.34600 37.85600 25.23100
C  43.68800 39.10500 24.78900
C  45.17000 37.18600 27.65700
C  44.84500 36.71500 24.34700
O  44.88000 36.82000 23.09900
C  45.21800 35.33700 24.98700
N  42.50900 41.72900 23.62100
C  43.02000 40.68600 22.93400
C  42.93600 40.96600 21.43800
C  42.31400 42.38600 21.39800
C  42.13600 42.79300 22.84800
C  44.21400 40.79400 20.66100
C  40.93100 42.34200 20.79800
C  39.80800 41.55600 21.42000
N  41.51500 43.51300 25.66300
C  41.31400 44.43700 24.61000
C  40.86000 45.64000 25.13500
C  40.64800 45.49900 26.51800
C  41.21100 44.17800 26.82200
C  40.67600 46.96000 24.37800
C  40.31000 46.15800 27.73700
O  39.85200 47.31100 27.90900
C  40.72900 45.13800 28.88000
C  41.66900 45.75600 29.85500
O  42.86700 45.68900 29.86500
O  40.87100 46.34000 30.82000
C  41.75600 46.86800 31.93200
H  44.06200 39.11600 29.09400
H  44.04400 38.92400 22.65500
H  41.51700 44.84800 22.52400
H  42.34600 43.26500 30.92400
H  42.61600 40.48800 30.91900
H  45.03800 41.70500 29.81400
H  44.67900 40.93700 31.40300
H  44.43900 42.68100 31.17700
H  40.48700 41.12600 31.28900
H  39.78200 42.55500 30.41700
H  39.31600 42.74000 32.64300
H  40.28300 44.08100 32.20000
H  44.45300 36.43900 27.99800
H  45.57800 37.80500 28.45500
H  46.01300 36.66100 27.20800
H  44.56300 35.12900 25.83400
H  46.28500 35.37800 25.20700
H  44.98700 34.53900 24.28200
H  42.29800 40.19400 21.00800
H  42.89700 43.21700 21.00000
H  44.93400 41.58600 20.86400
H  44.00900 40.83300 19.59100
H  44.60500 39.80900 20.91800
H  41.06500 42.04500 19.75800
H  40.46800 43.32800 20.77000
H  39.46000 40.77200 20.74800
H  38.94200 42.20400 21.55900
H  40.11300 41.16500 22.39100
H  40.45700 47.76300 25.08200
H  39.78000 47.01300 23.76000
H  41.55300 47.09500 23.74500
H  39.80100 44.88000 29.38900
H  41.99000 45.89500 32.36400
H  41.08100 47.36900 32.62600
H  42.49100 47.54700 31.49900
Mg 6.60000 53.61000 41.81800
C  6.02400 50.14800 41.44800
C  9.58300 53.17900 40.26100
C  6.87700 56.96000 41.80900
C  3.27500 53.84700 43.16700
N  7.51300 51.93800 40.74400
C  7.24600 50.62000 40.87200
C  8.27300 49.70700 40.11300
C  9.53000 50.53900 40.08200
C  8.86900 52.02200 40.36600
C  10.69600 50.22000 41.18500
C  7.86700 49.31500 38.62100
C  6.89600 50.18800 37.92600
H  6.24300 49.51000 36.72500
N  8.08200 54.89000 41.11700
C  9.24900 54.52900 40.45100
C  10.00800 55.79100 40.16200
C  9.22200 56.89400 40.54300
C  8.00800 56.27500 41.22700
C  11.39900 55.74800 39.60400
C  9.52400 58.35600 40.36000
O  10.54800 58.71800 39.83400
C  8.68100 59.46600 40.92000
N  5.30700 55.15800 42.43100
C  5.71700 56.47300 42.43700
C  4.54700 57.31000 42.94300
C  3.53700 56.35600 43.51400
C  4.02200 55.00900 43.00000
C  4.92900 58.58200 43.79700
C  2.11200 56.65200 43.18900
C  1.02400 56.48200 44.29400
N  5.00000 52.37200 42.37900
C  3.72900 52.58900 42.91600
C  3.00200 51.32200 43.11100
C  3.96000 50.34100 42.66500
C  5.08200 50.99600 42.14200
C  1.61100 51.09400 43.52700
C  4.06200 48.92900 42.45900
O  3.30600 48.01300 42.85000
C  5.40100 48.68200 41.62400
C  5.04700 48.03200 40.39200
O  4.40600 48.53600 39.45500
O  5.43900 46.67400 40.42200
C  5.33300 45.90500 39.14000
H  10.63900 53.00200 40.04600
H  6.96000 58.02700 42.02600
H  2.35000 53.86600 43.74700
H  8.41200 48.82300 40.73600
H  10.14900 50.46600 39.18700
H  10.53200 50.90000 42.02100
H  11.58900 50.49000 40.62100
H  10.80100 49.16100 41.41900
H  7.38000 48.35200 38.77600
H  8.76300 49.28400 38.00200
H  7.33100 51.16500 37.71400
H  6.15600 50.41500 38.69300
H  11.55300 56.32200 38.69100
H  11.73900 54.71400 39.54300
H  12.01300 56.23300 40.36300
H  7.73700 59.39200 40.38000
H  9.21100 60.41500 40.83800
H  8.53500 59.35500 41.99400
H  4.13500 57.66000 41.99600
H  3.75100 56.21500 44.57400
H  4.33400 58.48000 44.70400
H  4.65200 59.51800 43.31100
H  5.95700 58.66400 44.15200
H  1.75900 56.16900 42.27700
H  2.14900 57.73800 43.10000
H  1.44700 56.31600 45.28500
H  0.34000 55.64000 44.19300
H  0.47800 57.41800 44.41000
H  1.32700 51.99400 44.07300
H  1.51800 50.21300 44.16200
H  1.09000 51.01300 42.57300
H  6.05900 48.03300 42.20200
H  5.72800 44.90300 39.30600
H  5.99300 46.31700 38.37600
H  4.31500 45.89000 38.75100

