158

Mg 26.16100 1.37600 29.37800
C  27.98700 0.94700 32.35800
C  23.24400 1.80900 31.26800
C  24.47500 1.51900 26.59100
C  29.22900 0.69100 27.67500
N  25.72300 1.37500 31.56300
C  26.63700 1.30700 32.58700
C  25.93100 1.55700 33.92900
C  24.40700 1.64500 33.56600
C  24.43300 1.57400 32.04400
C  23.55900 0.53100 34.15400
C  26.48900 2.83100 34.74200
C  26.72500 2.54400 36.22500
H  26.47600 3.53600 37.35300
N  24.13300 1.53900 29.00000
C  23.13200 1.78000 29.88800
C  21.87300 1.99200 29.12400
C  22.19300 1.89800 27.70600
C  23.67800 1.65800 27.70200
C  20.52300 2.11100 29.76400
C  21.31500 1.91900 26.45800
O  21.76700 2.02300 25.30600
C  19.71000 1.91300 26.46500
N  26.78300 1.27300 27.46500
C  25.84100 1.28100 26.44300
C  26.55000 1.03600 25.00800
C  28.07000 1.10500 25.39500
C  28.03800 0.97700 26.91500
C  26.16100 -0.36900 24.38700
C  28.86400 2.41700 24.95900
C  30.01100 2.37900 23.94700
N  28.14900 0.87000 29.83700
C  29.33200 0.62900 29.05700
C  30.46100 0.31700 29.96700
C  29.95000 0.46600 31.27800
C  28.53500 0.74700 31.15600
C  31.81400 0.05000 29.51200
C  30.41600 0.39200 32.64300
O  31.51200 0.09500 33.10700
C  29.16500 0.82300 33.36400
C  28.82800 -0.34400 34.25000
O  28.14600 -1.34500 33.96800
O  29.42100 -0.10100 35.50300
C  29.43400 -1.31100 36.39900
H  22.43000 2.00300 31.97000
H  23.99300 1.43600 25.61400
H  30.09200 0.64500 27.00800
H  26.17200 0.68700 34.54000
H  23.84000 2.54100 33.82100
H  23.21000 -0.23400 33.46000
H  22.74000 0.98300 34.71300
H  24.10100 -0.03900 34.90800
H  25.80300 3.67700 34.70900
H  27.39800 3.21100 34.27500
H  27.76600 2.22000 36.22000
H  26.20900 1.60400 36.41800
H  19.99000 1.16700 29.65300
H  19.94800 2.96300 29.40300
H  20.71000 2.26900 30.82600
H  19.19200 1.25700 27.16500
H  19.32900 1.64000 25.48100
H  19.32600 2.93100 26.53000
H  26.21700 1.69600 24.20700
H  28.54500 0.17600 25.08100
H  25.57200 -0.93800 25.10600
H  27.06700 -0.92800 24.15500
H  25.55300 -0.28900 23.48600
H  29.20700 2.73700 25.94300
H  28.09500 3.14200 24.69400
H  30.90500 2.84900 24.35600
H  29.68800 2.82000 23.00400
H  30.25700 1.32200 23.84200
H  32.01400 0.47800 28.52900
H  31.98100 -1.02700 29.46400
H  32.54100 0.44300 30.22200
H  29.35400 1.60900 34.09500
H  29.80400 -2.22800 35.94100
H  28.46500 -1.38600 36.89300
H  30.13700 -0.98600 37.16600
Mg 53.16500 24.27700 44.83600
C  50.73400 26.55500 43.77800
C  51.08000 21.78300 43.40800
C  55.67900 22.13300 45.09600
C  55.04200 26.83400 46.11400
N  51.19500 24.24400 43.65100
C  50.47900 25.30900 43.29500
C  49.21900 24.91800 42.51000
C  49.19800 23.34300 42.81500
C  50.64900 23.11200 43.22400
C  48.29700 22.89500 44.03300
C  49.28500 25.27700 40.91000
C  50.71700 25.45900 40.29200
H  50.77500 26.07200 38.90900
N  53.40800 22.23900 44.35000
C  52.32100 21.34300 43.90200
C  52.81000 20.02800 44.03200
C  54.15600 20.09000 44.48000
C  54.52100 21.47000 44.60800
C  52.09300 18.82800 43.44800
C  54.98200 18.86700 44.77700
O  54.54300 17.75400 44.57200
C  56.42100 18.92100 45.35900
N  55.18700 24.50000 45.42900
C  56.04700 23.44600 45.46200
C  57.51400 23.92700 45.75900
C  57.14300 25.38100 46.33300
C  55.70100 25.66200 45.91900
C  58.29000 23.00900 46.73200
C  58.08400 26.53100 45.84200
C  57.85600 27.29800 44.51100
N  52.94100 26.29300 44.97800
C  53.72500 27.18300 45.66700
C  53.07700 28.51900 45.67100
C  51.85500 28.30600 44.97100
C  51.82700 26.95500 44.53100
C  53.60600 29.81800 46.31700
C  50.65200 28.92500 44.50800
O  50.25200 30.08200 44.67700
C  49.90600 27.81300 43.75800
C  49.64100 28.16600 42.32300
O  50.50700 28.32900 41.48800
O  48.28800 28.27700 42.15100
C  47.89500 28.93700 40.90500
H  50.37700 20.97700 43.18900
H  56.51500 21.43700 45.20000
H  55.62000 27.66600 46.52300
H  48.29600 25.39500 42.84200
H  49.06600 22.71000 41.93700
H  47.58900 23.68800 44.27500
H  48.94800 22.66600 44.87600
H  47.66800 22.04200 43.77600
H  48.69400 26.16600 40.69000
H  48.90600 24.53000 40.21300
H  51.19200 24.48100 40.36000
H  51.24200 26.13800 40.96400
H  52.70600 18.23700 42.76700
H  51.25600 19.10100 42.80500
H  51.70500 18.14700 44.20600
H  56.85700 17.92600 45.44500
H  56.27000 19.33800 46.35500
H  56.98600 19.61400 44.73600
H  57.99900 23.98100 44.78400
H  57.13600 25.32200 47.42100
H  59.01100 23.64300 47.24900
H  58.88900 22.24400 46.23900
H  57.58500 22.50900 47.39600
H  59.10500 26.15400 45.79300
H  58.06500 27.20000 46.70200
H  57.82300 28.36800 44.71800
H  56.96100 27.01900 43.95500
H  58.72700 27.14500 43.87300
H  53.24600 29.72900 47.34200
H  53.19000 30.68900 45.81100
H  54.68100 29.86200 46.14400
H  49.03300 27.57600 44.36700
H  48.16800 28.23200 40.12000
H  48.25900 29.96100 40.83000
H  46.80500 28.96200 40.89700

