158

Mg 49.54700 34.74100 26.80900
C  47.44200 33.28200 29.28900
C  49.29500 37.65400 28.52300
C  51.05500 36.10800 24.28700
C  48.97600 31.86200 24.81400
N  48.60300 35.31400 28.86200
C  47.75400 34.55900 29.58800
C  47.25300 35.36300 30.85600
C  47.77400 36.86600 30.48100
C  48.60900 36.59900 29.22500
C  46.67800 37.89000 30.22000
C  47.76900 34.89700 32.24900
C  46.74100 34.98300 33.45300
H  47.26000 35.78500 34.63700
N  50.29700 36.46900 26.55900
C  50.10300 37.60000 27.34400
C  50.82700 38.77600 26.77900
C  51.49300 38.27200 25.59100
C  50.96700 36.89500 25.45900
C  50.91000 40.10900 27.45000
C  52.43900 38.98700 24.65600
O  52.69000 38.41500 23.60100
C  53.24100 40.25600 24.97300
N  49.98000 34.05500 24.86300
C  50.67300 34.80300 24.04000
C  50.98700 34.13500 22.68000
C  50.31100 32.75600 22.81800
C  49.68200 32.89200 24.22900
C  50.44800 35.03000 21.50600
C  51.20000 31.50900 22.50800
C  51.58200 31.27300 21.04500
N  48.57900 32.83000 26.97000
C  48.36800 31.76200 26.05200
C  47.61700 30.70200 26.66900
C  47.22500 31.28200 27.89700
C  47.80100 32.58300 28.04700
C  47.07800 29.31700 26.11600
C  46.32900 31.05200 29.04700
O  45.55600 30.13800 29.32000
C  46.46400 32.35700 29.99000
C  46.93500 31.81300 31.31800
O  48.07700 31.40900 31.53600
O  45.89000 31.74300 32.23100
C  46.22500 31.15700 33.58400
H  49.14000 38.66500 28.90600
H  51.63000 36.53900 23.46600
H  48.75000 30.98300 24.20600
H  46.16400 35.35300 30.81900
H  48.41600 37.30700 31.24300
H  46.87300 38.83800 30.72300
H  45.70000 37.68700 30.65600
H  46.60900 38.05900 29.14600
H  48.45400 35.61600 32.69800
H  48.17200 33.88500 32.21100
H  46.50800 34.03600 33.94000
H  45.80400 35.44500 33.14100
H  51.47300 40.02000 28.37900
H  49.89300 40.48800 27.54500
H  51.46000 40.85300 26.87300
H  52.76100 41.18300 24.65800
H  54.27000 40.22800 24.61600
H  53.36600 40.17100 26.05300
H  52.05900 33.94100 22.71900
H  49.49800 32.74000 22.09200
H  49.79000 34.44100 20.86600
H  51.23100 35.44600 20.87200
H  49.88600 35.80100 22.03300
H  50.66700 30.64900 22.91300
H  52.08800 31.68400 23.11600
H  51.04300 31.94600 20.37800
H  51.46800 30.25100 20.68500
H  52.63800 31.51400 20.92600
H  46.83600 28.63200 26.92900
H  47.97100 28.81600 25.74500
H  46.36400 29.39400 25.29600
H  45.50900 32.85900 30.14500
H  45.45600 31.04400 34.34900
H  46.90200 31.92500 33.95800
H  46.70100 30.19100 33.41900
Mg 5.53600 53.66200 41.31100
C  5.17800 50.12000 40.95700
C  8.79300 53.25800 40.28300
C  5.55100 56.76400 40.95600
C  1.98400 53.59500 41.94300
N  6.79000 51.92800 40.76100
C  6.52200 50.60500 40.59400
C  7.61900 49.80500 39.84700
C  8.81700 50.71900 40.09500
C  8.13500 52.07300 40.43400
C  9.85800 50.27300 41.15000
C  7.33600 49.45900 38.34900
C  6.51700 50.43500 37.48300
H  7.39700 51.22500 36.42600
N  7.03100 54.87500 40.77000
C  8.29100 54.55500 40.34800
C  9.00300 55.70900 40.01400
C  8.07900 56.85400 40.16100
C  6.80600 56.19800 40.61100
C  10.41700 55.62800 39.42800
C  8.40700 58.33600 39.75300
O  9.54500 58.67100 39.55600
C  7.33500 59.30100 39.68600
N  3.94600 54.93900 41.21900
C  4.27200 56.27800 41.20900
C  3.12200 57.20000 41.60100
C  1.94700 56.15600 41.75000
C  2.61500 54.78500 41.63200
C  3.27200 58.18900 42.84300
C  0.86600 56.38600 40.67400
C  -0.51500 56.01800 41.29600
N  3.94600 52.18800 41.57400
C  2.60100 52.37400 41.88300
C  2.05700 51.03200 42.17600
C  3.00800 50.19900 41.78900
C  4.14200 50.89800 41.34100
C  0.71900 50.66300 42.69600
C  3.25900 48.79900 41.57600
O  2.50000 47.82800 41.76700
C  4.70400 48.70300 41.09300
C  4.59200 47.92500 39.87600
O  3.81100 48.28000 38.95000
O  5.11800 46.62600 39.93200
C  4.68400 45.74300 38.81200
H  9.86800 53.25400 40.08800
H  5.56800 57.85400 40.90200
H  0.96300 53.86800 42.21800
H  7.79100 48.84400 40.33200
H  9.42900 50.87800 39.20700
H  9.36100 50.34700 42.11700
H  10.75600 50.88100 41.03800
H  10.08300 49.22500 40.95300
H  6.76800 48.53300 38.44900
H  8.30200 49.24300 37.89300
H  5.86400 51.16500 37.96000
H  5.88200 49.72000 36.95900
H  10.44400 55.59500 38.33900
H  10.98300 54.78100 39.81700
H  10.94300 56.53000 39.74100
H  7.76600 60.12400 39.11500
H  7.07500 59.63000 40.69200
H  6.49300 58.86200 39.15100
H  2.93300 57.88300 40.77300
H  1.50000 56.15900 42.74400
H  4.28200 58.20500 43.25400
H  2.62400 57.89000 43.66800
H  3.03900 59.16300 42.41400
H  0.99500 55.61300 39.91600
H  0.88600 57.36800 40.20100
H  -1.26300 56.80900 41.25800
H  -0.51600 55.60700 42.30600
H  -0.87500 55.16600 40.71900
H  0.14900 50.07600 41.97600
H  0.25000 51.53000 43.16100
H  0.99100 49.95800 43.48100
H  5.43200 48.30000 41.79700
H  4.84700 46.21200 37.84200
H  3.61200 45.55400 38.85700
H  5.29700 44.84100 38.81800

