158

Mg 17.18700 50.42900 26.24800
C  19.07500 49.05100 28.85500
C  14.90100 51.47500 28.46900
C  15.64000 51.65800 23.64000
C  19.65200 48.96600 23.94200
N  17.08700 50.31500 28.40000
C  17.94900 49.80300 29.28900
C  17.55300 50.11500 30.77300
C  15.96700 50.26600 30.60800
C  15.89200 50.70000 29.11700
C  15.11600 49.13000 31.13300
C  18.15800 51.44900 31.26400
C  18.43300 51.37800 32.72900
H  17.49400 50.76600 33.63900
N  15.56800 51.52200 26.05200
C  14.75400 51.90500 27.08100
C  13.67600 52.78900 26.54300
C  13.95700 52.97900 25.15500
C  15.12200 52.01100 24.89100
C  12.63600 53.47900 27.48100
C  13.24200 53.86300 24.10600
O  13.58800 53.91500 22.92900
C  12.20800 54.90400 24.52200
N  17.55200 50.24300 24.12800
C  16.68800 50.82900 23.26500
C  16.93700 50.41900 21.78600
C  18.39800 49.92400 21.89600
C  18.50900 49.67300 23.40700
C  15.87300 49.40500 21.37800
C  19.41200 50.90600 21.29800
C  20.45000 50.23300 20.36500
N  18.99300 49.18900 26.29300
C  19.85900 48.71700 25.34200
C  20.91400 47.96100 25.99200
C  20.63400 48.06400 27.35000
C  19.50700 48.84400 27.49400
C  22.03300 47.21700 25.26600
C  21.07600 47.68000 28.67100
O  22.05700 46.96300 28.99200
C  20.05700 48.40700 29.76200
C  19.44000 47.35100 30.57100
O  18.40800 46.77400 30.25600
O  19.86000 47.35000 31.87700
C  19.14200 46.53000 32.90600
H  14.11600 51.89700 29.10000
H  14.90700 51.91100 22.87100
H  20.43300 48.60700 23.26900
H  17.82400 49.25800 31.38900
H  15.60300 51.17200 31.09200
H  14.21900 49.51700 31.61500
H  15.69800 48.55500 31.85400
H  14.82700 48.39300 30.38400
H  17.44800 52.25300 31.06900
H  19.10800 51.67100 30.77900
H  18.82800 52.36100 32.98700
H  19.41500 50.92200 32.84900
H  12.41900 54.51000 27.20400
H  12.88900 53.54300 28.54000
H  11.64500 53.04100 27.36800
H  11.86300 55.36500 23.59700
H  12.64200 55.58100 25.25700
H  11.37400 54.30500 24.88800
H  16.75200 51.25400 21.10900
H  18.43800 48.95400 21.39900
H  15.03800 49.93500 20.92000
H  15.51600 48.87400 22.26100
H  16.26400 48.54900 20.82800
H  19.85800 51.47200 22.11600
H  18.85500 51.59100 20.65900
H  21.40800 50.72200 20.53900
H  20.19300 50.69500 19.41100
H  20.51000 49.15300 20.23500
H  22.34900 47.62800 24.30700
H  21.73800 46.25800 24.84200
H  22.91500 47.03000 25.87900
H  20.69900 49.11600 30.28400
H  19.72700 45.70000 33.30000
H  18.15500 46.18000 32.60400
H  19.13100 47.13600 33.81200
Mg 10.21900 47.16300 25.45600
C  8.04700 47.50500 28.27000
C  12.73200 48.33000 27.48200
C  12.34700 46.48200 22.98200
C  7.45900 46.50900 23.50900
N  10.33200 48.02700 27.62800
C  9.41000 47.85800 28.59800
C  9.87200 48.38800 29.95700
C  11.29500 48.97300 29.60200
C  11.51300 48.43200 28.13900
C  11.30900 50.46900 29.64100
C  9.95400 47.27000 31.03800
C  10.74500 47.66600 32.25100
H  10.00900 47.88600 33.58400
N  12.32700 47.39200 25.20300
C  13.17900 47.79400 26.18700
C  14.52400 47.54600 25.72400
C  14.40300 46.90800 24.43400
C  13.01500 46.87500 24.13200
C  15.82300 47.78200 26.65700
C  15.49300 46.43900 23.47800
O  15.33900 45.90700 22.41500
C  16.94000 46.64100 23.77400
N  9.87200 46.73100 23.53600
C  10.94100 46.34700 22.71600
C  10.43300 45.89600 21.31900
C  8.86800 45.96600 21.49500
C  8.68900 46.28200 22.93900
C  11.04000 46.79900 20.12300
C  8.08300 44.78600 21.02300
C  7.23400 45.04500 19.76900
N  8.11400 47.17000 25.73100
C  7.09000 46.86100 24.86700
C  5.80900 46.95100 25.55300
C  6.16500 47.05100 26.88100
C  7.57100 47.22900 26.95800
C  4.52600 46.73200 24.99600
C  5.59700 47.05500 28.20000
O  4.43200 46.82200 28.61500
C  6.85000 47.20600 29.17600
C  7.07500 45.91200 29.93500
O  7.88500 45.03100 29.76200
O  6.17100 45.93600 31.00800
C  6.31200 44.86500 32.01000
H  13.49700 48.69600 28.17000
H  12.98900 46.33000 22.11200
H  6.61700 46.27800 22.85300
H  9.17100 49.11100 30.37400
H  12.11200 48.49400 30.14200
H  12.36900 50.72100 29.67600
H  10.76800 50.73200 30.55000
H  10.79600 50.82600 28.74900
H  10.39100 46.40100 30.54700
H  8.94100 47.09300 31.39800
H  11.47900 48.46200 32.11900
H  11.32700 46.77300 32.47700
H  16.43100 46.88200 26.56200
H  15.55200 47.86500 27.70900
H  16.28400 48.73200 26.38600
H  17.48000 46.76800 22.83500
H  17.12300 45.77000 24.40300
H  17.06900 47.52300 24.40200
H  10.69700 44.84100 21.24200
H  8.55000 46.91700 21.06700
H  10.21700 47.17800 19.51700
H  11.59900 46.16900 19.43100
H  11.63600 47.63400 20.49300
H  7.52700 44.30100 21.82500
H  8.82000 44.09400 20.61400
H  7.33900 46.06600 19.40200
H  6.22600 44.74800 20.05800
H  7.59600 44.39400 18.97300
H  4.63200 46.45400 23.94800
H  3.97800 47.67100 25.07300
H  3.93500 46.05200 25.61000
H  6.71400 48.02300 29.88400
H  6.91600 44.01900 31.68000
H  5.35600 44.40900 32.26700
H  6.66000 45.19100 32.99000

