158

Mg 3.03300 -0.92600 42.92500
C  6.49400 -0.34100 42.49300
C  2.32200 1.87500 41.11100
C  -0.28400 -1.98600 42.59800
C  3.87400 -4.15900 44.29500
N  4.30100 0.51000 41.85400
C  5.67500 0.60000 41.82200
C  6.14800 1.94600 41.15700
C  4.79300 2.61600 40.79500
C  3.71900 1.63600 41.25300
C  4.67700 4.10700 41.19300
C  7.03400 1.66500 39.96900
C  6.49800 0.74400 38.85700
H  6.23900 1.25400 37.40100
N  1.35600 -0.07300 42.20200
C  1.23000 1.13000 41.62100
C  -0.19800 1.54000 41.60000
C  -0.96900 0.46300 41.96100
C  0.04100 -0.62100 42.25700
C  -0.63700 2.89000 41.05200
C  -2.52600 0.43400 42.04400
O  -3.27700 1.35800 41.64400
C  -3.23800 -0.78100 42.66900
N  2.00800 -2.82500 43.33100
C  0.57100 -2.93000 43.11700
C  0.09000 -4.36500 43.50900
C  1.34400 -4.98600 44.15100
C  2.50600 -3.96400 43.92200
C  -1.21500 -4.44000 44.42000
C  1.57300 -6.47400 43.66200
C  1.45900 -7.58400 44.72600
N  4.72900 -2.00600 43.40500
C  4.89100 -3.25900 43.98600
C  6.27500 -3.41200 44.30400
C  6.92500 -2.33800 43.75300
C  5.94700 -1.52000 43.17300
C  6.93800 -4.54600 45.07000
C  8.25900 -1.66200 43.65800
O  9.41900 -1.90100 44.02100
C  7.97400 -0.38300 42.72100
C  8.42100 0.90000 43.27000
O  9.14100 1.67800 42.71100
O  7.95100 1.08800 44.58700
C  8.32000 2.42900 45.14700
H  2.11900 2.87200 40.71600
H  -1.25600 -2.39600 42.31200
H  4.12900 -5.14500 44.68800
H  6.70800 2.53500 41.88400
H  4.63900 2.56000 39.71800
H  3.94400 4.25100 41.98700
H  4.30700 4.63600 40.31500
H  5.62800 4.53900 41.50500
H  7.95100 1.18800 40.31600
H  7.36200 2.63900 39.60800
H  5.54100 0.32800 39.17000
H  7.16200 -0.12100 38.84400
H  -1.17600 2.88100 40.10500
H  0.23600 3.54000 40.99200
H  -1.24200 3.33700 41.84100
H  -2.68300 -1.23600 43.48900
H  -3.27400 -1.49400 41.84400
H  -4.22300 -0.57500 43.08700
H  -0.18100 -4.84900 42.57100
H  1.14300 -5.00200 45.22200
H  -1.59600 -3.42800 44.56000
H  -0.96800 -4.86600 45.39200
H  -1.95900 -5.07600 43.94000
H  2.56100 -6.47400 43.20100
H  0.86100 -6.64800 42.85400
H  2.37800 -8.15200 44.86600
H  0.73700 -8.31900 44.37100
H  1.16700 -7.19800 45.70400
H  6.45100 -4.56000 46.04500
H  8.02300 -4.55300 45.16600
H  6.59300 -5.49900 44.66900
H  8.54000 -0.71300 41.85000
H  7.35300 2.91400 45.27800
H  8.78300 3.16400 44.48900
H  8.89000 2.35800 46.07300
Mg 41.70500 42.28800 27.51100
C  40.67900 44.73500 29.87900
C  42.05500 39.96000 29.93700
C  42.90800 40.32500 25.27800
C  41.63800 45.00600 25.17400
N  41.52200 42.39900 29.66900
C  40.93800 43.44700 30.36400
C  40.70900 42.93100 31.80600
C  41.23700 41.49800 31.86400
C  41.69900 41.28000 30.39800
C  42.29800 41.18200 32.89300
C  39.19800 43.07700 32.39800
C  38.78200 42.29600 33.66800
H  38.20000 43.05100 34.81600
N  42.38000 40.36400 27.60300
C  42.50100 39.48200 28.74500
C  42.93400 38.21600 28.29400
C  43.18100 38.29700 26.88700
C  42.86500 39.68100 26.52600
C  43.15600 37.09300 29.18500
C  43.77800 37.31600 25.91400
O  44.30000 37.60300 24.81500
C  43.89900 35.91000 26.26200
N  42.39000 42.71200 25.65100
C  42.60600 41.56600 24.91400
C  42.84200 42.00500 23.44200
C  42.23200 43.35700 23.37900
C  41.99400 43.70300 24.80900
C  44.26700 41.84000 22.94800
C  40.90000 43.48200 22.45700
C  39.83100 42.45800 22.66400
N  41.25800 44.48600 27.46900
C  41.24400 45.36100 26.47900
C  40.68600 46.62500 26.93300
C  40.47200 46.42500 28.23300
C  40.86800 45.11200 28.53800
C  40.21700 47.67000 25.97900
C  40.02400 47.13700 29.41400
O  39.62000 48.30000 29.51100
C  40.08100 46.01600 30.59900
C  40.88500 46.51100 31.64400
O  41.96500 46.99100 31.40700
O  40.25400 46.47600 32.91800
C  40.97600 46.72800 34.10900
H  42.03200 39.34900 30.84100
H  43.43000 39.82600 24.45800
H  41.53500 45.78700 24.41800
H  41.19800 43.58900 32.52500
H  40.38200 40.83500 31.99800
H  43.20600 40.68900 32.54400
H  42.12500 40.43100 33.66400
H  42.66000 42.09100 33.37400
H  38.50400 42.86200 31.58600
H  39.11200 44.10400 32.75400
H  39.61500 41.72700 34.08100
H  38.03700 41.55400 33.37700
H  43.21000 37.37300 30.23700
H  44.17800 36.75200 29.01900
H  42.36700 36.38100 28.94100
H  42.84600 35.63100 26.27100
H  44.45600 35.89400 27.19900
H  44.42900 35.27800 25.55000
H  42.33100 41.30200 22.78400
H  43.00800 44.02400 23.00200
H  44.21800 41.41600 21.94500
H  44.95000 41.26000 23.56800
H  44.66200 42.82400 22.69400
H  41.10600 43.45500 21.38700
H  40.27800 44.36500 22.60600
H  39.12900 42.89800 23.37200
H  40.19000 41.50500 23.05200
H  39.27200 42.31000 21.74000
H  39.59800 48.38700 26.51900
H  39.61700 47.21000 25.19300
H  41.10800 48.12700 25.54900
H  39.08600 45.97800 31.04200
H  41.49500 45.80900 34.37900
H  40.29900 47.17200 34.83800
H  41.71500 47.49900 33.89000

