158

Mg 17.67500 -1.72800 27.59000
C  16.53100 0.08100 30.45000
C  19.71800 -3.43600 29.69500
C  19.37700 -2.71300 24.80400
C  15.79400 0.46300 25.65700
N  18.13300 -1.53500 29.87500
C  17.42400 -0.86100 30.81700
C  17.91600 -1.20100 32.30400
C  19.01500 -2.29100 31.98600
C  18.94900 -2.45700 30.39200
C  20.36200 -2.01100 32.56600
C  16.70400 -1.60700 33.21800
C  16.60200 -0.92200 34.59900
H  17.80500 -0.26000 35.20400
N  19.12100 -3.03000 27.29000
C  19.81600 -3.70700 28.30900
C  20.67600 -4.73900 27.66900
C  20.61700 -4.45700 26.28100
C  19.64000 -3.33000 26.02600
C  21.28900 -5.90300 28.46900
C  21.62100 -5.12000 25.16900
O  21.42900 -4.80100 23.96300
C  22.63700 -6.04800 25.65400
N  17.62300 -1.15900 25.52900
C  18.43200 -1.71600 24.57900
C  18.13000 -1.16200 23.21400
C  16.83300 -0.36200 23.40600
C  16.70700 -0.30200 24.93300
C  19.34900 -0.40900 22.53900
C  15.52700 -1.00600 22.81600
C  14.49800 -0.03000 22.20700
N  16.29500 -0.17700 27.88700
C  15.65400 0.62000 27.01700
C  14.74500 1.53600 27.65700
C  15.12300 1.43400 29.03200
C  16.06500 0.32500 29.09700
C  13.87000 2.47500 26.97200
C  14.84300 1.89700 30.44600
O  13.98000 2.69700 30.87100
C  15.82300 1.09600 31.38000
C  16.71900 2.09600 31.94500
O  17.84600 2.41600 31.54200
O  15.98800 2.66600 32.93600
C  16.77700 3.67400 33.62300
H  20.35300 -4.03300 30.35200
H  20.06100 -2.93700 23.98300
H  15.27300 1.14900 24.98500
H  18.38600 -0.29300 32.68100
H  18.70900 -3.13500 32.60400
H  20.52800 -2.67800 33.41200
H  20.50800 -0.98000 32.88600
H  21.15500 -2.18000 31.83700
H  16.68000 -2.69600 33.23500
H  15.78900 -1.35200 32.68200
H  16.21000 -1.66000 35.29900
H  15.77000 -0.21800 34.61100
H  21.01100 -6.82600 27.96000
H  20.84500 -5.94400 29.46400
H  22.37300 -5.80000 28.51100
H  23.46600 -5.69700 26.26800
H  23.01900 -6.44600 24.71400
H  22.00800 -6.76900 26.17800
H  17.79100 -2.01900 22.63200
H  16.88300 0.63500 22.96800
H  20.28300 -0.54000 23.08600
H  19.14200 0.66000 22.58300
H  19.40200 -0.66600 21.48100
H  15.07100 -1.51400 23.66600
H  15.68800 -1.77100 22.05600
H  14.40900 -0.08500 21.12200
H  14.64100 1.02200 22.45200
H  13.53800 -0.28300 22.65600
H  13.18900 1.91900 26.32800
H  14.48400 3.14200 26.36600
H  13.26100 3.04700 27.67300
H  15.22100 0.69500 32.19600
H  16.91500 4.47200 32.89400
H  17.63400 3.19500 34.09700
H  16.20100 4.02900 34.47700
Mg -10.35700 38.33900 40.61000
C  -8.21800 35.61600 39.89800
C  -8.01200 40.38600 39.01100
C  -12.47500 40.96200 40.68500
C  -12.79300 36.18200 41.45800
N  -8.41800 37.88200 39.37000
C  -7.68300 36.76400 39.39000
C  -6.42500 36.93400 38.49300
C  -6.25600 38.52700 38.64200
C  -7.67700 38.99500 39.02200
C  -5.03200 39.08100 39.38000
C  -6.63900 36.50100 36.95700
C  -5.64700 35.67200 36.21100
H  -5.32100 36.13400 34.81900
N  -10.19400 40.42100 40.09000
C  -9.14300 41.02500 39.46500
C  -9.36200 42.44500 39.57800
C  -10.63600 42.67800 40.14100
C  -11.17600 41.35900 40.40200
C  -8.49200 43.43000 39.12000
C  -11.37400 44.06700 40.21900
O  -10.78700 45.05300 39.78800
C  -12.70000 44.20400 40.71100
N  -12.32700 38.56000 40.97200
C  -13.00200 39.71500 40.97000
C  -14.49100 39.58100 41.27000
C  -14.56900 38.05300 41.54200
C  -13.16400 37.56500 41.23200
C  -15.00300 40.52400 42.36800
C  -15.67500 37.35600 40.66300
C  -16.78500 36.69900 41.49800
N  -10.54000 36.27400 40.71400
C  -11.54400 35.54500 41.11800
C  -11.09600 34.17400 41.32300
C  -9.79500 34.12700 40.81100
C  -9.51600 35.43300 40.39300
C  -11.82800 33.12300 42.04000
C  -8.62500 33.35800 40.55500
O  -8.48000 32.15700 40.59100
C  -7.62900 34.24700 39.80900
C  -6.25800 34.14000 40.43700
O  -5.34300 33.49600 39.89200
O  -6.12200 35.04300 41.50400
C  -4.97300 34.87100 42.43900
H  -7.19700 40.97000 38.57900
H  -13.17500 41.79400 40.57800
H  -13.63000 35.63700 41.90100
H  -5.54800 36.42400 38.88900
H  -6.16400 38.87400 37.61300
H  -4.31000 39.23100 38.57800
H  -4.63500 38.38400 40.11700
H  -5.21000 40.03000 39.88600
H  -6.94100 37.38900 36.40300
H  -7.51900 35.86000 36.90000
H  -5.99800 34.64000 36.22800
H  -4.64900 35.59500 36.64200
H  -8.76900 43.92700 38.19100
H  -7.46700 43.06900 39.03600
H  -8.26800 44.19700 39.86100
H  -12.84100 45.22900 41.05200
H  -12.76400 43.62200 41.63100
H  -13.48000 44.00800 39.97600
H  -15.11700 39.74800 40.39400
H  -14.87200 37.90100 42.57800
H  -15.71300 41.22500 41.92900
H  -14.16000 40.92500 42.93000
H  -15.50500 39.92900 43.13100
H  -15.22900 36.47200 40.20900
H  -16.14700 38.04800 39.96500
H  -16.57900 35.62900 41.51900
H  -17.77200 36.93200 41.09900
H  -16.80100 36.96600 42.55500
H  -11.86600 32.18700 41.48300
H  -12.84500 33.47900 42.20500
H  -11.39700 33.02000 43.03500
H  -7.62000 33.82100 38.80600
H  -5.29800 34.81500 43.47800
H  -4.34700 35.75200 42.29400
H  -4.31400 34.00300 42.40500

