158

Mg 9.01700 48.93800 25.88200
C  6.97300 49.05500 28.80100
C  11.76300 49.48400 27.81600
C  10.79700 48.18100 23.16400
C  6.10700 48.38300 23.91600
N  9.28200 49.32800 28.02700
C  8.37500 49.20800 29.08800
C  9.07300 49.19700 30.47100
C  10.50400 49.69200 30.06300
C  10.54600 49.47900 28.48800
C  10.67300 51.19400 30.41100
C  9.11000 47.89700 31.41100
C  8.45400 48.14900 32.80500
H  8.62000 47.06100 33.89500
N  11.04800 48.85800 25.58300
C  12.02900 49.19500 26.46300
C  13.30100 49.14000 25.74300
C  13.05700 48.65900 24.45500
C  11.56300 48.61200 24.33100
C  14.62000 49.41000 26.44900
C  13.96800 48.42900 23.32900
O  13.65000 48.06300 22.23400
C  15.40800 48.62600 23.59400
N  8.50200 48.34100 23.87900
C  9.41200 48.05600 22.92800
C  8.83200 47.78800 21.62700
C  7.33200 47.87300 21.88400
C  7.32100 48.27300 23.31000
C  9.17500 48.74300 20.40700
C  6.51700 46.54900 21.60200
C  5.48400 46.84400 20.54700
N  6.84000 48.77600 26.16100
C  5.79300 48.56700 25.28500
C  4.54600 48.57000 26.10300
C  5.00000 48.74500 27.46900
C  6.39300 48.86000 27.50100
C  3.19200 48.38900 25.45800
C  4.54100 48.81800 28.85300
O  3.39000 48.77300 29.27700
C  5.81100 48.92200 29.78400
C  5.85000 47.58900 30.44600
O  6.42300 46.55400 30.12000
O  5.08700 47.69200 31.55400
C  4.96300 46.47000 32.37600
H  12.64800 49.62300 28.43900
H  11.36900 48.02500 22.24700
H  5.34500 48.26000 23.14300
H  8.52000 49.90900 31.08200
H  11.22000 48.97500 30.46400
H  10.95300 51.80400 29.55100
H  11.45400 51.23800 31.17000
H  9.76600 51.59600 30.86100
H  10.11700 47.53200 31.61200
H  8.60000 47.06400 30.92900
H  7.44600 48.51600 32.61800
H  9.00800 49.00400 33.19100
H  14.53600 49.78100 27.47000
H  15.21200 50.24000 26.06400
H  15.17800 48.47500 26.50300
H  15.75900 47.98300 24.40200
H  15.56100 49.66500 23.88400
H  16.07100 48.39700 22.76000
H  9.11100 46.78600 21.30200
H  6.76900 48.72900 21.51200
H  8.36600 49.33400 19.97600
H  9.71900 48.15500 19.66700
H  9.87400 49.50000 20.76300
H  6.19400 46.03300 22.50600
H  7.19500 45.81300 21.17100
H  4.70000 46.18700 20.92200
H  5.75300 46.64700 19.50900
H  5.01400 47.82700 20.57000
H  2.82700 49.22800 24.86500
H  2.49100 48.17900 26.26500
H  3.17500 47.53700 24.77800
H  5.61600 49.69700 30.52600
H  5.88300 45.89000 32.29700
H  4.16400 45.82100 32.01800
H  4.73800 46.64200 33.42800
Mg -2.41100 35.16600 26.62200
C  -4.30500 33.30800 29.00600
C  -1.68000 37.32900 28.95900
C  -0.79300 36.97000 24.25000
C  -4.03000 33.28300 24.13500
N  -3.02000 35.32800 28.74600
C  -3.65800 34.42800 29.56300
C  -3.53900 34.73000 31.08400
C  -2.79800 36.15000 30.91000
C  -2.48400 36.30600 29.43000
C  -3.45800 37.47600 31.54100
C  -2.86500 33.63900 31.99700
C  -3.66500 33.29400 33.30700
H  -2.76100 33.15100 34.55000
N  -1.35200 36.96700 26.59400
C  -1.10500 37.66900 27.75300
C  -0.22600 38.74500 27.36900
C  0.08900 38.67200 26.00000
C  -0.64500 37.52100 25.54100
C  0.08900 39.75500 28.49500
C  0.92800 39.54100 25.21100
O  1.13600 39.31600 24.02300
C  1.60700 40.80500 25.84600
N  -2.43700 35.24900 24.53000
C  -1.59400 35.95100 23.77900
C  -1.61200 35.57000 22.30500
C  -2.63500 34.35700 22.27000
C  -3.16700 34.36700 23.74700
C  -1.98500 36.80300 21.36500
C  -1.74200 33.10500 21.82500
C  -0.95800 32.31000 22.83800
N  -3.94400 33.58600 26.51200
C  -4.45600 32.94700 25.39900
C  -5.32200 31.90600 25.85200
C  -5.31700 31.91100 27.26300
C  -4.41100 32.96900 27.60200
C  -6.09000 30.94800 25.03100
C  -5.81700 31.37300 28.51200
O  -6.50400 30.40800 28.80300
C  -5.16500 32.30000 29.68100
C  -6.30300 32.93900 30.34800
O  -7.15300 33.67100 29.86400
O  -6.51500 32.38200 31.61400
C  -7.76500 32.61100 32.33400
H  -1.53700 38.07800 29.74000
H  -0.29100 37.50900 23.44400
H  -4.48600 32.73600 23.30800
H  -4.55900 34.94100 31.40500
H  -1.86600 36.03700 31.46500
H  -4.49800 37.31600 31.82500
H  -3.42100 38.33300 30.86800
H  -2.78700 37.80300 32.33500
H  -1.79500 33.82600 32.08100
H  -2.88600 32.69100 31.46100
H  -4.20400 32.35400 33.18000
H  -4.37600 34.11200 33.41700
H  0.29200 39.25400 29.44100
H  -0.81400 40.26700 28.82500
H  0.82500 40.53900 28.31200
H  1.06700 41.46600 26.52300
H  1.89400 41.40800 24.98400
H  2.43400 40.34600 26.38800
H  -0.58400 35.32700 22.03600
H  -3.46500 34.63400 21.61900
H  -2.34000 37.62200 21.99100
H  -2.86200 36.61600 20.74500
H  -1.11400 36.99900 20.74000
H  -1.06600 33.31300 20.99600
H  -2.42300 32.38400 21.37200
H  -1.06300 32.66300 23.86400
H  0.07300 32.37400 22.49200
H  -1.29100 31.27200 22.82800
H  -5.92200 29.98600 25.51400
H  -5.75000 30.97100 23.99600
H  -7.16600 31.08400 25.14100
H  -4.66300 31.66800 30.41300
H  -8.06000 31.72100 32.89100
H  -8.56200 32.98000 31.68900
H  -7.63000 33.37900 33.09500

