158

Mg 23.80000 -6.15900 46.92400
C  25.95400 -3.61600 45.84700
C  21.38500 -4.78700 44.86400
C  21.92000 -8.76100 47.69800
C  26.49400 -7.68800 48.54500
N  23.77100 -4.52500 45.38900
C  24.70300 -3.57400 45.31700
C  24.27500 -2.38700 44.40600
C  22.72000 -2.65300 44.37600
C  22.59800 -4.07600 44.91000
C  21.83400 -1.70500 45.18900
C  24.97500 -2.55300 43.03600
C  25.74000 -1.23200 42.50200
H  25.01400 -0.59700 41.16500
N  21.90800 -6.73800 46.28200
C  21.09600 -6.05400 45.43200
C  19.84300 -6.76600 45.29800
C  19.98700 -7.88700 46.15800
C  21.34200 -7.83400 46.76200
C  18.82600 -6.37600 44.31600
C  18.94300 -8.91600 46.38000
O  17.80700 -8.79500 45.90600
C  19.14900 -10.14700 47.22100
N  24.19700 -7.97800 47.93100
C  23.20400 -8.86300 48.12000
C  23.67400 -10.10800 48.93900
C  25.19100 -9.78200 49.19000
C  25.32200 -8.40900 48.53300
C  22.86400 -10.48400 50.20700
C  26.16000 -10.83800 48.46900
C  26.92300 -11.84200 49.49000
N  25.75300 -5.72300 47.27400
C  26.72400 -6.42700 47.95900
C  27.98400 -5.67800 47.94900
C  27.66300 -4.53000 47.13600
C  26.35200 -4.67800 46.72700
C  29.14500 -6.02900 48.74000
C  28.19600 -3.31400 46.58800
O  29.29100 -2.74600 46.76600
C  27.12900 -2.68900 45.73700
C  26.87400 -1.35700 46.13600
O  26.11500 -1.03900 47.06200
O  27.75400 -0.46100 45.52800
C  27.42300 0.96000 45.86400
H  20.53000 -4.22600 44.48000
H  21.22600 -9.47200 48.15100
H  27.34100 -8.13000 49.07400
H  24.41500 -1.42800 44.90600
H  22.40900 -2.59800 43.33300
H  21.37900 -2.28300 45.99500
H  21.00700 -1.33600 44.58200
H  22.38000 -0.93200 45.72900
H  24.25900 -2.80400 42.25300
H  25.71800 -3.35000 43.01300
H  26.75500 -1.52900 42.23800
H  25.73100 -0.53400 43.33900
H  18.50800 -7.13600 43.60200
H  19.29300 -5.58700 43.72600
H  17.96700 -5.88900 44.77800
H  18.34800 -10.87000 47.06500
H  19.22100 -9.91400 48.28400
H  20.06800 -10.58400 46.82900
H  23.52900 -10.97200 48.29000
H  25.46700 -9.57100 50.22300
H  21.95800 -9.87700 50.23800
H  23.37000 -10.23100 51.13900
H  22.70900 -11.56100 50.25800
H  26.97000 -10.36600 47.91500
H  25.56300 -11.32700 47.69900
H  26.34600 -11.76500 50.41100
H  27.98400 -11.61200 49.57900
H  26.84300 -12.89000 49.20000
H  28.75300 -6.53800 49.62100
H  29.75200 -5.15600 48.97700
H  29.81200 -6.62000 48.11300
H  27.42100 -2.61700 44.68900
H  28.22000 1.30800 46.52200
H  26.43500 1.15900 46.27700
H  27.53500 1.45200 44.89700
Mg 48.95500 35.36100 27.40800
C  46.87300 33.66700 29.87600
C  49.11100 38.02800 29.72800
C  50.26800 36.99000 24.98400
C  48.33300 32.51400 25.44400
N  48.09800 35.75400 29.61700
C  47.37000 34.92800 30.40700
C  47.22900 35.47000 31.87200
C  47.60300 36.97200 31.70700
C  48.37900 36.99000 30.31400
C  46.37800 37.84600 31.71900
C  48.29300 34.60000 32.73800
C  47.94900 34.54000 34.27800
H  47.25700 35.69600 34.99400
N  49.69400 37.17100 27.40900
C  49.68800 38.13600 28.40300
C  50.39000 39.29200 27.93700
C  50.77900 39.01800 26.59900
C  50.32500 37.63500 26.26400
C  50.52800 40.53900 28.73700
C  51.46400 39.97700 25.55900
O  51.64600 39.72300 24.38100
C  51.93900 41.37600 25.95000
N  49.05300 34.91900 25.42600
C  49.66700 35.78700 24.59900
C  49.93900 35.16000 23.26300
C  49.60800 33.65000 23.48400
C  48.96500 33.66000 24.87700
C  49.15300 35.75800 22.09000
C  50.81300 32.65500 23.36400
C  51.32800 32.19600 21.97500
N  47.83300 33.51300 27.55600
C  47.75300 32.49200 26.66900
C  46.91400 31.40900 27.18200
C  46.53500 31.86600 28.40100
C  47.09600 33.13700 28.62900
C  46.45400 30.12600 26.45200
C  45.61100 31.60900 29.58600
O  44.90100 30.68300 29.88800
C  45.81500 32.77700 30.45600
C  45.89000 32.38400 31.89600
O  46.82800 31.67200 32.33000
O  44.89700 32.89100 32.60200
C  44.86900 32.62300 34.03300
H  49.19200 38.95900 30.29500
H  50.48400 37.55700 24.07600
H  48.21100 31.68300 24.74600
H  46.27800 35.44500 32.40500
H  48.26800 37.19000 32.54200
H  46.51800 38.69700 31.05300
H  46.12500 38.20600 32.71600
H  45.46800 37.33800 31.40000
H  49.22100 35.17200 32.71800
H  48.33600 33.59100 32.32900
H  48.81000 34.32200 34.91100
H  47.44100 33.58300 34.39200
H  51.42100 40.74500 29.32700
H  49.73800 40.58700 29.48700
H  50.25600 41.33000 28.03900
H  51.12300 42.07500 26.13000
H  52.72500 41.70900 25.27100
H  52.43000 41.07800 26.87600
H  50.99100 35.26700 22.99700
H  48.81700 33.33900 22.80100
H  48.07700 35.82600 22.25000
H  49.38700 35.14900 21.21700
H  49.60200 36.74100 21.94700
H  50.51600 31.82100 24.00000
H  51.70300 32.94500 23.92300
H  52.28300 32.68300 21.78000
H  50.59700 32.41800 21.19700
H  51.58600 31.13800 21.92900
H  46.58300 29.19300 27.00100
H  46.99500 29.93200 25.52600
H  45.40800 30.37600 26.27700
H  44.94300 33.41900 30.33600
H  44.60700 33.60500 34.42800
H  45.81200 32.27800 34.45700
H  44.03100 31.99200 34.32900

