158

Mg 23.91500 -5.53700 46.02300
C  26.18400 -3.23100 44.49000
C  21.54000 -4.35600 43.76100
C  22.01300 -8.10800 46.88600
C  26.72100 -6.97600 47.63600
N  23.86900 -3.94800 44.31800
C  24.92600 -3.16900 43.92500
C  24.51900 -2.26400 42.72500
C  22.96100 -2.43300 42.77500
C  22.72800 -3.62800 43.67000
C  22.14900 -1.21200 43.34900
C  25.02300 -2.88500 41.39200
C  25.88700 -1.96300 40.54000
H  25.61600 -2.09200 38.97800
N  21.96600 -6.11800 45.53400
C  21.18600 -5.47000 44.61100
C  20.00500 -6.20300 44.43000
C  20.13200 -7.37300 45.25700
C  21.39700 -7.23300 45.96500
C  18.94500 -5.88100 43.35100
C  19.12000 -8.56400 45.24700
O  18.03000 -8.45100 44.69700
C  19.56100 -9.85700 45.85500
N  24.33300 -7.28700 47.06000
C  23.31100 -8.16200 47.40200
C  23.84500 -9.34400 48.22800
C  25.22900 -8.86400 48.63300
C  25.49500 -7.64900 47.72700
C  22.98500 -9.75300 49.41600
C  26.33500 -9.99200 48.72200
C  26.97700 -10.20000 50.10200
N  26.05400 -5.10200 46.24400
C  27.05000 -5.75700 46.92800
C  28.34800 -5.04800 46.82200
C  28.00400 -4.03200 45.85300
C  26.66400 -4.22300 45.44400
C  29.59100 -5.46600 47.54900
C  28.54200 -2.89100 45.11000
O  29.67400 -2.48500 45.13600
C  27.40500 -2.39400 44.10200
C  27.32400 -0.95900 44.37300
O  26.48600 -0.49800 45.16100
O  28.14200 -0.10800 43.60400
C  28.26600 1.27200 44.06400
H  20.79300 -4.01200 43.04200
H  21.41000 -8.90100 47.33200
H  27.55000 -7.43500 48.17800
H  24.83800 -1.23000 42.85700
H  22.50400 -2.52300 41.78900
H  22.83300 -0.39100 43.56700
H  21.60600 -1.44900 44.26300
H  21.46600 -0.84000 42.58500
H  24.24400 -3.16100 40.68000
H  25.62800 -3.77500 41.56900
H  26.90600 -2.33700 40.63600
H  25.76900 -0.94300 40.90600
H  19.02500 -6.67000 42.60400
H  19.07000 -4.86800 42.96800
H  17.97100 -5.79100 43.83300
H  20.60500 -10.00200 45.57800
H  18.87300 -10.63400 45.52200
H  19.44900 -9.57800 46.90300
H  24.03500 -10.13600 47.50400
H  25.21000 -8.40300 49.62000
H  23.49100 -9.70200 50.37900
H  22.60400 -10.74900 49.19200
H  22.12200 -9.08800 49.39300
H  27.05000 -9.81100 47.92000
H  25.90300 -10.95100 48.43500
H  28.06300 -10.21300 50.00800
H  26.69700 -11.12100 50.61300
H  26.77100 -9.45200 50.86800
H  29.80500 -6.48800 47.24000
H  29.36800 -5.32800 48.60800
H  30.43600 -4.81900 47.31500
H  27.68000 -2.67700 43.08600
H  27.35600 1.85700 43.93400
H  29.01500 1.70900 43.40400
H  28.68600 1.37300 45.06500
Mg 27.20900 50.51800 26.41900
C  25.09800 51.82500 29.13400
C  29.39900 49.33400 28.87900
C  29.38000 49.81900 23.95300
C  25.21400 52.40500 24.27900
N  27.27300 50.68900 28.69500
C  26.24200 51.05200 29.54600
C  26.54100 50.71300 31.02500
C  28.03700 50.02900 30.87800
C  28.25700 49.94500 29.38300
C  29.21500 50.71000 31.71800
C  25.49300 49.87800 31.77000
C  24.99000 50.55600 33.09000
H  26.07800 50.85600 34.17300
N  29.05300 49.50000 26.36800
C  29.82900 49.17200 27.47000
C  31.03600 48.60300 27.03800
C  31.01100 48.71400 25.56800
C  29.77000 49.36400 25.25900
C  31.88600 47.82200 27.92400
C  32.06500 48.27800 24.56900
O  32.00700 48.45800 23.37500
C  33.34700 47.64700 25.14400
N  27.31500 51.06300 24.50600
C  28.26500 50.65100 23.61500
C  27.97700 51.05300 22.17500
C  26.54200 51.58600 22.28400
C  26.33500 51.68800 23.78000
C  29.08100 51.92200 21.50200
C  25.38100 50.64400 21.75300
C  24.16300 51.34900 21.01400
N  25.44700 51.81900 26.59800
C  24.76500 52.50400 25.63400
C  23.57500 53.12600 26.17700
C  23.67500 52.89200 27.55900
C  24.85800 52.13700 27.77400
C  22.56600 53.82700 25.41900
C  23.00100 53.03000 28.79300
O  21.96400 53.62500 29.02000
C  23.97200 52.47700 29.86900
C  24.46700 53.60400 30.65500
O  25.48400 54.24200 30.53100
O  23.59100 53.62800 31.72900
C  24.10800 54.67200 32.67400
H  30.06800 48.99800 29.67400
H  30.03900 49.69700 23.09100
H  24.50500 52.87500 23.59500
H  26.54200 51.62000 31.62900
H  27.90800 48.98100 31.14900
H  29.63000 49.83100 32.21200
H  28.90400 51.49900 32.40200
H  29.86300 51.08200 30.92500
H  25.89600 48.92700 32.11800
H  24.62800 49.72300 31.12600
H  24.31700 49.79500 33.48600
H  24.37600 51.41200 32.81000
H  32.95800 48.00100 27.84600
H  31.83800 46.74300 27.77300
H  31.63900 47.94500 28.97800
H  33.03000 46.70700 25.59700
H  33.85100 48.25500 25.89500
H  33.96700 47.51900 24.25700
H  27.94900 50.15000 21.56500
H  26.42700 52.54500 21.77800
H  30.04500 51.88200 22.00900
H  28.60600 52.90100 21.44800
H  29.12900 51.59900 20.46200
H  24.94600 49.98900 22.50800
H  25.84900 49.96500 21.04000
H  24.29200 51.20900 19.94100
H  24.10700 52.42100 21.20000
H  23.18300 50.95200 21.27800
H  21.82400 54.34900 26.02300
H  22.12300 53.24100 24.61300
H  23.14800 54.65600 25.01700
H  23.37400 51.80600 30.48500
H  25.06700 54.42300 33.12600
H  23.60100 54.75400 33.63600
H  24.09400 55.67000 32.23700

