158

Mg 42.80900 3.99800 46.49600
C  41.11200 7.10200 46.66000
C  39.89000 2.35400 46.42300
C  44.64400 1.23000 45.76000
C  45.81400 5.96600 45.99700
N  40.74800 4.69500 46.61200
C  40.22400 5.97400 46.72200
C  38.70900 5.89300 46.97400
C  38.45800 4.41900 47.11000
C  39.77800 3.69900 46.68400
C  37.89600 3.94200 48.53400
C  37.80300 6.61900 45.91200
C  37.96600 6.11500 44.42200
H  37.99400 7.18900 43.32700
N  42.33300 2.10000 46.16000
C  41.04000 1.59900 46.17000
C  41.11500 0.08700 45.93800
C  42.48100 -0.18300 45.77000
C  43.20500 1.03500 45.96900
C  39.88500 -0.73500 45.82100
C  43.01700 -1.55500 45.45400
O  42.23500 -2.50500 45.57000
C  44.48300 -1.90700 44.94600
N  44.93500 3.68600 45.79400
C  45.41800 2.39400 45.67900
C  46.97900 2.37000 45.56500
C  47.33000 3.89100 45.34500
C  45.95600 4.57600 45.80300
C  47.60100 1.72500 46.86200
C  47.84400 4.29900 43.98800
C  49.40500 4.48000 43.84100
N  43.40500 6.09300 46.26300
C  44.64200 6.72100 46.10800
C  44.50500 8.08600 46.22600
C  43.11300 8.30000 46.50500
C  42.47800 7.05600 46.46300
C  45.56900 9.14600 46.22800
C  42.09200 9.30600 46.67700
O  42.23300 10.52100 46.78500
C  40.73100 8.53800 46.79500
C  39.98900 8.81000 48.01300
O  40.08100 8.19800 49.10800
O  39.03100 9.75100 47.64900
C  37.93700 9.95800 48.65400
H  38.89500 1.90400 46.41300
H  45.23400 0.31300 45.72200
H  46.79300 6.44200 46.08000
H  38.46800 6.30000 47.95600
H  37.65200 4.12800 46.43700
H  36.90600 3.53500 48.33000
H  37.73500 4.83000 49.14500
H  38.53400 3.21500 49.03600
H  38.06700 7.67500 45.85900
H  36.76800 6.50200 46.23200
H  37.26400 5.34200 44.11000
H  38.96900 5.71000 44.28600
H  38.98200 -0.13600 45.70600
H  39.88100 -1.34100 46.72700
H  39.98900 -1.43000 44.98800
H  45.19800 -1.98700 45.76400
H  44.84100 -1.11800 44.28500
H  44.61800 -2.81300 44.35400
H  47.34400 1.80600 44.70600
H  48.18000 4.02300 46.01400
H  48.33700 2.37000 47.34100
H  48.06200 0.80300 46.50700
H  46.79600 1.44900 47.54300
H  47.32200 5.18600 43.62900
H  47.56600 3.62000 43.18200
H  49.91900 4.53000 44.80100
H  49.52100 5.48000 43.42200
H  49.77000 3.70400 43.16900
H  46.20400 8.94100 45.36600
H  46.23900 8.96300 47.06800
H  45.22600 10.18000 46.25100
H  40.15900 8.87100 45.92900
H  38.53500 10.46200 49.41300
H  37.59900 9.00900 49.06900
H  37.21100 10.53100 48.07700
Mg -1.80300 33.72300 25.45500
C  -3.46000 32.10700 28.20200
C  -0.44000 35.85400 27.84900
C  -0.36600 35.34600 23.01700
C  -3.22500 31.47100 23.33900
N  -1.96100 33.94000 27.81500
C  -2.60800 33.09400 28.69300
C  -2.40600 33.59300 30.13100
C  -1.53600 34.90600 29.95900
C  -1.30400 34.92800 28.42100
C  -2.15800 36.24900 30.51000
C  -1.89300 32.64200 31.23100
C  -2.75600 32.63300 32.52400
H  -2.03600 32.52400 33.88200
N  -0.49700 35.38000 25.42200
C  -0.08300 36.12500 26.47500
C  0.88300 37.21800 25.99300
C  0.96800 37.00200 24.52300
C  0.01800 35.90800 24.23700
C  1.73300 38.02000 26.93200
C  1.82300 37.65800 23.51300
O  1.75800 37.32900 22.31300
C  2.77000 38.84200 23.83600
N  -1.75200 33.39700 23.48900
C  -1.15800 34.25200 22.63700
C  -1.45700 33.95800 21.16200
C  -2.24300 32.61500 21.26100
C  -2.40600 32.44800 22.77900
C  -2.23800 35.10900 20.45000
C  -1.53500 31.36200 20.61700
C  -0.47200 30.65400 21.47800
N  -3.10300 32.13800 25.66700
C  -3.61500 31.30500 24.65300
C  -4.56000 30.40800 25.26800
C  -4.49200 30.64500 26.62000
C  -3.59700 31.75100 26.88500
C  -5.44300 29.41700 24.53000
C  -5.05200 30.29600 27.93800
O  -5.95600 29.50200 28.18400
C  -4.37100 31.25700 28.96500
C  -5.38700 31.95100 29.84200
O  -5.74200 33.14200 29.63800
O  -5.78500 31.15300 30.94500
C  -6.35200 31.89900 32.06000
H  -0.06700 36.50100 28.64600
H  0.04500 35.77300 22.10000
H  -3.89800 30.96100 22.64700
H  -3.35400 34.01400 30.46400
H  -0.56300 34.77500 30.43300
H  -1.40300 36.83200 31.03700
H  -3.08600 36.03700 31.04100
H  -2.49700 36.88700 29.69400
H  -0.85300 32.90400 31.42400
H  -1.85400 31.60000 30.91600
H  -3.12000 31.60900 32.44100
H  -3.53700 33.39300 32.56200
H  2.78100 37.91100 26.65400
H  1.56800 37.65700 27.94700
H  1.54500 39.09300 26.89200
H  3.04400 39.39500 22.93700
H  3.74800 38.47800 24.14900
H  2.32700 39.46300 24.61400
H  -0.44300 33.68100 20.87400
H  -3.26500 32.75200 20.90700
H  -2.19400 35.97400 21.11200
H  -3.27700 34.78800 20.38200
H  -1.73200 35.31500 19.50700
H  -1.09400 31.72300 19.68800
H  -2.42900 30.76400 20.44000
H  -0.08700 31.20300 22.33800
H  0.41900 30.62000 20.85000
H  -0.71800 29.61800 21.70800
H  -4.92300 28.87700 23.74000
H  -6.37800 29.94000 24.32900
H  -5.79000 28.69600 25.27100
H  -3.83800 30.59000 29.64100
H  -6.71500 31.27300 32.87500
H  -7.22000 32.36400 31.59300
H  -5.60700 32.62600 32.38300

