158

Mg 55.06900 23.74700 44.78600
C  52.35700 25.74600 43.74100
C  53.28700 21.03800 43.55100
C  57.91100 21.99600 45.03400
C  56.75800 26.60500 45.86200
N  53.18000 23.48000 43.51900
C  52.23100 24.47500 43.36000
C  50.92400 23.89500 42.76400
C  51.13800 22.36600 43.02900
C  52.62600 22.27000 43.38300
C  50.27300 21.91100 44.28100
C  50.82900 24.14500 41.23300
C  49.30700 24.40600 40.87500
H  48.88500 24.21600 39.38400
N  55.50300 21.75000 44.32500
C  54.68300 20.76200 43.88200
C  55.39900 19.53000 43.81800
C  56.78700 19.73500 44.23100
C  56.83400 21.21100 44.57300
C  54.65400 18.33700 43.40400
C  57.82400 18.69600 44.36800
O  57.61500 17.50700 44.12400
C  59.28000 18.99800 44.84500
N  57.23000 24.31700 45.04700
C  58.07100 23.35300 45.27100
C  59.42900 23.93600 45.77600
C  59.14000 25.49800 45.99600
C  57.65200 25.53200 45.58100
C  59.87100 23.20900 47.06400
C  59.91700 26.40700 45.03400
C  60.85300 27.44100 45.72400
N  54.73500 25.78400 44.86000
C  55.41000 26.80900 45.43000
C  54.50500 27.86000 45.70800
C  53.33200 27.60900 44.87700
C  53.54400 26.28600 44.48600
C  54.69400 29.12800 46.47100
C  52.10500 28.15800 44.27500
O  51.67400 29.33300 44.38000
C  51.47900 27.00400 43.54200
C  51.12300 27.42600 42.15400
O  51.94800 27.52300 41.24100
O  49.80500 27.69500 42.01100
C  49.42200 28.16300 40.74300
H  52.81000 20.10800 43.23300
H  58.81500 21.49600 45.38800
H  57.30000 27.46800 46.25400
H  49.98200 24.22900 43.20000
H  50.90800 21.60200 42.28700
H  50.02600 22.73900 44.94500
H  50.62300 21.08700 44.90300
H  49.30200 21.67100 43.84600
H  51.16500 23.33100 40.59100
H  51.62000 24.87000 41.03900
H  48.96000 25.42000 41.07300
H  48.65200 23.66800 41.33900
H  54.64200 18.34800 42.31400
H  53.63900 18.36200 43.80100
H  55.18700 17.47600 43.80700
H  59.62300 19.95000 44.43900
H  59.91100 18.20300 44.44700
H  59.29900 18.88200 45.92900
H  60.11700 23.76400 44.94800
H  59.28000 25.79700 47.03500
H  59.08600 22.56400 47.45800
H  59.86200 23.99000 47.82500
H  60.83600 22.70900 46.98300
H  59.21100 26.97900 44.43200
H  60.37900 25.79100 44.26300
H  60.39600 28.39400 45.99300
H  61.72100 27.66200 45.10300
H  61.16900 27.01500 46.67600
H  54.86300 28.89000 47.52100
H  53.77900 29.69500 46.30200
H  55.46600 29.71200 45.97100
H  50.53800 26.94700 44.09000
H  49.42100 29.25200 40.79400
H  48.43700 27.78600 40.46700
H  50.12300 27.88200 39.95700
Mg 35.98200 48.16500 25.51900
C  36.40800 46.31000 28.61600
C  35.07300 50.86000 27.43300
C  35.19200 49.53700 22.66000
C  36.68000 45.08800 23.87500
N  35.72400 48.49300 27.77300
C  36.01500 47.66400 28.84000
C  35.86500 48.33000 30.18500
C  35.51800 49.87800 29.78800
C  35.41500 49.73800 28.25700
C  34.06300 50.27300 30.35000
C  37.18100 48.29400 31.01400
C  36.96300 47.67600 32.43700
H  35.64900 47.76600 33.29800
N  35.40800 50.05000 25.12400
C  35.04500 51.04400 26.02300
C  34.76000 52.24700 25.27100
C  34.79500 51.89500 23.88400
C  35.13600 50.37500 23.79400
C  34.39700 53.45400 25.99800
C  34.41400 52.73300 22.69100
O  34.52300 52.29000 21.58800
C  34.12500 54.25800 22.84700
N  35.98700 47.41700 23.63100
C  35.54400 48.20800 22.64800
C  35.50800 47.43300 21.32600
C  36.40500 46.20200 21.62100
C  36.36700 46.20000 23.11100
C  34.03500 46.96100 20.87000
C  37.88400 46.29800 21.08600
C  38.91300 47.11000 21.93100
N  36.41500 46.09100 26.04100
C  36.74800 45.04200 25.24500
C  37.02700 43.97800 26.06300
C  36.92300 44.39700 27.40400
C  36.46000 45.68600 27.33200
C  37.46000 42.61600 25.56900
C  37.11900 44.02700 28.81900
O  37.52500 42.98400 29.29600
C  36.62200 45.20900 29.64300
C  35.47100 44.86200 30.34200
O  34.36000 45.00400 29.91400
O  35.71800 44.23500 31.53800
C  34.49400 43.78900 32.23200
H  34.81000 51.71000 28.06600
H  34.91000 49.86900 21.65900
H  37.00200 44.19300 23.33800
H  34.98100 47.92000 30.67300
H  36.31500 50.55100 30.10400
H  34.11700 51.28600 30.74800
H  33.91600 49.67200 31.24700
H  33.19600 50.17500 29.69600
H  37.69800 49.25200 31.05900
H  37.85500 47.67700 30.41900
H  37.84900 47.97900 32.99400
H  37.12900 46.61300 32.26200
H  33.33000 53.62100 26.15200
H  34.75400 54.28600 25.39100
H  35.05800 53.67100 26.83700
H  33.65500 54.49400 21.89300
H  34.98600 54.91900 22.95500
H  33.36800 54.52100 23.58500
H  35.98100 48.08900 20.59600
H  36.04100 45.25300 21.22800
H  33.29000 47.45700 21.49200
H  33.87200 45.88400 20.81400
H  33.88500 47.34800 19.86200
H  37.78900 46.81900 20.13400
H  38.32200 45.34000 20.80700
H  39.15100 46.49700 22.80000
H  38.66000 48.13400 22.20700
H  39.76900 47.14100 21.25700
H  38.31200 42.19200 26.09900
H  37.72400 42.62800 24.51200
H  36.62000 41.94700 25.75500
H  37.42500 45.51800 30.31300
H  33.83600 43.21100 31.58400
H  33.95400 44.56900 32.76900
H  34.85600 43.15200 33.03900

