158

Mg 16.44400 -1.76300 27.32600
C  15.29100 0.43800 29.80700
C  18.43400 -3.23300 29.58000
C  17.73900 -3.49500 24.81100
C  14.82400 0.34800 25.03600
N  16.67000 -1.47400 29.41800
C  16.13000 -0.53600 30.27500
C  16.58100 -0.79900 31.68400
C  17.75400 -1.89400 31.49700
C  17.62600 -2.25800 30.07900
C  19.09200 -1.38900 31.98200
C  15.49300 -1.14200 32.71800
C  15.36600 -0.40500 34.07100
H  16.65100 -0.08700 34.86500
N  17.77800 -3.28400 27.26400
C  18.51500 -3.79200 28.25300
C  19.38700 -4.82500 27.76100
C  19.13400 -4.96000 26.36900
C  18.17700 -3.91000 26.07500
C  20.33100 -5.67500 28.62200
C  19.65300 -5.99700 25.38500
O  19.27400 -6.08700 24.25700
C  20.66600 -7.10400 25.77900
N  16.15900 -1.71900 25.17800
C  16.81800 -2.48700 24.37100
C  16.56000 -2.18000 22.90100
C  15.56700 -0.97200 23.00900
C  15.51600 -0.74700 24.54700
C  17.84100 -1.81000 22.05100
C  14.06700 -1.21200 22.46000
C  13.63400 -0.42100 21.24800
N  15.18500 -0.06700 27.33200
C  14.58900 0.70900 26.37200
C  13.81800 1.78800 26.90800
C  14.00900 1.70700 28.33000
C  14.93700 0.65900 28.47000
C  12.96400 2.77300 26.11600
C  13.70100 2.31600 29.56200
O  13.00000 3.27500 29.81000
C  14.50700 1.48700 30.67100
C  15.47300 2.37100 31.29100
O  16.59300 2.64500 30.89800
O  15.00500 2.77100 32.54000
C  15.76800 3.69200 33.39500
H  19.18600 -3.71800 30.20700
H  18.25500 -3.94700 23.96100
H  14.27400 0.98700 24.34200
H  17.02800 0.14200 32.00300
H  17.47000 -2.75600 32.10200
H  19.09200 -0.38800 32.41200
H  19.76400 -1.49400 31.13000
H  19.50100 -2.08900 32.71000
H  15.69300 -2.17900 32.98600
H  14.49700 -0.99300 32.30200
H  14.85400 -1.11200 34.72300
H  14.75900 0.48000 33.88500
H  21.37100 -5.51700 28.33700
H  20.00600 -6.68900 28.39000
H  20.16800 -5.50300 29.68500
H  20.24700 -7.70000 26.59000
H  21.58800 -6.60500 26.07800
H  21.07100 -7.67500 24.94400
H  16.07100 -3.05000 22.46300
H  16.03300 -0.05000 22.66300
H  18.14700 -2.69700 21.49700
H  18.48300 -1.40700 22.83400
H  17.64000 -0.98100 21.37100
H  13.41800 -1.04600 23.32000
H  14.09800 -2.26600 22.18200
H  13.09100 -1.13100 20.62500
H  14.36600 -0.01000 20.55300
H  12.98400 0.33100 21.69500
H  12.52600 2.37600 25.20100
H  13.29600 3.80700 26.02400
H  12.12500 2.91400 26.79800
H  13.90200 1.05500 31.46800
H  15.80800 4.70500 32.99400
H  16.73400 3.26500 33.66300
H  15.22100 3.86000 34.32300
Mg 47.82100 25.33300 28.93500
C  48.81100 27.54200 31.50800
C  46.69100 23.05000 31.36700
C  47.16600 23.07100 26.47500
C  49.32600 27.35600 26.59800
N  48.03200 25.24200 31.32600
C  48.27800 26.36800 32.09000
C  47.95400 26.00900 33.58100
C  47.24700 24.60700 33.43300
C  47.38400 24.21100 31.90400
C  47.74000 23.54500 34.40500
C  46.98900 27.06300 34.31700
C  47.40400 27.37900 35.82000
H  46.31300 27.68300 36.85100
N  46.87200 23.39400 28.92700
C  46.49600 22.66500 30.02400
C  45.84500 21.45200 29.54300
C  45.98900 21.45800 28.07000
C  46.71400 22.72600 27.73200
C  45.16200 20.29700 30.38600
C  45.45300 20.47900 27.09500
O  45.43600 20.68100 25.88200
C  44.73900 19.14900 27.57800
N  48.21700 25.26500 26.88800
C  47.99500 24.13600 26.13100
C  48.45100 24.46700 24.68000
C  48.80800 25.96200 24.67500
C  48.80200 26.16800 26.16600
C  49.50800 23.38600 24.20100
C  47.82200 26.98100 23.99300
C  48.30600 28.39800 23.65300
N  48.93900 27.06500 28.98600
C  49.38700 27.85600 27.95400
C  49.87000 29.12500 28.48900
C  49.62200 28.97800 29.84500
C  49.12800 27.69200 30.08500
C  50.42600 30.27200 27.71200
C  49.71400 29.74900 31.10700
O  50.07900 30.90100 31.23500
C  49.27400 28.75600 32.23800
C  50.49600 28.55400 33.05500
O  51.52000 27.91900 32.75400
O  50.34700 29.15800 34.30900
C  51.36000 28.80700 35.25900
H  46.30700 22.30900 32.07100
H  47.04600 22.29100 25.72000
H  49.79900 28.03300 25.88200
H  48.83000 25.71200 34.15800
H  46.18200 24.69500 33.64900
H  48.00600 22.71100 33.75600
H  46.95500 23.20200 35.07900
H  48.70700 23.74000 34.86800
H  45.97000 26.75100 34.09000
H  47.06500 28.01700 33.79600
H  48.01300 28.27100 35.67000
H  48.11500 26.63400 36.17800
H  45.71300 19.36800 30.24100
H  44.09700 20.27700 30.15600
H  45.08400 20.53200 31.44700
H  43.85700 19.17400 28.21800
H  45.51700 18.62200 28.13200
H  44.49200 18.57000 26.68900
H  47.59100 24.27600 24.03900
H  49.83200 26.03500 24.30900
H  49.07200 22.65500 23.51900
H  49.83000 22.92500 25.13400
H  50.36000 23.83200 23.68700
H  47.02600 27.21000 24.70100
H  47.48100 26.48600 23.08300
H  47.82800 28.75800 22.74200
H  49.39100 28.34400 23.56700
H  47.98500 29.08800 24.43300
H  51.48000 30.47100 27.90500
H  49.80600 31.14500 27.91600
H  50.15000 30.05400 26.68000
H  48.44200 29.26000 32.73100
H  52.35500 28.51500 34.92200
H  51.06700 28.02100 35.95600
H  51.42600 29.71900 35.85200

