158

Mg 42.96200 4.00400 46.84100
C  41.42800 7.41600 46.60300
C  39.88200 2.78100 46.14000
C  44.38900 1.02700 46.65200
C  46.05800 5.69200 47.02900
N  40.96500 5.14000 46.27800
C  40.47800 6.40400 46.44900
C  39.00700 6.56000 46.21200
C  38.55500 5.04000 46.38100
C  39.89300 4.23600 46.25700
C  37.87500 4.78500 47.79700
C  38.64800 7.30700 44.92400
C  39.53500 6.93200 43.73900
H  38.93800 6.89400 42.26400
N  42.24700 2.23800 46.35800
C  40.96500 1.90300 46.13200
C  40.84600 0.42900 45.97200
C  42.11900 -0.14200 46.13400
C  43.02200 1.04900 46.38100
C  39.51800 -0.25500 45.54400
C  42.42500 -1.63300 46.07500
O  41.59100 -2.46700 45.70500
C  43.73200 -2.18000 46.45300
N  45.03700 3.45900 46.74400
C  45.28300 2.14600 46.78700
C  46.84300 2.04000 46.52500
C  47.36600 3.49500 46.91300
C  46.09900 4.27600 46.81200
C  47.51400 0.93200 47.41300
C  48.51200 4.04200 45.97800
C  49.35500 5.16200 46.54700
N  43.59200 6.01900 46.83000
C  44.84500 6.51100 46.95200
C  44.89900 7.99300 46.95200
C  43.53800 8.38500 46.89200
C  42.80200 7.18400 46.81300
C  46.18100 8.82300 47.19000
C  42.68300 9.56000 46.79600
O  42.93800 10.74300 46.84700
C  41.23400 8.96200 46.53000
C  40.24200 9.40200 47.48400
O  39.87600 8.82300 48.52200
O  39.63000 10.51000 46.92200
C  38.41700 11.00100 47.66700
H  38.89900 2.37700 45.89000
H  44.79100 0.02300 46.50300
H  47.03600 6.15800 47.16500
H  38.54300 7.02900 47.07900
H  37.93100 4.82700 45.51400
H  37.04100 4.09900 47.64900
H  37.52500 5.72900 48.21500
H  38.55300 4.23100 48.44600
H  38.50700 8.37800 45.07000
H  37.64100 6.98200 44.66300
H  39.79600 5.88000 43.85200
H  40.43600 7.54200 43.79400
H  38.86500 0.34700 44.91300
H  38.95800 -0.56000 46.42700
H  39.79900 -1.08300 44.89300
H  44.11800 -1.69600 47.35000
H  44.42900 -2.01100 45.63200
H  43.49600 -3.22900 46.63200
H  47.01600 1.80300 45.47500
H  47.65900 3.61600 47.95600
H  46.82300 0.14300 47.70900
H  47.93300 1.33400 48.33500
H  48.29100 0.41000 46.85400
H  47.95400 4.46300 45.14200
H  49.16800 3.25100 45.61500
H  50.39500 4.85900 46.66800
H  49.04900 5.35500 47.57600
H  49.17500 5.98500 45.85600
H  46.88800 8.64700 46.37900
H  46.74100 8.56000 48.08600
H  46.07300 9.90800 47.17700
H  40.91000 9.31000 45.54900
H  37.59100 10.37300 48.00100
H  37.99900 11.81700 47.07800
H  38.80100 11.46300 48.57700
Mg -12.33100 15.52200 41.89500
C  -9.25700 13.91800 41.80000
C  -10.74000 18.26800 40.60700
C  -15.27500 16.90300 41.47900
C  -13.90700 12.38900 42.74400
N  -10.25900 15.94100 41.06100
C  -9.18200 15.12600 41.19600
C  -7.89600 15.76500 40.63500
C  -8.32900 17.24700 40.64500
C  -9.86400 17.24400 40.79300
C  -7.78200 18.09700 41.93700
C  -7.60900 15.15300 39.20400
C  -6.07600 14.88400 38.87000
H  -5.62500 15.76300 37.69600
N  -12.90700 17.39700 41.18900
C  -12.12900 18.42700 40.75000
C  -12.99500 19.55800 40.42700
C  -14.31800 19.21300 40.77400
C  -14.21500 17.76900 41.12700
C  -12.47500 20.87200 39.88700
C  -15.58700 20.02500 40.74300
O  -15.48800 21.14700 40.28900
C  -16.92200 19.59300 41.04500
N  -14.31100 14.65900 41.78800
C  -15.32500 15.51700 41.85500
C  -16.72900 14.87600 42.05700
C  -16.25600 13.36000 42.25800
C  -14.76600 13.46400 42.28900
C  -17.52900 15.36700 43.28300
C  -16.76200 12.39700 41.04100
C  -17.99600 11.53400 41.26900
N  -11.72300 13.58400 42.30800
C  -12.45600 12.48500 42.77100
C  -11.51400 11.46400 43.16900
C  -10.26700 11.93800 42.82600
C  -10.41400 13.18800 42.24300
C  -11.81100 10.12700 43.84500
C  -8.87500 11.64700 42.87700
O  -8.21600 10.69700 43.29200
C  -8.12100 12.96200 42.18000
C  -7.13700 13.63800 43.15900
O  -7.46600 14.38800 44.04500
O  -5.85600 13.49000 42.74900
C  -4.86100 14.31100 43.44400
H  -10.20900 19.21700 40.50400
H  -16.30800 17.25600 41.50300
H  -14.37600 11.42700 42.96100
H  -7.09700 15.56500 41.34900
H  -8.00800 17.76800 39.74300
H  -7.27500 17.42600 42.63100
H  -8.58000 18.70900 42.35700
H  -6.98500 18.70600 41.50900
H  -8.04800 15.80500 38.45000
H  -7.92700 14.11100 39.17700
H  -5.98900 13.84100 38.56500
H  -5.40600 15.06000 39.71100
H  -13.00400 21.28800 39.02900
H  -11.38900 20.89900 39.80700
H  -12.67800 21.56000 40.70800
H  -17.68300 20.37300 41.02100
H  -16.79800 19.30600 42.08900
H  -17.19500 18.73800 40.42700
H  -17.42400 14.88700 41.21800
H  -16.67200 12.95200 43.17900
H  -18.60300 15.44300 43.10900
H  -17.13200 16.32700 43.61200
H  -17.46300 14.72700 44.16300
H  -15.93600 11.84400 40.59500
H  -16.97500 13.11000 40.24400
H  -18.25800 11.40500 42.31900
H  -17.84800 10.49800 40.96400
H  -18.86400 11.96700 40.77300
H  -11.93400 10.22200 44.92400
H  -11.00500 9.45100 43.55900
H  -12.75000 9.65800 43.55200
H  -7.50000 12.66900 41.33300
H  -4.26300 14.79800 42.67400
H  -4.24500 13.62000 44.01900
H  -5.17600 15.10300 44.12300

