158

Mg 24.18200 -6.87400 46.62800
C  25.85800 -4.20100 45.33700
C  21.50000 -5.98800 44.32600
C  22.68100 -9.85000 47.14900
C  26.85800 -7.84800 48.34700
N  23.75300 -5.27500 44.98800
C  24.63800 -4.25400 44.70600
C  24.03700 -3.35600 43.62400
C  22.51700 -3.80600 43.52600
C  22.58100 -5.08900 44.31900
C  21.45000 -2.73600 43.91800
C  24.86800 -3.48800 42.31100
C  25.14300 -2.20500 41.47900
H  24.65100 -2.17600 40.02200
N  22.25100 -7.82100 45.99300
C  21.32200 -7.30400 45.00200
C  20.16800 -8.15600 45.05000
C  20.46300 -9.21300 45.96600
C  21.81100 -8.99800 46.42000
C  18.93500 -7.91900 44.18200
C  19.49100 -10.33200 46.37200
O  18.40400 -10.45200 45.77300
C  19.84000 -11.32800 47.49600
N  24.66600 -8.59800 47.62200
C  23.83900 -9.62000 47.77300
C  24.42500 -10.63900 48.79000
C  25.82700 -10.05000 49.12600
C  25.77300 -8.72600 48.36000
C  23.53900 -11.01800 49.96200
C  27.13700 -10.92800 48.85700
C  28.03000 -11.16700 50.14500
N  25.99100 -6.26200 46.76300
C  27.05900 -6.70400 47.55300
C  28.10700 -5.71100 47.56800
C  27.68000 -4.74600 46.68500
C  26.37200 -5.11800 46.24000
C  29.31400 -5.76700 48.49200
C  28.02100 -3.43600 46.18500
O  28.90100 -2.62700 46.41800
C  26.85300 -3.06100 45.23500
C  26.35600 -1.79300 45.68400
O  26.87400 -0.71900 45.26900
O  25.17100 -1.90900 46.37300
C  24.73400 -0.68500 47.11300
H  20.61900 -5.77800 43.71500
H  22.28300 -10.84000 47.38200
H  27.68500 -8.09600 49.01500
H  24.01900 -2.29200 43.85700
H  22.27800 -4.07300 42.49700
H  20.88500 -3.11200 44.77000
H  20.73100 -2.58600 43.11300
H  21.84500 -1.80300 44.32100
H  24.37600 -4.18500 41.63300
H  25.80100 -3.99800 42.55200
H  26.22400 -2.27500 41.36400
H  24.99100 -1.29500 42.06100
H  18.83700 -8.78700 43.52900
H  19.02400 -7.11600 43.45100
H  17.98800 -7.82100 44.71300
H  20.40600 -12.07000 46.93200
H  18.94200 -11.79100 47.90600
H  20.40900 -10.78700 48.25300
H  24.55000 -11.59100 48.27600
H  25.75500 -9.81700 50.18900
H  22.73900 -10.28000 50.03200
H  23.99200 -11.05200 50.95200
H  23.13100 -12.00600 49.74900
H  27.82300 -10.52400 48.11300
H  26.70300 -11.86400 48.50500
H  28.00400 -12.23700 50.35300
H  27.66300 -10.66200 51.03800
H  29.05500 -10.82500 50.00100
H  29.35200 -4.83400 49.05500
H  30.21000 -5.87400 47.88100
H  29.12200 -6.56000 49.21400
H  27.18100 -3.02500 44.19600
H  24.07500 -0.07600 46.49400
H  25.59700 -0.06600 47.36000
H  24.28800 -1.00400 48.05500
Mg 6.96400 54.62000 40.70300
C  7.09200 51.10200 40.59000
C  10.18700 54.80900 39.74700
C  6.73900 58.01700 40.44200
C  3.44500 54.35700 41.16200
N  8.38500 53.16800 40.15800
C  8.32700 51.74300 40.25500
C  9.71500 51.04200 40.04800
C  10.71100 52.28600 40.22300
C  9.72900 53.54100 39.99000
C  11.27700 52.46400 41.66900
C  9.72400 50.33400 38.65400
C  9.20000 51.16800 37.53500
H  7.77600 51.09200 37.00800
N  8.28500 56.24300 40.13700
C  9.59800 56.08000 39.79200
C  10.18300 57.32800 39.39100
C  9.21700 58.29300 39.62400
C  8.02100 57.55500 40.11900
C  11.57000 57.58300 38.69800
C  9.38200 59.76900 39.40400
O  10.48800 60.12300 39.09600
C  8.26700 60.79900 39.56000
N  5.30700 55.97600 40.80000
C  5.51800 57.29800 40.64100
C  4.17300 58.06100 40.73800
C  3.10000 56.90800 40.88000
C  3.96400 55.64300 40.90900
C  4.16500 59.17100 41.86700
C  2.00200 56.93300 39.74300
C  0.55500 57.29800 40.21500
N  5.52600 53.03500 40.89200
C  4.14500 53.07200 41.13100
C  3.69800 51.70500 41.26500
C  4.85100 50.92900 41.12600
C  5.85100 51.75700 40.83200
C  2.26200 51.33800 41.81600
C  5.22300 49.60600 41.33600
O  4.61400 48.64500 41.87000
C  6.74200 49.60400 40.76000
C  6.58100 48.81300 39.50300
O  5.81200 49.04800 38.63200
O  7.13800 47.51700 39.54400
C  6.80900 46.60200 38.46700
H  11.26000 54.72300 39.56100
H  6.49300 59.08100 40.42500
H  2.36100 54.30400 41.28200
H  9.81600 50.32000 40.85800
H  11.51100 52.18800 39.49000
H  12.34000 52.24700 41.56300
H  10.91600 51.80100 42.45500
H  11.10800 53.46200 42.07300
H  9.25900 49.36400 38.82500
H  10.72600 49.98100 38.41200
H  9.78100 50.87500 36.66100
H  9.56000 52.16100 37.80100
H  11.40600 58.15600 37.78500
H  12.06700 56.63600 38.48300
H  12.25800 58.08700 39.37800
H  7.43100 60.40500 38.98200
H  8.65400 61.76800 39.24400
H  8.00900 60.75200 40.61800
H  4.02300 58.45200 39.73200
H  2.70300 57.05300 41.88400
H  4.99700 58.96300 42.54000
H  3.25000 59.21300 42.45700
H  4.47700 60.11500 41.42000
H  2.00900 55.91400 39.35800
H  2.22800 57.62700 38.93200
H  -0.08600 56.43500 40.03500
H  0.25800 58.18400 39.65400
H  0.59700 57.56600 41.27100
H  1.62100 51.37800 40.93500
H  1.89900 52.10200 42.50400
H  2.29900 50.33400 42.23800
H  7.38100 49.05600 41.45300
H  7.47700 45.74100 38.50700
H  7.00800 47.01000 37.47600
H  5.79300 46.28200 38.69600

