158

Mg 0.45400 42.07700 26.13600
C  1.57500 42.50900 29.40300
C  -2.56900 40.90800 27.29300
C  -0.28100 41.40300 22.91100
C  3.61600 43.09500 25.02900
N  -0.36900 41.72700 28.06400
C  0.22800 42.19200 29.26900
C  -0.77700 42.03200 30.46400
C  -2.02200 41.32200 29.76700
C  -1.65300 41.25600 28.27700
C  -2.47900 40.04300 30.41100
C  -1.08300 43.16100 31.55300
C  -0.35900 43.13500 32.93300
H  -1.17400 43.12500 34.17100
N  -1.21500 41.47500 25.26700
C  -2.37000 40.95400 25.86300
C  -3.40300 40.65700 24.86200
C  -2.73300 40.74000 23.65200
C  -1.35900 41.25300 23.88100
C  -4.74700 40.05600 25.10900
C  -3.37200 40.63600 22.26300
O  -2.68200 40.87300 21.25900
C  -4.84400 40.33300 22.00100
N  1.47900 42.26900 24.22500
C  0.99300 41.90000 23.08300
C  1.97800 42.06500 21.91900
C  3.11600 42.87800 22.56600
C  2.74800 42.75900 24.08500
C  2.39000 40.84000 21.19800
C  3.10100 44.38000 22.13900
C  3.62000 44.61200 20.67700
N  2.30600 42.54200 26.99600
C  3.51900 42.98000 26.43300
C  4.50700 43.26500 27.44500
C  3.78300 43.02700 28.64400
C  2.46100 42.65700 28.31700
C  5.90800 43.67600 27.27900
C  3.84100 43.09600 30.09300
O  4.69800 43.35000 30.95800
C  2.38500 42.64100 30.61500
C  2.68300 41.37700 31.40500
O  2.93700 40.29300 30.88100
O  2.64200 41.69400 32.73500
C  2.77300 40.69700 33.75000
H  -3.52600 40.62600 27.73800
H  -0.44000 41.12200 21.86800
H  4.63800 43.35900 24.75100
H  -0.24900 41.28600 31.05800
H  -2.84100 42.02300 29.93000
H  -2.36500 39.31400 29.60900
H  -3.44600 40.18000 30.89600
H  -1.76200 39.69500 31.15400
H  -2.15200 43.20200 31.76000
H  -0.65800 44.06500 31.11600
H  0.32600 43.97300 33.05900
H  0.24500 42.22800 32.94200
H  -5.65300 40.59600 24.83400
H  -4.79800 40.05800 26.19800
H  -4.86200 39.03200 24.75400
H  -5.33600 41.24800 22.32800
H  -5.26600 39.46400 22.50600
H  -4.98000 40.20000 20.92800
H  1.44900 42.70400 21.21100
H  4.15900 42.56600 22.51500
H  1.59300 40.10000 21.12400
H  3.39600 40.48200 21.41700
H  2.42000 41.22700 20.18000
H  3.62700 45.09900 22.76800
H  2.09800 44.78600 22.26800
H  4.27300 43.78400 20.40200
H  4.21500 45.52300 20.75200
H  2.89900 44.74800 19.87100
H  6.55300 42.83500 27.53300
H  6.23000 44.49500 27.92300
H  6.06200 44.05000 26.26700
H  2.03800 43.38100 31.33600
H  3.45000 39.90300 33.43300
H  1.76800 40.48800 34.11600
H  3.12300 41.24500 34.62500
Mg -5.98300 25.01800 26.72600
C  -4.47000 26.39600 29.61800
C  -7.63600 22.79500 28.63300
C  -6.98000 23.62800 23.83800
C  -3.69600 26.97500 24.84700
N  -5.94100 24.57000 28.92000
C  -5.40700 25.34200 29.90100
C  -5.89700 24.79200 31.31200
C  -6.54400 23.36500 30.87200
C  -6.71800 23.57200 29.35800
C  -5.81800 22.03300 31.26700
C  -6.75000 25.84400 32.09700
C  -7.52000 25.51100 33.37100
H  -6.96900 24.67300 34.52600
N  -7.29900 23.58000 26.25800
C  -7.94700 22.79600 27.24000
C  -8.90000 21.93500 26.53300
C  -8.76900 22.12900 25.11400
C  -7.65000 23.17700 24.98300
C  -9.87100 21.11200 27.40600
C  -9.63500 21.58700 23.97300
O  -9.48700 21.88400 22.78700
C  -10.73200 20.59600 24.36200
N  -5.40500 25.28700 24.64700
C  -5.99100 24.58100 23.66000
C  -5.41000 24.89400 22.32400
C  -4.54300 26.19900 22.59700
C  -4.61800 26.25400 24.13100
C  -4.60600 23.60700 21.97000
C  -4.82400 27.56900 21.86300
C  -3.55400 28.17800 21.20800
N  -4.40600 26.35700 27.10000
C  -3.62700 27.09300 26.22900
C  -2.73700 27.97000 26.92300
C  -3.11600 27.77500 28.26000
C  -4.10600 26.76400 28.34000
C  -1.80500 29.02000 26.39200
C  -2.85700 28.19200 29.60300
O  -2.13000 29.06800 30.09700
C  -3.72900 27.26700 30.56900
C  -2.69200 26.50000 31.35700
O  -1.83500 25.83600 30.77200
O  -2.83900 26.60200 32.68800
C  -1.65500 25.96900 33.35800
H  -8.18100 21.98800 29.12800
H  -7.33000 23.15200 22.92000
H  -2.98100 27.59000 24.29700
H  -4.97600 24.45500 31.78800
H  -7.49600 23.18200 31.37100
H  -5.21700 21.67500 30.43100
H  -6.51800 21.21900 31.45800
H  -5.12300 22.12800 32.10100
H  -7.53300 26.14700 31.40200
H  -6.09300 26.65300 32.41700
H  -8.41800 25.01800 32.99800
H  -7.78800 26.49300 33.76000
H  -9.69200 20.04100 27.50900
H  -10.91400 21.29100 27.14700
H  -9.93300 21.51700 28.41600
H  -11.45600 21.13000 24.97800
H  -10.32000 19.80600 24.99000
H  -11.27700 20.14900 23.53100
H  -6.12900 25.06800 21.52400
H  -3.54900 25.84500 22.32300
H  -5.15500 23.17100 21.13500
H  -4.48300 22.90700 22.79600
H  -3.60400 23.87800 21.63600
H  -5.12300 28.37600 22.53200
H  -5.50900 27.36500 21.04000
H  -3.87900 28.43800 20.20000
H  -2.69300 27.51300 21.13600
H  -3.36900 29.09100 21.77300
H  -1.34000 28.63100 25.48600
H  -1.03400 29.25500 27.12600
H  -2.35600 29.94100 26.20000
H  -4.36100 27.68900 31.35100
H  -1.34300 26.73900 34.06300
H  -0.79800 25.76700 32.71500
H  -1.87200 24.98100 33.76500

