158

Mg 48.53800 35.47000 28.27900
C  46.58600 33.55200 30.65000
C  48.75700 37.88400 30.40400
C  49.42400 37.29700 25.62700
C  47.66300 32.82000 25.94600
N  47.81100 35.58500 30.33200
C  47.02900 34.74300 31.17500
C  46.92000 35.38400 32.54400
C  47.21000 36.95300 32.24200
C  48.02200 36.75000 30.92600
C  45.93600 37.92400 32.11900
C  47.60400 34.72500 33.71900
C  48.76400 35.34600 34.57400
H  48.41200 35.99400 35.94900
N  49.22300 37.29600 28.12000
C  49.28600 38.12500 29.15600
C  49.85000 39.39600 28.76500
C  50.02600 39.28000 27.28800
C  49.51900 37.93400 26.88800
C  49.99600 40.52600 29.74800
C  50.54700 40.36400 26.32100
O  50.40500 40.21600 25.11300
C  51.12800 41.67300 26.84100
N  48.56100 35.12900 26.10300
C  48.96400 36.08100 25.19300
C  48.89700 35.67700 23.69900
C  48.46400 34.16600 23.90900
C  48.12700 34.04100 25.41100
C  47.92900 36.56200 22.85200
C  49.49200 33.22600 23.38400
C  50.58400 32.62700 24.34300
N  47.56200 33.55900 28.33000
C  47.34200 32.62700 27.28900
C  46.75800 31.42100 27.83200
C  46.30200 31.80700 29.06500
C  46.81400 33.09900 29.36400
C  46.52800 30.10500 27.09600
C  45.43700 31.48800 30.13000
O  44.69300 30.53000 30.28500
C  45.47000 32.62500 31.17100
C  45.71100 32.00400 32.50200
O  46.53600 31.20500 32.69300
O  44.79900 32.38400 33.41500
C  44.86100 31.67600 34.76200
H  48.70300 38.62000 31.21000
H  49.74300 37.96200 24.82200
H  47.40800 32.12200 25.14700
H  45.86300 35.32900 32.80400
H  47.73800 37.49600 33.02500
H  46.21900 38.70800 31.41700
H  45.45600 38.32700 33.01100
H  45.17300 37.36100 31.58300
H  47.97100 33.79600 33.28200
H  46.81100 34.39800 34.39100
H  49.33900 36.05700 33.98100
H  49.36800 34.47400 34.82300
H  48.99500 40.88900 29.98100
H  50.67100 41.29500 29.37100
H  50.50500 40.07600 30.60000
H  51.89000 41.40900 27.57400
H  50.34300 42.24100 27.34100
H  51.47600 42.26600 25.99500
H  49.94000 35.80400 23.40800
H  47.60500 33.95000 23.27400
H  47.13700 35.93400 22.44300
H  48.49600 37.15500 22.13400
H  47.43900 37.22800 23.56200
H  50.01800 33.70400 22.55800
H  48.86500 32.40800 23.03000
H  50.75200 33.43000 25.06200
H  51.54800 32.55800 23.83900
H  50.25200 31.67000 24.74500
H  47.36100 29.82500 26.45100
H  45.64300 30.18200 26.46500
H  46.33100 29.29700 27.80000
H  44.52700 33.14200 31.34600
H  45.54000 30.82400 34.73500
H  43.87300 31.36100 35.09800
H  45.18900 32.35700 35.54700
Mg 6.14200 53.66900 41.76700
C  5.40800 50.19900 41.54700
C  9.10900 53.11100 40.34500
C  6.53200 57.03900 41.44800
C  2.85400 54.17600 42.92900
N  7.03100 51.88700 40.91100
C  6.64000 50.57000 41.00300
C  7.77400 49.62900 40.56400
C  8.97100 50.53600 40.81600
C  8.38300 51.98000 40.63000
C  9.78800 50.39100 42.14100
C  7.64500 49.12300 39.09300
C  7.34700 50.26400 38.06900
H  6.15600 50.25800 37.29700
N  7.65100 54.93800 41.12900
C  8.86700 54.49100 40.50700
C  9.78500 55.65000 40.30700
C  8.98800 56.80900 40.57700
C  7.61900 56.27600 41.07200
C  11.21900 55.44500 39.79500
C  9.48200 58.18500 40.43600
O  10.55800 58.33500 39.93500
C  8.71200 59.43300 40.90200
N  4.82300 55.33800 42.11000
C  5.29400 56.67900 42.01100
C  4.16900 57.67400 42.40000
C  2.99200 56.78100 42.89300
C  3.53000 55.35400 42.62000
C  4.60800 58.78700 43.41000
C  1.55200 56.99000 42.17200
C  0.25000 56.92400 42.95900
N  4.47400 52.46400 42.30000
C  3.22300 52.79700 42.81500
C  2.52700 51.63700 43.20600
C  3.33100 50.57200 42.62200
C  4.50400 51.17700 42.09800
C  1.26800 51.41400 43.90200
C  3.40900 49.09700 42.47000
O  2.66800 48.15800 42.80500
C  4.69700 48.79900 41.61200
C  4.24800 48.32000 40.39800
O  3.39700 48.78800 39.69400
O  4.88200 47.13400 40.07200
C  4.64400 46.45300 38.76800
H  10.15700 53.00700 40.05500
H  6.53900 58.12800 41.36500
H  1.85500 54.30700 43.35000
H  7.71400 48.77900 41.24400
H  9.67300 50.40100 39.99300
H  9.55100 49.50200 42.72500
H  9.64900 51.17300 42.88800
H  10.83400 50.28500 41.85600
H  6.91600 48.31400 39.12200
H  8.56700 48.59800 38.84300
H  8.26500 50.33300 37.48500
H  7.22600 51.21300 38.59000
H  11.77400 56.37400 39.93400
H  11.35200 55.14400 38.75600
H  11.78200 54.87500 40.53400
H  7.75600 59.47600 40.38000
H  9.22800 60.38500 41.02300
H  8.54300 59.17000 41.94600
H  3.76600 58.09500 41.47900
H  2.89200 56.91900 43.97000
H  5.64900 58.66200 43.70700
H  4.12100 58.63100 44.37300
H  4.19300 59.74800 43.10500
H  1.43500 56.25900 41.37100
H  1.50900 57.96200 41.68000
H  0.45900 57.14600 44.00600
H  -0.15900 55.91400 42.93700
H  -0.56000 57.59700 42.68000
H  1.22800 51.70100 44.95200
H  0.97200 50.37300 43.76900
H  0.49000 52.00800 43.42300
H  5.24300 48.09400 42.23900
H  5.55000 46.21900 38.20900
H  3.89500 46.96600 38.16500
H  4.11900 45.55700 39.09900

