158

Mg 40.51100 8.71000 29.30000
C  42.27400 10.34100 31.87400
C  38.64900 7.14700 31.67200
C  38.60100 7.46200 26.92100
C  42.61900 10.14200 27.00600
N  40.45900 8.71100 31.59200
C  41.20100 9.49100 32.40000
C  40.56500 9.53200 33.82400
C  39.33400 8.49600 33.68700
C  39.53200 8.03800 32.23400
C  39.31100 7.26000 34.64800
C  40.22300 10.96100 34.20100
C  39.23000 11.18000 35.48500
H  39.84600 12.16700 36.63800
N  38.92700 7.43100 29.29600
C  38.29500 6.86500 30.35900
C  37.22700 5.97600 29.85400
C  37.20900 6.01200 28.45400
C  38.31200 6.98100 28.13400
C  36.33500 5.10600 30.82900
C  36.29100 5.20000 27.48200
O  36.48600 5.32100 26.25600
C  35.15500 4.38800 27.95000
N  40.76700 8.60200 27.21900
C  39.72600 8.15600 26.43800
C  39.92700 8.56800 24.96700
C  41.14000 9.57300 25.02900
C  41.52200 9.44200 26.49400
C  40.12600 7.38100 24.09000
C  41.04300 11.01400 24.40900
C  40.09500 11.94500 25.15300
N  42.23800 9.82400 29.38300
C  43.07000 10.30600 28.34600
C  44.18000 11.07800 28.93900
C  43.86700 11.10200 30.26800
C  42.70200 10.36500 30.51800
C  45.25300 11.76400 28.23300
C  44.33300 11.63300 31.52200
O  45.24900 12.38000 31.80400
C  43.18200 11.26300 32.58400
C  43.84200 10.56300 33.73100
O  44.57000 9.58600 33.62300
O  43.45400 11.09700 34.94600
C  43.69300 10.12300 36.14000
H  37.98000 6.67400 32.39400
H  37.89900 7.19200 26.13000
H  43.15200 10.74200 26.26500
H  41.30900 9.09800 34.49300
H  38.39900 9.05200 33.76700
H  38.49500 7.49400 35.33200
H  40.24700 7.20700 35.20400
H  39.11700 6.27600 34.22000
H  39.84700 11.44000 33.29600
H  41.14700 11.46700 34.48100
H  38.86700 10.23600 35.89100
H  38.29200 11.61000 35.13500
H  35.29100 5.14000 30.51600
H  36.35300 5.55600 31.82100
H  36.71400 4.09300 30.96400
H  34.76700 3.92900 27.04100
H  34.38700 5.00700 28.41400
H  35.58800 3.83400 28.78300
H  39.03600 9.12400 24.67800
H  42.01200 9.18200 24.50500
H  41.13600 7.13000 23.76500
H  39.36100 7.31700 23.31600
H  39.80800 6.50400 24.65400
H  40.67100 10.83600 23.40100
H  42.04400 11.44600 24.38400
H  39.67500 11.53000 26.06900
H  39.27100 12.09600 24.45600
H  40.50900 12.92800 25.37600
H  46.15100 11.16600 28.38900
H  45.46000 12.75600 28.63300
H  44.96600 11.91800 27.19300
H  42.79900 12.24800 32.85100
H  43.63100 9.08100 35.82800
H  42.87000 10.30000 36.83200
H  44.64200 10.34900 36.62700
Mg 0.54700 43.28400 25.89900
C  2.56300 43.73200 28.71700
C  -1.92500 42.06200 27.95300
C  -1.15100 42.38100 23.19600
C  3.26000 44.29600 23.92800
N  0.41600 43.03800 28.07400
C  1.26700 43.37800 29.03900
C  0.62600 43.32600 30.42800
C  -0.85200 42.79000 30.10900
C  -0.82200 42.63600 28.59200
C  -1.37700 41.57000 30.84800
C  0.67900 44.65100 31.16900
C  0.95100 44.52700 32.69400
H  0.84400 43.21500 33.34900
N  -1.30100 42.39300 25.63000
C  -2.14500 42.00800 26.59200
C  -3.26100 41.23100 26.00500
C  -3.02900 41.31400 24.59200
C  -1.78700 42.09100 24.42400
C  -4.38100 40.58600 26.84500
C  -3.86500 40.78000 23.50600
O  -3.47100 40.96400 22.35000
C  -5.16600 40.03000 23.76000
N  0.92100 43.42000 23.83300
C  0.10500 42.91100 22.89300
C  0.75100 43.09100 21.48300
C  2.05400 43.86900 21.70000
C  2.11800 43.89100 23.24200
C  1.03200 41.71800 20.75300
C  2.13700 45.25000 20.97900
C  1.86800 46.52500 21.86700
N  2.50700 43.92000 26.23800
C  3.50800 44.23500 25.30900
C  4.77200 44.31100 26.03000
C  4.39700 44.11800 27.38600
C  3.00600 43.93400 27.45200
C  6.13400 44.62800 25.43000
C  4.96300 43.98100 28.63900
O  6.15300 43.88900 28.88200
C  3.80900 43.82200 29.58300
C  3.93700 42.57000 30.38800
O  3.50800 41.48200 29.95400
O  4.34100 42.80100 31.70800
C  4.58000 41.58300 32.53700
H  -2.73600 41.86500 28.65600
H  -1.56700 42.15700 22.21100
H  4.17200 44.47200 23.35300
H  1.24400 42.62300 30.98700
H  -1.56800 43.60000 30.24700
H  -0.59200 41.05900 31.40500
H  -1.67100 40.85200 30.08200
H  -2.26800 41.81800 31.42500
H  -0.25200 45.19600 31.00800
H  1.48400 45.24600 30.73900
H  0.23700 45.22100 33.13700
H  1.93500 44.97600 32.83300
H  -4.77400 41.12100 27.71000
H  -4.17700 39.52800 27.00800
H  -5.28100 40.59500 26.23000
H  -5.45000 39.52000 22.84000
H  -5.91800 40.72000 24.14400
H  -5.25200 39.24400 24.51000
H  0.00700 43.59200 20.86500
H  2.94700 43.30400 21.43500
H  1.06300 40.92500 21.50100
H  2.01600 41.73200 20.28500
H  0.33100 41.33200 20.01300
H  1.37000 45.14200 20.21100
H  3.10000 45.41100 20.49500
H  1.67400 47.30000 21.12600
H  2.71900 46.79200 22.49300
H  0.95900 46.43500 22.46200
H  6.09300 44.62700 24.34100
H  6.75100 43.78600 25.74400
H  6.59200 45.52800 25.84100
H  3.82000 44.69600 30.23400
H  5.65700 41.41700 32.51000
H  4.08600 40.63400 32.33100
H  4.37900 41.82000 33.58200

