158

Mg 48.40400 45.48500 42.71800
C  44.91600 45.01300 42.62800
C  48.82100 41.99700 42.21700
C  51.60800 46.00500 42.26000
C  47.72900 49.00200 42.59600
N  47.04500 43.76600 42.39100
C  45.62800 43.76300 42.36400
C  45.02000 42.34800 42.23400
C  46.27700 41.42300 42.27200
C  47.49500 42.45100 42.28200
C  46.27700 40.43200 43.46500
C  44.26100 42.26900 40.85900
C  44.87100 42.94600 39.62400
H  45.19300 42.08600 38.47400
N  50.08900 44.12800 42.38200
C  50.01500 42.80500 42.17900
C  51.34300 42.35100 41.96500
C  52.21100 43.45800 42.02200
C  51.35100 44.61700 42.28400
C  51.64500 40.90300 41.51600
C  53.67000 43.44600 41.92700
O  54.29100 42.40800 41.64500
C  54.41600 44.71900 42.32400
N  49.47300 47.25900 42.43700
C  50.82600 47.19200 42.33000
C  51.38500 48.53700 41.99200
C  50.21700 49.52700 42.23300
C  49.02400 48.56600 42.45100
C  52.63500 48.92300 42.93100
C  50.01000 50.49100 40.98000
C  50.21000 52.00400 41.26800
N  46.67600 46.80100 42.59000
C  46.58800 48.19900 42.58300
C  45.20600 48.62000 42.76900
C  44.57500 47.42300 42.78200
C  45.49300 46.35000 42.71700
C  44.77000 49.99800 42.88200
C  43.25700 46.79000 42.88000
O  42.14400 47.32000 43.05100
C  43.39700 45.31200 42.71000
C  42.91700 44.66200 43.94500
O  43.41300 44.66300 45.03200
O  41.84600 43.81700 43.64400
C  41.24200 43.10600 44.79800
H  48.95400 40.96200 41.89400
H  52.59100 46.38600 41.97800
H  47.56800 50.07900 42.67200
H  44.25000 42.27700 43.00200
H  46.35200 40.89000 41.32300
H  46.83000 40.91200 44.27200
H  46.62300 39.45000 43.14300
H  45.29600 40.40700 43.94000
H  43.26100 42.69600 40.93700
H  44.11400 41.23800 40.53900
H  45.83500 43.37000 39.90900
H  44.27600 43.80600 39.31800
H  50.80100 40.24200 41.71400
H  52.47100 40.45100 42.06300
H  51.82400 40.77900 40.44800
H  53.97600 45.23800 43.17600
H  54.50900 45.33800 41.43200
H  55.42300 44.42200 42.61700
H  51.67800 48.49400 40.94300
H  50.34400 50.12800 43.13300
H  52.97500 48.04800 43.48500
H  52.40600 49.59800 43.75500
H  53.42200 49.48600 42.42900
H  48.98200 50.30400 40.67100
H  50.73700 50.17600 40.23100
H  50.43600 52.39500 42.26000
H  49.31800 52.51200 40.90100
H  51.00400 52.25400 40.56400
H  43.96200 50.24200 42.19200
H  45.59700 50.69900 42.77100
H  44.29500 50.12600 43.85400
H  42.89700 44.95300 41.81000
H  41.99300 42.57900 45.38600
H  40.35200 42.50300 44.61700
H  40.93000 43.85300 45.52800
Mg -11.35600 15.79900 42.09500
C  -8.30900 14.11000 41.39200
C  -10.07800 18.55700 40.22300
C  -14.54100 17.15400 41.98200
C  -12.67000 12.81400 43.03800
N  -9.39800 16.32200 41.03100
C  -8.30300 15.41900 40.91700
C  -7.07600 16.08500 40.16200
C  -7.63800 17.55300 39.94800
C  -9.11100 17.51800 40.43000
C  -6.91100 18.69900 40.69400
C  -6.72900 15.33700 38.81400
C  -5.40200 14.64000 38.69100
H  -4.46200 15.30700 37.68200
N  -12.11000 17.78100 41.46600
C  -11.38900 18.66500 40.62100
C  -12.31700 19.79400 40.33500
C  -13.59300 19.42100 40.96800
C  -13.44900 18.02500 41.47800
C  -11.96000 21.10400 39.63300
C  -14.75500 20.37300 40.99500
O  -14.80200 21.50600 40.36900
C  -15.97700 19.95300 41.72700
N  -13.27700 15.10500 42.22400
C  -14.44100 15.83800 42.34600
C  -15.62700 14.98000 42.52500
C  -15.03000 13.66700 43.01500
C  -13.50800 13.87800 42.75900
C  -16.92700 15.44800 43.32200
C  -15.56600 12.29700 42.28900
C  -16.29700 11.30900 43.25000
N  -10.62900 13.87100 42.42600
C  -11.29300 12.80400 42.90900
C  -10.38600 11.65100 43.06100
C  -9.15500 12.11500 42.52100
C  -9.42800 13.49400 42.13900
C  -10.69300 10.33300 43.63000
C  -7.86700 11.76800 42.06700
O  -7.41600 10.62700 41.83400
C  -7.22900 13.05100 41.47200
C  -6.21000 13.52000 42.46900
O  -6.35100 13.79600 43.63400
O  -4.95700 13.62400 41.83500
C  -3.75100 13.96800 42.65500
H  -9.64000 19.41800 39.71400
H  -15.55300 17.54500 41.85600
H  -13.12900 11.89300 43.40200
H  -6.20000 16.11500 40.81000
H  -7.61700 17.71200 38.87000
H  -6.89700 19.60300 40.08500
H  -5.86200 18.43100 40.82300
H  -7.37100 18.91400 41.65800
H  -6.66700 16.00300 37.95300
H  -7.56600 14.65200 38.68100
H  -5.60300 13.65300 38.27600
H  -5.01100 14.61000 39.70800
H  -11.17800 20.95300 38.88900
H  -11.77400 21.90300 40.35100
H  -12.79000 21.46000 39.02200
H  -15.78600 19.53200 42.71400
H  -16.54400 19.30700 41.05700
H  -16.53300 20.88600 41.81600
H  -16.01600 14.83900 41.51700
H  -15.10700 13.51900 44.09200
H  -16.94600 15.00300 44.31700
H  -17.81500 15.16000 42.76100
H  -16.99200 16.53300 43.40300
H  -14.71200 11.77400 41.85800
H  -16.31300 12.50800 41.52400
H  -17.28200 11.03900 42.86800
H  -16.38200 11.75400 44.24100
H  -15.67400 10.41500 43.26000
H  -9.83200 9.72600 43.91100
H  -11.28600 9.88900 42.83100
H  -11.25500 10.35100 44.56300
H  -6.63600 12.88000 40.57300
H  -4.00000 14.46300 43.59300
H  -3.17300 14.62700 42.00800
H  -3.14500 13.07900 42.83000

