158

Mg 48.25700 34.13600 27.01800
C  46.32000 32.53900 29.44300
C  48.54700 36.76700 29.05400
C  49.79000 35.59400 24.50600
C  47.33500 31.37700 24.78400
N  47.54400 34.51700 29.10100
C  46.89900 33.70300 29.92800
C  46.93500 34.18500 31.37300
C  47.17200 35.66000 31.09400
C  47.90700 35.64200 29.65300
C  45.94000 36.50800 31.18200
C  48.10300 33.56300 32.22000
C  48.35700 34.08800 33.64000
H  47.24800 34.85100 34.43300
N  49.16200 35.86500 26.86500
C  49.18700 36.87000 27.81400
C  50.00600 38.01600 27.24200
C  50.32200 37.70100 25.90900
C  49.73400 36.36000 25.74400
C  50.29100 39.32100 28.09100
C  51.17800 38.49500 24.85400
O  51.51300 38.05800 23.74900
C  51.52500 39.91500 25.20800
N  48.44500 33.63100 24.89800
C  49.15500 34.39600 24.15800
C  49.28200 33.84700 22.78100
C  48.68500 32.39500 22.93900
C  48.07600 32.46400 24.28200
C  48.79100 34.64200 21.58300
C  49.64400 31.19200 22.69400
C  50.49400 31.25300 21.43300
N  46.88900 32.44200 26.94500
C  46.68600 31.36800 26.01500
C  45.88100 30.39100 26.70200
C  45.68000 30.83100 27.99500
C  46.35500 32.07800 28.09700
C  45.53800 29.00800 26.12800
C  45.10300 30.42800 29.31900
O  44.52500 29.40300 29.67200
C  45.41300 31.64600 30.20300
C  45.72200 31.09400 31.55300
O  46.69400 30.39500 31.76600
O  44.77100 31.44600 32.45300
C  45.12800 31.09700 33.82300
H  48.43900 37.76300 29.48800
H  50.28800 36.02500 23.63600
H  47.08400 30.53600 24.13500
H  46.01700 34.00500 31.93300
H  47.77600 36.16900 31.84500
H  45.98200 37.28800 30.42200
H  45.86600 37.10900 32.08800
H  44.98100 36.00100 31.07700
H  49.07900 33.66400 31.74400
H  47.98900 32.48000 32.27100
H  49.24400 34.72100 33.59600
H  48.50700 33.16800 34.20400
H  51.35200 39.53800 28.21200
H  49.98100 39.17700 29.12600
H  49.69300 40.09900 27.61500
H  52.04000 40.08800 26.15300
H  50.54100 40.37300 25.10800
H  52.03100 40.40100 24.37400
H  50.36800 33.77100 22.72800
H  47.82800 32.15800 22.30800
H  48.04600 34.09200 21.00800
H  49.67200 34.85500 20.97700
H  48.27400 35.52100 21.96900
H  49.09600 30.25200 22.76000
H  50.30300 31.22600 23.56200
H  50.21200 30.39300 20.82600
H  51.53600 30.99500 21.61900
H  50.36000 32.12500 20.79200
H  45.69700 29.10100 25.05400
H  44.49300 28.79400 26.35400
H  46.30100 28.26700 26.36900
H  44.53700 32.28800 30.29600
H  45.98300 31.61800 34.25600
H  45.38400 30.03800 33.83500
H  44.29000 31.30000 34.49000
Mg -10.18600 40.49500 39.31500
C  -9.23200 37.05200 38.87000
C  -6.95100 41.26200 38.77200
C  -11.17800 43.60400 38.57600
C  -13.56100 39.38000 39.10100
N  -8.37300 39.25500 38.69400
C  -8.17700 37.89200 38.72200
C  -6.73800 37.53200 38.61100
C  -6.04300 38.91500 38.87100
C  -7.23000 39.92300 38.85200
C  -5.24900 38.98400 40.21600
C  -6.28400 36.93800 37.22400
C  -6.72100 37.56000 35.88300
H  -7.64600 36.77700 34.94500
N  -9.14700 42.26900 38.91000
C  -7.82000 42.39600 38.65900
C  -7.52100 43.76900 38.53100
C  -8.71400 44.45000 38.20100
C  -9.72900 43.41200 38.51400
C  -6.10300 44.28200 38.32000
C  -8.92300 45.90000 37.66700
O  -7.95500 46.58500 37.38100
C  -10.25000 46.54000 37.44800
N  -12.10600 41.36200 38.97700
C  -12.19800 42.68700 38.82400
C  -13.63300 43.11800 38.86900
C  -14.40700 41.80800 39.08000
C  -13.33300 40.76700 39.07600
C  -13.85900 44.26600 39.93900
C  -15.54800 41.52800 38.05500
C  -16.81600 42.49100 38.05600
N  -11.19500 38.67300 39.17900
C  -12.59200 38.37900 39.10100
C  -12.80800 36.92900 39.04600
C  -11.46300 36.40000 38.95700
C  -10.55000 37.46500 38.98500
C  -14.21700 36.25800 38.90400
C  -10.72900 35.21000 38.79600
O  -11.19700 34.07200 38.77000
C  -9.26900 35.60600 38.65700
C  -8.62400 34.81800 39.64200
O  -8.91000 34.82200 40.86300
O  -7.59500 34.01800 39.13400
C  -6.77400 33.17200 40.03500
H  -5.91500 41.60600 38.77700
H  -11.51500 44.63700 38.46600
H  -14.60000 39.04800 39.04900
H  -6.60000 36.88000 39.47400
H  -5.32100 39.16200 38.09300
H  -5.26700 40.00900 40.58500
H  -4.21100 38.77200 39.95700
H  -5.56000 38.31800 41.02100
H  -6.61500 35.90400 37.13300
H  -5.19400 36.95000 37.22000
H  -5.81200 37.63800 35.28800
H  -7.00600 38.60400 36.01200
H  -5.90100 45.15200 38.94400
H  -5.86600 44.51700 37.28200
H  -5.39900 43.47400 38.51900
H  -10.66700 46.70800 38.44000
H  -10.82300 45.85700 36.82100
H  -10.23500 47.46300 36.86800
H  -13.85700 43.41600 37.84500
H  -14.89200 41.74400 40.05400
H  -14.65800 44.02600 40.64000
H  -14.16800 45.17700 39.42500
H  -12.93100 44.45500 40.47800
H  -15.94100 40.53000 38.25100
H  -15.12800 41.38700 37.05900
H  -16.87200 42.93400 37.06100
H  -16.74500 43.24300 38.84200
H  -17.79200 42.01600 38.15700
H  -15.01900 36.58200 39.56800
H  -14.04400 35.19100 39.04300
H  -14.47800 36.43500 37.86000
H  -8.98300 35.26100 37.66300
H  -7.14400 33.38000 41.03900
H  -5.72300 33.38900 39.84400
H  -6.84200 32.09100 39.91000

