158

Mg -1.85900 17.11000 25.96100
C  -1.86500 14.97200 28.63200
C  -3.17900 19.52400 28.00000
C  -1.76800 19.30700 23.35900
C  -1.34000 14.48900 23.77400
N  -2.36800 17.24900 28.16900
C  -2.17700 16.24000 29.05300
C  -2.63700 16.65500 30.44500
C  -3.36000 18.04200 30.16000
C  -2.97900 18.34100 28.66400
C  -4.84600 18.15900 30.53700
C  -1.46000 16.82700 31.54900
C  -1.44600 15.85200 32.73600
H  -1.97300 16.20000 34.16200
N  -2.23400 19.10400 25.71700
C  -2.86600 19.94000 26.67300
C  -2.98200 21.29100 26.14400
C  -2.36600 21.32000 24.85500
C  -2.08700 19.85400 24.61500
C  -3.69900 22.40300 26.94600
C  -2.09100 22.44500 23.90200
O  -1.62500 22.27400 22.77900
C  -2.32900 23.83300 24.30300
N  -1.72000 16.92900 23.77700
C  -1.59100 17.95500 22.94600
C  -1.25600 17.46800 21.57300
C  -1.01700 15.97600 21.73200
C  -1.39400 15.76000 23.17600
C  -2.20700 17.93900 20.47500
C  0.35400 15.37300 21.36600
C  0.48800 14.21700 20.52900
N  -1.71600 15.14400 26.08600
C  -1.47500 14.22900 25.14600
C  -1.36000 12.93600 25.78900
C  -1.52700 13.19600 27.14900
C  -1.70100 14.57600 27.32000
C  -1.08900 11.55900 25.11100
C  -1.51800 12.54800 28.41400
O  -1.52800 11.34900 28.73400
C  -1.54700 13.76800 29.45900
C  -0.20900 13.82800 30.03900
O  0.72700 14.34500 29.44200
O  -0.14700 13.31900 31.34100
C  1.10600 13.34500 32.03500
H  -3.62100 20.39500 28.48800
H  -1.47800 19.86800 22.46800
H  -0.84400 13.74600 23.14600
H  -3.44000 15.98600 30.75300
H  -2.90400 18.86400 30.71200
H  -5.35600 18.13800 29.57400
H  -4.90600 19.15400 30.97700
H  -5.20200 17.48100 31.31200
H  -1.51200 17.79600 32.04400
H  -0.54000 16.73400 30.97200
H  -0.38200 15.72200 32.93400
H  -1.91000 14.90000 32.47800
H  -2.98600 22.70600 27.71400
H  -4.57400 22.08500 27.51300
H  -3.75200 23.30600 26.33800
H  -3.38300 24.07500 24.17100
H  -1.78500 24.62900 23.79200
H  -1.97300 23.79200 25.33200
H  -0.35700 17.95300 21.19300
H  -1.64900 15.47300 21.00000
H  -1.85800 18.86000 20.00700
H  -3.17400 18.13000 20.94000
H  -2.31500 17.21900 19.66400
H  0.79600 15.09800 22.32300
H  1.05000 16.17400 21.11800
H  0.84900 14.62200 19.58400
H  -0.43700 13.67900 20.31600
H  1.19200 13.56400 21.04500
H  -0.25300 11.16400 25.68900
H  -0.76600 11.51400 24.07000
H  -1.92100 10.88200 25.30100
H  -2.29700 13.59600 30.23100
H  1.32600 14.30500 32.50100
H  1.87600 13.22200 31.27400
H  1.18100 12.65200 32.87400
Mg 16.83400 -1.97400 27.42700
C  16.13000 0.36500 30.05600
C  18.83000 -3.71800 29.63500
C  18.14000 -3.69500 24.78200
C  15.44600 0.40600 25.25000
N  17.48800 -1.63400 29.63800
C  16.90200 -0.75100 30.54200
C  17.28100 -1.16300 31.94900
C  18.17800 -2.43600 31.79900
C  18.17900 -2.61500 30.28600
C  19.53500 -2.53500 32.57800
C  15.98800 -1.49900 32.72400
C  15.93700 -1.32300 34.27800
H  17.24900 -0.76500 34.91000
N  17.99800 -3.61700 27.26600
C  18.71900 -4.22600 28.27500
C  19.33700 -5.49500 27.87200
C  19.08900 -5.49100 26.40300
C  18.38000 -4.19800 26.08800
C  20.06900 -6.56200 28.79700
C  19.51700 -6.60800 25.42000
O  19.21500 -6.55000 24.22400
C  20.15100 -7.79700 25.91500
N  16.80200 -1.66800 25.35200
C  17.42100 -2.51700 24.45500
C  17.28600 -2.09000 22.90600
C  16.48900 -0.75400 23.15600
C  16.16100 -0.64100 24.67300
C  18.68800 -1.85900 22.16100
C  15.18500 -0.45600 22.30900
C  13.97800 -1.33300 22.66000
N  15.91000 0.00200 27.55200
C  15.36200 0.78500 26.56700
C  14.75900 1.96800 27.15700
C  15.03600 1.86100 28.53400
C  15.75500 0.63000 28.74700
C  14.03600 3.06500 26.46900
C  14.90600 2.43200 29.86200
O  14.47200 3.54100 30.17600
C  15.51700 1.46800 30.86100
C  16.47300 2.14400 31.87200
O  17.67400 2.38000 31.72000
O  15.78700 2.57500 32.97400
C  16.46300 3.49100 33.86200
H  19.32400 -4.29500 30.42000
H  18.56400 -4.25500 23.94600
H  15.05400 1.17100 24.57700
H  17.87700 -0.32100 32.30000
H  17.70500 -3.26800 32.32100
H  19.50500 -3.08500 33.51900
H  19.72800 -1.50800 32.88600
H  20.34200 -2.92800 31.95900
H  15.72900 -2.55300 32.62800
H  15.16000 -0.95400 32.27000
H  15.78900 -2.28700 34.76400
H  15.13900 -0.66600 34.62400
H  19.64100 -7.56500 28.79600
H  20.03000 -6.31000 29.85700
H  21.12000 -6.56100 28.50900
H  21.17600 -7.65800 26.25900
H  20.43200 -8.44200 25.08300
H  19.45100 -8.29800 26.58400
H  16.59400 -2.69000 22.31600
H  17.14200 0.07600 22.88700
H  19.05800 -0.83500 22.11000
H  18.71400 -2.19300 21.12400
H  19.51000 -2.40500 22.62500
H  15.35200 -0.46700 21.23200
H  14.95600 0.58000 22.55900
H  13.23000 -0.66700 23.09100
H  14.09800 -2.13700 23.38500
H  13.60200 -1.66100 21.69100
H  13.71700 2.70400 25.49200
H  14.71000 3.91300 26.35000
H  13.16300 3.25400 27.09500
H  14.68800 1.03100 31.41700
H  16.84900 4.29900 33.24100
H  17.30200 3.03500 34.38800
H  15.71200 3.94100 34.51200

