158

Mg 49.53300 46.16800 42.88400
C  45.97200 46.46900 41.89700
C  49.23300 42.87400 42.01000
C  52.80500 45.96100 43.08000
C  49.63400 49.64100 43.03000
N  47.81500 44.87800 42.00700
C  46.47200 45.21500 41.54800
C  45.70300 43.95500 41.08000
C  46.64000 42.77600 41.48300
C  47.96400 43.59800 41.87000
C  46.15600 42.00000 42.75600
C  45.23700 43.84000 39.57500
C  46.31400 44.38800 38.52800
H  46.69800 43.54100 37.30000
N  50.87900 44.63300 42.55100
C  50.53600 43.30400 42.28000
C  51.77800 42.50500 42.34500
C  52.87900 43.38600 42.53700
C  52.23000 44.76800 42.76700
C  51.76600 41.02700 42.10300
C  54.28400 42.97000 42.36900
O  54.54100 41.84100 41.93100
C  55.40900 43.93200 42.52500
N  50.97100 47.59900 42.87500
C  52.28200 47.28300 43.15100
C  53.09900 48.51100 43.56800
C  52.03800 49.65200 43.35900
C  50.79300 48.92500 42.95300
C  53.53700 48.32200 45.09300
C  52.31900 50.76700 42.28200
C  52.11400 52.21100 42.82400
N  48.06700 47.80500 42.73900
C  48.34100 49.13500 42.76900
C  46.99400 49.82400 42.67600
C  46.12900 48.86300 42.23500
C  46.79000 47.55100 42.34200
C  46.73900 51.28500 42.79500
C  44.75600 48.60900 41.81100
O  43.84600 49.34600 41.69000
C  44.64800 47.06700 41.44000
C  43.41300 46.44200 42.01900
O  42.42200 46.05100 41.40400
O  43.50600 46.52500 43.40000
C  42.25100 46.08800 44.11500
H  49.10000 41.83000 41.72000
H  53.86700 45.88900 43.32600
H  49.72800 50.71800 43.18700
H  44.82100 43.98200 41.72000
H  46.75100 42.20300 40.56200
H  46.88200 42.04900 43.56700
H  46.22800 40.92700 42.57500
H  45.22400 42.40700 43.14900
H  44.39900 44.49600 39.33700
H  44.88200 42.82600 39.39300
H  47.29300 44.59900 38.95900
H  45.91900 45.32000 38.12300
H  52.48300 40.48100 42.71700
H  52.15400 40.86500 41.09700
H  50.81900 40.49000 42.15400
H  55.34500 44.71100 41.76500
H  56.35000 43.39200 42.42000
H  55.40900 44.40000 43.50900
H  53.95200 48.59000 42.89400
H  51.97300 50.24900 44.26800
H  54.05500 47.40000 45.35800
H  52.62100 48.26500 45.68100
H  54.13700 49.17500 45.41000
H  51.64100 50.72500 41.42900
H  53.34300 50.73200 41.91100
H  52.07100 52.23800 43.91300
H  51.19900 52.69600 42.48400
H  53.01100 52.76600 42.54700
H  46.81200 51.57800 41.74800
H  47.46700 51.68300 43.50200
H  45.75000 51.52700 43.18200
H  44.60100 46.96900 40.35500
H  41.83500 45.25600 43.54900
H  41.66000 47.00300 44.08400
H  42.35200 45.84700 45.17300
Mg 1.96600 41.37900 25.38500
C  4.03900 41.62600 28.15000
C  -0.69900 40.61500 27.47300
C  -0.06800 41.19600 22.61200
C  4.72100 41.65400 23.39500
N  1.77300 41.15400 27.52600
C  2.69000 41.27500 28.46400
C  2.16000 41.26000 29.80200
C  0.69600 40.71500 29.62200
C  0.57600 40.80900 28.08700
C  0.48000 39.34200 30.21500
C  2.12800 42.63500 30.53400
C  1.99900 42.57200 32.09800
H  1.80500 41.22600 32.86800
N  -0.13200 41.02000 25.10900
C  -1.06700 40.65900 26.07700
C  -2.29900 40.36700 25.43300
C  -2.18100 40.58400 24.03800
C  -0.75600 41.02600 23.89400
C  -3.52100 39.88300 26.17900
C  -3.14200 40.36000 22.95500
O  -2.86900 40.63100 21.75700
C  -4.55500 40.04900 23.29600
N  2.29800 41.44300 23.30100
C  1.26800 41.39300 22.35500
C  1.95300 41.24600 20.93400
C  3.43300 41.77300 21.24800
C  3.49700 41.55100 22.73900
C  1.86500 39.82500 20.33900
C  3.74200 43.25700 20.72300
C  3.63100 44.47100 21.51500
N  3.97500 41.51700 25.63200
C  5.04000 41.60500 24.74700
C  6.29200 41.83600 25.44600
C  5.96900 41.80400 26.79000
C  4.56800 41.66400 26.85600
C  7.66500 42.15700 24.88700
C  6.52400 41.82000 28.14600
O  7.70600 41.94000 28.54100
C  5.24800 41.72500 29.11100
C  5.52000 40.57900 29.97500
O  5.33500 39.39100 29.76700
O  5.94600 41.12400 31.09900
C  6.10900 40.20000 32.16100
H  -1.60900 40.52700 28.07000
H  -0.65600 40.97700 21.71800
H  5.49600 41.76900 22.63400
H  2.79200 40.52700 30.30300
H  0.10100 41.43900 30.17900
H  -0.34300 39.43000 30.92400
H  1.29700 38.77200 30.65800
H  0.01300 38.74000 29.43600
H  1.38300 43.31400 30.11900
H  3.07900 43.13400 30.34700
H  1.14500 43.23500 32.23900
H  2.85900 43.07200 32.54300
H  -3.31700 39.59900 27.21100
H  -3.90500 39.04500 25.59700
H  -4.32200 40.61700 26.26000
H  -4.94900 40.79600 23.98400
H  -4.85000 39.13300 23.81000
H  -5.04600 40.06900 22.32300
H  1.45700 41.94700 20.26200
H  4.17600 41.04700 20.91700
H  2.85600 39.37300 20.36800
H  1.48900 39.77200 19.31700
H  1.15800 39.22000 20.90700
H  3.27800 43.46700 19.75900
H  4.79200 43.17400 20.44300
H  3.21000 44.21300 22.48700
H  2.96100 45.16800 21.01300
H  4.60900 44.93500 21.64600
H  7.75500 41.50900 24.01500
H  8.38400 41.96900 25.68400
H  7.87900 43.15800 24.51300
H  5.15800 42.63700 29.70100
H  6.69700 39.30900 31.94300
H  5.14900 39.90900 32.58800
H  6.61200 40.70200 32.98800

