158

Mg 9.68900 48.32600 25.85900
C  7.15100 48.39400 28.35000
C  11.81600 49.71700 28.29200
C  11.98200 48.61500 23.50300
C  7.21900 47.69300 23.52600
N  9.42400 48.94300 28.11000
C  8.38400 48.67700 28.91000
C  8.70900 49.01300 30.38300
C  10.21400 49.50300 30.26900
C  10.52600 49.43600 28.81600
C  10.59500 50.76100 31.03000
C  8.52900 47.77300 31.29500
C  9.55700 47.41100 32.48400
H  8.88600 46.78300 33.70900
N  11.70100 49.05100 25.83600
C  12.31500 49.57700 26.93700
C  13.65200 49.89400 26.50500
C  13.78600 49.44800 25.10600
C  12.45500 49.06600 24.72700
C  14.73100 50.45100 27.47300
C  14.97000 49.52600 24.25200
O  14.99600 49.20300 23.09300
C  16.29800 49.88500 24.85200
N  9.59700 48.21400 23.79100
C  10.69900 48.28800 23.04800
C  10.37100 47.89200 21.62400
C  8.83400 47.58800 21.64800
C  8.51800 47.87800 23.06900
C  10.97900 48.95300 20.62700
C  8.53000 46.14300 21.26900
C  8.98000 45.03700 22.20300
N  7.53900 48.20600 25.87200
C  6.72400 47.92000 24.84000
C  5.40200 47.62900 25.34100
C  5.47100 47.84100 26.73000
C  6.82900 48.22700 26.97400
C  4.25100 47.05700 24.49100
C  4.78300 47.90700 27.99000
O  3.58300 47.68900 28.16800
C  5.79900 48.23800 29.05600
C  5.68100 47.05000 30.05400
O  6.21800 45.93900 29.92300
O  4.91600 47.54200 31.12300
C  4.70400 46.71300 32.26600
H  12.55400 49.98200 29.05100
H  12.67600 48.72100 22.66600
H  6.49700 47.38800 22.76500
H  8.02300 49.74500 30.81000
H  10.83700 48.73400 30.72400
H  10.82900 51.52300 30.28700
H  11.47400 50.68400 31.67100
H  9.74500 51.08500 31.63000
H  8.35600 46.90200 30.66300
H  7.56800 47.92100 31.78800
H  10.13300 48.32400 32.63600
H  10.22200 46.60900 32.16500
H  14.42100 50.71600 28.48300
H  15.22800 51.32100 27.04300
H  15.45900 49.65000 27.60200
H  16.45300 50.95700 24.97200
H  17.05600 49.56100 24.13900
H  16.47300 49.26100 25.72900
H  11.01000 47.03800 21.40000
H  8.22000 48.30600 21.10400
H  10.29400 49.33500 19.87100
H  11.84000 48.51600 20.12000
H  11.29100 49.84800 21.16500
H  9.11200 46.06500 20.35100
H  7.47200 45.98600 21.05900
H  9.34900 45.49200 23.12300
H  9.77900 44.46000 21.73800
H  8.19500 44.35100 22.52200
H  3.43000 46.73500 25.13200
H  4.56600 46.17300 23.93600
H  3.82700 47.88000 23.91600
H  5.54500 49.20100 29.50000
H  5.09800 45.69900 32.19400
H  3.65600 46.58700 32.53500
H  5.23400 47.23400 33.06300
Mg -4.63500 25.51100 25.75600
C  -3.59300 26.83000 28.83200
C  -6.65200 23.27600 27.62000
C  -5.35300 23.87800 22.91300
C  -2.24900 27.36600 24.14000
N  -5.01400 25.08700 27.98600
C  -4.57200 25.84500 29.06600
C  -5.16600 25.50500 30.42200
C  -6.04100 24.26500 29.94700
C  -5.91100 24.21600 28.40200
C  -5.52300 22.93000 30.61500
C  -6.06900 26.62400 30.99300
C  -6.25900 26.65700 32.50400
H  -5.73800 25.62700 33.42800
N  -6.05000 23.91300 25.26500
C  -6.78400 23.18400 26.20300
C  -7.60400 22.32600 25.53000
C  -7.24500 22.40600 24.10900
C  -6.19200 23.41700 24.00200
C  -8.65800 21.39300 26.14500
C  -7.68800 21.59100 22.90500
O  -7.14700 21.64800 21.76400
C  -8.77300 20.62300 22.95000
N  -3.85700 25.57200 23.82500
C  -4.32200 24.79400 22.81500
C  -3.50500 24.97500 21.54200
C  -2.49500 26.19900 21.95100
C  -2.80200 26.29900 23.44900
C  -2.99800 23.80200 20.78800
C  -2.58800 27.51700 21.10400
C  -3.72300 28.51800 21.49800
N  -3.26600 26.92700 26.31800
C  -2.41100 27.67600 25.52700
C  -1.71800 28.61100 26.35000
C  -2.10200 28.25700 27.68100
C  -3.02600 27.25500 27.61100
C  -0.73500 29.62800 25.93700
C  -1.84900 28.53600 29.08100
O  -1.09100 29.34700 29.56800
C  -2.86600 27.67300 29.88100
C  -2.05400 26.74300 30.81800
O  -1.21300 25.87500 30.48300
O  -2.32300 27.18500 32.11300
C  -1.50200 26.58700 33.11200
H  -7.27800 22.64800 28.25700
H  -5.70400 23.45800 21.96800
H  -1.43000 27.87800 23.63000
H  -4.35500 25.33100 31.12800
H  -7.09800 24.39700 30.17800
H  -4.80800 23.21100 31.38900
H  -4.95400 22.41900 29.83900
H  -6.37900 22.37900 31.00300
H  -7.05600 26.55700 30.53700
H  -5.59500 27.57600 30.75400
H  -7.32400 26.70100 32.72900
H  -5.87900 27.63400 32.80000
H  -9.68800 21.55000 25.82400
H  -8.66800 21.37500 27.23500
H  -8.51300 20.34200 25.89500
H  -9.05400 20.21500 21.97900
H  -9.68800 21.09600 23.30600
H  -8.48700 19.79500 23.59900
H  -4.29200 25.44200 20.95000
H  -1.46100 25.87600 21.83200
H  -3.05200 22.91200 21.41600
H  -2.00700 24.00000 20.38000
H  -3.64500 23.68600 19.91900
H  -2.74700 27.30200 20.04800
H  -1.70400 28.14900 21.19100
H  -3.15900 29.30800 21.99500
H  -4.52300 28.06300 22.08200
H  -4.21400 28.89100 20.59900
H  -1.20000 30.40400 25.33000
H  0.11500 29.14100 25.45800
H  -0.34600 30.15300 26.81000
H  -3.44700 28.31900 30.53900
H  -0.62100 27.22900 33.10400
H  -1.30600 25.54900 32.84000
H  -1.92800 26.69500 34.10900

