158

Mg 24.25700 -4.83000 44.96300
C  26.44500 -2.49100 43.55400
C  21.75600 -3.63900 43.05400
C  22.50000 -7.79700 45.59100
C  26.86700 -6.04000 46.79700
N  24.16200 -3.33100 43.36700
C  25.09000 -2.35400 43.06400
C  24.55400 -1.40800 42.00800
C  22.99900 -1.53800 42.37300
C  22.95000 -2.89200 43.05300
C  22.35700 -0.45300 43.21400
C  24.81600 -1.81100 40.55700
C  25.16700 -0.60000 39.59800
H  24.85600 -0.78500 38.11700
N  22.30900 -5.64700 44.36700
C  21.40800 -4.93800 43.63900
C  20.12100 -5.66000 43.68000
C  20.29500 -6.74800 44.51100
C  21.77600 -6.80800 44.79400
C  18.94500 -5.08000 42.84800
C  19.20600 -7.78000 44.86000
O  18.05900 -7.66000 44.41400
C  19.43500 -9.04200 45.65200
N  24.66500 -6.72200 45.95200
C  23.78600 -7.68700 46.16400
C  24.43800 -8.83400 47.02700
C  25.67900 -8.12700 47.57900
C  25.72200 -6.84900 46.79100
C  23.46800 -9.37600 48.15500
C  26.92000 -9.08600 47.62700
C  27.82600 -9.05700 48.93800
N  26.30600 -4.46300 45.17900
C  27.23800 -5.03800 45.93100
C  28.48800 -4.34000 45.78400
C  28.24700 -3.35900 44.86300
C  26.87100 -3.45400 44.53000
C  29.77300 -4.59000 46.55700
C  28.88100 -2.22200 44.16600
O  30.01700 -1.77300 44.17700
C  27.69800 -1.67500 43.30000
C  27.52200 -0.24100 43.68900
O  27.59300 0.22700 44.76700
O  27.28700 0.51400 42.56900
C  27.42100 1.96900 42.91600
H  21.01800 -3.16700 42.40100
H  21.95000 -8.71400 45.81400
H  27.64600 -6.29900 47.51800
H  24.74500 -0.34500 42.15400
H  22.47200 -1.46400 41.42100
H  21.78700 0.22700 42.58000
H  23.18400 0.06200 43.70500
H  21.74300 -0.91100 43.98900
H  24.01000 -2.37900 40.09300
H  25.69900 -2.45000 40.53000
H  26.24800 -0.48100 39.66600
H  24.67700 0.28500 40.00400
H  17.96200 -5.17700 43.30900
H  18.71300 -5.65600 41.95300
H  19.01700 -3.99900 42.72300
H  18.61000 -9.75200 45.60500
H  19.59900 -8.63400 46.64900
H  20.21700 -9.67300 45.23000
H  24.73500 -9.64100 46.35600
H  25.52700 -7.72800 48.58200
H  23.16500 -10.42300 48.13800
H  22.60000 -8.75500 48.37600
H  24.09100 -9.47000 49.04500
H  27.59400 -8.79500 46.82200
H  26.61200 -10.12600 47.51300
H  28.80700 -8.63000 48.73000
H  28.08600 -10.05900 49.28200
H  27.18700 -8.56600 49.67200
H  30.57200 -3.94600 46.19000
H  30.04300 -5.64000 46.43800
H  29.46100 -4.41600 47.58700
H  27.97900 -1.73000 42.24800
H  28.18100 2.20600 43.66100
H  26.50300 2.45900 43.24000
H  27.79000 2.43700 42.00300
Mg -1.46400 33.78300 26.98000
C  -3.48200 32.65800 29.59100
C  0.03000 35.91700 29.16700
C  -0.02100 35.39000 24.43600
C  -3.50500 32.03700 24.78200
N  -1.64200 34.16800 29.13400
C  -2.59500 33.60900 29.97600
C  -2.31300 33.93900 31.40300
C  -1.24900 35.13800 31.23100
C  -1.01500 35.19600 29.71600
C  -1.60700 36.47800 31.86100
C  -1.76000 32.71800 32.26100
C  -1.19800 33.15300 33.62500
H  -1.73900 32.59800 34.84000
N  -0.01000 35.28500 26.82300
C  0.54100 36.00700 27.83800
C  1.48800 36.89300 27.38500
C  1.47000 36.90600 25.96700
C  0.44600 35.87100 25.65600
C  2.34600 37.75800 28.36400
C  2.29500 37.60400 24.91700
O  2.20400 37.44700 23.75400
C  3.42100 38.48900 25.29700
N  -1.74800 33.70000 24.88400
C  -0.99500 34.45100 24.07300
C  -1.12800 34.05300 22.60100
C  -2.18000 32.89200 22.74200
C  -2.52300 32.85000 24.16100
C  -1.53700 35.20100 21.62300
C  -1.87200 31.51700 21.99700
C  -0.43700 31.08500 21.58900
N  -3.02200 32.52600 27.14800
C  -3.77700 31.92600 26.17500
C  -4.80500 31.07400 26.75200
C  -4.69400 31.36300 28.09400
C  -3.66900 32.26500 28.25900
C  -5.62800 30.05600 26.00000
C  -5.30800 30.93100 29.31600
O  -6.27200 30.18300 29.53500
C  -4.60000 31.85000 30.36200
C  -5.58700 32.69700 31.03900
O  -6.13000 33.70400 30.58900
O  -5.83500 32.20000 32.28800
C  -7.07300 32.68900 32.91000
H  0.48000 36.63900 29.85200
H  0.57600 35.75000 23.59500
H  -4.13900 31.49200 24.08000
H  -3.21500 34.40400 31.80100
H  -0.34000 34.85500 31.76200
H  -2.56100 36.50200 32.38700
H  -1.83200 37.20800 31.08400
H  -0.77500 36.84200 32.46400
H  -0.97100 32.28900 31.64400
H  -2.48200 31.93400 32.49000
H  -1.23000 34.24200 33.60200
H  -0.12200 32.97800 33.60200
H  2.33200 37.22700 29.31600
H  1.86700 38.72600 28.50800
H  3.37200 37.88700 28.02100
H  4.18400 37.89400 25.79900
H  3.01100 39.19600 26.01800
H  3.84400 39.04800 24.46200
H  -0.15200 33.78300 22.19800
H  -3.12000 33.26600 22.33800
H  -0.71100 35.37400 20.93300
H  -1.71300 36.11700 22.18700
H  -2.44100 35.01200 21.04400
H  -2.48300 31.59200 21.09800
H  -2.29800 30.72600 22.61300
H  0.33500 31.78700 21.90300
H  -0.36700 31.13100 20.50200
H  -0.23700 30.06000 21.90200
H  -6.54700 30.32900 25.48100
H  -5.68900 29.25200 26.73400
H  -5.05300 29.68700 25.15100
H  -4.14600 31.14400 31.05600
H  -7.63700 33.46200 32.38800
H  -6.70700 33.16100 33.82200
H  -7.57700 31.78800 33.26200

