158

Mg 35.06700 2.77200 30.64100
C  32.74300 3.72000 33.09400
C  37.57200 3.14700 32.96300
C  37.27000 2.11400 28.22300
C  32.49900 2.91200 28.24200
N  35.13600 3.40100 32.74100
C  34.03100 3.48200 33.56700
C  34.43000 3.35300 35.00800
C  36.02200 3.42400 34.97500
C  36.24200 3.26300 33.52400
C  36.63800 4.75800 35.59800
C  33.81700 2.01200 35.66800
C  33.52500 2.05900 37.19100
H  34.31300 3.05500 38.07600
N  37.15400 2.57600 30.59400
C  37.98900 2.79700 31.61000
C  39.39900 2.72800 31.18200
C  39.35400 2.40100 29.79200
C  37.89900 2.29400 29.48300
C  40.59300 2.88100 32.15400
C  40.39700 2.24700 28.71600
O  40.20900 2.22400 27.55400
C  41.83100 2.30900 29.06700
N  34.94300 2.53700 28.55700
C  36.01200 2.29100 27.74600
C  35.54300 2.07800 26.22400
C  33.99500 2.08100 26.37100
C  33.79100 2.64000 27.76400
C  36.14700 2.93300 25.08400
C  33.28400 0.73400 26.00200
C  31.91800 0.97900 25.22900
N  33.07800 3.33300 30.58300
C  32.15500 3.35200 29.51900
C  30.83500 3.72000 30.06800
C  31.04900 3.85800 31.44000
C  32.38700 3.57300 31.67700
C  29.65200 4.04500 29.16800
C  30.41400 4.27100 32.68500
O  29.25700 4.56700 32.91700
C  31.40800 3.94600 33.84600
C  31.41500 5.22500 34.74000
O  31.60300 6.39900 34.43800
O  31.37400 4.85100 36.09400
C  31.33800 5.99500 37.02000
H  38.21400 3.37800 33.81600
H  37.89700 1.91400 27.35100
H  31.77500 2.98800 27.42900
H  33.99900 4.21300 35.52000
H  36.36600 2.61500 35.61900
H  35.90900 5.56100 35.70200
H  37.43100 5.02900 34.90100
H  37.12000 4.39800 36.50700
H  34.38000 1.07900 35.64100
H  32.87600 1.79000 35.16500
H  33.68800 1.08000 37.64200
H  32.47100 2.33500 37.13800
H  40.22500 2.71800 33.16700
H  41.05600 3.86500 32.08500
H  41.30100 2.11700 31.83100
H  42.04600 1.45700 29.71100
H  41.90100 3.29600 29.52400
H  42.46300 2.30000 28.17800
H  35.98800 1.15800 25.84400
H  33.50500 2.80400 25.71900
H  36.75000 2.49800 24.28700
H  36.79800 3.72500 25.45800
H  35.33500 3.44500 24.56800
H  33.01200 0.15000 26.88100
H  33.89800 0.03400 25.43500
H  31.78700 2.01000 24.90200
H  31.15900 0.69100 25.95800
H  31.92100 0.48400 24.25800
H  29.01000 4.80600 29.61200
H  29.14800 3.08200 29.09200
H  30.07000 4.48000 28.26100
H  31.21200 2.97400 34.29700
H  32.28400 6.28800 37.47600
H  30.73300 5.76400 37.89600
H  30.81500 6.85500 36.60100
Mg -12.98800 16.12200 41.29700
C  -9.79000 14.77100 40.74900
C  -11.82900 19.17400 40.19600
C  -16.13200 17.32000 41.48400
C  -14.19800 12.89400 41.81500
N  -11.03000 16.85600 40.48700
C  -9.86100 16.11000 40.44000
C  -8.70200 16.96700 39.97200
C  -9.24600 18.48300 39.96200
C  -10.79700 18.21100 40.21800
C  -8.72400 19.39400 41.10800
C  -8.19600 16.53400 38.62000
C  -6.63200 16.28500 38.55400
H  -6.06300 16.03400 37.11600
N  -13.87300 17.89900 40.86900
C  -13.21100 19.03000 40.40800
C  -14.20600 20.11200 40.24500
C  -15.44100 19.64000 40.80000
C  -15.18100 18.23000 41.10100
C  -13.95200 21.35300 39.35900
C  -16.66000 20.52600 40.94500
O  -16.62000 21.73300 40.67800
C  -18.07100 20.10000 41.38000
N  -14.92700 15.16400 41.33700
C  -16.01700 15.88100 41.56600
C  -17.26400 15.01800 41.78700
C  -16.66700 13.57700 41.68500
C  -15.18300 13.86400 41.61700
C  -17.91500 15.31600 43.14500
C  -17.14000 12.79800 40.43200
C  -17.24200 11.24000 40.59300
N  -12.21200 14.20400 41.32500
C  -12.83600 12.99100 41.53900
C  -11.78600 11.93700 41.47200
C  -10.57500 12.63500 41.14700
C  -10.93600 13.98600 41.04100
C  -12.01700 10.41000 41.61500
C  -9.17800 12.37400 41.05500
O  -8.48700 11.36200 40.98000
C  -8.60400 13.84700 40.80600
C  -7.76700 14.23900 41.97500
O  -8.14200 14.98400 42.89700
O  -6.61900 13.45900 42.06600
C  -5.67300 13.75300 43.10000
H  -11.35600 20.14200 40.01500
H  -17.13200 17.73500 41.62500
H  -14.65800 11.90500 41.87300
H  -7.87000 16.91500 40.67400
H  -9.10300 19.08700 39.06500
H  -8.29100 20.27000 40.62500
H  -7.97100 18.88000 41.70400
H  -9.56800 19.76200 41.69200
H  -8.55400 17.32800 37.96600
H  -8.70100 15.69100 38.14800
H  -6.50300 15.39800 39.17300
H  -6.09200 17.06500 39.09100
H  -12.91500 21.40800 39.02600
H  -14.17900 22.32700 39.79200
H  -14.62700 21.24300 38.51000
H  -18.36600 19.16100 40.91200
H  -18.71800 20.91100 41.04600
H  -17.93900 19.99700 42.45700
H  -17.98600 15.21600 40.99500
H  -16.86300 13.08000 42.63600
H  -17.57200 16.27100 43.54300
H  -17.68400 14.52300 43.85500
H  -18.97600 15.37300 42.89900
H  -16.37700 12.96300 39.67200
H  -18.04900 13.23900 40.02200
H  -16.95900 10.92900 41.59800
H  -16.64800 10.78400 39.80100
H  -18.29700 11.00800 40.44800
H  -11.28000 9.98800 42.29700
H  -12.08300 9.86200 40.67500
H  -13.03700 10.25100 41.96600
H  -7.92400 13.86500 39.95400
H  -5.05700 12.87100 43.27500
H  -6.21900 14.17200 43.94500
H  -5.03500 14.61300 42.89600

