158

Mg 45.23700 5.37300 48.80000
C  42.97200 7.83200 47.56400
C  42.87300 2.96000 47.79700
C  47.65500 2.98500 48.95000
C  47.72900 7.90800 48.84000
N  43.20200 5.45800 47.78300
C  42.52100 6.52600 47.35200
C  41.10300 6.14900 46.80200
C  41.12300 4.58200 46.91500
C  42.45100 4.30400 47.53200
C  39.89500 4.11400 47.76300
C  40.87600 6.62400 45.29300
C  39.56700 7.58200 45.16400
H  38.62700 7.33700 44.00700
N  45.20200 3.29200 48.64800
C  44.10000 2.50100 48.27600
C  44.52800 1.09200 48.36600
C  45.91900 1.14900 48.61500
C  46.30900 2.51400 48.77300
C  43.62500 -0.03000 48.09500
C  46.77000 -0.09400 48.81100
O  46.29800 -1.21700 48.63800
C  48.15100 -0.08200 49.28500
N  47.39000 5.45700 48.99200
C  48.16700 4.32500 49.08000
C  49.63400 4.64900 49.10400
C  49.64400 6.19600 49.08900
C  48.21400 6.54500 48.94600
C  50.41700 3.88700 50.15900
C  50.49300 6.76300 47.91900
C  51.29100 8.08800 48.24400
N  45.32300 7.44600 48.50400
C  46.41400 8.35600 48.61000
C  45.96600 9.64300 48.29700
C  44.59700 9.46800 47.99700
C  44.26600 8.12900 48.04200
C  46.86800 10.88300 48.34300
C  43.40700 10.20400 47.80900
O  43.19100 11.42100 47.88100
C  42.25000 9.14300 47.50700
C  41.17600 9.39300 48.60000
O  41.25400 8.85400 49.67100
O  40.13900 10.03800 47.99800
C  38.85800 10.03900 48.70800
H  42.03900 2.28000 47.60900
H  48.46200 2.25000 48.92900
H  48.56000 8.57900 49.06400
H  40.37500 6.56700 47.49700
H  41.12800 4.11400 45.93000
H  39.62300 3.15500 47.32400
H  39.04000 4.79100 47.74700
H  40.22600 3.86900 48.77200
H  40.97200 5.87900 44.50400
H  41.76300 7.23700 45.13100
H  39.93300 8.60700 45.10200
H  38.95800 7.53100 46.06700
H  43.38100 -0.50300 49.04600
H  44.09600 -0.74600 47.42200
H  42.70700 0.23300 47.57000
H  48.74000 0.42000 48.51700
H  48.55400 -1.04400 49.60200
H  48.23400 0.58700 50.14100
H  49.92900 4.33000 48.10400
H  49.89200 6.59500 50.07300
H  49.75200 3.17400 50.64600
H  50.89300 4.61300 50.81800
H  51.27200 3.33100 49.77300
H  49.92900 7.05300 47.03300
H  51.26700 6.03700 47.67000
H  50.80600 9.01800 47.94800
H  52.29800 7.93200 47.85500
H  51.48000 8.10700 49.31700
H  46.40500 11.54800 47.61500
H  47.88900 10.61600 48.06900
H  46.94700 11.26400 49.36200
H  41.79000 9.48300 46.58000
H  38.27000 10.90600 48.40400
H  38.97700 10.22000 49.77600
H  38.25100 9.15200 48.52700
Mg -12.45600 16.17700 41.27200
C  -9.57900 14.09900 41.11100
C  -10.56100 18.75700 39.84500
C  -15.26700 17.80300 40.90600
C  -14.31200 13.12500 42.03100
N  -10.31900 16.38700 40.52800
C  -9.26300 15.47300 40.76400
C  -7.92700 16.09100 40.39000
C  -8.30300 17.59300 40.25500
C  -9.84700 17.55000 40.13200
C  -7.88600 18.60900 41.30300
C  -7.25000 15.51500 39.08900
C  -5.71400 15.28600 39.09500
H  -4.90600 16.09800 38.02800
N  -12.85100 18.06800 40.58100
C  -11.96500 18.99900 39.97500
C  -12.67300 20.15300 39.68900
C  -14.05600 19.88200 39.97400
C  -14.13800 18.56800 40.55900
C  -11.98700 21.38400 39.06600
C  -15.26400 20.82500 39.65600
O  -15.07700 21.82200 38.95200
C  -16.66700 20.63500 40.13400
N  -14.52200 15.56200 41.44200
C  -15.48700 16.46600 41.30500
C  -16.88300 15.88600 41.41700
C  -16.54300 14.34700 41.63000
C  -15.01500 14.34200 41.75400
C  -17.62700 16.46300 42.61600
C  -17.12800 13.47600 40.48900
C  -18.19900 12.45500 40.94100
N  -12.11600 14.02500 41.57600
C  -12.90900 12.92600 41.80200
C  -12.08700 11.73600 42.03800
C  -10.78700 12.22100 41.73600
C  -10.83900 13.53800 41.43300
C  -12.63400 10.41300 42.38800
C  -9.43600 11.75900 41.55600
O  -8.97400 10.63600 41.56300
C  -8.59200 12.96200 41.18700
C  -7.67800 13.23800 42.25500
O  -7.95000 13.43000 43.44700
O  -6.47100 13.43900 41.70100
C  -5.46800 13.72200 42.71300
H  -10.03700 19.64800 39.49300
H  -16.16200 18.42500 40.98100
H  -14.86800 12.18900 42.10700
H  -7.28600 16.01200 41.26900
H  -7.84700 17.91900 39.32000
H  -8.71900 18.81900 41.97400
H  -7.47800 19.57300 41.00000
H  -7.08700 18.17000 41.90000
H  -7.42900 16.13400 38.21000
H  -7.67000 14.51100 39.02200
H  -5.52400 14.21600 39.00600
H  -5.45300 15.54100 40.12200
H  -12.58600 22.21000 38.68300
H  -11.34600 21.05600 38.24700
H  -11.21800 21.84200 39.68900
H  -17.22500 19.80800 39.69500
H  -17.18000 21.48300 39.68000
H  -16.69200 20.70600 41.22100
H  -17.39800 16.13200 40.48900
H  -16.89200 13.98200 42.59600
H  -17.17000 17.38100 42.98300
H  -17.57900 15.68700 43.38000
H  -18.67700 16.65500 42.39400
H  -16.31400 12.91100 40.03400
H  -17.52900 14.16300 39.74400
H  -17.71300 11.48900 40.80500
H  -19.06100 12.52200 40.27700
H  -18.56900 12.54500 41.96300
H  -11.80700 9.80200 42.75000
H  -13.22200 10.13100 41.51500
H  -13.28500 10.58500 43.24500
H  -8.06700 12.89300 40.23500
H  -5.35600 12.77800 43.24600
H  -5.64900 14.54200 43.40700
H  -4.50700 14.00100 42.27900

