158

Mg 41.10900 8.24400 30.07200
C  42.70600 9.56500 32.88300
C  39.06400 6.60100 32.39200
C  39.92500 6.49100 27.47100
C  43.70000 9.50300 28.10800
N  40.91200 8.11800 32.41400
C  41.56300 8.89600 33.26600
C  40.98700 8.85300 34.74300
C  39.81400 7.82400 34.55500
C  39.88600 7.57400 32.98700
C  39.92900 6.58500 35.49400
C  40.57800 10.26000 35.19600
C  41.29200 10.56100 36.60800
H  40.46500 11.21600 37.66100
N  39.75000 6.87100 29.95900
C  38.94500 6.35300 30.99000
C  37.91500 5.46900 30.41800
C  38.09500 5.52500 28.99400
C  39.27900 6.33900 28.78200
C  36.82300 4.73200 31.21400
C  37.31000 4.87500 27.87600
O  37.61000 4.83500 26.72200
C  36.04100 4.16000 28.22700
N  41.73200 8.16500 27.97200
C  41.03800 7.33300 27.12100
C  41.66400 7.44200 25.75400
C  42.84600 8.43300 25.93200
C  42.81100 8.68100 27.40000
C  42.00500 6.00100 25.22600
C  42.98000 9.67100 25.02300
C  42.04300 10.92600 25.37600
N  42.88300 9.21700 30.34400
C  43.76700 9.76100 29.44900
C  44.77200 10.42600 30.16000
C  44.35000 10.45000 31.42200
C  43.24000 9.66200 31.53400
C  46.03000 11.01600 29.61200
C  44.73500 10.83800 32.72100
O  45.66200 11.50200 33.10400
C  43.70300 10.25700 33.69300
C  44.37200 9.22900 34.58600
O  44.64500 8.05300 34.37000
O  44.75200 9.88900 35.71200
C  45.12600 9.01700 36.79800
H  38.27600 6.19200 33.02800
H  39.49900 5.95000 26.62400
H  44.40000 9.99000 27.42600
H  41.83600 8.48100 35.31500
H  38.92000 8.38700 34.82000
H  40.06200 5.71100 34.85600
H  38.95900 6.42200 35.96300
H  40.66800 6.67700 36.29000
H  39.52300 10.34300 35.45600
H  40.83100 11.02200 34.46000
H  42.03000 11.32800 36.37300
H  41.77300 9.66700 37.00400
H  35.81900 5.13800 31.08800
H  37.07800 4.80300 32.27200
H  36.91400 3.67400 30.96900
H  35.34800 4.71600 28.85900
H  36.37700 3.22500 28.67500
H  35.56900 3.96000 27.26500
H  40.97800 7.94000 25.07000
H  43.79300 7.91200 25.79000
H  41.35800 5.85600 24.36100
H  41.78600 5.22200 25.95600
H  43.05900 5.94700 24.95500
H  42.72300 9.44200 23.98900
H  44.00500 10.04000 24.99300
H  41.41300 10.58700 26.19800
H  41.38200 11.15900 24.54100
H  42.53900 11.85900 25.64100
H  45.94200 11.98900 29.12800
H  46.38200 10.32900 28.84200
H  46.78300 10.95700 30.39800
H  43.27400 11.08800 34.25300
H  45.40200 9.48200 37.74500
H  45.95200 8.38800 36.46600
H  44.25200 8.38800 36.96900
Mg 49.39600 45.33000 42.81800
C  46.13600 46.32300 42.17400
C  48.52700 42.06200 42.20200
C  52.73200 44.67500 42.63000
C  50.13500 48.73400 43.32400
N  47.46100 44.26100 42.34500
C  46.28800 44.91400 41.96200
C  45.36500 43.91500 41.24100
C  46.02100 42.53700 41.68500
C  47.41300 42.93000 42.17300
C  45.17800 41.71600 42.72300
C  45.29300 44.10400 39.67700
C  44.02600 43.44900 39.13500
H  43.48000 43.77200 37.71500
N  50.43300 43.63700 42.56300
C  49.86900 42.43500 42.35800
C  50.94500 41.43500 42.37400
C  52.15900 42.11600 42.51300
C  51.80800 43.53400 42.61400
C  50.66400 39.94800 42.08300
C  53.50500 41.43900 42.49300
O  53.56900 40.21900 42.34800
C  54.79300 42.15800 42.67600
N  51.20800 46.54200 42.88400
C  52.47000 46.03100 42.82700
C  53.53400 47.18900 42.91900
C  52.68900 48.47900 43.17600
C  51.24400 47.90000 43.16900
C  54.71000 46.95100 43.97500
C  52.97100 49.60600 42.10700
C  52.09900 49.64600 40.82700
N  48.37200 47.20000 42.78000
C  48.76000 48.50000 43.09100
C  47.65300 49.39000 43.12100
C  46.61100 48.60700 42.76600
C  47.09300 47.27400 42.60200
C  47.68100 50.87900 43.45800
C  45.18600 48.58800 42.37100
O  44.38100 49.51600 42.31900
C  44.81400 47.13100 41.93400
C  43.67700 46.58800 42.72000
O  43.62900 46.68800 43.93100
O  42.73300 45.96700 41.93600
C  41.52700 45.54200 42.71800
H  48.28500 41.03300 41.92800
H  53.78000 44.38300 42.72700
H  50.32200 49.80300 43.44000
H  44.38000 43.96200 41.70600
H  46.12700 41.91600 40.79600
H  44.29200 42.27300 43.02800
H  45.77700 41.45400 43.59400
H  44.92500 40.78100 42.22200
H  46.21700 43.72300 39.24200
H  45.43200 45.17200 39.51000
H  43.25300 43.95800 39.71100
H  44.08400 42.38800 39.38100
H  51.23700 39.60600 41.22200
H  49.62000 39.67400 41.93100
H  50.90300 39.38800 42.98700
H  54.94600 42.77300 41.78900
H  55.67600 41.51900 42.69300
H  54.79300 42.70600 43.61800
H  53.94500 47.30200 41.91500
H  52.66000 48.85700 44.19800
H  54.83100 47.89100 44.51500
H  55.69500 46.75700 43.55200
H  54.44800 46.15100 44.66700
H  54.01400 49.46400 41.82500
H  52.99200 50.53500 42.67600
H  51.67900 50.64300 40.68900
H  51.35800 48.84800 40.79800
H  52.77900 49.50800 39.98600
H  46.69100 51.14600 43.08600
H  48.42900 51.52300 42.99600
H  47.75700 50.91500 44.54400
H  44.53000 47.13900 40.88100
H  40.74900 45.25500 42.01100
H  41.19600 46.29600 43.43300
H  41.78100 44.65000 43.29100

