158

Mg 16.86400 52.27000 26.84800
C  19.06900 50.95500 29.34800
C  14.91600 53.50100 29.34500
C  14.85900 53.58900 24.43200
C  19.04700 51.18900 24.40000
N  16.97600 52.14000 28.98800
C  17.94400 51.56800 29.79300
C  17.61800 51.88100 31.26500
C  16.11000 52.21700 31.20500
C  15.98500 52.70700 29.75500
C  15.10300 51.03900 31.39900
C  18.51900 52.94600 31.93000
C  19.02200 52.86300 33.36600
H  18.18300 52.15900 34.38000
N  15.10700 53.37900 26.87700
C  14.46800 53.76500 28.04500
C  13.28800 54.53600 27.72300
C  13.27500 54.58800 26.26800
C  14.39400 53.79100 25.78500
C  12.36700 55.15300 28.73400
C  12.26600 55.34800 25.42400
O  12.34100 55.43500 24.21400
C  11.14600 56.11700 26.04000
N  16.87000 52.11000 24.69800
C  15.89500 52.78300 23.93900
C  16.12600 52.50600 22.43000
C  17.54100 51.92000 22.44600
C  17.89700 51.75900 23.94900
C  15.03600 51.65000 21.80300
C  18.59600 52.70700 21.60200
C  19.15400 54.02200 22.16600
N  18.61800 51.12200 26.92100
C  19.43900 50.83700 25.78700
C  20.62900 50.15500 26.30900
C  20.50200 50.13900 27.69900
C  19.30500 50.77200 28.01100
C  21.79800 49.87600 25.50500
C  21.19600 49.86400 28.99800
O  22.26100 49.31200 29.27400
C  20.23100 50.38900 30.06400
C  19.86200 49.48800 31.12400
O  19.11600 48.51000 30.94900
O  20.28900 49.84200 32.31400
C  20.30700 48.86100 33.46400
H  14.23600 53.74200 30.16600
H  14.29500 54.08400 23.63900
H  19.76700 50.84600 23.65400
H  17.66200 50.96000 31.84600
H  16.07600 53.04100 31.91700
H  14.37700 50.91100 30.59600
H  14.53000 51.25100 32.30100
H  15.57600 50.06500 31.52600
H  18.04000 53.92200 31.85400
H  19.44000 53.01000 31.35200
H  19.13200 53.82700 33.86200
H  20.02100 52.42900 33.40300
H  12.11000 56.15200 28.38000
H  12.79100 55.21800 29.73600
H  11.46100 54.54600 28.75200
H  10.43200 56.47800 25.29900
H  11.62200 56.94200 26.56900
H  10.65600 55.42700 26.72700
H  16.20900 53.48100 21.95100
H  17.56400 50.88600 22.10100
H  14.66800 51.99200 20.83600
H  14.14200 51.67600 22.42600
H  15.38800 50.62200 21.71900
H  18.22000 53.15300 20.68100
H  19.36000 51.98200 21.32200
H  18.95700 54.79600 21.42300
H  20.22100 54.01100 22.39000
H  18.65000 54.31000 23.08800
H  22.66700 50.12500 26.11300
H  21.78300 50.41800 24.55900
H  21.89000 48.83600 25.19100
H  20.72700 51.19900 30.59700
H  19.27200 48.76300 33.79200
H  20.99600 49.13700 34.26300
H  20.54000 47.87800 33.05600
Mg -10.13500 17.14500 40.74600
C  -6.74800 15.94300 40.68100
C  -8.98200 20.15700 39.71300
C  -13.26400 17.95000 40.02800
C  -11.00700 13.65800 40.69200
N  -8.11700 17.85100 40.28600
C  -6.89100 17.28700 40.37100
C  -5.70200 18.26400 39.91300
C  -6.49100 19.63500 40.15500
C  -7.97100 19.20700 39.97900
C  -6.12400 20.43300 41.53900
C  -5.31100 17.94800 38.44200
C  -3.79300 17.61800 38.21600
H  -3.49400 16.31600 37.45600
N  -10.99600 18.82800 40.04100
C  -10.37500 19.96200 39.62600
C  -11.36000 20.99700 39.32900
C  -12.62800 20.40600 39.67500
C  -12.33100 19.00200 40.01300
C  -10.93300 22.36900 38.94000
C  -13.98200 21.12600 39.69400
O  -14.07100 22.26000 39.28100
C  -15.29000 20.55300 40.26400
N  -11.95300 15.96800 40.33400
C  -13.14700 16.57500 40.16500
C  -14.23400 15.57400 40.13600
C  -13.50800 14.20700 40.22100
C  -12.05500 14.59900 40.40500
C  -15.27100 15.65300 41.32800
C  -13.71700 13.26200 38.93400
C  -13.29300 13.76900 37.59600
N  -9.06200 15.28200 40.96700
C  -9.63000 13.99200 40.91200
C  -8.59000 13.00700 41.13100
C  -7.38600 13.72300 40.98100
C  -7.74500 15.08700 40.87000
C  -8.65300 11.48400 41.30300
C  -5.93000 13.65600 40.94300
O  -5.16800 12.72200 41.06200
C  -5.44600 15.09300 40.73500
C  -4.66100 15.55900 41.93800
O  -3.84700 16.48300 41.99900
O  -4.92700 14.78100 43.07000
C  -4.01100 14.79900 44.23200
H  -8.63100 21.13500 39.38000
H  -14.29300 18.24100 39.80700
H  -11.24500 12.59500 40.61300
H  -4.87100 18.23900 40.61900
H  -6.26400 20.24100 39.27800
H  -7.03900 20.50700 42.12700
H  -5.67400 21.37900 41.23800
H  -5.41900 19.87700 42.15700
H  -5.64600 18.66000 37.68900
H  -5.90400 17.06000 38.22300
H  -3.38800 17.58700 39.22800
H  -3.36000 18.46600 37.68400
H  -10.75900 22.87300 39.89000
H  -11.76900 22.84100 38.42300
H  -9.96800 22.46000 38.44100
H  -15.16800 19.96300 41.17200
H  -15.72700 19.97700 39.44800
H  -16.05300 21.30400 40.47100
H  -14.90400 15.71300 39.28800
H  -13.78100 13.68800 41.14000
H  -15.26600 14.73300 41.91300
H  -16.25900 15.67600 40.86700
H  -15.14900 16.41700 42.09600
H  -14.80400 13.18800 38.91300
H  -13.18600 12.33900 39.17000
H  -14.01300 13.67400 36.78300
H  -12.46100 13.15800 37.24500
H  -13.05800 14.83300 37.58800
H  -8.05500 10.97000 40.55100
H  -9.63300 11.00700 41.32200
H  -8.28500 11.38200 42.32400
H  -4.86600 15.04000 39.81400
H  -3.10200 14.25800 43.97100
H  -4.48900 14.49200 45.16300
H  -3.68700 15.81200 44.46900

