158

Mg 53.32500 24.39400 43.37700
C  50.54000 26.49700 42.99600
C  51.37400 21.72800 42.37100
C  56.19500 22.67300 42.80300
C  55.17400 27.27500 44.10900
N  51.25100 24.16000 42.65500
C  50.31600 25.17900 42.60700
C  48.91400 24.60000 42.19900
C  49.11600 23.03800 42.38300
C  50.65700 22.95400 42.47100
C  48.43000 22.47000 43.71300
C  48.42900 25.06800 40.81300
C  49.40600 25.40100 39.64900
H  49.02700 24.96000 38.23200
N  53.76500 22.47400 42.79400
C  52.77200 21.49500 42.50800
C  53.43600 20.24000 42.24900
C  54.85900 20.37400 42.53600
C  55.02700 21.92200 42.74000
C  52.70500 18.88800 41.88500
C  55.80600 19.27900 42.62300
O  55.51500 18.12400 42.29600
C  57.28500 19.47100 43.01300
N  55.39700 24.89400 43.30000
C  56.37200 24.01800 43.04200
C  57.72700 24.64500 43.41000
C  57.42200 26.17700 43.72000
C  55.93500 26.15900 43.71100
C  58.32900 23.84600 44.65100
C  58.07200 27.11400 42.59200
C  57.90100 26.79100 41.07700
N  52.93900 26.39600 43.71400
C  53.76200 27.44500 44.06300
C  52.94700 28.62500 44.37200
C  51.69200 28.26900 43.94900
C  51.75600 26.92800 43.49400
C  53.44100 29.88300 44.93000
C  50.31000 28.68700 43.90800
O  49.90400 29.79300 44.21800
C  49.44700 27.69200 43.10900
C  49.22100 28.32800 41.84900
O  50.02800 28.62300 40.97400
O  47.83200 28.57400 41.79700
C  47.24800 28.91000 40.48500
H  50.80600 20.86100 42.02600
H  57.18700 22.21900 42.75500
H  55.78700 28.15700 44.30400
H  48.24900 25.14500 42.86800
H  48.77200 22.43000 41.54600
H  47.63100 23.17000 43.95700
H  49.14600 22.34900 44.52600
H  47.86700 21.59700 43.38100
H  47.98500 26.05000 40.97100
H  47.72300 24.30600 40.48000
H  50.41700 25.12500 39.94800
H  49.34300 26.48800 39.60000
H  52.84000 18.75900 40.81200
H  51.65800 19.00100 42.16600
H  53.07600 18.00700 42.40900
H  57.63200 18.61500 43.59000
H  57.24500 20.27300 43.75100
H  57.93700 19.75400 42.18600
H  58.49400 24.47100 42.65500
H  57.69300 26.42300 44.74600
H  58.68600 24.56800 45.38500
H  59.14600 23.22800 44.28000
H  57.51300 23.25600 45.07100
H  59.14600 27.07800 42.77200
H  57.73300 28.12600 42.81200
H  57.59800 27.74800 40.65300
H  57.16100 26.03200 40.82500
H  58.87800 26.48800 40.70100
H  53.89300 30.51500 44.16500
H  54.04600 29.63100 45.80100
H  52.62200 30.45900 45.36100
H  48.52400 27.42700 43.62300
H  47.64900 29.88800 40.21700
H  46.16300 28.92000 40.58800
H  47.42500 28.16100 39.71300
Mg 6.20600 53.14800 40.38500
C  6.14200 49.53600 39.81000
C  9.59000 52.99500 39.83500
C  6.12000 56.38500 40.12200
C  2.61900 53.05600 40.53400
N  7.59500 51.45800 39.85400
C  7.47000 50.08600 39.70900
C  8.82300 49.40000 39.42200
C  9.82500 50.49200 39.92200
C  8.96800 51.76900 39.89800
C  10.39400 50.37400 41.33900
C  9.05200 48.93300 37.97600
C  8.70600 50.04500 36.91300
H  7.52600 49.81400 35.97500
N  7.66400 54.51300 40.09600
C  9.01700 54.26000 39.96500
C  9.69300 55.50900 39.94400
C  8.68200 56.55300 40.08000
C  7.43700 55.82300 40.14200
C  11.18300 55.66600 39.75800
C  8.85500 58.09400 40.06600
O  9.93600 58.64200 39.71000
C  7.90300 59.04400 40.66700
N  4.47600 54.51600 40.23100
C  4.80000 55.84200 40.18100
C  3.57600 56.69600 40.12500
C  2.38900 55.63800 40.33300
C  3.14800 54.32200 40.41400
C  3.66100 57.85600 41.27500
C  1.24800 55.76200 39.27200
C  -0.06800 55.00700 39.64100
N  4.68900 51.61000 40.22500
C  3.29300 51.78200 40.36700
C  2.72700 50.50700 40.42800
C  3.76700 49.61400 40.23000
C  4.92900 50.27700 40.07400
C  1.26900 50.23800 40.62200
C  4.08300 48.20700 40.19300
O  3.36900 47.21600 40.36800
C  5.62500 48.09800 39.83600
C  5.84800 47.42000 38.50200
O  5.20900 47.68200 37.51200
O  6.58500 46.24400 38.69800
C  6.80200 45.41000 37.57000
H  10.68100 52.93800 39.86400
H  6.08900 57.47400 40.19500
H  1.54700 53.07800 40.74100
H  8.99800 48.65700 40.19900
H  10.59100 50.71400 39.17800
H  10.16000 49.43200 41.83400
H  10.05200 51.18800 41.97800
H  11.46500 50.51600 41.19300
H  8.46200 48.02900 37.82700
H  10.08700 48.72300 37.70300
H  9.60400 50.44000 36.43800
H  8.37400 50.93600 37.44600
H  11.45300 56.70900 39.59300
H  11.49800 55.07400 38.89900
H  11.65400 55.20300 40.62500
H  8.35000 59.86600 41.22500
H  7.30500 58.56800 41.44300
H  7.13500 59.39400 39.97800
H  3.66800 57.16700 39.14600
H  1.89100 55.86400 41.27600
H  3.30700 58.75500 40.76900
H  4.57300 58.00900 41.85200
H  2.96300 57.71300 42.10000
H  1.65100 55.27000 38.38700
H  1.02200 56.82600 39.20100
H  -0.83900 55.75000 39.84300
H  0.00700 54.63900 40.66500
H  -0.41700 54.28200 38.90600
H  0.71700 51.17600 40.66900
H  1.07700 49.79600 41.60000
H  0.94500 49.66100 39.75600
H  6.02700 47.49700 40.65200
H  5.93300 45.43300 36.91300
H  6.79900 44.36600 37.88300
H  7.67600 45.73700 37.00700

