158

Mg 0.08100 8.11600 26.20900
C  1.21100 9.65500 29.16300
C  -0.23000 5.16900 27.92100
C  -0.52400 6.60700 23.30500
C  0.70900 11.20100 24.48300
N  0.41800 7.43400 28.38900
C  0.74600 8.25500 29.38900
C  0.92700 7.47700 30.65500
C  0.52000 5.97200 30.22000
C  0.13800 6.15900 28.78600
C  1.65200 4.98600 30.59900
C  0.20500 8.06600 31.86700
C  0.86200 7.99000 33.28800
H  2.00200 6.97100 33.52900
N  -0.35000 6.23600 25.70300
C  -0.46900 5.11800 26.53500
C  -0.72600 3.91300 25.78700
C  -0.93000 4.31100 24.44300
C  -0.62000 5.74600 24.42200
C  -0.99800 2.48400 26.38700
C  -1.40100 3.45000 23.25900
O  -1.68800 3.98900 22.20200
C  -1.73700 2.01300 23.47100
N  0.15000 8.83300 24.18700
C  -0.00700 7.93300 23.18500
C  0.26700 8.62700 21.81500
C  0.27100 10.13200 22.16500
C  0.43900 10.07100 23.73800
C  1.56500 8.15000 21.08800
C  -0.94500 10.95300 21.65600
C  -0.57900 12.36700 21.32100
N  0.74100 10.07200 26.64700
C  1.00700 11.17000 25.88700
C  1.48700 12.30200 26.69700
C  1.51200 11.76300 27.99600
C  1.09100 10.42300 27.92100
C  1.90700 13.61500 26.25500
C  1.85800 12.08500 29.38100
O  2.28800 13.10800 29.90300
C  1.58400 10.77100 30.21600
C  2.63300 10.56400 31.26900
O  3.69000 9.95500 31.17100
O  2.34500 11.22000 32.45100
C  3.40300 11.07200 33.44100
H  -0.39700 4.21800 28.43200
H  -0.75800 6.13600 22.34800
H  0.85600 12.11300 23.90200
H  2.00200 7.51200 30.83400
H  -0.22500 5.54000 30.88800
H  2.02500 4.63300 29.63700
H  1.34000 4.07100 31.10200
H  2.52800 5.43600 31.06500
H  -0.73400 7.52400 31.98000
H  0.03000 9.12300 31.66300
H  0.05900 7.63200 33.93200
H  1.15300 8.95900 33.69300
H  -2.06500 2.37800 26.58400
H  -0.59100 2.48600 27.39800
H  -0.55900 1.74900 25.71100
H  -0.76600 1.52700 23.57000
H  -2.08000 1.68300 22.49000
H  -2.48000 1.78600 24.23500
H  -0.57100 8.42600 21.14800
H  1.20300 10.51400 21.74800
H  1.29300 7.43900 20.30800
H  2.07500 7.59200 21.87400
H  2.17500 8.91800 20.61300
H  -1.69100 10.91600 22.44900
H  -1.18800 10.43600 20.72700
H  -0.61000 12.56500 20.25000
H  0.36800 12.74300 21.70900
H  -1.28200 13.09800 21.72000
H  1.17500 14.26300 25.77300
H  2.64600 13.46700 25.46800
H  2.32800 14.22300 27.05600
H  0.62200 11.10000 30.60700
H  3.50200 10.02400 33.72300
H  3.07300 11.48900 34.39200
H  4.31700 11.45400 32.98400
Mg 51.01100 46.02300 42.12000
C  47.82600 46.88500 40.65800
C  50.39900 42.76400 41.06300
C  54.17500 45.36800 42.63100
C  51.63600 49.40100 42.36200
N  49.23900 45.01600 40.90100
C  48.03700 45.47300 40.62900
C  47.08400 44.43400 40.13200
C  47.94100 43.05400 40.29200
C  49.23200 43.61000 40.94900
C  47.27900 41.87600 41.04300
C  46.55800 44.61400 38.63600
C  45.05300 44.80400 38.44700
H  44.52000 43.73800 37.44200
N  52.06100 44.28800 42.04100
C  51.65700 43.07800 41.59800
C  52.73800 42.09100 41.79200
C  53.85700 42.83600 42.25300
C  53.43200 44.24500 42.33000
C  52.62500 40.58300 41.66300
C  55.18400 42.28100 42.57900
O  55.30300 41.09000 42.33000
C  56.25900 43.03300 43.19700
N  52.66300 47.21200 42.53300
C  53.85600 46.74100 42.76700
C  54.86600 47.81900 42.88900
C  54.07300 49.15400 42.81200
C  52.68300 48.56000 42.56600
C  55.76000 47.59000 44.12400
C  54.47800 50.21600 41.78800
C  54.98900 51.53000 42.30900
N  49.92300 47.81500 41.77400
C  50.34200 49.12700 41.90800
C  49.33300 50.03500 41.51400
C  48.34900 49.16000 40.98700
C  48.76700 47.81200 41.18900
C  49.24400 51.48700 41.67900
C  47.04100 49.18800 40.32200
O  46.28200 50.07100 39.91800
C  46.58800 47.70300 40.19000
C  45.44500 47.36300 41.07600
O  45.44600 46.94800 42.18600
O  44.30200 47.69400 40.41900
C  42.98900 47.62300 41.10600
H  50.32500 41.71000 40.78500
H  55.26000 45.24800 42.60300
H  51.93700 50.43900 42.51900
H  46.28500 44.33300 40.86700
H  48.28900 42.62500 39.35200
H  47.30700 41.08400 40.29400
H  46.23200 42.11700 41.22700
H  47.82600 41.67200 41.96300
H  46.86500 43.85400 37.91800
H  47.02100 45.48500 38.17200
H  44.81100 45.84500 38.23100
H  44.51800 44.58600 39.37100
H  51.55700 40.39000 41.57000
H  53.12200 40.12400 42.51800
H  53.14800 40.18800 40.79200
H  56.10600 43.57100 44.13200
H  56.69200 43.78800 42.54100
H  57.12200 42.40200 43.40600
H  55.46600 47.60300 42.00600
H  54.11000 49.61800 43.79700
H  55.39600 46.66300 44.56800
H  55.70000 48.35300 44.90000
H  56.77000 47.53500 43.71800
H  53.63200 50.49900 41.16200
H  55.26500 49.79500 41.16400
H  54.91700 51.75100 43.37400
H  54.50600 52.33000 41.74700
H  56.05200 51.67300 42.11800
H  50.20800 51.98100 41.79400
H  48.69100 51.68200 42.59800
H  48.75800 51.89800 40.79300
H  46.30000 47.49900 39.15800
H  42.73000 48.68100 41.13400
H  42.92500 47.19600 42.10600
H  42.46400 46.94000 40.43800

