158

Mg 27.47000 51.23200 25.95900
C  25.31700 52.37200 28.66700
C  29.54600 50.11700 28.31500
C  29.44700 50.52400 23.46500
C  25.24800 52.86100 23.83100
N  27.42500 51.33500 28.23700
C  26.40400 51.62200 29.08600
C  26.83600 51.42600 30.53400
C  28.33500 51.05600 30.42600
C  28.49800 50.84100 28.89400
C  29.29600 52.08900 31.06800
C  25.92300 50.39200 31.19000
C  25.00300 50.90800 32.36000
H  25.22000 50.16800 33.60800
N  29.30500 50.52300 25.96400
C  29.97300 49.95900 26.98900
C  31.23100 49.33500 26.51400
C  31.12600 49.39900 25.09500
C  29.89900 50.21200 24.75900
C  32.25000 48.67600 27.33000
C  32.14100 48.79700 24.12900
O  32.06200 49.08500 22.92500
C  33.22000 47.86900 24.51100
N  27.20100 51.50300 23.96700
C  28.19000 51.14400 23.11800
C  27.93800 51.49400 21.66700
C  26.49300 52.07400 21.73600
C  26.27800 52.18500 23.25800
C  28.92300 52.53000 20.91700
C  25.38100 51.14200 21.19300
C  24.32600 51.87900 20.47600
N  25.66900 52.35100 26.14300
C  24.98900 53.01400 25.15900
C  23.71500 53.63500 25.65900
C  23.88600 53.52000 27.12000
C  25.03100 52.64900 27.28900
C  22.65000 54.37300 24.83300
C  23.29800 53.83000 28.44900
O  22.35000 54.49700 28.80400
C  24.17600 53.06800 29.52300
C  24.70100 54.04300 30.52500
O  25.68900 54.79500 30.36400
O  24.03900 53.95800 31.68100
C  24.59700 54.84000 32.78700
H  30.16500 49.66900 29.09500
H  30.10700 50.22200 22.64800
H  24.52200 53.21000 23.09400
H  26.75400 52.38800 31.04100
H  28.41300 50.08800 30.92200
H  28.83100 52.78300 31.76800
H  29.59300 52.83600 30.33200
H  30.17700 51.60600 31.49000
H  26.53700 49.54900 31.50800
H  25.27700 49.87900 30.47700
H  23.97500 50.85000 32.00400
H  25.30300 51.94200 32.53200
H  32.29700 47.58900 27.27800
H  32.10400 48.95400 28.37400
H  33.24400 49.10800 27.21500
H  34.04100 48.40600 24.98700
H  33.58600 47.54600 23.53600
H  32.88600 46.96500 25.02100
H  27.91300 50.56300 21.10100
H  26.46200 53.09000 21.34100
H  28.42700 53.41400 20.51600
H  29.43800 51.89000 20.20200
H  29.66000 53.00500 21.56500
H  24.81700 50.74600 22.03800
H  25.79700 50.33700 20.58700
H  24.57100 51.82100 19.41500
H  24.25700 52.90300 20.84300
H  23.40700 51.30100 20.58000
H  22.98800 55.23600 24.25900
H  21.79500 54.63900 25.45500
H  22.21000 53.59900 24.20500
H  23.60900 52.28200 30.02100
H  24.18700 54.34400 33.66600
H  24.24800 55.87100 32.73200
H  25.66700 55.04800 32.80400
Mg -12.41400 16.80100 41.06600
C  -9.39600 15.23000 40.49500
C  -10.97400 19.78500 40.36400
C  -15.54900 18.19900 40.61100
C  -13.91800 13.66100 41.18400
N  -10.43900 17.38500 40.42900
C  -9.31800 16.64900 40.31900
C  -8.07500 17.46400 39.94800
C  -8.59500 18.91200 40.01800
C  -10.07700 18.67100 40.35700
C  -7.89100 19.78200 41.10600
C  -7.42300 16.98400 38.57900
C  -5.93000 17.32900 38.43500
H  -5.39100 17.59700 37.04600
N  -13.12100 18.70500 40.74100
C  -12.33500 19.80500 40.45200
C  -13.22000 20.97000 40.44000
C  -14.51600 20.52800 40.39900
C  -14.45500 19.06400 40.64500
C  -12.75300 22.40300 40.22200
C  -15.76300 21.48100 40.29500
O  -15.77600 22.63300 39.98600
C  -17.04800 20.97300 40.69000
N  -14.41300 16.01200 40.87800
C  -15.54800 16.81300 40.68100
C  -16.83300 15.94800 40.55400
C  -16.33700 14.54200 40.85400
C  -14.78600 14.67300 40.98700
C  -18.01700 16.39500 41.43400
C  -16.81300 13.38000 39.87700
C  -18.06400 12.51300 40.24900
N  -11.80300 14.86500 41.03800
C  -12.49200 13.67000 41.06300
C  -11.57800 12.49700 41.16700
C  -10.36900 13.14700 40.90600
C  -10.56100 14.54800 40.72500
C  -11.89500 11.07600 41.44300
C  -8.93200 12.83700 40.91100
O  -8.33300 11.82100 41.21900
C  -8.29400 14.19700 40.47500
C  -7.12000 14.40300 41.42600
O  -7.23700 14.94000 42.50800
O  -6.00000 13.99400 40.83600
C  -4.87000 14.06300 41.68200
H  -10.41100 20.70500 40.19200
H  -16.47400 18.68300 40.29000
H  -14.25000 12.63400 41.35500
H  -7.33100 17.25400 40.71600
H  -8.73200 19.31700 39.01600
H  -6.97300 19.32000 41.46900
H  -8.54600 19.85700 41.97400
H  -7.73100 20.77400 40.68300
H  -7.85900 17.42500 37.68200
H  -7.63500 15.91600 38.54100
H  -5.14100 16.66200 38.78200
H  -5.81600 18.26500 38.98200
H  -12.88100 22.59300 39.15700
H  -11.72500 22.58000 40.53800
H  -13.41600 22.99200 40.85700
H  -17.49000 20.25700 39.99800
H  -17.67500 21.85700 40.81000
H  -16.85900 20.52900 41.66800
H  -17.18700 16.00500 39.52400
H  -16.48400 14.43300 41.92800
H  -18.05700 15.90400 42.40700
H  -18.98000 16.22800 40.95100
H  -18.03100 17.48000 41.52800
H  -15.93400 12.73900 39.81000
H  -17.03300 13.82000 38.90400
H  -18.27700 12.63500 41.31100
H  -17.84700 11.53100 39.82900
H  -18.88600 12.83200 39.60900
H  -10.99400 10.59600 41.82300
H  -11.95500 10.69800 40.42300
H  -12.90500 10.88800 41.80800
H  -7.88500 14.01500 39.48100
H  -4.75800 15.03800 42.15800
H  -3.98300 13.88600 41.07400
H  -4.65500 13.24300 42.36700

