158

Mg 30.96200 58.25200 39.92100
C  28.45900 56.20800 38.34800
C  33.16700 55.70300 39.27900
C  33.56900 60.39900 40.34100
C  28.70400 60.86500 39.88500
N  30.81900 56.24500 38.75400
C  29.72000 55.59200 38.29800
C  29.96000 54.15600 37.87600
C  31.43100 53.95800 38.37200
C  31.85600 55.36900 38.81900
C  31.62800 52.82400 39.44200
C  29.70600 53.71400 36.37500
C  29.73500 54.89400 35.33800
H  28.61600 54.71000 34.21600
N  33.07300 58.09300 39.89600
C  33.72800 56.91400 39.66300
C  35.12300 57.16400 39.70600
C  35.31700 58.53300 40.12400
C  33.91700 59.04500 40.16900
C  36.12000 55.92600 39.41900
C  36.56900 59.13700 40.60700
O  37.55000 58.42500 40.76100
C  36.59800 60.50800 41.17200
N  31.18400 60.30500 40.14300
C  32.29300 60.97100 40.30100
C  31.99100 62.49000 40.56700
C  30.46800 62.55200 40.41000
C  30.07600 61.11400 40.05400
C  32.58900 62.84800 42.01100
C  29.89800 63.64200 39.47100
C  30.12800 63.44200 37.95800
N  28.93200 58.49200 39.25400
C  28.18000 59.68300 39.36700
C  26.88800 59.37600 38.90900
C  26.92000 58.02800 38.53000
C  28.23000 57.54500 38.71200
C  25.81500 60.44900 38.73400
C  26.12900 56.94600 37.94900
O  24.93800 56.89400 37.60300
C  27.12600 55.66000 37.92400
C  26.55800 54.70100 38.96300
O  26.97700 54.51400 40.09700
O  25.35700 54.17900 38.50600
C  24.69800 53.40300 39.45500
H  33.84200 54.85400 39.16100
H  34.37800 61.10100 40.55400
H  28.01400 61.71000 39.92900
H  29.30600 53.50200 38.45200
H  32.07700 53.69600 37.53400
H  30.69400 52.33500 39.71500
H  32.16200 52.99100 40.37700
H  32.11100 51.99600 38.92300
H  28.71500 53.26300 36.33500
H  30.56600 53.08300 36.15200
H  30.68800 54.89400 34.80900
H  29.42500 55.82600 35.81200
H  35.85100 55.34600 38.53600
H  35.95100 55.21800 40.23000
H  37.13700 56.31400 39.36200
H  35.72100 60.54200 41.81800
H  36.61600 61.21300 40.34000
H  37.49800 60.65700 41.76800
H  32.42400 63.11300 39.78500
H  29.97800 62.64900 41.37900
H  33.15600 63.77300 41.90200
H  33.18600 62.00300 42.35400
H  31.75100 63.01200 42.68900
H  30.40000 64.54200 39.82700
H  28.82400 63.72200 39.63800
H  29.25200 63.07200 37.42500
H  30.89800 62.70500 37.72700
H  30.45200 64.38400 37.51600
H  25.65400 60.88600 39.72000
H  24.84200 60.02700 38.48200
H  26.09100 61.23700 38.03400
H  26.90600 55.25000 36.93800
H  24.63900 53.98900 40.37200
H  25.26100 52.49500 39.67000
H  23.69700 53.09500 39.15000
Mg 16.94300 51.98900 25.64200
C  18.87500 50.66400 28.28400
C  14.64700 53.00100 27.88000
C  15.29800 53.38200 23.07300
C  19.53200 50.84300 23.43200
N  16.74300 51.67400 27.92200
C  17.68300 51.24800 28.77400
C  17.22800 51.42300 30.29600
C  15.82300 52.15100 29.99000
C  15.76600 52.33800 28.56300
C  14.57100 51.28300 30.44300
C  18.24000 52.37800 31.07200
C  18.49400 52.16900 32.59600
H  17.43900 51.34700 33.30200
N  15.18300 53.00500 25.49600
C  14.38000 53.37900 26.56300
C  13.37200 54.33400 26.01100
C  13.42900 54.19100 24.55000
C  14.69400 53.50800 24.32000
C  12.37000 55.11000 26.90000
C  12.48900 54.73100 23.46000
O  12.64400 54.56900 22.23100
C  11.34900 55.56900 23.87400
N  17.31800 52.03100 23.49400
C  16.53800 52.80400 22.71700
C  17.19800 53.00200 21.28600
C  18.51100 52.13300 21.47000
C  18.48200 51.64400 22.90500
C  16.29600 52.48900 20.17700
C  19.72300 53.05800 21.31900
C  20.73100 52.49200 20.35400
N  18.62400 50.66000 25.72800
C  19.57300 50.33400 24.74700
C  20.71600 49.71300 25.38300
C  20.40200 49.83600 26.78200
C  19.16400 50.44900 26.93400
C  22.00900 49.38200 24.73900
C  21.02200 49.52400 28.02000
O  22.09200 48.97000 28.19000
C  20.03400 50.04800 29.10400
C  19.67400 48.95300 30.09200
O  18.98400 47.99300 29.88800
O  20.35600 49.19800 31.20200
C  20.17000 48.30800 32.37800
H  14.02400 53.65600 28.49200
H  14.72400 53.63400 22.17900
H  20.27800 50.47800 22.72200
H  17.25600 50.48300 30.84700
H  15.77900 53.11400 30.49900
H  14.35300 50.61700 29.60800
H  13.68600 51.84900 30.73500
H  14.83300 50.62800 31.27400
H  17.85500 53.38900 30.94000
H  19.22100 52.31900 30.60000
H  18.45200 53.10800 33.14900
H  19.42000 51.60300 32.68500
H  12.69100 55.00900 27.93700
H  11.31600 54.84800 26.80500
H  12.49700 56.17000 26.68100
H  10.79100 55.81700 22.97100
H  11.81200 56.45000 24.31700
H  10.71500 54.89400 24.44900
H  17.43600 54.05800 21.15200
H  18.54700 51.30300 20.76400
H  15.77100 51.56900 20.43400
H  16.78500 52.33500 19.21600
H  15.62800 53.30800 19.91000
H  20.18200 53.35700 22.26100
H  19.46500 54.07600 21.02500
H  20.20200 51.70000 19.82500
H  21.59000 52.12200 20.91300
H  21.01700 53.19700 19.57300
H  22.65600 48.89000 25.46500
H  22.47600 50.29700 24.37400
H  21.79900 48.63300 23.97500
H  20.53800 50.85500 29.63500
H  21.00100 47.61500 32.50200
H  19.20000 47.81600 32.29800
H  20.12800 49.00400 33.21600

