158

Mg 6.27300 54.43700 40.21100
C  5.44800 51.00600 39.94200
C  9.42200 53.68300 39.11000
C  7.00400 57.72200 39.75100
C  2.89200 55.14400 40.74800
N  7.32700 52.56200 39.39300
C  6.85600 51.26300 39.45400
C  7.77800 50.28400 38.75200
C  9.11800 51.04600 38.94500
C  8.62100 52.52900 39.12500
C  10.01500 50.70200 40.08900
C  7.30400 50.09500 37.23400
C  7.56200 48.71400 36.57000
H  6.51600 48.10500 35.67000
N  8.05600 55.53800 39.68100
C  9.30500 55.01800 39.40400
C  10.29900 56.10400 39.36800
C  9.58500 57.31800 39.52400
C  8.13800 56.86600 39.61600
C  11.81000 55.90100 39.25100
C  10.20200 58.76200 39.45600
O  11.42900 58.92500 39.28900
C  9.42200 60.00500 39.86300
N  5.07000 56.14100 40.20000
C  5.63900 57.40200 40.05200
C  4.54100 58.48500 40.23900
C  3.24000 57.63700 40.44600
C  3.70400 56.21300 40.50000
C  4.83000 59.60500 41.32300
C  2.10200 57.81500 39.30500
C  0.71600 57.93200 39.89800
N  4.57500 53.38700 40.37800
C  3.28800 53.73100 40.75500
C  2.46200 52.56000 40.99300
C  3.24100 51.45800 40.73000
C  4.51700 52.02800 40.37200
C  1.02900 52.64900 41.32300
C  3.26100 50.06100 40.58300
O  2.32400 49.24700 40.63800
C  4.76800 49.66200 40.14500
C  4.66200 48.70700 39.03600
O  4.16600 48.83100 37.91600
O  5.02400 47.47500 39.57800
C  4.85200 46.24000 38.80900
H  10.46200 53.47800 38.84600
H  7.21700 58.79300 39.77300
H  1.82200 55.28200 40.91700
H  7.84100 49.34100 39.29500
H  9.69200 50.92700 38.02600
H  9.49200 50.25000 40.93200
H  10.48600 51.61000 40.46500
H  10.84800 50.09600 39.73300
H  7.88700 50.69900 36.54000
H  6.31000 50.44900 36.96200
H  7.78000 48.04700 37.40400
H  8.52800 48.90200 36.10200
H  12.01800 54.98900 38.69200
H  12.31500 55.67500 40.19000
H  12.35600 56.73900 38.81900
H  8.63600 60.41900 39.23100
H  10.15700 60.80600 39.93200
H  9.11800 59.86100 40.90000
H  4.52500 59.00600 39.28100
H  2.78900 57.84000 41.41700
H  4.08200 59.63200 42.11500
H  4.86400 60.54800 40.77800
H  5.84000 59.41800 41.68700
H  2.15700 56.96400 38.62700
H  2.30100 58.65500 38.63900
H  0.07800 57.19200 39.41400
H  0.36700 58.96000 39.99300
H  0.81000 57.65300 40.94700
H  0.57500 53.03700 40.41100
H  0.78700 53.20700 42.22800
H  0.58500 51.67000 41.50500
H  5.08600 49.04200 40.98300
H  3.89200 45.74600 38.95800
H  5.65300 45.50800 38.92200
H  4.83300 46.47300 37.74400
Mg -1.05400 33.96900 26.91500
C  -2.99500 32.48700 29.52900
C  0.39900 36.01300 29.22500
C  0.40900 35.76300 24.29300
C  -2.94400 32.24000 24.59000
N  -1.33900 34.33600 29.16700
C  -2.09100 33.57200 30.01000
C  -2.00700 34.03900 31.44200
C  -1.03000 35.25100 31.34600
C  -0.62200 35.25200 29.82400
C  -1.65700 36.65400 31.80600
C  -1.52500 32.91700 32.42900
C  -2.49000 32.51300 33.64800
H  -1.84400 32.25100 35.02500
N  0.34700 35.49100 26.80000
C  0.84400 36.14600 27.90600
C  1.88200 37.13400 27.42200
C  1.75900 37.13600 26.02800
C  0.84900 36.08700 25.60200
C  2.80200 37.86200 28.30400
C  2.43700 38.14400 24.99800
O  2.20900 38.16100 23.82300
C  3.52900 39.01000 25.52500
N  -1.23400 34.04800 24.85400
C  -0.57700 34.84800 23.96100
C  -0.97300 34.57200 22.43500
C  -1.73100 33.20700 22.56500
C  -1.99400 33.17100 24.08600
C  -1.61400 35.81000 21.76200
C  -0.95400 32.02700 22.02400
C  0.27400 31.61600 22.87000
N  -2.59300 32.59500 26.99300
C  -3.23600 31.97700 25.96000
C  -4.13900 30.96400 26.44100
C  -4.13500 31.22100 27.88000
C  -3.11400 32.12600 28.11400
C  -5.10900 30.14800 25.68700
C  -4.78000 30.78900 29.09500
O  -5.68100 29.97900 29.22700
C  -4.02600 31.58700 30.30000
C  -5.03900 32.41900 30.94000
O  -5.66700 33.34200 30.42100
O  -5.35100 31.95200 32.09500
C  -6.38100 32.65200 32.93800
H  0.90500 36.58500 30.00500
H  0.82300 36.37800 23.49100
H  -3.45300 31.68900 23.79700
H  -2.97700 34.37100 31.81100
H  -0.21700 35.02000 32.03400
H  -2.73800 36.55200 31.90800
H  -1.33900 37.46700 31.15400
H  -1.28700 36.93600 32.79200
H  -0.59300 33.14000 32.94800
H  -1.36900 32.04900 31.78800
H  -2.95500 31.56600 33.37300
H  -3.31500 33.22600 33.66500
H  2.56700 38.92500 28.35500
H  3.82500 37.65500 27.98800
H  2.76400 37.41900 29.29900
H  3.15300 39.70500 26.27600
H  4.06300 39.43900 24.67700
H  4.22000 38.35300 26.05500
H  -0.02400 34.42100 21.91900
H  -2.65900 33.30900 22.00200
H  -0.78200 36.09200 21.11800
H  -1.77200 36.65600 22.43100
H  -2.53200 35.51400 21.25400
H  -0.63200 32.10900 20.98600
H  -1.64100 31.18100 22.03300
H  0.29700 32.40100 23.62600
H  1.17000 31.69600 22.25500
H  0.13400 30.67800 23.40700
H  -5.17700 30.39400 24.62800
H  -6.09700 30.30500 26.12100
H  -4.87900 29.12700 25.99400
H  -3.63200 30.81000 30.95500
H  -7.22200 33.13700 32.44400
H  -5.81400 33.38100 33.51600
H  -6.67000 31.77200 33.51300

