158

Mg -2.46600 17.26800 26.01700
C  -2.68500 14.91200 28.60500
C  -2.98500 19.64600 28.45000
C  -2.65600 19.39600 23.61300
C  -2.52600 14.58100 23.71200
N  -2.80200 17.23800 28.33100
C  -2.66500 16.21100 29.09200
C  -2.80000 16.56600 30.63300
C  -2.89800 18.13900 30.54200
C  -3.04500 18.35900 29.03500
C  -4.02500 18.71700 31.45500
C  -1.66500 15.93100 31.50100
C  -1.10700 16.72800 32.60100
H  -0.58100 15.94000 33.81500
N  -2.69000 19.21200 25.95700
C  -2.78500 20.04200 27.07400
C  -2.74500 21.44300 26.62400
C  -2.54300 21.41200 25.20500
C  -2.64700 20.00500 24.81600
C  -2.80600 22.62700 27.53800
C  -2.31600 22.62200 24.19300
O  -2.35300 22.41400 23.01000
C  -1.96800 23.97700 24.70900
N  -2.50000 16.95500 23.89800
C  -2.70300 18.08900 23.12900
C  -2.67600 17.73400 21.64100
C  -2.70700 16.16100 21.61300
C  -2.64300 15.86500 23.15700
C  -3.66400 18.34700 20.63200
C  -1.57000 15.50800 20.81100
C  -1.96200 14.74000 19.57600
N  -2.47900 15.18700 26.07900
C  -2.51300 14.17600 25.09800
C  -2.78200 12.93700 25.66300
C  -2.82800 13.11100 27.02300
C  -2.61800 14.51000 27.25200
C  -2.78100 11.65800 24.99200
C  -3.08000 12.46600 28.37400
O  -3.37400 11.31100 28.74800
C  -2.98400 13.61500 29.40700
C  -1.91100 13.08800 30.29800
O  -0.68500 13.30800 30.13400
O  -2.52300 12.38500 31.31900
C  -1.58300 12.06600 32.40900
H  -2.94900 20.43600 29.20300
H  -2.67700 20.06000 22.74600
H  -2.62300 13.78400 22.97200
H  -3.79100 16.37900 31.04600
H  -1.92100 18.54200 30.80900
H  -3.71500 18.70200 32.50000
H  -4.96800 18.19000 31.31200
H  -4.29900 19.75800 31.28400
H  -0.94100 15.62300 30.74600
H  -2.04500 15.02200 31.96800
H  -1.93200 17.36900 32.91100
H  -0.26800 17.35300 32.29500
H  -3.64500 23.27500 27.28500
H  -1.95100 23.28300 27.37200
H  -2.94000 22.32300 28.57600
H  -1.82100 24.73600 23.94000
H  -1.03700 23.82200 25.25500
H  -2.71100 24.22800 25.46600
H  -1.74900 18.11300 21.21100
H  -3.58800 15.74300 21.12600
H  -4.34800 17.54600 20.35300
H  -3.17300 18.77100 19.75600
H  -4.23900 19.13000 21.12800
H  -1.16700 14.77700 21.51200
H  -0.69400 16.07200 20.49000
H  -2.20000 13.72100 19.88200
H  -1.26100 14.70800 18.74200
H  -2.87500 15.13800 19.13400
H  -1.82300 11.43600 24.52300
H  -3.61000 11.48100 24.30600
H  -2.76300 10.86000 25.73400
H  -3.88900 13.75200 30.00000
H  -1.55800 11.03500 32.76200
H  -1.81300 12.76900 33.21000
H  -0.51500 12.19000 32.22500
Mg 23.66000 -6.04800 46.55600
C  26.11300 -3.54700 45.80400
C  21.54000 -4.45200 44.38500
C  21.70300 -8.66300 46.90400
C  26.38100 -7.93000 48.08000
N  23.89600 -4.22600 45.23600
C  24.96200 -3.35200 45.12300
C  24.70900 -2.40800 43.98800
C  23.09300 -2.46200 43.76500
C  22.83300 -3.83000 44.49400
C  22.30900 -1.25900 44.40900
C  25.48600 -2.85500 42.74200
C  26.78700 -2.08300 42.50600
H  27.08300 -1.48400 41.14000
N  21.82000 -6.48600 45.83100
C  21.05000 -5.66000 45.03100
C  19.73500 -6.27900 44.84100
C  19.70900 -7.51800 45.54300
C  21.14600 -7.63300 46.15000
C  18.63500 -5.60200 44.06200
C  18.55700 -8.51700 45.58900
O  17.46700 -8.44100 45.00000
C  18.69100 -9.68700 46.42500
N  23.94900 -7.96600 47.43600
C  22.95900 -8.86100 47.42400
C  23.43600 -10.23200 48.01500
C  25.01300 -10.09000 48.11000
C  25.14300 -8.58400 47.88300
C  22.73000 -10.81200 49.22700
C  25.78300 -10.91700 47.09400
C  26.69300 -11.97600 47.83600
N  25.70300 -5.76900 47.07800
C  26.62700 -6.64100 47.68000
C  27.85200 -5.95500 47.88300
C  27.76100 -4.83600 47.04200
C  26.41200 -4.72600 46.64600
C  29.14200 -6.45300 48.57900
C  28.50800 -3.72700 46.55300
O  29.65300 -3.45500 46.68400
C  27.43500 -2.80200 45.92300
C  27.36600 -1.51000 46.67700
O  27.08700 -1.31200 47.88300
O  27.42600 -0.42900 45.87200
C  27.09000 0.92700 46.39100
H  20.78700 -3.97400 43.75400
H  21.12100 -9.57200 47.07100
H  27.15800 -8.58700 48.47500
H  25.02600 -1.42500 44.33600
H  22.80600 -2.48300 42.71400
H  22.96200 -0.46200 44.76500
H  21.65400 -1.64600 45.19000
H  21.66100 -0.94700 43.59000
H  24.85400 -2.96800 41.86100
H  25.72600 -3.90000 42.94100
H  27.62200 -2.77400 42.61400
H  26.84200 -1.29600 43.25900
H  17.78100 -6.25700 43.89000
H  18.89200 -5.07400 43.14300
H  18.28100 -4.91200 44.82800
H  17.73800 -10.21500 46.46100
H  18.90600 -9.22000 47.38600
H  19.43200 -10.40000 46.06300
H  23.16700 -10.97500 47.26400
H  25.29900 -10.25700 49.14900
H  23.31000 -11.55100 49.78000
H  21.75500 -11.25800 49.02900
H  22.52700 -9.99200 49.91600
H  26.38000 -10.29600 46.42600
H  25.12800 -11.51000 46.45700
H  27.71500 -12.03300 47.45900
H  26.42000 -12.95200 47.43500
H  26.64800 -11.88200 48.92100
H  29.02700 -7.22000 49.34400
H  29.57600 -5.58900 49.08200
H  29.73000 -6.89500 47.77400
H  27.81900 -2.54700 44.93500
H  26.24000 0.86200 47.07000
H  27.06800 1.63900 45.56600
H  27.95300 1.12400 47.02700

