158

Mg 16.29100 51.82000 26.21900
C  18.02200 50.33400 29.02200
C  13.99600 52.92200 28.44800
C  14.81100 53.29800 23.68000
C  18.80900 50.55800 24.18500
N  16.01400 51.51100 28.48500
C  16.90500 51.09000 29.40900
C  16.46000 51.44400 30.89000
C  15.03300 51.99600 30.63700
C  15.00200 52.14300 29.10200
C  13.95600 50.98300 31.10400
C  17.46800 52.53900 31.41200
C  17.68600 52.43200 32.88600
H  16.82800 51.51700 33.73100
N  14.59700 53.02300 26.03800
C  13.79800 53.30700 27.05600
C  12.64700 54.16300 26.45300
C  12.77200 54.08000 25.02900
C  14.08600 53.45100 24.84600
C  11.66900 54.89000 27.30800
C  11.98200 54.72900 23.90000
O  12.38500 54.73700 22.73800
C  10.63200 55.37600 24.22600
N  16.71500 51.88200 24.18700
C  15.97600 52.62300 23.29500
C  16.50000 52.44300 21.83600
C  17.89200 51.76700 22.08100
C  17.79900 51.40500 23.58400
C  15.58700 51.63100 20.83400
C  19.05100 52.76000 21.73700
C  20.33800 52.14800 21.11900
N  17.93700 50.64600 26.47500
C  18.88800 50.22000 25.53900
C  19.89600 49.37300 26.15900
C  19.53300 49.43300 27.54300
C  18.40200 50.22000 27.67700
C  21.14000 48.86900 25.48200
C  19.98600 48.97700 28.77900
O  20.92200 48.30400 29.10700
C  19.10500 49.70800 29.81500
C  18.75700 48.71900 30.86500
O  18.14200 47.70100 30.57000
O  19.29400 49.06200 32.06400
C  19.11800 48.04800 33.15000
H  13.25500 53.35700 29.12100
H  14.44500 53.73300 22.74800
H  19.59900 50.26700 23.48900
H  16.39100 50.50100 31.43100
H  14.85000 52.96600 31.10000
H  13.37100 51.48600 31.87400
H  14.32600 50.02600 31.47200
H  13.29700 50.76400 30.26500
H  17.23200 53.59500 31.27600
H  18.38000 52.35500 30.84400
H  17.49200 53.41600 33.31300
H  18.74800 52.22900 33.02400
H  11.93900 55.94500 27.25100
H  11.67700 54.52200 28.33400
H  10.68400 54.68200 26.89100
H  9.97700 55.54000 23.37000
H  10.71200 56.30200 24.79600
H  10.16200 54.56200 24.77700
H  16.56000 53.39300 21.30500
H  18.08600 50.89900 21.45200
H  16.09100 51.54500 19.87100
H  14.63400 52.13100 20.66300
H  15.30000 50.67800 21.27900
H  19.40000 53.16200 22.68800
H  18.87100 53.59700 21.06300
H  20.34900 51.05800 21.08500
H  21.17500 52.55600 21.68600
H  20.43100 52.53000 20.10300
H  22.01000 49.51500 25.60400
H  20.93700 48.79500 24.41400
H  21.42500 47.90000 25.89300
H  19.72100 50.47600 30.28300
H  18.07300 48.01600 33.45900
H  19.78400 48.39800 33.93800
H  19.49200 47.05300 32.90600
Mg -11.23800 17.48500 40.63800
C  -7.73800 16.80600 40.61100
C  -10.41600 20.81100 39.95700
C  -14.52200 18.09900 40.04800
C  -11.76200 14.13600 40.98500
N  -9.27300 18.65100 40.26100
C  -8.01700 18.13900 40.29200
C  -7.01800 19.17200 39.84900
C  -7.78500 20.54400 40.02200
C  -9.26700 19.96700 40.13200
C  -7.42100 21.30600 41.35200
C  -6.43200 19.02800 38.37300
C  -4.88600 18.81700 38.20200
H  -4.32900 17.72500 37.28100
N  -12.30600 19.17900 40.05100
C  -11.79700 20.43000 39.86000
C  -12.92600 21.38500 39.59500
C  -14.15000 20.65100 39.53600
C  -13.73400 19.24700 39.86300
C  -12.71600 22.84900 39.54300
C  -15.53100 21.12300 39.19200
O  -15.76700 22.28500 38.93900
C  -16.65300 20.14500 39.20000
N  -12.94400 16.23500 40.49000
C  -14.21500 16.74000 40.39500
C  -15.23000 15.60000 40.45200
C  -14.35300 14.31400 40.78000
C  -12.95000 14.89100 40.74000
C  -16.37800 15.89500 41.40600
C  -14.60800 13.07500 39.86000
C  -13.73900 12.98800 38.54600
N  -10.06500 15.74100 40.63400
C  -10.42500 14.43900 40.93500
C  -9.24000 13.57800 40.91700
C  -8.16100 14.47900 40.79100
C  -8.67800 15.80000 40.73100
C  -9.13500 12.08900 40.96300
C  -6.73600 14.54400 40.80300
O  -5.88100 13.61100 40.92800
C  -6.40900 16.05800 40.61100
C  -5.38700 16.50500 41.61300
O  -4.37600 17.12300 41.35100
O  -5.91100 16.37000 42.85600
C  -5.15700 16.93700 43.97300
H  -10.10200 21.85500 39.89400
H  -15.60600 18.22900 40.02700
H  -11.86800 13.05500 41.10200
H  -6.10300 19.05800 40.43100
H  -7.82600 21.23300 39.17800
H  -6.76700 20.72300 42.00100
H  -8.30300 21.49000 41.96600
H  -6.95300 22.25300 41.08500
H  -6.64200 19.90200 37.75600
H  -6.95800 18.28300 37.77700
H  -4.43900 18.77000 39.19500
H  -4.56200 19.81700 37.91200
H  -12.32200 23.20600 38.59200
H  -12.00100 23.14900 40.30900
H  -13.66000 23.34900 39.76200
H  -17.55000 20.62700 38.81000
H  -17.02500 19.73300 40.13800
H  -16.56300 19.28200 38.54100
H  -15.58300 15.51900 39.42300
H  -14.49900 13.98500 41.80900
H  -17.12500 16.13900 40.65000
H  -16.32400 16.76300 42.06300
H  -16.70100 14.99000 41.91900
H  -15.66000 13.04900 39.57400
H  -14.37500 12.23500 40.51500
H  -12.90000 12.32700 38.76200
H  -13.37700 13.98400 38.28900
H  -14.34700 12.45600 37.81400
H  -8.21900 11.69000 41.39800
H  -9.28200 11.77600 39.92900
H  -10.01100 11.76500 41.52500
H  -6.05000 16.06900 39.58200
H  -5.44500 17.97900 44.10700
H  -4.09700 16.86600 43.73000
H  -5.29800 16.39600 44.90900

