158

Mg 41.35200 40.99400 26.89000
C  40.71300 43.28700 29.57100
C  42.30500 38.79700 29.39200
C  42.08100 38.92700 24.56000
C  40.85900 43.67300 24.60000
N  41.45100 41.02800 29.20800
C  41.11400 42.01500 30.05700
C  41.04200 41.55000 31.51100
C  41.91900 40.29400 31.43400
C  41.93800 40.00400 29.89500
C  43.44000 40.56600 32.00400
C  39.63300 41.38400 32.13700
C  39.25600 42.36500 33.30700
H  38.48800 41.77900 34.51200
N  41.95700 39.09000 27.00600
C  42.26700 38.40200 28.14000
C  42.67800 37.03200 27.76300
C  42.68900 37.03800 26.31300
C  42.15100 38.36900 25.87300
C  42.97200 35.89200 28.70300
C  43.07500 35.92900 25.36700
O  42.91300 35.96800 24.17000
C  43.60300 34.64600 25.89600
N  41.64700 41.31500 24.84200
C  41.77400 40.17700 24.10700
C  41.73500 40.52500 22.60700
C  41.22700 41.96600 22.67600
C  41.26600 42.34700 24.10800
C  43.07300 40.30800 21.96500
C  39.90200 42.31400 21.98700
C  38.63400 41.74200 22.63100
N  40.75900 42.99700 26.96900
C  40.70600 43.99300 26.01200
C  40.33300 45.26300 26.58700
C  40.31500 44.98000 27.99500
C  40.61600 43.59600 28.14500
C  40.02400 46.56800 25.85200
C  40.07400 45.69700 29.25600
O  39.92000 46.92000 29.41500
C  40.30400 44.57400 30.34400
C  41.36600 45.09900 31.31600
O  42.56100 44.93700 31.19000
O  40.82000 45.75500 32.38800
C  41.69600 46.41300 33.43400
H  42.66800 38.09300 30.14400
H  42.29800 38.18800 23.78600
H  40.65700 44.43500 23.84500
H  41.63000 42.30100 32.04000
H  41.42400 39.42800 31.87300
H  44.14300 40.62200 31.17300
H  43.64500 39.89400 32.83700
H  43.52600 41.54400 32.47700
H  39.50500 40.37500 32.53000
H  38.88600 41.62500 31.38100
H  38.69000 43.19300 32.87800
H  40.15600 42.80300 33.73700
H  42.28400 35.05500 28.58200
H  42.91100 36.24300 29.73300
H  43.95900 35.50300 28.45300
H  42.79300 34.23000 26.49500
H  44.51500 34.76100 26.48200
H  43.66700 34.02400 25.00300
H  41.05000 39.83100 22.12000
H  41.92600 42.63800 22.17700
H  43.13600 39.36200 21.42600
H  43.83000 40.26700 22.74800
H  43.31500 41.05400 21.20800
H  39.92900 41.80700 21.02200
H  39.80200 43.39500 21.88300
H  38.87500 41.10000 23.47900
H  37.97600 41.24300 21.91900
H  38.13500 42.62200 23.03700
H  39.62400 47.29700 26.55700
H  39.23700 46.40600 25.11600
H  40.88900 47.02800 25.37300
H  39.36400 44.47500 30.88600
H  42.76300 46.30800 33.23300
H  41.55500 45.86200 34.36400
H  41.42100 47.44500 33.65100
Mg 0.54900 43.88000 25.93200
C  2.10100 43.68600 29.03900
C  -2.49300 42.86400 27.51100
C  -0.85600 43.20500 22.91300
C  3.65700 44.39400 24.49400
N  -0.08900 43.35100 27.96000
C  0.70100 43.43000 29.04600
C  -0.05000 43.23000 30.37000
C  -1.48800 42.75900 29.84900
C  -1.37000 43.02700 28.37100
C  -1.70900 41.22200 30.06800
C  -0.12700 44.53800 31.24600
C  0.54200 44.51100 32.59600
H  0.29800 43.30100 33.48900
N  -1.44500 43.40700 25.32600
C  -2.52900 43.06600 26.11700
C  -3.68500 42.82800 25.22400
C  -3.18200 42.87300 23.91400
C  -1.70600 43.09000 24.00300
C  -5.13800 42.57500 25.72000
C  -3.92600 42.77400 22.50700
O  -3.36700 42.72900 21.44400
C  -5.50800 42.62000 22.52100
N  1.27500 43.82900 23.99500
C  0.50500 43.64500 22.81300
C  1.24000 43.93100 21.49600
C  2.51600 44.65600 22.12000
C  2.50600 44.25800 23.62200
C  1.46100 42.66800 20.63300
C  2.71900 46.17500 21.79500
C  4.16700 46.57200 21.83200
N  2.58400 43.95200 26.58100
C  3.73000 44.14700 25.88700
C  4.80800 44.28100 26.79500
C  4.25100 44.08100 28.03900
C  2.87300 43.87200 27.86400
C  6.33500 44.44700 26.57800
C  4.50300 43.87700 29.47500
O  5.56000 43.81300 30.11000
C  3.14400 43.76600 30.17600
C  3.23600 42.47900 30.80700
O  3.13300 41.43400 30.16900
O  3.58900 42.57800 32.12000
C  4.14900 41.35000 32.71000
H  -3.43100 42.54900 27.97200
H  -1.24100 43.02700 21.90700
H  4.59200 44.85900 24.17600
H  0.49000 42.48900 30.95800
H  -2.36300 43.29800 30.21400
H  -0.70600 40.81000 29.95800
H  -2.33800 40.77200 29.30000
H  -2.03300 41.00000 31.08500
H  -1.17900 44.61400 31.52300
H  0.14200 45.43100 30.68200
H  0.28800 45.41400 33.15100
H  1.62200 44.56100 32.46100
H  -5.74000 43.44600 25.46000
H  -5.22900 42.41500 26.79500
H  -5.42700 41.60500 25.31600
H  -5.89200 42.45500 21.51400
H  -5.96100 43.52800 22.92000
H  -5.70200 41.79600 23.20800
H  0.73900 44.57900 20.77700
H  3.34500 44.23900 21.54800
H  1.59600 41.80000 21.27800
H  2.43500 42.64200 20.14500
H  0.66400 42.52800 19.90200
H  2.25300 46.74800 22.59700
H  2.33200 46.29700 20.78400
H  4.49700 47.47500 22.34500
H  4.48200 46.85200 20.82700
H  4.90400 45.84700 22.17900
H  6.82100 43.89400 27.38100
H  6.65800 45.48800 26.58500
H  6.67600 44.16600 25.58200
H  3.03700 44.52900 30.94700
H  3.38200 40.94400 33.37000
H  5.01300 41.48200 33.36100
H  4.37800 40.55800 31.99700

