158

Mg -0.10500 7.18600 26.55700
C  0.30800 9.37600 29.20800
C  0.52900 4.56700 28.86800
C  -0.59500 5.02400 24.24800
C  -0.05100 9.77200 24.38300
N  0.21700 6.94500 28.74100
C  0.21700 8.04200 29.62500
C  0.01000 7.54200 31.06400
C  0.74300 6.10300 30.85900
C  0.62400 5.87400 29.40200
C  2.22200 6.01300 31.26100
C  -1.48400 7.48400 31.39500
C  -1.78000 7.64900 32.91400
H  -0.64700 7.38700 33.88200
N  -0.03700 5.05200 26.53400
C  0.16900 4.20900 27.57000
C  0.09700 2.91000 27.07500
C  -0.30700 2.97300 25.70800
C  -0.31400 4.37200 25.42600
C  0.41700 1.69800 27.84700
C  -0.56400 1.88900 24.70000
O  -0.82400 2.10700 23.54000
C  -0.34200 0.46100 25.14800
N  -0.33500 7.34700 24.56700
C  -0.54000 6.30300 23.79100
C  -0.85600 6.70700 22.31300
C  -0.73700 8.28000 22.44900
C  -0.38500 8.53000 23.88300
C  0.16100 6.19800 21.27400
C  -1.97600 9.10000 21.95500
C  -1.85700 10.06200 20.77700
N  0.21100 9.20000 26.68300
C  0.32400 10.15900 25.69000
C  0.59600 11.42400 26.28200
C  0.49200 11.19800 27.70400
C  0.31200 9.80800 27.88100
C  0.63800 12.76700 25.65900
C  0.54400 11.83000 29.01100
O  0.70900 13.00900 29.39800
C  0.34100 10.60400 29.98500
C  1.47000 10.59200 30.92100
O  2.55100 10.08500 30.69100
O  1.21800 11.22800 32.13300
C  2.37200 11.43700 33.01100
H  0.65400 3.73300 29.56200
H  -0.89700 4.33900 23.45300
H  -0.11100 10.65900 23.74900
H  0.54200 8.20700 31.74400
H  0.20100 5.35500 31.43800
H  2.24900 5.27600 32.06400
H  2.59000 6.98700 31.58200
H  2.72700 5.58900 30.39300
H  -1.99300 6.62100 30.96500
H  -2.00200 8.29500 30.88400
H  -2.68400 7.11600 33.20800
H  -2.12800 8.66300 33.11000
H  -0.44300 1.03100 27.78400
H  0.44800 1.86400 28.92400
H  1.34800 1.20600 27.56300
H  0.67100 0.27800 25.50600
H  -0.46500 -0.19000 24.28300
H  -1.15600 0.38100 25.86800
H  -1.91400 6.45400 22.24400
H  0.08600 8.59000 21.80400
H  0.38800 5.15000 21.47400
H  1.09000 6.76800 21.27300
H  -0.35900 6.26500 20.31800
H  -2.44000 9.63300 22.78500
H  -2.74800 8.37400 21.69900
H  -2.04900 11.10700 21.02200
H  -2.56300 9.86400 19.97100
H  -0.88900 9.94900 20.29000
H  0.09700 13.47600 26.28600
H  0.27700 12.83600 24.63200
H  1.67400 13.10600 25.63600
H  -0.54800 10.68400 30.61000
H  2.81800 12.38100 32.69800
H  3.02700 10.56500 33.01900
H  2.02600 11.64000 34.02400
Mg -12.07400 37.73900 41.24900
C  -9.62100 35.41300 40.38100
C  -10.31400 40.11700 39.33500
C  -14.77300 39.63300 41.03300
C  -13.78900 35.18700 42.87400
N  -10.24200 37.73900 39.92000
C  -9.42500 36.62500 39.77600
C  -8.20900 36.94900 38.98800
C  -8.24600 38.54200 38.84200
C  -9.67000 38.85600 39.35300
C  -7.26500 39.34400 39.67100
C  -8.31500 36.26100 37.58300
C  -7.06700 35.42100 37.05900
H  -5.94100 36.26300 36.41300
N  -12.51300 39.66900 40.32500
C  -11.63800 40.50400 39.69300
C  -12.36600 41.72600 39.37300
C  -13.66400 41.63400 39.90100
C  -13.70600 40.29800 40.47500
C  -11.67500 42.83500 38.56200
C  -14.73200 42.62600 39.77000
O  -14.45900 43.60400 39.07200
C  -16.13900 42.48500 40.28800
N  -14.00600 37.47900 41.89100
C  -14.98300 38.37100 41.56800
C  -16.34800 37.93900 42.10000
C  -15.99200 36.57900 42.75600
C  -14.50800 36.34400 42.45400
C  -17.16000 38.99800 42.98100
C  -16.87300 35.40800 42.16000
C  -17.56900 34.50600 43.17100
N  -11.75800 35.68700 41.70800
C  -12.47400 34.80500 42.45400
C  -11.69300 33.63700 42.61800
C  -10.56100 33.73300 41.85600
C  -10.67500 35.04600 41.26300
C  -12.08700 32.41200 43.45000
C  -9.40600 33.14600 41.30400
O  -9.01700 31.98700 41.42200
C  -8.65000 34.14900 40.41300
C  -7.39700 34.36000 41.27400
O  -6.40800 33.65200 41.40600
O  -7.46400 35.60400 41.91000
C  -6.26600 36.15500 42.61000
H  -9.67000 40.85600 38.85300
H  -15.73600 40.14700 41.03100
H  -14.22800 34.29100 43.31600
H  -7.25700 36.70000 39.45600
H  -8.06400 38.80900 37.80100
H  -6.35600 39.49000 39.08700
H  -6.91500 38.73800 40.50700
H  -7.68400 40.29900 39.98800
H  -8.69800 36.94700 36.82700
H  -9.14100 35.55000 37.58700
H  -7.48200 34.65800 36.40000
H  -6.69600 34.88300 37.93100
H  -12.24900 43.41100 37.83600
H  -10.65000 42.69400 38.21800
H  -11.39800 43.59500 39.29200
H  -16.61600 43.45200 40.12900
H  -16.24800 42.10200 41.30300
H  -16.61200 41.79500 39.58900
H  -17.05000 37.89900 41.26700
H  -16.06400 36.43700 43.83400
H  -17.84500 39.64100 42.42800
H  -16.51300 39.71200 43.49100
H  -17.68400 38.45200 43.76600
H  -16.39100 34.66900 41.52000
H  -17.65400 35.80000 41.50800
H  -18.08400 33.67100 42.69500
H  -18.23500 35.18100 43.70800
H  -16.88200 34.12100 43.92600
H  -12.36600 32.80600 44.42700
H  -11.18500 31.81700 43.59600
H  -12.93900 31.90800 42.99300
H  -8.32700 33.65000 39.49900
H  -6.56900 36.98500 43.24900
H  -5.64900 36.41500 41.75100
H  -5.83000 35.46300 43.33100

