158

Mg 47.23100 25.43400 28.22200
C  47.83100 27.43700 31.04200
C  46.55200 22.82800 30.34000
C  47.35400 23.50800 25.77100
C  48.13100 28.21400 26.24800
N  47.14900 25.23600 30.43900
C  47.44800 26.16900 31.38600
C  47.08500 25.66200 32.73300
C  46.77700 24.09400 32.52000
C  46.79600 24.05800 30.96700
C  47.71800 23.07600 33.28900
C  45.97500 26.42800 33.55100
C  46.33200 26.76700 34.99100
H  45.19200 26.79200 36.00600
N  46.81500 23.48300 28.02900
C  46.51600 22.52200 29.01400
C  46.06200 21.33900 28.45900
C  46.32700 21.50100 27.09900
C  46.84400 22.86900 26.89000
C  45.49100 20.20700 29.24100
C  46.18300 20.51100 25.95700
O  46.53900 20.78900 24.81000
C  45.52300 19.17500 26.28600
N  47.74900 25.77600 26.27600
C  47.66800 24.77100 25.38700
C  48.02300 25.15900 24.01800
C  47.99300 26.71800 24.15500
C  47.98000 26.95300 25.65800
C  49.39400 24.56200 23.58000
C  46.88700 27.53600 23.46600
C  47.44700 28.89200 23.00200
N  47.85400 27.41400 28.52800
C  48.12400 28.45200 27.64800
C  48.62300 29.57000 28.32500
C  48.47800 29.26500 29.67000
C  48.07800 27.95100 29.75400
C  49.12500 30.83300 27.76800
C  48.70200 29.77900 30.95300
O  49.10700 30.87200 31.32500
C  48.23300 28.58100 31.94100
C  49.30400 28.28400 32.89200
O  50.21600 27.48400 32.75500
O  49.02400 28.93200 34.08000
C  49.75200 28.44900 35.28100
H  46.28400 22.03800 31.04500
H  47.59200 22.72600 25.04700
H  48.31900 29.06100 25.58500
H  48.07000 25.69400 33.19900
H  45.75600 23.91500 32.85800
H  48.26700 22.52400 32.52600
H  46.94000 22.50100 33.79000
H  48.42300 23.56000 33.96600
H  45.06500 25.82900 33.59500
H  45.68000 27.39500 33.14500
H  46.97900 27.64400 35.00600
H  46.97600 25.95800 35.33600
H  44.54900 19.83400 28.83900
H  45.28500 20.43600 30.28600
H  46.20300 19.38300 29.29700
H  46.30200 18.90600 26.99900
H  45.54000 18.66000 25.32500
H  44.54100 19.44100 26.67800
H  47.23300 24.82000 23.34800
H  48.94000 27.14200 23.82100
H  49.92400 24.10000 24.41300
H  50.05300 25.26300 23.06800
H  49.22100 23.74700 22.87700
H  46.14100 27.73000 24.23600
H  46.33800 27.02100 22.67900
H  48.44800 29.17300 23.32900
H  46.81900 29.66100 23.45200
H  47.26900 29.04000 21.93700
H  49.16200 30.85800 26.67800
H  50.17700 30.94400 28.03100
H  48.67000 31.71600 28.21700
H  47.45000 29.07100 32.52000
H  50.15600 27.45700 35.08000
H  49.01300 28.47800 36.08200
H  50.58600 29.14300 35.38800
Mg -8.91100 41.05500 42.19700
C  -7.98200 37.88800 41.15400
C  -6.00600 42.18900 40.51600
C  -10.10700 44.34700 42.24200
C  -12.07400 39.96100 43.13600
N  -7.29700 40.09300 40.85000
C  -7.04400 38.79200 40.72500
C  -5.70000 38.46600 40.09900
C  -4.97800 39.84800 40.06800
C  -6.16100 40.76700 40.46100
C  -3.84000 39.97700 41.02000
C  -5.95300 37.82500 38.65800
C  -5.15300 36.59900 38.32900
H  -3.94800 36.66400 37.36800
N  -8.17500 42.92600 41.49800
C  -6.95900 43.15000 40.94700
C  -6.78300 44.58000 40.73800
C  -7.96900 45.29300 41.09200
C  -8.88400 44.19600 41.56900
C  -5.48400 45.12600 40.12400
C  -8.17400 46.79400 40.90800
O  -7.25400 47.47900 40.42000
C  -9.49700 47.46200 41.36400
N  -10.83800 41.99200 42.64900
C  -10.97200 43.36200 42.77900
C  -12.49600 43.63400 43.20200
C  -13.02900 42.26700 43.67700
C  -11.89300 41.32500 43.22300
C  -12.65100 44.72200 44.23000
C  -14.44900 41.81900 43.12300
C  -15.53500 41.60100 44.22100
N  -9.81400 39.32500 42.27900
C  -11.14300 39.02300 42.68800
C  -11.33600 37.57500 42.60200
C  -10.06900 37.12700 42.12600
C  -9.28100 38.21300 41.78300
C  -12.55600 36.72700 43.02800
C  -9.36500 35.98600 41.84800
O  -9.67800 34.81000 42.10600
C  -8.01200 36.35600 41.07400
C  -6.90100 35.72800 41.79500
O  -6.21200 36.24100 42.72900
O  -6.92600 34.45800 41.37300
C  -6.41400 33.52400 42.32800
H  -5.07500 42.49900 40.03700
H  -10.35700 45.41000 42.27800
H  -13.00600 39.56200 43.54300
H  -5.11500 37.77900 40.71000
H  -4.70200 40.19400 39.07200
H  -2.94800 39.60800 40.51300
H  -3.88000 39.24400 41.82600
H  -3.73000 40.92300 41.54900
H  -5.62800 38.59700 37.96100
H  -7.01700 37.69300 38.45700
H  -5.86300 35.81100 38.07500
H  -4.80600 36.19800 39.28100
H  -4.61500 44.46800 40.11900
H  -5.16300 45.91200 40.80800
H  -5.49000 45.74200 39.22500
H  -10.34600 47.11200 40.77600
H  -9.46500 48.52700 41.13300
H  -9.64000 47.25900 42.42500
H  -13.06700 43.94000 42.32500
H  -13.07700 42.24200 44.76500
H  -11.65200 45.08700 44.47100
H  -13.21100 44.35900 45.09100
H  -13.15400 45.59600 43.81800
H  -14.38500 41.00500 42.40100
H  -14.71700 42.70700 42.54900
H  -16.33600 42.33500 44.13900
H  -15.11200 41.42300 45.21000
H  -15.89000 40.59900 43.97900
H  -12.25200 35.68600 43.13100
H  -13.16400 36.81100 42.12800
H  -13.01900 37.06300 43.95600
H  -8.04000 35.97300 40.05400
H  -5.37000 33.71500 42.57800
H  -6.51800 32.65700 41.67500
H  -6.96900 33.49900 43.26600

