158

Mg 17.54600 -1.07300 27.53500
C  16.14300 0.85200 30.15100
C  19.33000 -2.75000 29.75100
C  18.77200 -2.72200 24.92700
C  15.81700 1.15900 25.22100
N  17.65800 -0.81000 29.73900
C  17.06100 -0.05300 30.68600
C  17.59700 -0.23500 32.11400
C  18.68300 -1.26800 31.77100
C  18.57700 -1.65700 30.28000
C  20.08100 -0.65000 32.17100
C  16.66400 -0.75100 33.19500
C  16.94200 -0.14000 34.61100
H  18.37700 0.07700 35.14900
N  18.73200 -2.65600 27.36500
C  19.36600 -3.22800 28.38700
C  20.00200 -4.47500 27.98300
C  19.94900 -4.45300 26.56200
C  19.11500 -3.28100 26.24000
C  20.73100 -5.40100 28.87200
C  20.48200 -5.41800 25.47100
O  20.20400 -5.30900 24.27600
C  21.31800 -6.66000 25.94700
N  17.32200 -0.82000 25.34400
C  17.98700 -1.63800 24.53500
C  17.87200 -1.19800 23.11500
C  16.83000 -0.04300 23.16000
C  16.61700 0.17600 24.62800
C  19.14300 -0.96400 22.27500
C  15.49000 -0.28800 22.38400
C  15.46000 0.03800 20.91400
N  16.19300 0.52200 27.61500
C  15.57500 1.30200 26.58200
C  14.57800 2.20600 27.31100
C  14.75700 1.98100 28.67000
C  15.80400 1.02700 28.83000
C  13.75000 3.25600 26.63700
C  14.42200 2.60000 29.92600
O  13.66900 3.48500 30.24000
C  15.25900 1.77600 30.93800
C  16.04200 2.84400 31.68900
O  17.08000 3.36800 31.32200
O  15.42500 2.97000 32.86400
C  16.09200 3.94100 33.75700
H  19.94800 -3.16400 30.55000
H  19.19800 -3.26100 24.07800
H  15.18900 1.76900 24.56800
H  17.92300 0.78900 32.29800
H  18.66300 -2.20700 32.32300
H  20.65600 -0.49300 31.25800
H  20.57900 -1.42400 32.75500
H  19.95300 0.29300 32.70300
H  16.79100 -1.83000 33.29100
H  15.66300 -0.51300 32.83500
H  16.52700 -0.90700 35.26500
H  16.38000 0.74500 34.91200
H  21.74000 -5.33800 28.46500
H  20.31600 -6.40700 28.81400
H  20.68600 -5.08000 29.91300
H  22.35400 -6.44500 26.20700
H  21.38200 -7.32900 25.08900
H  20.87200 -7.10900 26.83500
H  17.36200 -2.02700 22.62500
H  17.33400 0.85200 22.79400
H  20.00000 -1.06800 22.94100
H  19.21900 -0.00400 21.76500
H  19.19000 -1.81500 21.59500
H  14.73300 0.24800 22.95700
H  15.25100 -1.35100 22.41600
H  14.71200 0.79400 20.67500
H  15.22700 -0.90100 20.41100
H  16.46100 0.25400 20.54100
H  13.63200 3.05600 25.57200
H  14.25900 4.21500 26.73000
H  12.72100 3.33100 26.98900
H  14.58900 1.40900 31.71400
H  15.75300 3.83600 34.78700
H  16.02900 4.99400 33.48200
H  17.16400 3.76600 33.66000
Mg 16.46400 51.76900 26.58100
C  18.27300 50.30900 29.15300
C  14.18400 52.83200 28.82700
C  14.53100 52.75300 23.90200
C  18.80100 50.38400 24.22600
N  16.18200 51.42400 28.68600
C  17.07600 50.90800 29.56500
C  16.76100 51.26500 31.09800
C  15.30500 51.72600 30.95400
C  15.24000 52.07500 29.44400
C  14.09800 50.70300 31.39600
C  17.77300 52.37900 31.52600
C  18.34600 52.24300 32.87700
H  17.46200 51.50600 33.92000
N  14.67100 52.80200 26.38800
C  13.91500 53.17300 27.46500
C  12.81300 53.93900 26.96800
C  12.79600 53.85300 25.52400
C  14.02000 53.08600 25.19500
C  11.83700 54.58500 27.94200
C  11.76400 54.47800 24.53300
O  11.88500 54.25900 23.36100
C  10.63300 55.34800 24.95000
N  16.67300 51.63200 24.40700
C  15.73000 52.08800 23.52700
C  16.22200 51.82300 22.06900
C  17.63800 51.33100 22.24900
C  17.72300 51.06800 23.79200
C  15.26500 50.86700 21.33500
C  18.76600 52.23500 21.79000
C  19.87400 51.65700 20.84200
N  18.18000 50.51700 26.62200
C  19.10500 50.15800 25.61900
C  20.14400 49.38200 26.25800
C  19.81500 49.38900 27.64800
C  18.62900 50.10200 27.77400
C  21.34600 48.85600 25.60600
C  20.27200 48.91300 28.95400
O  21.13300 48.18000 29.38400
C  19.36600 49.66100 30.01700
C  18.82100 48.56700 30.87000
O  17.82900 47.80800 30.61600
O  19.54200 48.59900 32.03800
C  19.25800 47.61400 33.08600
H  13.54800 53.14300 29.65900
H  13.93000 53.04600 23.03900
H  19.49700 49.96900 23.49400
H  17.02300 50.40400 31.71200
H  15.12700 52.70500 31.39900
H  14.50400 49.79200 31.83700
H  13.51600 50.51400 30.49500
H  13.47000 51.17600 32.15100
H  17.30600 53.36300 31.48100
H  18.59000 52.37400 30.80400
H  18.57800 53.24700 33.23400
H  19.30900 51.73400 32.84100
H  10.86600 54.14700 27.71200
H  11.73400 55.66100 27.80500
H  11.99600 54.43600 29.01000
H  10.21600 54.79800 25.79300
H  9.93600 55.50100 24.12600
H  11.15700 56.23800 25.29900
H  16.31400 52.80700 21.61000
H  17.72800 50.35100 21.78000
H  15.48100 50.94900 20.27000
H  14.27900 51.22300 21.63300
H  15.26300 49.80500 21.58100
H  19.26100 52.60700 22.68600
H  18.48800 53.21000 21.39000
H  19.94600 52.31200 19.97400
H  19.71700 50.64000 20.48200
H  20.88400 51.71700 21.24700
H  22.12700 48.75200 26.35900
H  21.68100 49.49000 24.78500
H  21.28000 47.86600 25.15400
H  20.02300 50.36000 30.53500
H  19.79000 46.68600 32.88200
H  18.19800 47.36500 33.14800
H  19.45200 47.96200 34.10100

