158

Mg 2.84100 -2.09700 44.96800
C  5.71600 -0.30200 43.85400
C  0.91800 -0.39300 42.75400
C  0.48600 -4.33300 45.36900
C  5.13000 -4.21700 46.72700
N  3.30000 -0.64500 43.49800
C  4.49200 0.06300 43.27200
C  4.27600 1.03400 42.20200
C  2.72800 1.08900 41.92000
C  2.28300 -0.01300 42.84100
C  2.05100 2.53000 42.08300
C  5.06400 0.65500 40.89300
C  5.78200 1.86100 40.24500
H  6.37200 1.49400 38.88700
N  0.87500 -2.29100 44.32100
C  0.25000 -1.36200 43.51400
C  -1.11000 -1.65300 43.46100
C  -1.30300 -2.91400 44.03900
C  0.04100 -3.21200 44.65600
C  -2.15600 -0.84100 42.82200
C  -2.56400 -3.86600 44.01000
O  -3.48600 -3.48400 43.25700
C  -2.69900 -5.10300 44.76800
N  2.82300 -3.97200 46.00400
C  1.65700 -4.72600 46.00200
C  1.75400 -5.97300 46.84700
C  3.28500 -6.02300 47.20000
C  3.83400 -4.69200 46.53300
C  0.82300 -5.96700 48.17700
C  4.01400 -7.32800 46.89200
C  3.83400 -8.00000 45.50800
N  4.97000 -2.25400 45.29400
C  5.72000 -3.06800 46.14000
C  7.14600 -2.56400 46.25300
C  7.17900 -1.54700 45.25500
C  5.86600 -1.42700 44.70300
C  8.29700 -3.11700 47.10300
C  8.07500 -0.54500 44.64500
O  9.24000 -0.34000 44.76200
C  7.12000 0.29100 43.73500
C  7.14900 1.60400 44.26100
O  7.10300 1.84800 45.45000
O  7.37400 2.55200 43.26600
C  7.51600 3.93300 43.76400
H  0.23000 0.15300 42.10500
H  -0.33100 -5.05100 45.47100
H  5.89500 -4.80100 47.24300
H  4.63200 1.98300 42.60300
H  2.44400 0.66400 40.95700
H  1.65600 2.83500 41.11400
H  2.83400 3.28400 42.17000
H  1.37000 2.50400 42.93400
H  4.39100 0.18200 40.17700
H  5.83100 -0.07600 41.14800
H  6.70100 2.03700 40.80300
H  5.13400 2.72900 40.12300
H  -2.90900 -0.73300 43.60200
H  -2.45300 -1.35900 41.91000
H  -1.71900 0.15300 42.73000
H  -2.50900 -4.80700 45.80000
H  -1.89600 -5.69300 44.32500
H  -3.61400 -5.67900 44.63300
H  1.47600 -6.89300 46.33300
H  3.22700 -5.83500 48.27200
H  -0.22300 -5.90300 47.87700
H  0.93600 -5.10100 48.82800
H  1.07100 -6.85100 48.76600
H  3.63800 -8.04800 47.61900
H  5.07600 -7.11600 47.01900
H  3.47500 -7.13700 44.94700
H  3.20400 -8.88900 45.50400
H  4.84200 -8.23900 45.16600
H  8.59400 -4.03600 46.59600
H  7.86800 -3.19300 48.10200
H  9.14000 -2.43200 47.18100
H  7.54100 0.28700 42.72900
H  8.57500 4.19000 43.75800
H  6.92500 4.07800 44.66900
H  7.00100 4.49000 42.98100
Mg -5.68600 24.26200 25.54900
C  -4.23000 26.03800 28.18700
C  -7.54600 22.47300 27.83700
C  -6.79700 22.39000 22.97200
C  -3.85400 26.24900 23.28600
N  -5.78100 24.26900 27.70300
C  -5.15700 25.08800 28.59900
C  -5.64400 24.79900 30.12900
C  -6.20500 23.31000 29.94600
C  -6.56100 23.35300 28.40000
C  -5.25900 22.14100 30.33000
C  -6.71300 25.83700 30.58500
C  -6.58400 26.41500 31.95300
H  -5.92800 25.50400 32.98600
N  -7.05400 22.66300 25.43000
C  -7.78600 22.08200 26.48500
C  -8.63800 21.02200 25.96500
C  -8.54800 21.11500 24.52900
C  -7.45300 22.05900 24.25100
C  -9.44800 20.24800 26.87600
C  -9.32200 20.42800 23.39100
O  -9.14700 20.64400 22.20400
C  -10.46400 19.43300 23.72900
N  -5.42300 24.33900 23.49200
C  -5.99700 23.39700 22.66000
C  -5.55200 23.68300 21.14100
C  -5.10800 25.09300 21.29700
C  -4.70800 25.22100 22.75700
C  -4.43500 22.71000 20.68000
C  -6.07600 26.23700 20.92300
C  -5.50000 27.16400 19.87100
N  -4.30000 25.87200 25.64100
C  -3.67900 26.56900 24.66800
C  -2.70100 27.47300 25.31300
C  -2.91300 27.33700 26.65800
C  -3.88500 26.31400 26.85400
C  -1.68900 28.25300 24.53000
C  -2.53700 27.90900 28.00900
O  -1.90400 28.86600 28.37200
C  -3.42400 27.01500 29.06500
C  -2.46900 26.32900 29.95900
O  -1.88700 25.27400 29.69200
O  -2.30500 27.08300 31.13300
C  -1.36900 26.56100 32.16300
H  -8.10500 21.91900 28.59400
H  -7.08500 21.85400 22.06500
H  -3.25600 26.82400 22.57600
H  -4.82800 24.75200 30.85000
H  -7.18200 23.13300 30.39600
H  -4.30000 22.48900 30.71500
H  -5.04200 21.61800 29.39900
H  -5.82300 21.52300 31.02900
H  -7.74200 25.49700 30.47300
H  -6.60900 26.69300 29.91800
H  -7.63700 26.50200 32.22200
H  -6.02000 27.34700 31.90400
H  -9.11700 19.23300 27.09700
H  -10.49600 20.16900 26.59000
H  -9.46300 20.70100 27.86700
H  -11.28300 20.01500 24.15000
H  -9.95700 18.72100 24.38000
H  -10.81300 18.92900 22.82800
H  -6.47800 23.56400 20.58000
H  -4.19700 25.30400 20.73600
H  -4.88900 22.33600 19.76200
H  -4.21400 21.94900 21.42800
H  -3.48200 23.18100 20.43700
H  -6.35500 26.81800 21.80200
H  -7.02600 25.78200 20.64300
H  -4.70900 27.75600 20.33300
H  -6.25000 27.88600 19.54900
H  -5.07400 26.76900 18.94900
H  -0.93400 27.62800 24.05300
H  -1.20000 28.88600 25.27100
H  -2.12000 28.92800 23.79000
H  -4.00800 27.61000 29.76700
H  -1.78000 26.81700 33.13900
H  -0.40900 27.05700 32.02100
H  -1.19300 25.49800 31.99700

