158

Mg 0.42800 7.69700 26.58600
C  1.52300 9.85200 29.09300
C  0.69000 5.06600 28.77400
C  0.23100 5.48900 23.96700
C  0.79600 10.43800 24.26600
N  0.99700 7.57100 28.67400
C  1.14500 8.58100 29.57400
C  1.03500 8.10200 31.03300
C  1.22100 6.56700 30.80800
C  0.96300 6.31800 29.31300
C  2.62700 5.91900 31.25200
C  -0.30600 8.57500 31.72500
C  -0.38000 8.65600 33.21400
H  0.91600 8.47200 34.00400
N  0.22800 5.63300 26.43800
C  0.28800 4.69300 27.46300
C  -0.14900 3.44200 27.01400
C  -0.14400 3.51900 25.53600
C  0.13600 4.92900 25.25200
C  -0.43700 2.35900 28.00400
C  -0.23600 2.50200 24.50900
O  -0.24100 2.69000 23.32700
C  -0.28000 1.06100 24.98200
N  0.63900 7.93300 24.49000
C  0.51600 6.81300 23.57200
C  0.38700 7.22500 22.09200
C  0.21600 8.78600 22.26000
C  0.53500 9.15000 23.78000
C  1.60200 6.75100 21.27800
C  -1.22200 9.25600 21.93900
C  -1.53900 10.04500 20.65100
N  1.14400 9.69700 26.60200
C  1.06700 10.71300 25.64100
C  1.31200 11.98800 26.19900
C  1.59800 11.65300 27.55900
C  1.38400 10.32400 27.73500
C  1.26600 13.32600 25.55000
C  1.94700 12.26100 28.83600
O  2.25900 13.38400 29.13500
C  1.86600 11.10200 29.87100
C  3.15300 10.99700 30.62100
O  4.16300 10.33200 30.29600
O  3.15500 11.95200 31.59600
C  4.29700 11.70300 32.50300
H  0.82800 4.29700 29.53700
H  0.16300 4.83400 23.09500
H  0.59900 11.30900 23.63700
H  1.89900 8.58900 31.48700
H  0.53200 5.92400 31.35700
H  3.18700 5.54800 30.39300
H  2.54600 5.07900 31.94200
H  3.32700 6.70600 31.53500
H  -1.07200 7.85300 31.44100
H  -0.35200 9.61400 31.40100
H  -1.19700 7.97700 33.45700
H  -0.88600 9.60100 33.41800
H  -0.60900 2.68300 29.03000
H  0.24000 1.51000 27.91000
H  -1.35400 1.90500 27.62700
H  0.51000 0.83900 25.70000
H  -0.03900 0.42400 24.13100
H  -1.29900 0.98100 25.36100
H  -0.54500 6.75100 21.78600
H  0.95400 9.29400 21.63900
H  2.47900 6.67400 21.92000
H  1.83000 7.44200 20.46700
H  1.22900 5.82600 20.83700
H  -1.43800 10.05600 22.64700
H  -1.89100 8.39500 21.91600
H  -0.78400 9.72100 19.93400
H  -1.59500 11.12200 20.81200
H  -2.50600 9.75000 20.24500
H  0.49900 13.35500 24.77600
H  2.22000 13.40000 25.02900
H  1.09400 14.08100 26.31700
H  1.08600 11.34100 30.59300
H  4.25900 10.65600 32.80600
H  4.22400 12.37700 33.35600
H  5.25800 11.95200 32.05200
Mg -1.79800 34.00700 27.50200
C  -3.43600 32.22500 29.90400
C  -0.57100 36.11100 30.01400
C  -0.11600 35.82300 25.21400
C  -3.57100 32.30900 25.02800
N  -2.27100 34.35900 29.74400
C  -2.74100 33.29600 30.45900
C  -2.42400 33.54900 31.94400
C  -1.62300 34.87100 31.93100
C  -1.42000 35.07900 30.42600
C  -2.31600 36.12400 32.65000
C  -1.69300 32.31000 32.59100
C  -2.31000 31.81800 33.93900
H  -1.50900 31.73600 35.28300
N  -0.48700 35.71400 27.65200
C  -0.12800 36.37600 28.72600
C  0.84200 37.39800 28.31500
C  0.86300 37.44700 26.89100
C  0.04900 36.26900 26.55700
C  1.56800 38.26700 29.37600
C  1.48800 38.36500 25.85900
O  1.53400 38.19500 24.66900
C  2.28900 39.51200 26.35200
N  -1.97100 34.08300 25.37500
C  -1.06400 34.88600 24.66600
C  -1.27500 34.70800 23.12300
C  -2.43900 33.66200 23.03100
C  -2.72500 33.32100 24.54700
C  -1.53600 35.96700 22.25300
C  -1.93500 32.43400 22.17300
C  -1.12200 31.33000 22.85700
N  -3.14200 32.52900 27.45000
C  -3.74400 31.87100 26.37800
C  -4.43600 30.71800 26.81100
C  -4.33000 30.78700 28.19800
C  -3.61100 31.92700 28.56400
C  -5.18600 29.82100 25.85200
C  -4.72100 30.13900 29.40400
O  -5.39200 29.15000 29.65500
C  -4.19900 31.11200 30.58200
C  -5.43000 31.54300 31.26400
O  -6.38600 32.13700 30.78200
O  -5.40400 31.13000 32.56800
C  -6.35900 31.77600 33.53000
H  -0.09000 36.59700 30.86500
H  0.39600 36.29400 24.37200
H  -4.06900 31.70400 24.26700
H  -3.39400 33.74300 32.40200
H  -0.63200 34.71800 32.36000
H  -2.93800 35.71000 33.44400
H  -2.91400 36.68200 31.93000
H  -1.51200 36.69600 33.11300
H  -0.64200 32.49700 32.81200
H  -1.61200 31.47200 31.90000
H  -2.68900 30.84400 33.62800
H  -3.22000 32.38600 34.13200
H  2.57800 38.60300 29.13700
H  1.64700 37.80700 30.36000
H  0.88300 39.10300 29.51500
H  1.66800 40.08000 27.04500
H  2.59100 40.04800 25.45300
H  3.14700 39.09300 26.87900
H  -0.29500 34.33800 22.82200
H  -3.31700 34.08100 22.53900
H  -2.59100 36.21600 22.13500
H  -1.22800 35.93000 21.20800
H  -0.96700 36.82000 22.62300
H  -1.33400 32.73800 21.31500
H  -2.88200 32.12900 21.72700
H  -0.74700 31.68400 23.81800
H  -0.24900 31.09600 22.24800
H  -1.76600 30.45700 22.96000
H  -5.09800 28.78200 26.16900
H  -4.70900 29.92200 24.87800
H  -6.27200 29.91300 25.80900
H  -3.59700 30.41000 31.15900
H  -7.06600 32.40700 32.99200
H  -5.72700 32.38500 34.17600
H  -6.89200 31.05100 34.14500

