158

Mg 47.98400 15.44700 28.18700
C  45.81000 15.38900 30.87100
C  50.03700 17.50000 29.79700
C  49.86600 15.53900 25.29900
C  45.42900 13.89800 26.16200
N  47.87300 16.36700 30.09100
C  46.96400 16.16700 31.09100
C  47.50400 16.74300 32.42000
C  48.50600 17.79200 31.89500
C  48.84200 17.26500 30.49700
C  47.99300 19.29700 31.88500
C  48.02300 15.73700 33.46400
C  47.81100 15.98000 35.03000
H  49.09800 16.12200 35.80400
N  49.79000 16.27000 27.68800
C  50.49700 17.11600 28.47100
C  51.68800 17.43300 27.80700
C  51.67900 16.82500 26.52600
C  50.44000 16.08600 26.44600
C  52.68600 18.38300 28.40900
C  52.79100 16.82500 25.41700
O  52.63700 16.17600 24.35200
C  54.10400 17.55000 25.65200
N  47.63000 14.98900 25.91400
C  48.66600 14.95100 25.04100
C  48.31100 14.25100 23.70900
C  46.81500 13.85300 24.00100
C  46.59100 14.24300 25.44200
C  48.41200 15.16800 22.46000
C  46.51700 12.33800 23.61500
C  46.92600 11.29700 24.64300
N  46.06800 14.71400 28.33200
C  45.18400 14.08300 27.49200
C  43.94900 13.79800 28.28200
C  44.19000 14.27500 29.57200
C  45.48300 14.85800 29.58800
C  42.72700 13.07900 27.75100
C  43.56600 14.40300 30.87200
O  42.48800 14.09400 31.27800
C  44.65000 15.10200 31.80700
C  44.01000 16.22800 32.50000
O  43.46200 17.15200 31.91200
O  43.85600 15.86700 33.76900
C  42.98100 16.74100 34.60800
H  50.63600 18.12800 30.46000
H  50.52100 15.49900 24.42600
H  44.73300 13.19300 25.70300
H  46.65500 17.27900 32.84400
H  49.40300 17.79700 32.51400
H  48.02300 19.62500 30.84600
H  48.74100 19.90500 32.39500
H  46.96300 19.37100 32.23500
H  49.08700 15.51700 33.37700
H  47.56500 14.77700 33.22400
H  47.17800 15.19500 35.44400
H  47.20900 16.85800 35.26500
H  52.51500 18.36800 29.48500
H  52.67600 19.32300 27.85900
H  53.70500 18.05500 28.20200
H  53.98900 18.59400 25.94300
H  54.57100 17.56200 24.66700
H  54.65800 17.00000 26.41300
H  48.90300 13.37900 23.43100
H  46.09100 14.39300 23.39000
H  48.77000 16.14900 22.77400
H  47.45500 15.22000 21.94100
H  49.15100 14.73200 21.78700
H  46.83200 12.06700 22.60700
H  45.43100 12.27500 23.55400
H  47.67400 11.72600 25.31100
H  47.42000 10.46700 24.13800
H  46.09500 11.03300 25.29600
H  42.59800 13.06100 26.66800
H  41.91900 13.49500 28.35300
H  42.70600 12.02400 28.02600
H  45.04100 14.36500 32.50800
H  42.53500 16.05700 35.33000
H  42.15000 17.20800 34.07900
H  43.46100 17.50000 35.22600
Mg -2.81200 34.77700 25.73000
C  -3.95000 33.09100 28.78800
C  -1.48500 37.16500 27.90600
C  -2.17500 36.47300 23.03800
C  -4.66700 32.45900 24.00800
N  -2.56600 35.01500 28.14700
C  -3.18900 34.22400 29.14500
C  -2.73300 34.66300 30.50300
C  -2.16100 36.10700 30.19900
C  -1.97900 36.05500 28.67300
C  -3.11500 37.31300 30.67700
C  -1.70600 33.70500 31.24500
C  -2.29000 33.02700 32.62300
H  -1.30000 32.92600 33.79900
N  -1.98800 36.58600 25.52100
C  -1.43700 37.35700 26.51400
C  -0.70400 38.45500 25.85600
C  -0.92700 38.28700 24.41900
C  -1.65500 37.07900 24.26500
C  0.08300 39.52000 26.61400
C  -0.35200 39.08700 23.30900
O  -0.73500 38.96500 22.15900
C  0.68800 40.12100 23.58900
N  -3.53100 34.63200 23.82300
C  -3.12400 35.47100 22.77900
C  -3.50600 34.96200 21.46300
C  -4.31600 33.68100 21.76100
C  -4.10600 33.50900 23.28500
C  -4.35600 35.96300 20.51200
C  -3.84200 32.38100 20.98700
C  -2.69000 31.54500 21.67300
N  -4.00500 33.07600 26.22200
C  -4.57600 32.16000 25.36600
C  -5.15000 31.04200 26.06200
C  -4.85900 31.41300 27.42800
C  -4.29300 32.66300 27.46600
C  -5.79200 29.80900 25.48500
C  -5.07500 30.97700 28.79700
O  -5.59200 29.93700 29.17500
C  -4.49700 32.04500 29.80300
C  -5.65800 32.48600 30.57400
O  -6.67500 33.09000 30.20600
O  -5.38700 32.15600 31.83200
C  -6.35200 32.34600 32.85800
H  -1.06800 37.94900 28.54200
H  -1.79600 36.88600 22.10100
H  -4.87500 31.55500 23.43100
H  -3.63700 34.62100 31.11100
H  -1.21000 36.20600 30.72200
H  -4.04700 36.80600 30.92600
H  -3.14400 38.03000 29.85600
H  -2.66200 37.76900 31.55700
H  -0.74600 34.13400 31.53100
H  -1.46900 32.97200 30.47400
H  -2.84300 32.12000 32.37600
H  -3.01000 33.79900 32.89400
H  -0.43700 40.47500 26.53400
H  1.07400 39.46100 26.16400
H  0.13300 39.27800 27.67600
H  1.17300 40.29100 22.62800
H  1.42800 39.76900 24.30800
H  0.25500 41.09100 23.83400
H  -2.63200 34.68800 20.87300
H  -5.36600 33.83800 21.51600
H  -4.61300 36.84100 21.10400
H  -5.25900 35.48800 20.12800
H  -3.85700 36.32200 19.61200
H  -3.47000 32.76200 20.03600
H  -4.66900 31.71400 20.74400
H  -2.54000 31.71100 22.74000
H  -1.76900 31.80700 21.15300
H  -2.90300 30.49900 21.45300
H  -6.87800 29.89200 25.51800
H  -5.66400 28.85600 25.99800
H  -5.63700 29.68000 24.41400
H  -3.60200 31.73700 30.34300
H  -7.25200 32.89500 32.58300
H  -6.06300 32.69900 33.84800
H  -6.65600 31.32300 33.07900

