158

Mg 9.13100 3.84700 27.70500
C  10.33200 2.15500 30.45700
C  7.28900 5.86900 29.85000
C  7.94100 5.47200 24.97600
C  10.64300 1.36300 25.65500
N  8.69600 3.88300 29.92500
C  9.52200 3.22300 30.85000
C  9.24900 3.72800 32.23300
C  8.14700 4.84000 32.01800
C  7.96800 4.87300 30.53100
C  6.83500 4.70000 32.74900
C  10.63800 4.08700 32.88700
C  10.63100 5.11400 34.01200
H  11.32300 4.74200 35.29800
N  7.85100 5.45400 27.47500
C  7.24600 6.17500 28.43700
C  6.45500 7.24100 27.85700
C  6.67600 7.15800 26.46300
C  7.48500 5.98800 26.25900
C  5.43300 8.04200 28.69100
C  6.08400 8.04200 25.41300
O  6.05300 7.80900 24.21700
C  5.24900 9.15500 25.83400
N  9.18000 3.44100 25.61900
C  8.64700 4.31200 24.72200
C  8.84400 3.77100 23.32300
C  9.68600 2.53900 23.55900
C  9.96100 2.43900 24.96700
C  7.54400 3.65600 22.47800
C  10.97200 2.35600 22.66000
C  11.14100 1.01900 22.01900
N  10.29500 2.05400 27.92900
C  10.80900 1.17200 27.04900
C  11.61700 0.19400 27.68800
C  11.54100 0.54700 29.08200
C  10.67100 1.65800 29.14900
C  12.34300 -0.97100 27.09200
C  11.96200 0.24700 30.44500
O  12.75500 -0.55600 30.89500
C  11.22900 1.31900 31.35300
C  10.50500 0.62400 32.49300
O  9.32500 0.25500 32.46200
O  11.35700 0.56300 33.54400
C  10.88700 0.23600 34.91600
H  6.83100 6.65700 30.45100
H  7.45000 5.97600 24.14100
H  11.04700 0.57700 25.01300
H  8.81000 2.91100 32.80500
H  8.58600 5.77800 32.35800
H  6.46700 5.72100 32.85300
H  7.00400 4.21400 33.71000
H  6.01300 4.11000 32.34500
H  11.18400 4.56800 32.07600
H  11.24400 3.32000 33.37000
H  9.60500 5.41100 34.22800
H  11.18700 5.96200 33.61400
H  4.46400 7.72700 28.30300
H  5.58500 9.10200 28.49100
H  5.51100 7.83800 29.75900
H  4.38000 8.87500 26.42900
H  4.88700 9.52500 24.87400
H  5.78200 9.97800 26.31100
H  9.52200 4.51800 22.91100
H  9.14400 1.61700 23.34700
H  6.73900 3.75100 23.20800
H  7.32000 2.70400 21.99900
H  7.38800 4.44200 21.73900
H  11.85800 2.41900 23.29200
H  11.07300 3.19300 21.96900
H  11.45100 1.17800 20.98600
H  10.23200 0.41900 21.97500
H  11.87500 0.39000 22.52200
H  12.80800 -1.57100 27.87400
H  13.10600 -0.50300 26.46900
H  11.79100 -1.57300 26.37100
H  12.06400 1.89000 31.76000
H  9.90300 0.68700 35.04800
H  11.52700 0.54100 35.74400
H  10.63600 -0.82200 34.98900
Mg 29.82600 57.09400 40.99300
C  27.26300 55.12700 39.45200
C  32.15200 54.65800 39.49400
C  32.35800 59.09000 41.66400
C  27.45700 59.53100 41.40700
N  29.64000 55.14000 39.54100
C  28.51600 54.52800 39.18900
C  28.81700 53.17800 38.43100
C  30.42100 53.04300 38.53300
C  30.80100 54.35100 39.24700
C  31.03700 51.82300 39.23000
C  28.27900 53.09100 36.96200
C  28.67800 54.20900 36.00900
H  27.58100 54.94600 35.22400
N  31.87100 56.80900 40.76800
C  32.59900 55.84500 40.16800
C  34.00200 56.16600 40.27300
C  34.18800 57.32800 41.07100
C  32.76700 57.80600 41.21600
C  35.17500 55.30300 39.71600
C  35.48400 58.03100 41.44200
O  36.52600 57.63400 41.05900
C  35.42500 59.16600 42.41400
N  29.89600 59.06000 41.30400
C  31.08600 59.62300 41.75600
C  30.84800 61.03000 42.34300
C  29.27800 61.22900 42.20200
C  28.82000 59.89100 41.56200
C  31.34600 61.42700 43.72000
C  28.97400 62.45100 41.26000
C  29.89300 63.71700 41.47400
N  27.75300 57.29400 40.62700
C  26.90400 58.31600 40.92200
C  25.51300 57.98100 40.83200
C  25.63900 56.69300 40.25000
C  26.97100 56.36800 40.05900
C  24.32000 58.89800 41.01500
C  24.84800 55.66000 39.52600
O  23.64900 55.67400 39.19300
C  25.87700 54.52000 39.17800
C  25.55100 53.37400 40.08900
O  25.98900 53.30300 41.25200
O  24.56200 52.55400 39.56000
C  24.04800 51.46800 40.38200
H  32.90900 53.94700 39.15500
H  33.13300 59.79200 41.97800
H  26.81400 60.38700 41.62000
H  28.28200 52.43600 39.02400
H  30.85200 52.94500 37.53700
H  31.91200 51.54800 38.64100
H  30.31300 51.01200 39.15200
H  31.38800 51.91000 40.25900
H  27.20600 52.90400 36.94200
H  28.60900 52.17900 36.46400
H  29.49100 53.89100 35.35600
H  29.07800 55.03600 36.59600
H  35.95500 55.94800 39.31300
H  34.92000 54.77200 38.79900
H  35.50800 54.46900 40.33400
H  35.22200 60.11100 41.91000
H  36.42400 59.26100 42.84000
H  34.80800 58.91200 43.27600
H  31.50200 61.60600 41.68900
H  28.74400 61.46800 43.12200
H  30.48700 61.49100 44.38800
H  31.86500 62.38500 43.75600
H  32.07600 60.68300 44.03900
H  27.96700 62.86400 41.32300
H  29.19100 62.26200 40.20900
H  30.68100 63.78000 40.72300
H  30.32200 63.61200 42.47100
H  29.36100 64.64700 41.27500
H  23.87100 59.03200 41.99900
H  23.53500 58.60900 40.31700
H  24.45300 59.91000 40.63400
H  25.67200 54.31600 38.12700
H  23.55300 50.78300 39.69300
H  23.37200 51.98800 41.06100
H  24.78600 50.90600 40.95400

