158

Mg 36.02000 0.69900 30.82400
C  33.49700 1.97800 32.80500
C  38.19100 0.81700 33.61900
C  38.58400 -0.17600 28.74800
C  33.84500 0.91800 28.08200
N  35.83900 1.49600 32.86300
C  34.71400 1.90100 33.49600
C  34.94600 1.96500 35.06400
C  36.52700 1.81400 35.16100
C  36.89400 1.32800 33.80400
C  37.16200 3.13400 35.45000
C  34.21800 0.79700 35.79800
C  33.76400 1.10400 37.20200
H  34.31400 2.33800 37.99700
N  38.09600 0.35500 31.13000
C  38.77000 0.33100 32.37200
C  40.10200 -0.16700 32.09000
C  40.26200 -0.49800 30.75100
C  38.96400 -0.12500 30.13700
C  41.11900 -0.26800 33.18800
C  41.44800 -1.07800 30.06400
O  41.35000 -1.28300 28.86900
C  42.66800 -1.58800 30.84800
N  36.19500 0.48000 28.77600
C  37.35800 0.12400 28.14400
C  37.06000 0.00400 26.59200
C  35.55400 0.18600 26.47600
C  35.12700 0.55600 27.86100
C  37.78400 1.03100 25.62000
C  34.85100 -1.17100 26.02400
C  33.82800 -1.11700 24.93000
N  34.04600 1.22200 30.50400
C  33.27600 1.24300 29.31500
C  31.93300 1.68200 29.59800
C  31.93300 1.96400 31.01200
C  33.28300 1.76000 31.47900
C  30.92600 1.85900 28.56800
C  31.15400 2.32200 32.20700
O  29.97200 2.50100 32.44400
C  32.17600 2.38500 33.45800
C  31.97400 3.67600 34.09800
O  32.46000 4.72400 33.66300
O  31.38700 3.49800 35.33400
C  31.16600 4.85400 35.90600
H  38.81500 0.82100 34.51600
H  39.37400 -0.35400 28.01600
H  33.16500 0.92000 27.22700
H  34.56800 2.92000 35.43000
H  36.88300 1.12700 35.92800
H  37.86500 3.00300 36.27200
H  36.42800 3.88300 35.75000
H  37.64000 3.48300 34.53500
H  34.94500 -0.00400 35.93000
H  33.34800 0.42100 35.25900
H  33.95600 0.20300 37.78400
H  32.68000 1.20600 37.25300
H  40.96700 0.46700 33.97900
H  42.03000 0.12400 32.73600
H  41.17600 -1.32900 33.43000
H  43.36500 -0.81300 31.16700
H  43.21900 -2.20200 30.13600
H  42.23900 -2.25900 31.59300
H  37.41300 -1.01200 26.41500
H  35.27800 0.93900 25.73800
H  37.14000 1.88800 25.42200
H  38.22600 0.55700 24.74400
H  38.65900 1.42700 26.13500
H  34.31200 -1.67700 26.82400
H  35.61900 -1.80600 25.58200
H  34.01800 -1.80200 24.10400
H  33.77700 -0.11300 24.51000
H  32.88300 -1.43200 25.37300
H  30.77600 0.85400 28.17300
H  31.33100 2.59200 27.87000
H  30.08500 2.31100 29.09400
H  31.75600 1.61800 34.10900
H  31.96100 5.11900 36.60200
H  30.29400 4.91500 36.55800
H  31.02300 5.68700 35.21800
Mg 41.48800 40.79800 27.07900
C  40.71900 43.18400 29.25500
C  42.53100 38.63600 29.61200
C  42.41500 38.36000 24.69000
C  40.99800 42.94000 24.41300
N  41.52900 40.94900 29.19900
C  41.09400 41.99800 29.91100
C  41.08400 41.72400 31.45200
C  41.81000 40.34400 31.50800
C  42.02100 39.98400 30.01600
C  43.12700 40.16300 32.34200
C  39.59700 41.87500 32.01200
C  39.42200 42.79900 33.22700
H  38.83300 42.32900 34.57600
N  42.28800 38.74900 27.19000
C  42.61400 38.02800 28.32100
C  43.17500 36.68000 28.00100
C  42.93800 36.55300 26.58000
C  42.55500 37.92300 26.07000
C  43.80300 35.78800 29.02300
C  43.09000 35.36800 25.63600
O  43.16400 35.48200 24.42700
C  43.27900 33.94600 26.24100
N  41.73600 40.67300 24.87200
C  42.07800 39.58800 24.13800
C  41.97500 39.86700 22.58600
C  41.20400 41.22200 22.54500
C  41.36800 41.66600 24.02700
C  43.35000 39.81500 21.82500
C  39.75200 41.13600 22.02900
C  38.87300 39.95300 22.53800
N  41.00300 42.70300 26.78700
C  40.83300 43.49100 25.72900
C  40.47600 44.84600 26.04600
C  40.42000 44.78500 27.50500
C  40.71300 43.44500 27.86200
C  40.27400 45.94500 25.14900
C  40.09900 45.56100 28.64100
O  39.80400 46.74400 28.63600
C  40.32300 44.58200 29.91200
C  41.39800 45.10800 30.78800
O  42.64000 44.95000 30.50800
O  40.86200 45.76900 31.89200
C  41.89200 46.25500 32.79800
H  42.90100 38.08600 30.48000
H  42.73200 37.68500 23.89300
H  40.62000 43.49500 23.55300
H  41.81000 42.43400 31.84700
H  41.11300 39.59400 31.88100
H  43.12900 39.20400 32.86100
H  43.18200 41.03000 32.99900
H  44.03500 40.07300 31.74600
H  39.35000 40.87100 32.35700
H  38.92900 42.13000 31.18800
H  38.69500 43.51000 32.83600
H  40.18200 43.55400 33.42800
H  42.98900 35.27200 29.53000
H  44.28300 36.47600 29.71900
H  44.51100 35.08200 28.58700
H  42.75300 33.88500 27.19300
H  44.32700 33.69100 26.39500
H  42.93100 33.15200 25.57900
H  41.40800 39.01200 22.21600
H  41.75700 41.90100 21.89600
H  43.43800 39.14500 20.97000
H  44.15100 39.48300 22.48600
H  43.65600 40.80500 21.48800
H  39.77500 41.12500 20.94000
H  39.31200 42.07700 22.35900
H  38.59200 39.18000 21.82200
H  37.92600 40.35100 22.90000
H  39.32400 39.38500 23.35200
H  41.19500 46.14900 24.60300
H  39.99400 46.75400 25.82400
H  39.37400 45.79400 24.55400
H  39.43400 44.56300 30.54200
H  41.42100 47.14200 33.22300
H  42.80100 46.53100 32.26500
H  42.04500 45.54600 33.61100

