158

Mg 44.25100 5.41400 46.95600
C  42.16200 8.22400 46.93300
C  41.55200 3.52700 46.24200
C  46.22000 2.86400 46.44300
C  47.01400 7.62700 46.79000
N  42.10100 5.84200 46.69700
C  41.48400 7.06500 46.73400
C  39.97200 6.98000 46.49000
C  39.76700 5.39400 46.43600
C  41.20200 4.86700 46.41900
C  38.78300 4.75900 47.41400
C  39.31200 7.73100 45.26600
C  40.32800 7.88400 44.03200
H  39.72000 7.63800 42.62800
N  43.89600 3.39600 46.41700
C  42.69000 2.80300 46.14800
C  42.86900 1.45300 45.77100
C  44.28900 1.18900 46.00600
C  44.90600 2.49400 46.26000
C  41.82400 0.55300 45.30800
C  44.92500 -0.15400 45.97900
O  44.38700 -1.16600 45.62400
C  46.26800 -0.37400 46.56300
N  46.27900 5.31600 46.43300
C  46.86500 4.05900 46.50900
C  48.45700 4.05500 46.60500
C  48.64300 5.59600 46.93400
C  47.19800 6.24800 46.70700
C  49.11100 3.11900 47.70600
C  49.79100 6.37200 46.19700
C  50.55500 7.34600 47.13500
N  44.59200 7.56200 46.89400
C  45.78600 8.27900 46.89300
C  45.45700 9.73600 46.96100
C  44.02700 9.73400 46.95900
C  43.57300 8.38200 46.94400
C  46.42800 10.87400 46.80200
C  42.82100 10.57200 47.06800
O  42.72400 11.78300 47.28800
C  41.57500 9.61200 47.01900
C  40.96300 9.88300 48.33000
O  41.31000 9.35800 49.36300
O  39.74700 10.60200 48.20000
C  38.92100 10.62500 49.41900
H  40.64600 2.96700 46.00100
H  46.87300 1.99000 46.39900
H  47.90800 8.25400 46.81800
H  39.51400 7.24100 47.44400
H  39.38100 5.17500 45.44100
H  39.18000 3.94000 48.01400
H  38.03600 4.25000 46.80700
H  38.25500 5.49100 48.02600
H  38.97100 8.71900 45.57400
H  38.48100 7.10400 44.94500
H  41.12800 7.16100 44.19200
H  40.82500 8.84800 43.92100
H  41.03900 1.02000 44.71400
H  41.27400 0.01500 46.08000
H  42.26300 -0.20900 44.66400
H  46.41000 -1.41200 46.86300
H  46.19400 0.20400 47.48500
H  47.05100 -0.10300 45.85500
H  48.76000 3.74500 45.60500
H  48.85900 5.73400 47.99400
H  48.35100 2.54400 48.23600
H  49.58300 3.72200 48.48200
H  49.87100 2.42200 47.35600
H  49.27100 6.98400 45.46000
H  50.50300 5.67500 45.75200
H  51.49400 6.86600 47.41200
H  49.99200 7.70400 47.99700
H  50.82000 8.15000 46.44900
H  47.12100 10.64200 47.61100
H  46.15400 11.92600 46.87800
H  46.90800 10.72800 45.83400
H  40.86400 9.78000 46.21100
H  39.03000 11.64400 49.79200
H  38.93400 9.75900 50.08000
H  37.92000 10.61200 48.98800
Mg 41.15200 9.58200 29.58500
C  43.23900 10.67900 32.14400
C  38.83700 8.76000 31.88800
C  39.30100 8.49400 27.07400
C  43.81800 10.08000 27.19300
N  41.18700 9.66500 31.86500
C  41.95600 10.22900 32.73800
C  41.34200 10.31700 34.15800
C  39.93700 9.70500 33.89500
C  40.00400 9.34600 32.42100
C  39.51500 8.52700 34.84800
C  41.31300 11.79600 34.70700
C  40.54000 11.97000 35.98100
H  41.08700 12.76900 37.18700
N  39.32900 8.66400 29.48600
C  38.49600 8.41100 30.54100
C  37.29100 7.63100 30.10200
C  37.39300 7.64300 28.63600
C  38.69200 8.33500 28.35900
C  36.16800 7.18300 31.00400
C  36.49500 7.11300 27.54800
O  36.63800 7.22500 26.32700
C  35.22700 6.40500 27.96000
N  41.55700 9.04800 27.53300
C  40.58700 8.77700 26.65500
C  40.98600 8.95300 25.18800
C  42.33300 9.78300 25.27100
C  42.57900 9.52100 26.76800
C  40.96100 7.59600 24.43400
C  42.14900 11.27500 24.76100
C  41.29100 12.22100 25.61700
N  43.00400 10.35300 29.57800
C  43.95300 10.51100 28.52100
C  45.18100 11.04300 29.12600
C  44.87100 11.21500 30.52200
C  43.59600 10.68300 30.71000
C  46.42600 11.45200 28.39200
C  45.41700 11.77300 31.77700
O  46.47300 12.36800 32.02300
C  44.31500 11.41900 32.89700
C  45.07200 10.60100 33.97200
O  45.90400 9.71500 33.79500
O  44.68600 11.02700 35.21500
C  45.31100 10.39400 36.31400
H  37.97900 8.59500 32.54300
H  38.71800 8.14200 26.22000
H  44.56700 10.27800 26.42300
H  42.00900 9.70200 34.76100
H  39.21300 10.51800 33.93100
H  38.73400 8.94000 35.48500
H  40.33800 8.17900 35.47300
H  39.04200 7.70300 34.31500
H  41.10100 12.51200 33.91300
H  42.29900 12.16100 34.99600
H  40.12500 11.01600 36.30800
H  39.71100 12.58900 35.63700
H  35.18900 7.38300 30.56800
H  36.25900 7.50300 32.04200
H  36.36100 6.11800 31.13200
H  35.39500 5.68500 28.76000
H  34.89200 5.82800 27.09800
H  34.43800 7.05500 28.33800
H  40.17500 9.55800 24.78200
H  43.14500 9.35200 24.68500
H  40.57100 7.67000 23.41900
H  40.34900 6.91000 25.02100
H  41.91600 7.08300 24.32200
H  41.43300 11.27600 23.93900
H  43.09400 11.67700 24.39600
H  40.95000 11.72300 26.52500
H  40.50500 12.72400 25.05500
H  41.95500 13.03600 25.90500
H  46.64300 10.79200 27.55200
H  47.31600 11.31400 29.00600
H  46.32900 12.51000 28.14700
H  43.96000 12.36600 33.30400
H  45.58400 9.34600 36.19300
H  44.69300 10.62000 37.18300
H  46.23100 10.94500 36.50900

