158

Mg 1.78900 -2.87200 44.84300
C  5.09500 -2.21700 44.45500
C  1.00300 -0.33800 42.81000
C  -1.41500 -3.99200 44.75300
C  2.74500 -5.87100 46.46400
N  2.90000 -1.52800 43.52600
C  4.21900 -1.46200 43.56900
C  4.74100 -0.42500 42.47300
C  3.38600 0.29900 42.13500
C  2.35800 -0.54700 42.89000
C  3.25300 1.79800 42.42100
C  5.42200 -1.02500 41.18900
C  6.95000 -0.65700 41.10400
H  7.55100 -0.31900 39.74400
N  0.04700 -2.16500 44.01000
C  -0.08200 -1.01100 43.26500
C  -1.50000 -0.75500 43.04900
C  -2.23600 -1.75200 43.71700
C  -1.26500 -2.64400 44.19900
C  -2.00800 0.43200 42.26500
C  -3.74200 -1.83700 43.89100
O  -4.48800 -0.95600 43.47500
C  -4.34700 -2.88400 44.76200
N  0.79500 -4.83000 45.31900
C  -0.51900 -4.94800 45.37900
C  -0.94000 -6.38200 45.77200
C  0.38700 -6.94200 46.37700
C  1.40000 -5.78600 46.03500
C  -2.15200 -6.53800 46.74600
C  0.77600 -8.37300 45.86000
C  -0.22600 -9.47900 46.07700
N  3.56700 -3.80300 45.53500
C  3.79700 -4.92600 46.24000
C  5.27800 -5.00600 46.48800
C  5.81900 -3.91800 45.87000
C  4.76800 -3.28500 45.21900
C  6.03500 -6.25200 46.94200
C  7.04100 -3.19400 45.59800
O  8.18000 -3.48800 45.86700
C  6.56700 -2.12700 44.53600
C  7.13000 -0.82000 44.87400
O  8.11600 -0.39400 44.37600
O  6.26900 -0.08100 45.67400
C  6.59300 1.31100 45.81500
H  0.78600 0.53700 42.19300
H  -2.44200 -4.35700 44.81900
H  3.19800 -6.71600 46.98700
H  5.37400 0.16200 43.13800
H  3.15500 0.15700 41.07900
H  4.25000 2.23500 42.37000
H  2.80600 1.92100 43.40800
H  2.61300 2.26100 41.66900
H  4.91800 -0.75500 40.26100
H  5.29900 -2.10000 41.32700
H  7.53800 -1.46600 41.53800
H  7.14300 0.20300 41.74500
H  -2.90200 0.19500 41.68800
H  -1.23000 0.77000 41.58100
H  -2.35200 1.18300 42.97700
H  -4.58100 -3.75500 44.15000
H  -5.29900 -2.40600 44.99600
H  -3.80900 -3.08200 45.68900
H  -1.20000 -6.94600 44.87600
H  0.30500 -7.00800 47.46200
H  -1.83300 -6.64100 47.78300
H  -2.70500 -7.42800 46.44600
H  -2.80000 -5.66300 46.80800
H  1.75800 -8.58700 46.28200
H  1.02200 -8.21600 44.81000
H  -0.48600 -9.91500 45.11200
H  -1.14700 -9.15800 46.56400
H  0.16000 -10.31600 46.65900
H  6.75300 -5.83600 47.64800
H  6.50000 -6.71300 46.07000
H  5.35300 -6.90700 47.48400
H  6.95400 -2.44500 43.56800
H  7.50000 1.42500 46.40800
H  5.75300 1.83800 46.26800
H  6.75200 1.87100 44.89300
Mg 48.60400 35.51500 27.90500
C  46.58200 34.29200 30.49500
C  49.33000 38.19600 30.05700
C  50.11800 37.00000 25.36300
C  47.49800 33.02300 25.82500
N  48.15800 36.03400 30.06600
C  47.39200 35.31400 30.93200
C  47.40900 35.88000 32.41600
C  48.05500 37.30900 32.15600
C  48.58400 37.14900 30.73000
C  47.12100 38.61300 32.23300
C  48.14100 35.01600 33.55300
C  49.52800 35.37600 34.15400
H  49.60600 36.16300 35.49300
N  49.70700 37.30600 27.69400
C  49.77200 38.28000 28.70800
C  50.34400 39.52800 28.08000
C  50.46500 39.28200 26.71500
C  50.04400 37.82400 26.52500
C  50.55100 40.89000 28.84500
C  50.99700 40.14300 25.59200
O  50.97900 39.74200 24.40700
C  51.55200 41.47900 25.92400
N  48.90500 35.02400 25.98500
C  49.63600 35.70400 25.10300
C  49.78300 35.07400 23.72100
C  48.83100 33.85600 23.82100
C  48.28700 33.97500 25.28700
C  49.34300 35.93400 22.64400
C  49.41800 32.42700 23.51200
C  49.16400 32.05200 22.06300
N  47.36900 33.93500 28.06700
C  47.05600 33.00700 27.16000
C  46.05600 32.10700 27.69800
C  45.74300 32.68600 28.99400
C  46.63000 33.70300 29.20900
C  45.37000 31.03500 27.02300
C  44.98400 32.53800 30.19700
O  44.18200 31.71200 30.49500
C  45.48300 33.59900 31.25100
C  45.82600 32.87400 32.47300
O  46.66400 32.05000 32.52300
O  44.93400 33.21300 33.51300
C  45.47000 32.54100 34.77800
H  49.64700 39.06400 30.64000
H  50.53900 37.47200 24.47300
H  47.06100 32.33200 25.10100
H  46.37900 35.94200 32.76800
H  48.98200 37.42400 32.71800
H  47.22500 39.18200 31.30900
H  47.34400 39.17300 33.14100
H  46.06100 38.36100 32.25700
H  48.46800 34.02700 33.23100
H  47.40700 34.75300 34.31400
H  50.18100 35.88300 33.44400
H  50.10500 34.45700 34.26400
H  50.32800 41.68900 28.13800
H  51.62200 40.72700 28.96100
H  49.93700 40.95900 29.74300
H  50.74700 42.14100 26.24400
H  51.88500 41.90000 24.97600
H  52.28500 41.32600 26.71600
H  50.80300 34.73700 23.53900
H  47.91800 33.97800 23.23800
H  48.89900 36.81600 23.10500
H  48.72600 35.47200 21.87300
H  50.23200 36.38000 22.19800
H  48.98600 31.70200 24.20100
H  50.50500 32.44800 23.44000
H  49.03400 32.86900 21.35400
H  48.36700 31.32000 21.93100
H  50.03100 31.58800 21.59200
H  45.16500 30.20900 27.70500
H  45.90500 30.71800 26.12800
H  44.34800 31.31400 26.76400
H  44.68700 34.28900 31.53100
H  45.56600 31.45500 34.77600
H  44.83200 32.90100 35.58500
H  46.47300 32.89700 35.01500

