158

Mg -1.20200 17.73100 27.47500
C  -1.93600 15.68200 30.18600
C  -2.11800 20.43300 29.46700
C  -1.03800 19.65000 24.79200
C  -1.00400 14.83000 25.39200
N  -1.86900 18.00200 29.52000
C  -2.02000 17.00000 30.44700
C  -2.26900 17.56400 31.93300
C  -2.55200 19.09700 31.53600
C  -2.20100 19.19400 30.07900
C  -3.86400 19.76100 32.14400
C  -1.11200 17.40700 33.02100
C  -1.54600 16.90800 34.34800
H  -0.50500 16.95500 35.46200
N  -1.45200 19.75600 27.23100
C  -1.76700 20.74100 28.16400
C  -1.71300 22.06300 27.56900
C  -1.30800 21.84500 26.23000
C  -1.30200 20.39500 26.01000
C  -2.17200 23.31600 28.20300
C  -1.06900 22.84200 25.11800
O  -0.72700 22.57300 23.95100
C  -1.11600 24.29700 25.42400
N  -0.80600 17.29000 25.46100
C  -0.90100 18.29100 24.53900
C  -0.51200 17.81600 23.16000
C  -0.32900 16.25700 23.39500
C  -0.70100 16.07400 24.81400
C  -1.56700 18.03600 22.04800
C  1.15000 15.85500 23.01500
C  2.17900 15.77000 24.16200
N  -1.48600 15.70000 27.67900
C  -1.39400 14.69000 26.75200
C  -1.62400 13.46500 27.50900
C  -1.87700 13.83400 28.82100
C  -1.77500 15.17800 28.90400
C  -1.69100 12.18500 26.84100
C  -2.21800 13.24700 30.12000
O  -2.31500 12.07200 30.49300
C  -2.19700 14.48700 31.08500
C  -1.13600 14.21800 32.07800
O  0.04800 14.51400 31.98800
O  -1.69500 13.54100 33.14400
C  -0.85900 13.21200 34.31700
H  -2.31100 21.28500 30.12300
H  -0.75700 20.15600 23.86600
H  -0.79800 13.93600 24.80000
H  -3.15300 17.03100 32.28100
H  -1.85100 19.77800 32.02100
H  -4.33200 19.16500 32.92700
H  -4.59400 19.93900 31.35400
H  -3.62800 20.66500 32.70600
H  -0.66000 18.32500 33.39500
H  -0.28900 16.77700 32.68300
H  -2.02600 15.93400 34.25700
H  -2.25800 17.66800 34.67100
H  -2.97000 23.78000 27.62300
H  -1.36100 24.04200 28.13800
H  -2.57600 23.15700 29.20200
H  -0.36400 24.56400 26.16700
H  -2.12200 24.58900 25.72600
H  -0.96500 24.86500 24.50600
H  0.45000 18.24400 22.88000
H  -0.98900 15.68200 22.74400
H  -1.04100 17.89300 21.10400
H  -2.09600 18.98600 21.96800
H  -2.27400 17.20800 22.09200
H  1.54900 16.57100 22.29600
H  1.01800 14.88000 22.54700
H  3.02500 16.35100 23.79400
H  2.44500 14.71300 24.18500
H  1.93600 16.30800 25.07800
H  -1.97100 11.47400 27.61800
H  -0.71400 11.91700 26.44200
H  -2.39600 12.18400 26.01000
H  -3.21900 14.31200 31.42000
H  0.15800 13.59600 34.24500
H  -0.82200 12.12900 34.43500
H  -1.26400 13.64300 35.23300
Mg 9.25100 48.59300 25.64100
C  7.11800 49.28500 28.24500
C  11.82500 49.67000 27.54900
C  11.25700 47.73500 23.16900
C  6.48700 48.21200 23.53000
N  9.47600 49.34800 27.66500
C  8.46100 49.56000 28.58500
C  9.06100 49.94300 29.94900
C  10.38500 50.62300 29.49900
C  10.64000 49.78500 28.19100
C  10.33400 52.12100 29.07700
C  9.34800 48.79200 30.95000
C  8.84500 48.99600 32.38200
H  8.80200 47.82400 33.37200
N  11.29200 48.72900 25.38600
C  12.20300 49.11300 26.28500
C  13.51800 48.97500 25.73200
C  13.35000 48.36300 24.48900
C  11.94400 48.18900 24.31900
C  14.79500 49.30100 26.51400
C  14.33000 47.97300 23.37300
O  13.95900 47.46800 22.33600
C  15.85500 48.08100 23.53400
N  8.87300 48.25100 23.58400
C  9.88900 47.76300 22.76600
C  9.31000 46.93300 21.50300
C  7.85400 47.51900 21.45500
C  7.71400 47.98000 22.99000
C  10.12900 47.26400 20.23600
C  6.88300 46.46700 20.91800
C  7.14000 46.08100 19.41800
N  7.20600 48.68500 25.80500
C  6.19000 48.48700 24.86300
C  4.88100 48.54400 25.54500
C  5.21300 48.83500 26.90700
C  6.65300 48.92000 26.99100
C  3.53800 48.42300 24.97900
C  4.70300 49.02700 28.22200
O  3.54900 49.13800 28.58200
C  5.85800 49.38000 29.08000
C  5.84800 48.43500 30.28800
O  6.56100 47.47100 30.47900
O  5.01900 48.97700 31.29500
C  5.00800 48.17800 32.55100
H  12.62800 50.07400 28.16700
H  11.75600 47.17900 22.37300
H  5.67500 47.99400 22.83300
H  8.43100 50.69100 30.43300
H  11.18400 50.57600 30.24000
H  9.34800 52.54200 29.27400
H  10.67700 52.41000 28.08300
H  10.97500 52.59600 29.82000
H  10.39600 48.49700 30.98300
H  8.89100 47.92700 30.46900
H  7.90500 49.52900 32.24000
H  9.59400 49.68300 32.77500
H  15.08300 50.33900 26.34600
H  15.62800 48.77200 26.05200
H  14.61300 49.10100 27.57000
H  16.10600 47.35900 24.31000
H  16.22700 49.06300 23.82600
H  16.46700 47.66600 22.73300
H  9.47600 45.89700 21.79800
H  7.71200 48.41300 20.84800
H  10.96300 47.93000 20.45500
H  9.49500 47.87100 19.58900
H  10.56700 46.51800 19.57300
H  5.87500 46.87800 20.87700
H  6.97500 45.57200 21.53400
H  7.87200 45.28100 19.30500
H  7.62400 46.86300 18.83200
H  6.19400 45.77200 18.97300
H  3.50600 48.56900 23.89900
H  2.87300 49.09900 25.51700
H  3.12300 47.45900 25.27300
H  5.68100 50.38500 29.46200
H  5.73300 48.57500 33.26200
H  5.27000 47.15000 32.30200
H  3.99800 48.31500 32.93700

