158

Mg 1.60200 -1.55900 44.77200
C  4.75700 -0.37800 44.00100
C  0.31600 1.23400 43.29700
C  -1.42400 -3.08600 44.70400
C  3.09200 -4.66000 45.55300
N  2.49300 0.16400 43.54600
C  3.77900 0.49700 43.43400
C  4.02000 1.83500 42.68600
C  2.51600 2.45400 42.95300
C  1.69900 1.22600 43.30800
C  2.43900 3.49900 44.02700
C  4.41500 1.60800 41.19500
C  5.85900 2.10900 40.90700
H  6.70400 1.37000 39.89100
N  -0.31900 -0.91000 44.34800
C  -0.60600 0.25600 43.71400
C  -2.05100 0.32500 43.57600
C  -2.65900 -0.90500 43.99600
C  -1.50900 -1.66800 44.43600
C  -2.68700 1.63800 42.99900
C  -4.16200 -1.33500 43.93800
O  -5.01200 -0.52300 43.59800
C  -4.77100 -2.66100 44.29800
N  0.96600 -3.62100 44.81100
C  -0.37600 -3.90700 45.03700
C  -0.70300 -5.24600 45.67700
C  0.73300 -5.78100 45.89400
C  1.67300 -4.62000 45.37100
C  -1.53000 -5.11100 46.90600
C  0.96000 -7.20300 45.22600
C  1.42300 -8.28000 46.24200
N  3.51400 -2.38000 44.83900
C  4.04700 -3.64300 45.19300
C  5.50600 -3.63300 45.13800
C  5.78600 -2.33600 44.72800
C  4.57900 -1.64800 44.56500
C  6.42200 -4.86000 45.41700
C  6.92600 -1.48600 44.40000
O  8.13800 -1.58500 44.45700
C  6.26700 -0.17800 43.94900
C  6.55600 0.73800 45.07400
O  5.86900 0.83100 46.08700
O  7.66100 1.41600 44.74900
C  7.85900 2.68600 45.37600
H  -0.21100 2.14800 43.01700
H  -2.44500 -3.46000 44.80300
H  3.61900 -5.56200 45.86900
H  4.77400 2.40000 43.23300
H  2.15000 2.89700 42.02700
H  2.98500 4.38200 43.69500
H  2.81800 3.18100 44.99800
H  1.42900 3.87900 44.18300
H  3.79200 2.29500 40.62200
H  4.39400 0.57600 40.84500
H  6.47200 2.03900 41.80500
H  5.72600 3.15400 40.62700
H  -3.77100 1.56100 42.91700
H  -2.42200 1.85200 41.96300
H  -2.47500 2.55800 43.54300
H  -4.38100 -2.93800 45.27700
H  -4.33200 -3.33900 43.56600
H  -5.85600 -2.64600 44.40600
H  -1.31500 -5.87700 45.03400
H  1.04600 -5.85400 46.93600
H  -2.57800 -5.10700 46.60700
H  -1.25200 -4.18100 47.40100
H  -1.30200 -6.01000 47.47900
H  1.63400 -6.98400 44.39700
H  -0.01800 -7.57300 44.91900
H  1.21300 -8.06700 47.29000
H  2.46300 -8.57500 46.10200
H  0.80900 -9.15600 46.03200
H  5.77100 -5.72200 45.27700
H  6.70400 -4.83300 46.46900
H  7.30600 -4.86200 44.77900
H  6.71500 0.20700 43.03300
H  8.80400 2.98400 44.92100
H  7.73300 2.51300 46.44500
H  7.15300 3.44400 45.03600
Mg 47.43500 25.45900 28.07400
C  48.53300 27.81200 30.53900
C  46.07300 23.63800 30.48500
C  47.07300 22.96300 25.77600
C  49.35100 27.29700 25.71500
N  47.48400 25.70800 30.31100
C  47.73000 26.79800 31.06400
C  47.16600 26.58700 32.52200
C  46.40800 25.27100 32.41200
C  46.65000 24.83400 30.99100
C  46.86000 24.15800 33.46500
C  46.36700 27.79900 33.05300
C  47.00500 28.38900 34.41900
H  45.88200 28.72000 35.43800
N  46.56900 23.62700 28.06900
C  46.06600 23.05800 29.20300
C  45.48000 21.77900 28.84000
C  45.62900 21.64200 27.45200
C  46.44400 22.77200 27.02500
C  44.84800 20.83000 29.81900
C  45.02700 20.61100 26.42700
O  45.32100 20.57300 25.23700
C  44.02800 19.72200 27.00700
N  47.93000 25.31200 25.95300
C  47.74600 24.11700 25.32300
C  48.28500 24.21400 23.88100
C  48.88600 25.68800 23.79700
C  48.68300 26.16300 25.25300
C  49.46300 23.17900 23.55600
C  48.04800 26.56700 22.73800
C  48.70300 26.98800 21.37200
N  48.58100 27.18200 28.03600
C  49.29600 27.79200 27.02800
C  49.91000 29.02900 27.51600
C  49.53800 29.10900 28.83700
C  48.84400 27.90300 29.16900
C  50.80800 29.94800 26.78700
C  49.73600 29.83800 30.04300
O  50.46800 30.81600 30.15000
C  49.04400 29.09500 31.17200
C  49.96600 28.85600 32.33800
O  50.76200 27.98900 32.30000
O  49.87800 29.84400 33.36500
C  50.67600 29.80800 34.62900
H  45.42100 23.10500 31.18000
H  47.03700 22.21700 24.97900
H  50.03600 27.90700 25.12200
H  48.06200 26.44500 33.12700
H  45.33800 25.34400 32.60900
H  47.17300 24.60800 34.40800
H  47.65300 23.50300 33.10400
H  45.97200 23.57500 33.70700
H  45.37100 27.42400 33.28700
H  46.36300 28.60300 32.31700
H  47.46000 29.35100 34.18500
H  47.68900 27.74000 34.96600
H  45.30100 20.94900 30.80300
H  45.07200 19.80900 29.51000
H  43.76200 20.91300 29.77600
H  44.54900 18.96500 27.59300
H  43.54900 19.15000 26.21300
H  43.29100 20.26500 27.59900
H  47.41900 24.01100 23.25200
H  49.94600 25.80100 23.57000
H  50.31100 23.59700 23.01400
H  49.05500 22.37400 22.94500
H  49.82600 22.63300 24.42600
H  47.73300 27.54800 23.09500
H  47.14400 25.99900 22.52200
H  49.77500 26.78900 21.38300
H  48.65000 28.03500 21.07400
H  48.29000 26.35700 20.58500
H  51.74500 29.40300 26.67400
H  50.95200 30.90400 27.29100
H  50.28500 30.03800 25.83500
H  48.22500 29.65600 31.62300
H  51.69800 29.62600 34.29500
H  50.30600 28.95400 35.19600
H  50.58200 30.76800 35.13500

