158

Mg 8.96600 2.83900 27.29400
C  10.36500 1.50600 30.32800
C  7.12800 4.97800 29.29000
C  7.35700 3.90800 24.55300
C  10.50600 0.25000 25.53600
N  8.69200 3.09700 29.64800
C  9.54200 2.60100 30.55400
C  9.23600 3.24100 31.94000
C  8.13000 4.33200 31.53700
C  7.95000 4.11000 30.05600
C  6.87700 4.23600 32.42100
C  10.54800 3.80700 32.60400
C  11.14600 3.10300 33.85000
H  11.48400 4.04600 35.07700
N  7.51300 4.30700 26.91700
C  6.91700 5.11600 27.88000
C  6.02800 6.02800 27.18200
C  6.10000 5.78800 25.75300
C  7.03300 4.62000 25.72000
C  5.07100 7.07500 27.90400
C  5.37700 6.55800 24.62100
O  5.53800 6.25900 23.38500
C  4.56900 7.73400 24.92100
N  8.81000 2.14100 25.43500
C  8.23900 2.85400 24.40700
C  8.62100 2.34300 23.01200
C  9.54600 1.08500 23.37400
C  9.64200 1.15200 24.89000
C  7.35800 1.99800 22.13400
C  10.88300 1.02200 22.61500
C  10.83700 1.11200 21.07300
N  10.21700 1.17700 27.75200
C  10.71600 0.16700 26.95900
C  11.47500 -0.67800 27.81600
C  11.46400 -0.18000 29.12100
C  10.62800 0.92700 29.01900
C  12.21700 -1.89900 27.48900
C  11.99100 -0.37800 30.43000
O  12.65100 -1.30400 30.90000
C  11.21500 0.69800 31.30200
C  10.43400 0.03300 32.35200
O  9.33600 -0.39900 32.18700
O  11.15800 -0.07600 33.49500
C  10.42300 -0.66300 34.62800
H  6.60500 5.70500 29.91500
H  6.85200 4.27100 23.65500
H  11.08200 -0.53600 25.04400
H  8.67800 2.50500 32.51900
H  8.58800 5.28000 31.82000
H  6.49600 5.23900 32.61200
H  7.05800 3.78900 33.39900
H  6.16400 3.58800 31.91100
H  10.40700 4.81600 32.99100
H  11.26500 3.86700 31.78600
H  12.10100 2.62700 33.62500
H  10.55900 2.22500 34.12100
H  5.50800 8.05500 27.71200
H  4.94300 6.84300 28.96100
H  4.08300 7.22700 27.47000
H  5.21000 8.36200 25.54000
H  3.58200 7.45600 25.29100
H  4.39600 8.28800 23.99900
H  9.27300 3.08700 22.55500
H  9.11700 0.10200 23.17800
H  7.41300 1.14600 21.45600
H  7.24500 2.82000 21.42700
H  6.47300 1.92800 22.76700
H  11.36500 0.06000 22.79600
H  11.46500 1.86200 22.99400
H  11.39600 1.98100 20.72600
H  9.83900 0.98100 20.65400
H  11.38200 0.23600 20.72200
H  13.28600 -1.69200 27.44300
H  11.82800 -2.23800 26.52800
H  12.04300 -2.69400 28.21500
H  12.07900 1.20500 31.73200
H  9.89600 -1.54100 34.25600
H  9.66400 -0.01400 35.06500
H  11.25900 -0.92000 35.27900
Mg 45.23000 3.47100 47.25800
C  42.88100 5.89000 46.64900
C  42.89300 1.03700 46.71100
C  47.73900 1.23300 46.99800
C  47.60900 6.04200 47.67300
N  43.16100 3.50000 46.65500
C  42.33500 4.57900 46.45900
C  40.83200 4.19400 46.13300
C  40.90000 2.64000 46.53300
C  42.41300 2.34800 46.59300
C  40.16200 2.27800 47.80100
C  40.47900 4.60300 44.72300
C  39.22300 5.54900 44.57600
H  38.51200 5.50400 43.20400
N  45.32500 1.46100 47.03700
C  44.22500 0.56200 46.91100
C  44.58500 -0.77400 46.71900
C  46.02000 -0.69800 46.68500
C  46.42400 0.72700 46.87600
C  43.62400 -1.99900 46.66200
C  46.85300 -1.89800 46.54600
O  46.33400 -2.97500 46.42600
C  48.34400 -1.81200 46.37200
N  47.39800 3.63400 47.26200
C  48.17000 2.55200 47.21000
C  49.65900 2.85900 47.44700
C  49.63200 4.46900 47.66200
C  48.16800 4.75000 47.48700
C  50.33300 1.87700 48.52200
C  50.38500 5.34000 46.69100
C  51.89400 5.11500 46.46300
N  45.27700 5.58900 47.20300
C  46.27000 6.45700 47.50200
C  45.78900 7.86100 47.54200
C  44.43300 7.67100 47.20900
C  44.19200 6.22900 46.97500
C  46.68300 9.11100 47.72800
C  43.12200 8.27100 46.87000
O  42.79100 9.44300 46.75500
C  42.10200 7.13100 46.61400
C  41.01200 7.23500 47.67100
O  41.18100 6.91300 48.80300
O  39.89900 7.82400 47.14800
C  38.78200 7.83800 48.11700
H  42.19500 0.20400 46.60800
H  48.59900 0.56200 47.03600
H  48.36600 6.75000 48.01700
H  40.20800 4.65000 46.90200
H  40.58000 1.95400 45.74800
H  39.32200 2.93000 48.04000
H  40.93300 2.32800 48.57000
H  39.82600 1.24400 47.88000
H  40.28300 3.72800 44.10400
H  41.27300 5.07200 44.14100
H  39.68900 6.52600 44.70600
H  38.60800 5.46000 45.47100
H  44.00100 -2.90500 47.13600
H  43.31900 -2.13200 45.62400
H  42.71100 -1.82800 47.23300
H  48.74700 -1.54700 47.35000
H  48.42100 -1.11500 45.53800
H  48.72400 -2.74500 45.95500
H  50.20700 2.77500 46.50900
H  49.86300 4.72000 48.69800
H  49.68400 1.30900 49.18900
H  51.06600 2.41000 49.12600
H  50.78600 1.13900 47.86000
H  50.30400 6.31700 47.16700
H  49.81200 5.24900 45.76800
H  52.18000 5.17000 45.41300
H  52.20300 4.09100 46.67700
H  52.54500 5.84500 46.94400
H  46.13700 9.96700 47.33000
H  47.60800 8.99500 47.16400
H  47.02400 9.27700 48.75000
H  41.56900 7.42200 45.70900
H  39.10800 8.33100 49.03200
H  38.49300 6.84300 48.45700
H  37.91800 8.33600 47.67600

