158

Mg 47.74000 24.50900 28.08600
C  48.41600 26.80900 30.55600
C  46.62100 22.28600 30.45900
C  47.25800 22.35700 25.64800
C  49.12400 26.84000 25.69700
N  47.64000 24.62800 30.33000
C  47.84600 25.68100 31.12400
C  47.54100 25.36600 32.55000
C  47.02600 23.86400 32.50600
C  47.14300 23.52100 31.01100
C  47.92700 22.81000 33.30300
C  46.55700 26.32200 33.27300
C  45.82900 25.69600 34.49000
H  45.54100 26.60400 35.66400
N  46.99200 22.56800 28.06300
C  46.50900 21.85400 29.15100
C  46.04000 20.57500 28.63000
C  46.12200 20.57800 27.15700
C  46.80600 21.84200 26.88500
C  45.53100 19.47500 29.50200
C  45.52300 19.63000 26.13600
O  45.41100 19.85800 24.98800
C  44.79400 18.44000 26.67500
N  48.09200 24.60600 25.98700
C  47.85200 23.57300 25.18100
C  48.17200 23.87900 23.68600
C  48.54000 25.45700 23.66700
C  48.68800 25.62800 25.17100
C  49.26200 22.94600 23.06300
C  47.58800 26.43000 23.02800
C  47.78000 26.67300 21.51100
N  48.43300 26.51200 28.02500
C  48.98900 27.29300 27.02200
C  49.41900 28.52100 27.55700
C  49.24200 28.38100 28.98300
C  48.61100 27.13500 29.13100
C  50.21600 29.54800 26.85700
C  49.55800 28.99100 30.21100
O  50.11700 30.02900 30.55300
C  48.88300 28.07400 31.31400
C  49.77000 27.78200 32.55100
O  50.73300 27.04800 32.47200
O  49.37900 28.42300 33.69000
C  50.30800 28.28000 34.82800
H  46.31200 21.52700 31.18000
H  46.96600 21.64400 24.87400
H  49.49300 27.46900 24.88400
H  48.47700 25.29200 33.10400
H  46.00500 23.76500 32.87400
H  47.36700 22.27600 34.07100
H  48.81700 23.29400 33.70400
H  48.34200 22.13000 32.55900
H  45.82400 26.61800 32.52300
H  47.18500 27.14100 33.62400
H  46.45100 24.84400 34.76400
H  44.88000 25.44800 34.01400
H  44.54400 19.10100 29.23300
H  45.52600 19.86500 30.52000
H  46.30000 18.71300 29.37300
H  45.42800 17.99300 27.44100
H  44.79400 17.78600 25.80200
H  43.79000 18.74100 26.97100
H  47.26700 23.77000 23.09000
H  49.56900 25.56800 23.32400
H  49.85000 22.40000 23.80000
H  49.91400 23.48200 22.37300
H  48.91900 22.12700 22.43100
H  47.62700 27.36500 23.58700
H  46.55500 26.10200 23.14400
H  46.77900 26.61300 21.08400
H  48.49100 25.95600 21.09900
H  48.20900 27.67100 21.41900
H  50.04000 29.82800 25.81900
H  51.25100 29.22700 26.97400
H  50.23500 30.41700 27.51500
H  48.00800 28.56200 31.74300
H  50.04200 27.48500 35.52500
H  50.27300 29.17700 35.44600
H  51.33600 28.21600 34.47100
Mg -10.47700 17.22800 42.08900
C  -6.95400 16.81300 42.32300
C  -9.75200 20.61800 41.24600
C  -13.59500 17.55100 41.00100
C  -10.70400 13.73300 41.78500
N  -8.56200 18.54800 41.74600
C  -7.30400 18.07900 41.84700
C  -6.31400 19.20100 41.35900
C  -7.18400 20.47300 41.57800
C  -8.59300 19.87300 41.52500
C  -6.95600 21.11800 42.96700
C  -5.93400 18.85400 39.82800
C  -4.48200 18.35400 39.53300
H  -4.26700 17.03700 38.80100
N  -11.53100 18.93800 41.46400
C  -11.05900 20.20800 41.15600
C  -12.24600 21.03300 40.86300
C  -13.35800 20.17400 40.81700
C  -12.91100 18.79800 41.11800
C  -12.17300 22.58300 40.68200
C  -14.73700 20.58000 40.35800
O  -14.80100 21.66700 39.80900
C  -15.96400 19.69800 40.48800
N  -11.93400 15.85900 41.46800
C  -13.16900 16.21300 41.19400
C  -14.11700 15.00000 41.08800
C  -13.06300 13.81200 40.94500
C  -11.81700 14.48600 41.54500
C  -15.28700 14.82100 42.14200
C  -12.81100 13.13700 39.50400
C  -13.75600 11.89000 39.28400
N  -9.17400 15.58000 42.30800
C  -9.38600 14.20100 42.20300
C  -8.14400 13.47600 42.45700
C  -7.14000 14.43300 42.49000
C  -7.78600 15.69200 42.36200
C  -7.92900 12.03800 42.61100
C  -5.73900 14.73800 42.68400
O  -4.83000 14.00200 42.92400
C  -5.53000 16.32000 42.46900
C  -4.85600 16.99900 43.64000
O  -5.15200 16.89400 44.81200
O  -3.77100 17.69100 43.26400
C  -2.98000 18.50200 44.24800
H  -9.73200 21.70900 41.21100
H  -14.57200 17.61600 40.51800
H  -10.73500 12.67300 41.52500
H  -5.36100 19.26500 41.88500
H  -6.86300 21.18700 40.82000
H  -7.78900 21.15500 43.66800
H  -6.60700 22.13800 42.80300
H  -6.20100 20.59000 43.55000
H  -6.07300 19.74400 39.21400
H  -6.61000 18.14500 39.35000
H  -3.89000 18.35800 40.44900
H  -3.99200 19.10700 38.91600
H  -12.53200 22.88900 39.69900
H  -11.19700 23.06800 40.68600
H  -12.81100 22.95800 41.48300
H  -16.74100 20.46300 40.46400
H  -15.74700 19.28700 41.47400
H  -16.11500 19.06700 39.61200
H  -14.47500 15.19600 40.07700
H  -13.48300 13.05200 41.60400
H  -14.96700 15.41300 43.00000
H  -15.59400 13.79500 42.34400
H  -16.16900 15.37500 41.82100
H  -11.77100 12.81600 39.44500
H  -12.89300 13.97400 38.81100
H  -14.30200 11.53300 40.15700
H  -13.20900 11.11000 38.75400
H  -14.61100 12.00400 38.61700
H  -7.06600 11.73600 42.01700
H  -8.78800 11.36700 42.62100
H  -7.55100 11.86300 43.61800
H  -4.90000 16.56700 41.61500
H  -1.97500 18.11400 44.41600
H  -3.40700 18.62800 45.24300
H  -2.84700 19.49500 43.81800

