158

Mg 23.77600 -5.49100 46.13900
C  26.12300 -3.21400 44.76800
C  21.40300 -4.13700 44.18200
C  21.78600 -8.21500 46.93900
C  26.38200 -6.88400 48.02700
N  23.82000 -3.88500 44.63700
C  24.82400 -2.98100 44.36800
C  24.32600 -1.86400 43.44300
C  22.78100 -2.04900 43.45400
C  22.67100 -3.46200 44.03800
C  21.88000 -1.05800 44.27000
C  25.06300 -2.06500 42.07500
C  25.21800 -0.75600 41.27500
H  24.58200 -0.76400 39.88000
N  21.86700 -6.03100 45.63600
C  21.01600 -5.34000 44.80500
C  19.77800 -6.03100 44.72200
C  19.82500 -7.14800 45.51500
C  21.18600 -7.19200 46.10400
C  18.67200 -5.53500 43.78600
C  18.69100 -8.20200 45.61500
O  17.63600 -8.00200 45.00000
C  18.76200 -9.37100 46.63800
N  24.04400 -7.43800 47.19500
C  23.11600 -8.31100 47.46300
C  23.60000 -9.47300 48.33000
C  25.00300 -8.88500 48.95100
C  25.15200 -7.65600 48.02000
C  22.54400 -10.00200 49.47600
C  26.22600 -9.84800 48.83400
C  26.87900 -10.18400 50.14200
N  25.86600 -5.17300 46.43800
C  26.75800 -5.81900 47.19900
C  27.97700 -5.12900 47.14900
C  27.81100 -4.11900 46.21700
C  26.52000 -4.21700 45.70700
C  29.20800 -5.28800 47.92900
C  28.44500 -2.98700 45.51700
O  29.66000 -2.64000 45.58000
C  27.38100 -2.37700 44.53100
C  27.26500 -0.94400 44.75200
O  26.59500 -0.44400 45.61800
O  27.99700 -0.29700 43.81100
C  27.91800 1.13000 43.81300
H  20.57100 -3.64200 43.67800
H  21.31400 -9.17200 47.17000
H  27.18900 -7.31300 48.62500
H  24.60700 -0.87800 43.81400
H  22.31000 -1.87900 42.48600
H  22.60600 -0.53800 44.89500
H  21.12500 -1.58300 44.85500
H  21.41600 -0.43400 43.50600
H  24.61700 -2.83300 41.44300
H  26.11200 -2.34900 42.16400
H  26.28500 -0.58000 41.14200
H  24.78000 0.07800 41.82300
H  18.64100 -6.36100 43.07500
H  18.77200 -4.55900 43.31000
H  17.75100 -5.55200 44.36800
H  17.85000 -9.93900 46.81900
H  19.18800 -9.06900 47.59500
H  19.45600 -10.11700 46.25400
H  23.72000 -10.34100 47.68100
H  24.82300 -8.47500 49.94500
H  21.58000 -9.51300 49.33500
H  22.89400 -9.87700 50.50100
H  22.29900 -11.03200 49.22000
H  26.90100 -9.49900 48.05300
H  25.85700 -10.85100 48.62000
H  27.91600 -9.85700 50.22200
H  26.83200 -11.27300 50.17200
H  26.39300 -9.76700 51.02400
H  30.06000 -5.70100 47.38800
H  28.97000 -5.81900 48.85100
H  29.58600 -4.31400 48.23900
H  27.74900 -2.44000 43.50700
H  27.94800 1.63800 44.77600
H  26.98300 1.53300 43.42400
H  28.76500 1.55500 43.27500
Mg 54.25100 23.20000 44.33100
C  51.98900 25.77400 43.43400
C  51.73700 20.85600 43.54700
C  56.59200 20.90400 44.40300
C  56.64200 25.72100 44.81100
N  52.08200 23.23100 43.47500
C  51.49900 24.44900 43.25300
C  50.10400 24.09800 42.60300
C  49.82100 22.60100 43.05100
C  51.26700 22.21200 43.37700
C  48.90500 22.31100 44.22800
C  50.09600 24.26400 41.05700
C  48.81300 24.88500 40.44400
H  48.31800 24.11300 39.14500
N  54.21500 21.20700 43.93500
C  53.07000 20.42200 43.73100
C  53.51000 19.01900 43.86100
C  54.91800 19.04100 44.04800
C  55.31800 20.44600 44.10600
C  52.60500 17.84600 43.56700
C  55.76400 17.81100 44.15400
O  55.22200 16.70400 44.05500
C  57.26700 17.81700 44.60800
N  56.43000 23.32900 44.28900
C  57.05000 22.21300 44.56400
C  58.53000 22.50600 44.72300
C  58.55200 24.05900 44.92000
C  57.17300 24.43500 44.65600
C  59.18700 21.71100 45.88500
C  59.64200 24.75900 44.03200
C  60.57800 25.71500 44.84900
N  54.36100 25.31200 44.28900
C  55.32200 26.20600 44.61600
C  54.82400 27.58700 44.55700
C  53.48500 27.47400 44.14700
C  53.28100 26.07300 43.91300
C  55.58000 28.79300 44.94100
C  52.27300 28.17300 43.84700
O  52.03400 29.37600 43.84900
C  51.27100 27.14500 43.22700
C  51.20400 27.55600 41.78300
O  52.14100 27.34500 40.99700
O  50.02300 28.12500 41.48700
C  49.74400 28.56200 40.13500
H  50.94000 20.12700 43.38300
H  57.50000 20.29700 44.42300
H  57.32800 26.48100 45.19100
H  49.36200 24.78400 43.01300
H  49.52400 21.95700 42.22300
H  48.31000 21.41800 44.03800
H  48.21400 23.15100 44.29800
H  49.49500 22.24900 45.14200
H  50.27400 23.30900 40.56200
H  50.96100 24.91300 40.91800
H  48.98900 25.91500 40.13600
H  47.98900 24.96700 41.15200
H  52.76600 16.88600 44.05700
H  52.68100 17.58600 42.51100
H  51.61000 18.18700 43.85300
H  57.81000 18.32300 43.80900
H  57.70200 16.82100 44.52200
H  57.36900 18.28000 45.58900
H  58.98500 22.22900 43.77200
H  58.71700 24.22900 45.98400
H  59.45900 20.71200 45.54500
H  58.40000 21.55000 46.62200
H  60.02000 22.21400 46.37600
H  59.13400 25.33800 43.26100
H  60.25800 23.93900 43.66400
H  60.41000 26.77700 44.66600
H  61.62000 25.44200 44.68200
H  60.39400 25.57900 45.91500
H  56.50100 28.99500 44.39500
H  55.70900 28.76100 46.02300
H  54.90100 29.62300 44.74700
H  50.28100 27.17700 43.68200
H  48.89400 28.02800 39.71000
H  50.59000 28.66400 39.45500
H  49.28700 29.55000 40.19000

