158

Mg 17.11700 -1.68400 27.81700
C  15.75200 0.32100 30.30800
C  19.26000 -3.01400 30.38400
C  18.96000 -3.34700 25.41800
C  15.66700 0.35600 25.45000
N  17.40400 -1.44800 30.11700
C  16.66700 -0.55800 30.80800
C  17.12000 -0.63900 32.30500
C  18.31900 -1.52300 32.24000
C  18.29600 -2.09000 30.84100
C  19.67400 -0.88700 32.66600
C  15.90600 -0.98700 33.28100
C  15.80200 -0.20600 34.54400
H  17.00700 0.58600 35.05200
N  18.80800 -3.05800 27.91200
C  19.49500 -3.48800 29.03000
C  20.40300 -4.55100 28.62300
C  20.26500 -4.75700 27.22900
C  19.30900 -3.72900 26.75900
C  21.24900 -5.25300 29.60400
C  20.91600 -5.73100 26.34200
O  20.63100 -5.74600 25.11000
C  21.98200 -6.69300 26.89500
N  17.39200 -1.48000 25.77000
C  18.08600 -2.36600 25.04200
C  17.89900 -2.06500 23.53500
C  16.81700 -0.92300 23.51800
C  16.67400 -0.53500 24.99000
C  19.23400 -1.66200 22.72500
C  15.46700 -1.36600 22.91800
C  14.87700 -0.47000 21.84000
N  15.82700 -0.00900 27.79200
C  15.32900 0.71600 26.78500
C  14.38400 1.68500 27.29000
C  14.53600 1.59300 28.70400
C  15.45500 0.56300 28.97100
C  13.43300 2.62600 26.56200
C  14.14100 2.10400 29.95900
O  13.36200 3.01300 30.26900
C  14.88700 1.33600 31.06800
C  15.75400 2.40200 31.81000
O  16.89300 2.72200 31.40600
O  15.07000 2.96400 32.78800
C  15.59700 4.21400 33.33600
H  19.87100 -3.43900 31.18300
H  19.33300 -3.92300 24.56800
H  14.98200 0.92900 24.82200
H  17.34700 0.38000 32.61700
H  18.06600 -2.38200 32.86300
H  20.31200 -0.64400 31.81600
H  20.20600 -1.64900 33.23600
H  19.55400 0.08000 33.15300
H  15.96400 -2.03000 33.59200
H  15.00100 -0.83200 32.69300
H  15.47800 -0.83700 35.37100
H  14.92000 0.40300 34.34800
H  22.24100 -5.28100 29.15200
H  20.91200 -6.19900 30.02800
H  21.47200 -4.53500 30.39400
H  22.12100 -7.46100 26.13500
H  21.52000 -7.17300 27.75800
H  22.95300 -6.21100 27.01300
H  17.45100 -2.91300 23.01800
H  17.20600 -0.04300 23.00600
H  18.98800 -1.54500 21.66900
H  19.87000 -2.53700 22.86100
H  19.61300 -0.77500 23.23100
H  14.74000 -1.48300 23.72200
H  15.48900 -2.36800 22.49100
H  15.23900 0.55700 21.80100
H  13.79900 -0.40100 21.98900
H  15.17100 -1.05900 20.97100
H  13.04200 1.99000 25.76800
H  14.07900 3.36100 26.08300
H  12.64400 3.02900 27.19600
H  14.19800 0.89200 31.78700
H  16.55000 3.79900 33.66300
H  14.98400 4.58800 34.15500
H  15.74500 4.96600 32.56000
Mg 5.66300 53.71600 42.62400
C  5.09400 50.36200 41.85900
C  8.47000 53.66900 40.94200
C  5.74700 56.99000 42.94200
C  2.32500 53.72500 43.83300
N  6.54900 52.17500 41.37000
C  6.24500 50.84800 41.20100
C  7.29100 50.05200 40.37800
C  8.43600 51.13900 40.42500
C  7.78300 52.44800 40.97900
C  9.61900 50.74000 41.41700
C  6.74100 49.75700 39.00400
C  7.11700 48.48800 38.41600
H  6.46200 48.05200 37.08600
N  6.97100 55.19500 42.08600
C  8.13400 54.93900 41.46000
C  8.99000 56.16300 41.45700
C  8.19600 57.20700 42.08900
C  6.87200 56.49000 42.41500
C  10.28100 56.24400 40.72300
C  8.57500 58.63100 42.34300
O  9.71900 58.99800 41.99300
C  7.76600 59.59700 43.16300
N  4.13100 55.24000 43.12100
C  4.49600 56.53100 43.22800
C  3.36800 57.38400 43.81500
C  2.23600 56.27800 44.05400
C  2.93200 55.00200 43.63800
C  3.77900 58.34900 45.00700
C  0.87000 56.43700 43.24600
C  -0.36500 56.63100 44.26200
N  4.09900 52.37200 42.96400
C  2.87700 52.52700 43.48500
C  2.22600 51.25800 43.62700
C  3.09600 50.33600 43.00800
C  4.22100 51.06800 42.57600
C  0.91600 51.01400 44.26500
C  3.33200 48.97200 42.66600
O  2.62000 47.93300 42.82100
C  4.71300 48.87300 41.98600
C  4.61800 48.02000 40.77000
O  4.11900 48.35600 39.70400
O  5.06000 46.75700 41.03600
C  4.67700 45.75100 40.12600
H  9.41500 53.71500 40.39900
H  5.79400 58.07400 43.06300
H  1.36000 53.73300 44.34300
H  7.68100 49.17000 40.88500
H  8.89200 51.31300 39.45000
H  9.55600 51.37600 42.30000
H  10.60800 50.99600 41.03500
H  9.67400 49.66800 41.60800
H  7.24900 50.44400 38.32700
H  5.69300 50.03200 38.88300
H  6.92500 47.73600 39.18200
H  8.19900 48.61600 38.40000
H  10.58300 55.32500 40.22300
H  11.07300 56.71900 41.30200
H  10.10100 57.03500 39.99500
H  8.26700 60.55900 43.26800
H  7.66100 59.18900 44.16900
H  6.80500 59.76600 42.67700
H  3.06400 57.92200 42.91800
H  2.07900 56.25300 45.13300
H  4.86200 58.38500 45.12400
H  3.26200 57.94000 45.87500
H  3.40100 59.33900 44.75500
H  0.68600 55.50000 42.72000
H  0.80200 57.34700 42.65100
H  0.00900 56.50200 45.27800
H  -1.16600 55.97700 43.91600
H  -0.68300 57.67300 44.23700
H  1.00200 50.59500 45.26800
H  0.29700 50.29100 43.73400
H  0.33900 51.93400 44.35900
H  5.41600 48.36300 42.64600
H  3.59500 45.72400 40.25800
H  5.23800 44.86600 40.42400
H  5.01200 45.94100 39.10700

