158

Mg 0.42800 7.69700 26.58600
C  1.52300 9.85200 29.09300
C  0.69000 5.06600 28.77400
C  0.23100 5.48900 23.96700
C  0.79600 10.43800 24.26600
N  0.99700 7.57100 28.67400
C  1.14500 8.58100 29.57400
C  1.03500 8.10200 31.03300
C  1.22100 6.56700 30.80800
C  0.96300 6.31800 29.31300
C  2.62700 5.91900 31.25200
C  -0.30600 8.57500 31.72500
C  -0.38000 8.65600 33.21400
H  0.91600 8.47200 34.00400
N  0.22800 5.63300 26.43800
C  0.28800 4.69300 27.46300
C  -0.14900 3.44200 27.01400
C  -0.14400 3.51900 25.53600
C  0.13600 4.92900 25.25200
C  -0.43700 2.35900 28.00400
C  -0.23600 2.50200 24.50900
O  -0.24100 2.69000 23.32700
C  -0.28000 1.06100 24.98200
N  0.63900 7.93300 24.49000
C  0.51600 6.81300 23.57200
C  0.38700 7.22500 22.09200
C  0.21600 8.78600 22.26000
C  0.53500 9.15000 23.78000
C  1.60200 6.75100 21.27800
C  -1.22200 9.25600 21.93900
C  -1.53900 10.04500 20.65100
N  1.14400 9.69700 26.60200
C  1.06700 10.71300 25.64100
C  1.31200 11.98800 26.19900
C  1.59800 11.65300 27.55900
C  1.38400 10.32400 27.73500
C  1.26600 13.32600 25.55000
C  1.94700 12.26100 28.83600
O  2.25900 13.38400 29.13500
C  1.86600 11.10200 29.87100
C  3.15300 10.99700 30.62100
O  4.16300 10.33200 30.29600
O  3.15500 11.95200 31.59600
C  4.29700 11.70300 32.50300
H  0.82800 4.29700 29.53700
H  0.16300 4.83400 23.09500
H  0.59900 11.30900 23.63700
H  1.89900 8.58900 31.48700
H  0.53200 5.92400 31.35700
H  3.18700 5.54800 30.39300
H  2.54600 5.07900 31.94200
H  3.32700 6.70600 31.53500
H  -1.07200 7.85300 31.44100
H  -0.35200 9.61400 31.40100
H  -1.19700 7.97700 33.45700
H  -0.88600 9.60100 33.41800
H  -0.60900 2.68300 29.03000
H  0.24000 1.51000 27.91000
H  -1.35400 1.90500 27.62700
H  0.51000 0.83900 25.70000
H  -0.03900 0.42400 24.13100
H  -1.29900 0.98100 25.36100
H  -0.54500 6.75100 21.78600
H  0.95400 9.29400 21.63900
H  2.47900 6.67400 21.92000
H  1.83000 7.44200 20.46700
H  1.22900 5.82600 20.83700
H  -1.43800 10.05600 22.64700
H  -1.89100 8.39500 21.91600
H  -0.78400 9.72100 19.93400
H  -1.59500 11.12200 20.81200
H  -2.50600 9.75000 20.24500
H  0.49900 13.35500 24.77600
H  2.22000 13.40000 25.02900
H  1.09400 14.08100 26.31700
H  1.08600 11.34100 30.59300
H  4.25900 10.65600 32.80600
H  4.22400 12.37700 33.35600
H  5.25800 11.95200 32.05200
Mg 47.24000 25.24100 28.18500
C  48.11900 27.53800 30.64800
C  46.19300 23.05200 30.55900
C  46.41700 23.08200 25.74200
C  48.50000 27.39700 25.73300
N  47.24200 25.27400 30.37000
C  47.53300 26.34700 31.17400
C  47.39400 26.03400 32.69800
C  46.84600 24.55600 32.57600
C  46.81900 24.26100 31.06300
C  47.65000 23.58400 33.40300
C  46.54500 27.16700 33.41600
C  45.83700 26.62600 34.69500
H  45.42300 27.63300 35.84000
N  46.43800 23.34900 28.13000
C  46.08100 22.57900 29.21400
C  45.63700 21.26100 28.82300
C  45.55600 21.27900 27.42300
C  46.16000 22.57200 27.00900
C  45.34000 20.09300 29.74700
C  45.04400 20.19400 26.50000
O  45.05100 20.36700 25.28600
C  44.54400 18.90100 27.03000
N  47.36900 25.21600 25.97900
C  47.02700 24.27600 25.27000
C  47.22400 24.43700 23.75500
C  47.69700 25.94300 23.67100
C  47.89900 26.24300 25.22600
C  48.15600 23.39800 23.06100
C  46.80100 26.94400 22.95000
C  47.32100 27.37800 21.51800
N  48.17000 27.04700 28.16600
C  48.56400 27.85300 27.13200
C  49.08900 29.09900 27.62200
C  48.97300 29.07400 28.97900
C  48.36900 27.76600 29.28200
C  49.73100 30.20300 26.91300
C  49.19300 29.74000 30.23900
O  49.65300 30.85000 30.49200
C  48.53100 28.88200 31.30000
C  49.49600 28.71800 32.37400
O  50.31700 27.83300 32.62900
O  49.11800 29.60200 33.37900
C  49.74700 29.48500 34.66700
H  45.69400 22.50600 31.36200
H  46.20100 22.36400 24.94800
H  48.84000 28.09900 24.96900
H  48.44500 26.14100 32.96400
H  45.82500 24.47600 32.95000
H  47.84400 22.71300 32.77700
H  47.08500 23.20500 34.25500
H  48.63700 23.97900 33.64600
H  45.91700 27.73300 32.72800
H  47.21900 27.91200 33.83700
H  46.49800 25.85900 35.09800
H  44.90900 26.15300 34.37300
H  46.04900 19.31800 29.45300
H  44.30400 19.76200 29.81700
H  45.63900 20.37300 30.75700
H  45.44700 18.61600 27.57000
H  44.29600 18.27600 26.17300
H  43.74200 19.05200 27.75300
H  46.27500 24.47200 23.22000
H  48.72400 25.90100 23.30600
H  49.03400 23.89700 22.65100
H  47.63300 23.06100 22.16500
H  48.45500 22.54700 23.67300
H  46.79200 27.77800 23.65100
H  45.77700 26.56900 22.92900
H  46.36900 27.37300 20.98800
H  48.01100 26.61300 21.16100
H  47.75000 28.37800 21.57800
H  49.36300 31.09200 27.42500
H  49.54600 30.29600 25.84300
H  50.80700 30.06800 27.02200
H  47.60300 29.36400 31.60700
H  49.25800 28.78500 35.34400
H  49.90500 30.43600 35.17600
H  50.81100 29.28700 34.53600

