158

Mg 49.63100 45.79600 42.69800
C  46.31900 46.22500 41.80600
C  49.48100 42.68300 41.32200
C  53.04900 45.43900 43.11800
C  49.98400 49.13800 43.18600
N  48.09400 44.59700 41.69300
C  46.77900 44.94300 41.45200
C  45.99200 43.90800 40.74100
C  46.97200 42.72700 40.89900
C  48.26200 43.33900 41.26200
C  46.48800 41.59500 41.88000
C  45.63600 44.31800 39.25200
C  44.35100 43.72500 38.84700
H  43.90500 43.84800 37.36600
N  51.04200 44.26200 42.34700
C  50.75900 43.01700 41.85600
C  51.89900 42.15900 41.78800
C  52.98700 42.93400 42.14600
C  52.36900 44.30600 42.61400
C  51.78900 40.71300 41.33200
C  54.43400 42.49400 42.21600
O  54.79500 41.48800 41.65800
C  55.52400 43.17700 42.97900
N  51.27300 47.05900 43.19700
C  52.54600 46.70400 43.35800
C  53.43200 47.93100 43.57100
C  52.41800 49.05600 43.83000
C  51.09500 48.38900 43.47900
C  54.50500 47.80200 44.70300
C  52.79900 50.23000 42.87500
C  54.00900 51.13100 43.28900
N  48.41200 47.49500 42.48800
C  48.72900 48.72000 42.75900
C  47.53000 49.52000 42.65000
C  46.47500 48.56700 42.33600
C  47.15600 47.30100 42.23500
C  47.50700 51.01700 42.99300
C  45.04300 48.40300 42.11100
O  44.10400 49.20200 42.22300
C  44.89200 46.78600 41.74100
C  44.04300 46.12000 42.82400
O  44.15500 46.33600 43.96800
O  43.10700 45.37000 42.16100
C  42.28100 44.57000 43.06900
H  49.43000 41.66300 40.93600
H  54.10600 45.24500 43.31100
H  50.08700 50.21100 43.36000
H  45.12100 43.82900 41.39100
H  47.09900 42.20400 39.95100
H  47.12300 41.42900 42.75100
H  46.53500 40.66400 41.31700
H  45.43500 41.68900 42.14700
H  46.28700 43.76200 38.57700
H  45.62800 45.39500 39.08400
H  43.64500 44.29000 39.45700
H  44.40500 42.66300 39.08900
H  52.73300 40.25800 41.03100
H  50.96900 40.64500 40.61800
H  51.47200 40.17000 42.22300
H  55.35400 43.10500 44.05300
H  55.64100 44.18600 42.58300
H  56.45000 42.62900 42.80700
H  53.91700 47.91400 42.59500
H  52.45600 49.41900 44.85800
H  54.23400 48.48800 45.50500
H  55.49700 47.87300 44.25700
H  54.43700 46.81700 45.16300
H  51.96100 50.92600 42.84800
H  52.84400 49.81600 41.86700
H  53.69900 52.16500 43.44400
H  54.92300 50.95600 42.72200
H  54.29100 50.87300 44.30900
H  48.23200 51.65600 42.49000
H  47.73800 51.22500 44.03700
H  46.47100 51.34300 42.89800
H  44.36000 46.55600 40.81800
H  41.41500 44.12600 42.57700
H  41.89500 45.19900 43.87000
H  42.92600 43.81100 43.51200
Mg 48.73700 34.92500 27.06200
C  46.62600 33.87100 29.77400
C  49.15700 37.92500 28.85400
C  50.05600 36.27100 24.33600
C  47.79100 32.09600 25.22300
N  48.02400 35.72800 29.12600
C  47.36300 35.05400 30.06600
C  47.55700 35.72200 31.47200
C  47.90600 37.17500 31.02300
C  48.41800 36.98400 29.59000
C  46.78400 38.25900 31.25500
C  48.76700 35.03600 32.18800
C  48.63400 34.92100 33.73000
H  47.72100 35.93000 34.52200
N  49.37600 36.85600 26.62600
C  49.63700 37.90000 27.49700
C  50.19800 39.05700 26.79500
C  50.40500 38.61000 25.47300
C  49.95600 37.18400 25.47100
C  50.44200 40.41000 27.45500
C  51.00000 39.24800 24.23200
O  50.88600 38.79000 23.10000
C  51.70300 40.64900 24.34400
N  48.75900 34.27400 25.10300
C  49.46800 34.96700 24.16800
C  49.66300 34.22600 22.87900
C  49.22400 32.75500 23.22600
C  48.60300 33.03000 24.62100
C  48.93600 34.83800 21.59900
C  50.41500 31.69400 23.14700
C  51.53500 31.76000 22.06800
N  47.60800 33.32100 27.41200
C  47.24800 32.25900 26.56700
C  46.43700 31.29600 27.30400
C  46.17700 31.94400 28.48900
C  46.83000 33.16100 28.53300
C  45.89900 29.94500 26.86100
C  45.45400 31.79200 29.72800
O  44.87100 30.79900 30.14400
C  45.62200 33.08300 30.62900
C  45.98000 32.69100 31.96300
O  46.83000 31.86100 32.30900
O  45.07400 33.20600 32.87900
C  45.05900 32.82800 34.31300
H  49.38800 38.88000 29.33100
H  50.59800 36.50700 23.41800
H  47.63600 31.14700 24.70400
H  46.65600 35.64300 32.08100
H  48.65300 37.43600 31.77300
H  46.89200 38.97400 32.07100
H  45.78600 37.84100 31.38900
H  46.71700 38.89400 30.37200
H  49.76500 35.40900 31.96000
H  48.96900 34.01500 31.86500
H  49.62300 35.01200 34.18100
H  48.31500 33.91500 34.00000
H  51.38000 40.53000 27.99700
H  49.57000 40.64500 28.06400
H  50.35600 41.17800 26.68600
H  51.04000 41.51400 24.35500
H  52.40400 40.81100 23.52600
H  52.25100 40.66100 25.28600
H  50.72500 34.23000 22.63200
H  48.40500 32.38500 22.61000
H  49.02300 35.91300 21.75800
H  47.89700 34.51000 21.59200
H  49.45600 34.41500 20.73900
H  50.09400 30.66700 22.97100
H  50.93700 31.87100 24.08700
H  51.16200 32.39500 21.26500
H  51.68400 30.74000 21.71200
H  52.54000 32.03500 22.38800
H  45.73500 29.90000 25.78400
H  44.94700 29.83400 27.38000
H  46.55900 29.15900 27.22700
H  44.72300 33.69700 30.57600
H  44.43400 33.56100 34.82300
H  46.04000 32.70300 34.77300
H  44.59800 31.85100 34.45700

