158

Mg 45.53800 5.13300 46.58000
C  43.81000 8.14200 46.14000
C  42.71800 3.51300 45.50900
C  47.37600 2.37000 46.35100
C  48.51200 7.01700 46.77500
N  43.46900 5.81900 45.97600
C  42.97000 7.03000 45.90500
C  41.47900 7.06400 45.52400
C  41.15600 5.56700 45.38200
C  42.54800 4.88800 45.66400
C  40.12700 5.03400 46.47300
C  41.17400 7.99700 44.28000
C  42.22600 7.84300 43.17700
H  41.62500 7.49700 41.82400
N  45.06000 3.17400 46.17500
C  43.88700 2.72300 45.67000
C  44.01700 1.29400 45.44500
C  45.32600 0.92000 45.67100
C  45.99600 2.16500 46.09200
C  42.75800 0.50200 44.96700
C  45.88900 -0.53600 45.59400
O  45.10000 -1.41900 45.22200
C  47.29200 -0.92400 46.06500
N  47.71000 4.75400 46.67100
C  48.21200 3.53700 46.61100
C  49.69200 3.47600 46.62200
C  50.03900 5.02900 46.78600
C  48.69500 5.66800 46.68100
C  50.21600 2.66400 47.79000
C  51.14000 5.55700 45.78400
C  52.58100 5.48000 46.42100
N  46.10600 7.09900 46.50100
C  47.34900 7.70800 46.61200
C  47.16100 9.15000 46.56900
C  45.75700 9.31100 46.55400
C  45.18700 8.07300 46.32900
C  48.24700 10.11600 46.67800
C  44.69100 10.36000 46.57000
O  44.82000 11.59200 46.52200
C  43.36500 9.56200 46.41200
C  42.53100 9.61900 47.77900
O  42.48200 8.76800 48.59900
O  41.91500 10.82300 47.94400
C  41.20800 11.08300 49.20500
H  41.78000 3.02800 45.23300
H  48.03000 1.53600 46.08900
H  49.46400 7.50900 46.98500
H  40.90800 7.70600 46.19400
H  40.84200 5.19700 44.40600
H  40.62100 4.63600 47.36000
H  39.55200 4.29800 45.91100
H  39.51200 5.90300 46.70600
H  41.21100 9.05300 44.54700
H  40.11300 7.90300 44.04500
H  42.82400 6.96400 43.41300
H  42.89600 8.70100 43.24000
H  43.04200 -0.25900 44.24100
H  42.07000 1.15800 44.43400
H  42.18500 0.09800 45.80200
H  47.41400 -1.99800 46.21200
H  47.47400 -0.44500 47.02700
H  48.05300 -0.70500 45.31600
H  50.11100 3.18600 45.65800
H  50.39700 5.19000 47.80300
H  50.76200 1.75200 47.55300
H  49.42000 2.26900 48.42100
H  50.83500 3.28300 48.44100
H  50.95600 6.58200 45.46300
H  51.15700 5.04400 44.82200
H  53.04100 4.60800 45.95600
H  52.60200 5.40000 47.50700
H  53.11800 6.37300 46.10300
H  48.74800 9.95100 47.63200
H  47.92500 11.15200 46.57300
H  48.91300 10.00900 45.82200
H  42.74600 10.02600 45.64400
H  40.69700 12.04500 49.17400
H  41.93400 11.10900 50.01800
H  40.56700 10.23700 49.45300
Mg 49.38300 47.03300 43.11000
C  45.98300 47.42000 42.53200
C  49.18000 43.94700 41.59400
C  52.73500 46.97800 43.01600
C  49.35800 50.48200 44.08900
N  47.72900 45.85400 42.08300
C  46.40900 46.18900 42.09200
C  45.56400 45.13600 41.47000
C  46.62000 43.90500 41.44300
C  47.91700 44.57000 41.74200
C  46.34300 42.75300 42.44800
C  44.86500 45.41100 40.10400
C  43.75700 44.44800 39.57800
H  44.23000 43.51800 38.50500
N  50.77700 45.60800 42.52200
C  50.46800 44.37400 42.02400
C  51.65200 43.58700 41.93600
C  52.72600 44.41700 42.31500
C  52.10200 45.75800 42.58500
C  51.65200 42.06100 41.57500
C  54.15600 44.05800 42.40300
O  54.50400 42.88200 42.13200
C  55.30500 45.02300 42.68600
N  50.81200 48.56700 43.45500
C  52.14700 48.26600 43.38400
C  52.99100 49.40500 43.84200
C  51.91700 50.54300 44.11200
C  50.58900 49.82500 43.88700
C  53.93100 49.01600 45.09200
C  52.13600 51.81600 43.19600
C  51.54800 53.09400 43.70400
N  47.96400 48.63100 43.42800
C  48.09500 49.94500 43.86100
C  46.77400 50.57400 43.94800
C  45.92700 49.62300 43.43200
C  46.71600 48.45100 43.15000
C  46.55400 52.02300 44.41800
C  44.53600 49.36600 43.06400
O  43.49000 50.04800 43.15600
C  44.55900 47.99800 42.40200
C  43.66200 47.20500 43.25400
O  43.80800 47.00900 44.43300
O  42.82600 46.50800 42.43500
C  42.12900 45.47600 43.14400
H  49.06100 42.90400 41.29600
H  53.79900 47.03200 43.25400
H  49.41200 51.52000 44.42400
H  44.84100 44.84300 42.23100
H  46.71400 43.49000 40.44000
H  45.40900 42.85500 43.00000
H  47.09400 42.57900 43.21800
H  46.15500 41.85300 41.86300
H  45.69600 45.42200 39.39900
H  44.52700 46.44200 40.21300
H  42.96700 45.07000 39.15800
H  43.31800 43.87800 40.39700
H  52.13800 42.06600 40.59900
H  50.64900 41.63800 41.63400
H  52.21300 41.56500 42.36700
H  55.26500 45.39700 43.71000
H  55.28700 45.78800 41.91000
H  56.22200 44.50500 42.40600
H  53.67400 49.69000 43.04200
H  52.09100 50.78600 45.16000
H  54.89800 48.93900 44.59400
H  53.69500 48.10000 45.63300
H  54.08500 49.82200 45.80900
H  51.70600 51.58300 42.22200
H  53.21100 51.96700 43.09800
H  51.15500 53.02200 44.71800
H  50.79100 53.47900 43.02100
H  52.36500 53.80900 43.79600
H  45.52100 52.21400 44.12500
H  47.17800 52.71000 43.84700
H  46.75300 52.04600 45.48900
H  44.07100 48.21500 41.45200
H  41.41700 45.73500 43.92800
H  42.85200 44.73300 43.48000
H  41.54600 45.01600 42.34500

