158

Mg -1.97000 18.05900 26.96600
C  -2.26300 15.95900 29.79200
C  -2.65900 20.79400 29.22600
C  -1.66200 20.11800 24.52100
C  -2.12900 15.23300 24.85300
N  -2.32400 18.31700 29.21700
C  -2.37500 17.32400 30.16400
C  -2.60900 17.83300 31.54600
C  -2.97900 19.27700 31.25500
C  -2.60800 19.50500 29.78400
C  -4.45500 19.65500 31.58600
C  -1.45200 17.70400 32.66700
C  -2.01100 17.11200 33.92600
H  -1.01000 16.73800 35.02200
N  -2.06200 20.11300 26.92800
C  -2.36200 21.07400 27.88100
C  -2.16600 22.42700 27.37700
C  -1.76700 22.19700 26.04100
C  -1.79400 20.79000 25.78300
C  -2.47000 23.72000 28.11900
C  -1.43000 23.30400 24.95900
O  -1.12000 22.98200 23.78500
C  -1.40000 24.72200 25.33500
N  -2.15400 17.69600 24.90000
C  -1.88400 18.79100 24.12000
C  -1.74700 18.30900 22.64500
C  -2.20000 16.77200 22.74100
C  -2.10400 16.49400 24.23100
C  -2.53700 19.05000 21.53700
C  -1.47400 15.83500 21.76100
C  -0.09500 15.28400 22.11200
N  -2.11900 15.98600 27.16200
C  -2.15900 14.98700 26.25100
C  -2.32700 13.68300 26.86400
C  -2.34200 13.97600 28.26900
C  -2.18500 15.41200 28.41800
C  -2.63100 12.40200 26.22400
C  -2.51200 13.45200 29.62000
O  -2.69000 12.28500 29.99100
C  -2.43900 14.71300 30.66900
C  -1.32000 14.51800 31.63300
O  -0.09400 14.69800 31.34000
O  -1.71400 13.98300 32.80400
C  -0.68100 13.77100 33.88200
H  -2.90100 21.64600 29.86600
H  -1.36800 20.65200 23.61500
H  -1.92900 14.35900 24.22900
H  -3.46000 17.29500 31.96300
H  -2.35200 19.97100 31.81500
H  -4.55900 20.34300 32.42600
H  -5.03300 18.74900 31.76400
H  -4.88100 20.10400 30.68900
H  -1.08200 18.69400 32.93300
H  -0.64300 17.08200 32.28500
H  -2.67200 16.26900 33.72400
H  -2.58000 17.92600 34.37600
H  -1.57400 24.33600 28.20300
H  -2.89800 23.56100 29.10800
H  -3.30400 24.16000 27.57200
H  -0.59200 25.08600 25.97000
H  -2.40600 24.82200 25.74200
H  -1.39200 25.35500 24.44800
H  -0.66900 18.19200 22.53200
H  -3.26800 16.68000 22.54600
H  -3.06000 19.92200 21.92800
H  -3.29400 18.39700 21.10100
H  -1.74000 19.42600 20.89600
H  -1.25300 16.38600 20.84700
H  -2.12500 14.98600 21.55000
H  0.45600 15.72900 22.94000
H  0.45800 15.30000 21.17300
H  -0.15200 14.22700 22.37100
H  -3.62800 12.43100 25.78500
H  -2.65200 11.61600 26.97900
H  -1.84900 12.15200 25.50700
H  -3.30400 14.86600 31.31400
H  -1.20100 13.81900 34.83900
H  0.18100 14.42400 33.74800
H  -0.21500 12.79000 33.78900
Mg -5.37900 26.02100 26.31200
C  -3.71400 27.18900 29.28000
C  -7.16300 23.81900 28.49700
C  -6.43200 24.25700 23.67800
C  -3.33700 27.82800 24.49600
N  -5.47300 25.65200 28.67700
C  -4.76100 26.30600 29.66800
C  -5.34400 25.92500 31.06200
C  -6.12100 24.67700 30.68400
C  -6.28700 24.69000 29.14700
C  -5.39900 23.28100 31.02100
C  -6.23900 26.99100 31.75000
C  -6.28600 27.13400 33.23300
H  -5.64300 25.96300 33.95700
N  -6.69100 24.36900 26.06700
C  -7.35600 23.66100 27.12000
C  -8.31400 22.70700 26.45100
C  -8.03100 22.75500 25.07900
C  -6.99800 23.80800 24.86600
C  -9.33200 21.90800 27.17300
C  -8.60600 21.96000 23.99600
O  -8.27800 22.01400 22.84300
C  -9.84700 21.16300 24.21600
N  -4.95000 26.03500 24.29400
C  -5.47000 25.20300 23.40900
C  -4.78900 25.38400 22.00500
C  -4.03700 26.78400 22.25600
C  -4.07000 26.87300 23.76900
C  -3.89900 24.11400 21.78400
C  -4.70400 27.93300 21.47500
C  -4.01900 28.35400 20.25500
N  -3.93500 27.33500 26.77600
C  -3.17700 28.01900 25.84900
C  -2.18900 28.81400 26.49900
C  -2.35400 28.54700 27.86800
C  -3.42700 27.63600 27.96500
C  -1.27500 29.80700 25.84200
C  -1.87600 28.92400 29.20300
O  -0.94900 29.60700 29.63600
C  -2.79900 28.07200 30.13800
C  -1.99700 27.22900 31.05200
O  -1.35500 26.26500 30.60800
O  -1.89300 27.82900 32.28700
C  -1.42100 26.75600 33.23100
H  -7.78400 23.14100 29.08600
H  -6.69100 23.74400 22.75000
H  -2.65600 28.30900 23.79000
H  -4.60300 25.62500 31.80300
H  -7.10400 24.59100 31.14800
H  -6.11500 22.63600 31.52800
H  -4.49800 23.50400 31.59200
H  -5.17800 22.75100 30.09500
H  -7.25700 26.96600 31.36300
H  -5.78900 27.86400 31.27800
H  -7.32500 27.14200 33.56400
H  -5.73500 28.01400 33.56300
H  -10.27400 22.38600 26.90300
H  -9.07000 22.04300 28.22200
H  -9.38500 20.82800 27.04200
H  -10.38500 21.09000 23.27100
H  -10.51500 21.61600 24.94800
H  -9.56700 20.14600 24.49400
H  -5.52900 25.60300 21.23600
H  -3.01900 26.62000 21.90100
H  -4.06700 23.68600 20.79600
H  -4.06100 23.30000 22.49200
H  -2.84300 24.36400 21.88200
H  -4.79500 28.81400 22.11000
H  -5.75300 27.69000 21.30700
H  -3.42200 29.23500 20.49300
H  -4.68700 28.55900 19.41900
H  -3.43500 27.63100 19.68600
H  -1.64800 30.83100 25.86900
H  -0.94000 29.39600 24.88900
H  -0.36100 29.93900 26.42100
H  -3.40900 28.80300 30.66900
H  -2.12600 25.92700 33.18300
H  -1.29400 27.09600 34.25900
H  -0.46100 26.36800 32.88900

