158

Mg 35.15200 2.13000 29.52300
C  32.94500 3.28800 31.98800
C  37.74000 2.37800 31.81000
C  37.26400 1.40800 26.97700
C  32.53400 2.50300 27.05300
N  35.26100 2.91500 31.67700
C  34.22400 3.02200 32.47300
C  34.67900 3.20400 33.91900
C  36.25200 3.18100 33.83700
C  36.45800 2.79900 32.31200
C  36.93600 4.49400 34.24800
C  34.03100 2.05500 34.76300
C  33.25800 2.51900 35.95500
H  33.97500 3.55800 36.84800
N  37.17200 1.86800 29.42300
C  38.07000 1.97300 30.50600
C  39.37700 1.74800 30.07400
C  39.29000 1.48800 28.61700
C  37.84900 1.52500 28.28500
C  40.60800 1.75100 30.96100
C  40.34000 1.30200 27.57700
O  40.07800 1.03800 26.43500
C  41.76900 1.22600 27.96200
N  34.95200 2.11400 27.31600
C  35.94200 1.66100 26.53500
C  35.39100 1.29000 25.10600
C  33.91600 1.30700 25.21400
C  33.79700 2.03000 26.60500
C  35.89000 2.27600 24.05000
C  33.21000 -0.04900 25.13000
C  33.42000 -0.91500 23.88400
N  33.14300 2.74800 29.49800
C  32.22400 2.87200 28.42200
C  31.02400 3.41500 28.96600
C  31.25900 3.69500 30.29600
C  32.56800 3.20600 30.58800
C  29.79100 3.59900 28.18900
C  30.67500 4.16500 31.56800
O  29.51400 4.53600 31.72700
C  31.73700 3.93200 32.68400
C  32.03200 5.35400 33.07000
O  32.93600 6.07800 32.59300
O  31.15900 5.76600 33.97700
C  31.40100 7.02300 34.56500
H  38.53800 2.36200 32.55600
H  37.83900 0.88000 26.21300
H  31.77100 2.36800 26.28300
H  34.28200 4.17700 34.20800
H  36.66000 2.42600 34.51000
H  37.81700 4.73000 33.65100
H  37.29800 4.51200 35.27600
H  36.15100 5.24600 34.17100
H  34.84000 1.41100 35.10800
H  33.37400 1.48900 34.10300
H  33.07900 1.68600 36.63400
H  32.30100 2.92700 35.63100
H  41.36500 1.10500 30.51800
H  40.47200 1.33200 31.95800
H  40.77400 2.82800 30.98100
H  41.84400 0.22200 28.37800
H  42.13500 1.91600 28.72300
H  42.39600 1.34200 27.07800
H  35.82800 0.32400 24.85800
H  33.48000 1.97700 24.47400
H  36.19700 3.19800 24.54400
H  35.13600 2.49300 23.29400
H  36.75000 1.96400 23.45800
H  32.15200 0.21100 25.13500
H  33.48900 -0.59500 26.03100
H  33.68700 -1.90500 24.25600
H  34.21800 -0.74800 23.16100
H  32.47600 -0.95200 23.34000
H  29.99700 3.27400 27.17000
H  29.40000 4.61500 28.24400
H  28.97600 2.93800 28.48300
H  31.19900 3.35600 33.43600
H  31.43900 7.86900 33.87900
H  32.41100 6.95800 34.96800
H  30.78000 7.31900 35.41000
Mg -12.28300 15.91800 41.52200
C  -9.08400 14.49300 41.33200
C  -11.11200 18.79600 40.06800
C  -15.45200 16.74500 40.88400
C  -13.41800 12.79200 42.75500
N  -10.40600 16.46600 40.59800
C  -9.16800 15.78600 40.73600
C  -7.98700 16.65800 40.28800
C  -8.68500 18.02700 40.05300
C  -10.14500 17.79800 40.27500
C  -8.13000 19.13800 41.12500
C  -7.23600 16.21900 39.01700
C  -5.87300 16.71000 38.86600
H  -5.66900 17.69100 37.68900
N  -13.10900 17.54400 40.56200
C  -12.47900 18.65000 40.24200
C  -13.37300 19.65200 40.01300
C  -14.65500 19.08200 40.11600
C  -14.44800 17.70200 40.44200
C  -13.02400 21.06200 39.58000
C  -16.01700 19.80000 39.81800
O  -16.01400 20.98700 39.49500
C  -17.39200 19.07900 39.96100
N  -14.17000 14.85700 41.71800
C  -15.33400 15.49900 41.48200
C  -16.55400 14.64400 41.99800
C  -15.91300 13.36200 42.56800
C  -14.42500 13.69500 42.40200
C  -17.52800 15.36100 42.99600
C  -16.42900 12.01100 41.90400
C  -17.41100 11.16800 42.74900
N  -11.45100 14.10500 42.08800
C  -12.04800 12.94000 42.52500
C  -11.01600 11.98200 42.86800
C  -9.82700 12.60400 42.45500
C  -10.16200 13.86400 41.90800
C  -11.21500 10.66100 43.60400
C  -8.36600 12.41900 42.37900
O  -7.63800 11.56900 42.80000
C  -7.86200 13.70200 41.65000
C  -6.92600 14.41500 42.55300
O  -7.23000 15.27400 43.35200
O  -5.66700 13.98200 42.28600
C  -4.70400 14.84600 42.92800
H  -10.78600 19.82900 39.93300
H  -16.46000 17.15900 40.95500
H  -13.82600 11.87200 43.17900
H  -7.22800 16.72400 41.06800
H  -8.69500 18.33500 39.00700
H  -9.03800 19.64000 41.45900
H  -7.51400 19.90800 40.66000
H  -7.50900 18.73800 41.92700
H  -7.87500 16.45800 38.16700
H  -7.20000 15.13700 39.14000
H  -5.16200 15.92000 38.62500
H  -5.49300 17.14900 39.78900
H  -13.07000 21.21800 38.50200
H  -12.03400 21.35700 39.92700
H  -13.67700 21.81600 40.01900
H  -18.08100 19.68600 39.37300
H  -17.73900 19.04700 40.99400
H  -17.32500 18.11400 39.45900
H  -17.12800 14.42700 41.09700
H  -16.11400 13.33200 43.63900
H  -17.58000 14.95100 44.00400
H  -18.52900 15.39700 42.56500
H  -17.09400 16.35600 43.08700
H  -15.56700 11.34900 41.81900
H  -16.83700 12.11100 40.89900
H  -18.29600 11.73700 43.03300
H  -16.92300 10.69000 43.59900
H  -17.72000 10.44100 41.99700
H  -10.57200 9.82900 43.31600
H  -12.17000 10.37400 43.16500
H  -11.29800 10.85800 44.67300
H  -7.42800 13.28800 40.74000
H  -4.80200 15.84300 42.49700
H  -3.73200 14.43100 42.65900
H  -4.74500 14.95300 44.01200

