158

Mg 54.66700 23.49200 44.13700
C  52.37800 26.12600 43.43200
C  52.40000 21.39700 42.94100
C  57.15400 21.08400 43.97400
C  57.16900 25.85500 44.87200
N  52.51700 23.80000 43.57400
C  51.85400 24.89300 43.15100
C  50.40200 24.60600 42.80300
C  50.44000 23.03900 42.74600
C  51.86700 22.64800 43.11800
C  49.44100 22.41600 43.74400
C  49.78000 25.42000 41.62800
C  48.60000 24.76000 40.85500
H  48.84000 24.18200 39.48400
N  54.75900 21.48500 43.62100
C  53.69600 20.77200 43.11900
C  54.09100 19.42500 42.75500
C  55.45600 19.33800 42.95800
C  55.85700 20.70400 43.54600
C  53.09200 18.45400 42.12100
C  56.31300 18.10700 42.69400
O  55.84600 17.11500 42.11300
C  57.70700 17.99100 43.14400
N  56.82800 23.49800 44.47600
C  57.61800 22.35500 44.43800
C  59.04400 22.69100 44.91900
C  59.14200 24.22600 44.90500
C  57.63500 24.57300 44.73100
C  59.59300 22.02500 46.24900
C  60.08200 24.81200 43.82200
C  60.74300 26.17700 44.09400
N  54.77000 25.52000 44.28500
C  55.89600 26.34600 44.71700
C  55.43300 27.70700 44.71100
C  54.06800 27.66800 44.24700
C  53.70500 26.33700 44.00200
C  56.20900 28.98700 44.98900
C  52.90400 28.50300 43.95600
O  52.69200 29.65300 44.09200
C  51.85600 27.53500 43.32500
C  51.65500 27.91800 41.97700
O  52.26800 27.51800 40.97800
O  50.55700 28.72900 41.96200
C  50.06600 29.01500 40.64100
H  51.58100 20.76700 42.58900
H  57.99100 20.38800 44.05800
H  57.83900 26.70800 45.00100
H  49.83800 24.96200 43.66500
H  50.19700 22.67500 41.74800
H  49.95400 21.84600 44.51800
H  48.65700 21.80100 43.30300
H  48.89900 23.17800 44.30400
H  50.60400 25.55300 40.92700
H  49.61900 26.41500 42.04300
H  47.84000 25.52100 40.68000
H  48.07800 24.08000 41.52900
H  52.99600 18.87700 41.12200
H  52.16400 18.70000 42.63800
H  53.31800 17.38800 42.08400
H  58.23600 18.85300 42.73600
H  58.20800 17.11100 42.74100
H  57.83000 17.91800 44.22400
H  59.70500 22.32700 44.13300
H  59.50900 24.60900 45.85700
H  60.22600 21.18400 45.96400
H  58.73800 21.60800 46.78000
H  60.23600 22.76500 46.72600
H  59.47500 24.91300 42.92300
H  60.88900 24.08400 43.73300
H  60.09400 27.05100 44.04500
H  61.44000 26.44700 43.30100
H  61.24200 26.14200 45.06300
H  56.06300 29.71100 44.18800
H  57.28500 28.88900 45.13500
H  55.81400 29.56800 45.82300
H  50.89900 27.53700 43.84500
H  50.93900 29.18200 40.01000
H  49.30300 29.78800 40.54400
H  49.58100 28.14600 40.19700
Mg -11.15200 38.83200 40.47600
C  -9.59500 35.45000 40.21700
C  -8.33800 40.10900 39.26200
C  -12.91700 41.69000 40.34000
C  -14.09200 37.08900 41.47100
N  -9.26100 37.83200 39.67500
C  -8.81400 36.57200 39.83200
C  -7.36000 36.51700 39.27700
C  -6.87600 38.00800 39.38400
C  -8.26800 38.70400 39.43300
C  -6.01100 38.55100 40.53200
C  -7.34000 36.01700 37.84900
C  -6.05100 35.29400 37.30000
H  -5.36100 36.08200 36.20000
N  -10.68900 40.66200 39.79600
C  -9.42700 41.00500 39.41200
C  -9.38400 42.47700 39.31300
C  -10.65400 42.96400 39.68100
C  -11.55000 41.74300 39.89100
C  -8.19000 43.14400 38.76000
C  -11.02100 44.52500 39.69500
O  -10.14400 45.40500 39.73800
C  -12.47000 44.94400 39.71200
N  -13.31500 39.32700 40.73800
C  -13.77900 40.57100 40.64900
C  -15.30000 40.59200 40.76000
C  -15.53500 39.14900 41.29500
C  -14.29200 38.48500 41.12000
C  -16.13300 41.66200 41.58200
C  -16.75400 38.42400 40.49300
C  -16.43700 37.95600 39.07700
N  -11.77900 36.69200 40.87600
C  -12.96500 36.22300 41.32900
C  -12.82600 34.79700 41.55700
C  -11.53700 34.41200 41.13800
C  -10.96000 35.58600 40.65300
C  -14.01100 33.88400 41.90300
C  -10.58500 33.31300 40.90000
O  -10.61300 32.09000 41.12600
C  -9.35700 33.94700 40.22000
C  -8.02200 33.37700 40.62200
O  -7.13800 33.18700 39.81400
O  -7.91700 33.24400 41.97800
C  -6.63500 32.69900 42.39800
H  -7.48600 40.78300 39.15000
H  -13.40000 42.63700 40.09000
H  -14.88800 36.49400 41.92400
H  -6.76900 35.88400 39.93800
H  -6.39400 38.36400 38.47400
H  -5.57900 37.68400 41.03300
H  -6.58600 39.17000 41.22100
H  -5.30000 39.21500 40.04100
H  -7.54700 36.87200 37.20600
H  -8.14200 35.30600 37.65000
H  -6.28900 34.28300 36.97100
H  -5.29600 35.16000 38.07400
H  -7.84100 42.64300 37.85700
H  -7.45600 43.18500 39.56600
H  -8.43900 44.19300 38.59800
H  -13.10200 44.47100 38.96000
H  -12.41900 46.01400 39.51100
H  -12.83600 44.86800 40.73600
H  -15.68600 40.72600 39.74900
H  -15.68300 39.16600 42.37500
H  -16.87400 42.03300 40.87400
H  -15.53900 42.51800 41.90500
H  -16.84900 41.30700 42.32300
H  -17.62200 39.05500 40.29900
H  -17.13500 37.60700 41.10500
H  -16.29500 36.87600 39.08600
H  -15.52800 38.48900 38.79800
H  -17.13600 38.15500 38.26400
H  -14.27100 33.94800 42.95900
H  -13.80700 32.87600 41.54100
H  -14.79400 34.23300 41.22900
H  -9.41000 33.62200 39.18100
H  -5.82500 33.36600 42.10300
H  -6.41100 31.66300 42.14500
H  -6.74000 32.83700 43.47400

