158

Mg 40.86100 41.25300 26.75900
C  40.68600 43.78100 29.12000
C  42.25300 39.17300 29.14000
C  41.50600 38.95900 24.31000
C  40.01400 43.69400 24.34600
N  41.41300 41.49300 28.83900
C  41.02500 42.54100 29.64900
C  41.24100 42.19400 31.13500
C  41.99700 40.87300 31.06900
C  41.88500 40.45400 29.59200
C  43.50400 40.91100 31.67000
C  39.86200 42.14600 31.87900
C  39.97300 41.63900 33.28600
H  39.11800 42.28000 34.40600
N  41.84000 39.29400 26.67500
C  42.28100 38.64300 27.78200
C  42.65000 37.32400 27.35100
C  42.45100 37.17500 25.95100
C  41.88900 38.52600 25.56800
C  43.14800 36.28900 28.38700
C  42.66800 36.01200 25.01800
O  42.46000 36.05200 23.77600
C  43.22600 34.67900 25.50700
N  40.78500 41.30100 24.61200
C  40.94000 40.16800 23.84300
C  40.51500 40.43700 22.33800
C  39.91800 41.88600 22.48300
C  40.25800 42.34700 23.91700
C  41.74300 40.29200 21.26900
C  38.45100 41.88200 22.16500
C  37.53700 40.80400 22.77500
N  40.57300 43.36400 26.67500
C  40.12900 44.18500 25.65000
C  39.92600 45.49100 26.11800
C  40.12100 45.36300 27.53500
C  40.55300 44.10000 27.76900
C  39.49500 46.77500 25.23500
C  39.96900 46.05700 28.75600
O  39.51500 47.16800 29.02700
C  40.45500 45.09000 29.87700
C  41.74400 45.64600 30.43100
O  42.83600 45.57600 29.87400
O  41.53000 46.18700 31.64800
C  42.73300 46.36100 32.44300
H  42.66700 38.57500 29.95500
H  41.65800 38.17200 23.56800
H  39.68300 44.36200 23.54800
H  41.83700 43.02800 31.50500
H  41.39000 40.07700 31.50100
H  44.30700 40.98600 30.93600
H  43.63800 39.92900 32.12500
H  43.53100 41.64300 32.47700
H  39.15400 41.48800 31.37500
H  39.38300 43.12500 31.88300
H  40.99800 41.81000 33.61600
H  39.81200 40.56400 33.20700
H  44.21400 36.06200 28.43700
H  42.66900 35.33800 28.15200
H  42.72300 36.58400 29.34600
H  42.50900 33.88000 25.69600
H  43.94800 34.75200 26.32000
H  43.86000 34.47500 24.64400
H  39.84000 39.64600 22.01000
H  40.45300 42.62600 21.88900
H  42.67800 40.20100 21.82200
H  41.78000 41.16300 20.61500
H  41.62700 39.47100 20.56100
H  38.45600 41.82600 21.07700
H  37.95600 42.80800 22.46000
H  36.62600 41.34500 23.03200
H  37.95300 40.10100 23.49800
H  37.05600 40.22200 21.99000
H  40.21500 46.75700 24.41600
H  39.58800 47.69400 25.81400
H  38.49000 46.71800 24.81700
H  39.71900 44.87600 30.65200
H  43.56700 46.90100 31.99700
H  42.97600 45.44700 32.98600
H  42.34300 46.98000 33.25100
Mg 5.59200 54.55400 40.99700
C  5.42100 51.00900 41.25100
C  8.90000 54.19000 39.73700
C  5.60100 57.71000 40.25500
C  2.36300 54.75700 42.18400
N  6.93700 52.73100 40.39000
C  6.61800 51.39400 40.65100
C  7.87300 50.55900 40.35200
C  9.03800 51.59100 40.21000
C  8.23700 52.96700 40.08600
C  10.17500 51.70000 41.33500
C  7.83300 49.56000 39.10800
C  6.77600 49.80500 37.97900
H  7.32200 50.49600 36.79900
N  7.05200 55.75400 40.06000
C  8.36200 55.50200 39.71100
C  8.95200 56.72700 39.22400
C  7.98500 57.70500 39.19900
C  6.77100 57.07600 39.80400
C  10.41800 56.82200 38.75300
C  8.18700 59.06900 38.65900
O  9.28500 59.40700 38.24300
C  6.94500 60.08200 38.38300
N  4.10100 56.01900 41.06200
C  4.45800 57.28800 40.96500
C  3.37700 58.30600 41.39500
C  2.26100 57.29500 41.97400
C  2.92900 55.93600 41.72600
C  3.85000 59.32200 42.47400
C  0.84800 57.39500 41.23700
C  -0.36900 57.32700 42.20200
N  4.16100 53.23900 41.60200
C  2.91900 53.45300 42.19100
C  2.35800 52.17600 42.71400
C  3.31600 51.22100 42.40200
C  4.37100 51.87300 41.69400
C  1.16200 51.96000 43.55800
C  3.69500 49.82000 42.51100
O  3.20800 48.90400 43.10800
C  5.05700 49.61500 41.70600
C  4.70800 48.67200 40.62800
O  4.06000 49.03100 39.64300
O  5.23700 47.43900 40.87800
C  5.06800 46.47100 39.79000
H  9.88400 54.08600 39.27400
H  5.65800 58.80000 40.24700
H  1.33900 54.62400 42.54000
H  8.08900 49.96700 41.24200
H  9.59800 51.42900 39.28900
H  10.07600 50.78300 41.91600
H  9.97100 52.58700 41.93500
H  11.16300 51.78700 40.88100
H  7.65000 48.59500 39.58000
H  8.77100 49.37300 38.58600
H  5.96100 50.45800 38.29000
H  6.29200 48.86000 37.73200
H  10.94800 55.87400 38.66700
H  11.07500 57.45700 39.34900
H  10.45800 57.16100 37.71700
H  6.05400 59.49900 38.14700
H  7.28400 60.66600 37.52800
H  6.66300 60.64800 39.27000
H  3.12700 58.83100 40.47300
H  2.20600 57.49000 43.04500
H  3.67600 59.01000 43.50400
H  3.32700 60.27200 42.36000
H  4.91000 59.55400 42.37100
H  0.86000 56.58800 40.50600
H  0.80600 58.37400 40.75900
H  -0.88100 58.28900 42.18000
H  -0.12500 57.21900 43.25900
H  -1.10700 56.57600 41.91900
H  0.88700 50.90900 43.46400
H  0.30500 52.58800 43.31800
H  1.36800 52.13400 44.61500
H  5.80700 49.12200 42.32600
H  5.62100 45.55000 39.97300
H  5.48900 46.85200 38.86000
H  4.01600 46.19500 39.73100

