158

Mg 54.21400 24.79600 45.46000
C  51.52700 26.96900 44.66700
C  52.03900 22.10800 44.63400
C  56.76100 22.83000 45.54900
C  56.07300 27.49300 46.18100
N  52.08300 24.70600 44.61800
C  51.17700 25.64300 44.45000
C  49.86200 25.10200 43.84600
C  49.94300 23.60100 44.37100
C  51.43800 23.46500 44.56100
C  49.05800 23.36400 45.68400
C  49.72200 25.11800 42.33600
C  48.33700 25.03300 41.73400
H  48.13900 24.31500 40.38700
N  54.40800 22.73500 45.08200
C  53.41300 21.83300 44.85000
C  53.95100 20.53700 44.89500
C  55.36500 20.62600 45.12000
C  55.63600 22.08700 45.30800
C  53.09600 19.27400 44.75900
C  56.27400 19.46700 45.08300
O  55.77800 18.32100 45.05600
C  57.70900 19.62600 45.12000
N  56.15200 25.13200 45.77400
C  57.04900 24.14700 45.75700
C  58.47900 24.65500 46.00300
C  58.28100 26.19600 46.31100
C  56.73500 26.32900 46.10900
C  59.26900 23.98300 47.09400
C  59.06400 27.17200 45.37800
C  59.66100 28.38600 46.15100
N  53.90000 26.81800 45.47000
C  54.77500 27.80800 45.83600
C  54.05200 29.11000 45.83000
C  52.81900 28.75400 45.34600
C  52.76800 27.39200 45.09000
C  54.47900 30.43200 46.39900
C  51.60500 29.43200 45.09900
O  51.32300 30.58900 45.11800
C  50.67800 28.23700 44.61000
C  50.16100 28.57000 43.26700
O  50.82000 28.77700 42.22900
O  48.78600 28.71000 43.26800
C  48.22800 28.93500 41.93100
H  51.23400 21.37100 44.62300
H  57.65000 22.20100 45.63400
H  56.65200 28.38400 46.43000
H  48.93500 25.56900 44.17800
H  49.50200 22.91500 43.64800
H  49.72100 23.16000 46.52400
H  48.32900 22.56000 45.58300
H  48.60000 24.29200 46.02800
H  50.30200 24.23500 42.06600
H  50.36000 25.88900 41.90500
H  48.18500 26.09000 41.51400
H  47.65500 24.64700 42.49200
H  53.27300 18.51500 45.52200
H  53.20200 18.90500 43.73900
H  52.11000 19.54000 45.13900
H  58.06300 18.65900 44.76200
H  58.04200 19.87200 46.12800
H  58.00700 20.34900 44.36100
H  59.12900 24.50500 45.14200
H  58.61400 26.34000 47.33900
H  59.52100 24.60600 47.95300
H  60.06600 23.35700 46.69200
H  58.65900 23.18800 47.52200
H  58.49800 27.50600 44.50900
H  59.91200 26.63700 44.95100
H  60.71900 28.29400 46.39600
H  59.09400 28.62800 47.04900
H  59.54800 29.29000 45.55200
H  54.25100 30.40000 47.46400
H  54.01200 31.32100 45.97300
H  55.56000 30.47900 46.27200
H  49.86100 28.12600 45.32400
H  47.38800 28.24100 41.88600
H  48.81400 28.86900 41.01500
H  47.88400 29.97000 41.94100
Mg 37.02700 48.96500 24.97500
C  37.30400 47.04100 27.83900
C  35.18300 51.25800 26.62300
C  36.29000 50.51900 21.97000
C  38.36600 46.27500 23.10600
N  36.19200 48.99300 26.96000
C  36.66900 48.28800 27.97500
C  36.15800 48.84100 29.28100
C  35.24000 50.04900 28.89700
C  35.44700 50.07400 27.39200
C  33.72300 50.02400 29.32400
C  37.39200 49.23200 30.15500
C  37.01500 49.72800 31.52900
H  35.62600 49.64500 32.12300
N  36.08800 50.75700 24.47300
C  35.40800 51.59000 25.30100
C  35.14000 52.80200 24.63300
C  35.21600 52.51500 23.23100
C  35.84200 51.19300 23.17200
C  34.61600 54.05400 25.37200
C  34.92000 53.43900 22.02600
O  34.95500 53.02300 20.89700
C  34.66700 54.87900 22.27500
N  37.09400 48.32800 22.79000
C  36.86400 49.24500 21.80600
C  37.33800 48.65100 20.46300
C  38.20700 47.43900 20.86500
C  37.86100 47.32600 22.38100
C  36.20500 48.30700 19.40800
C  39.71700 47.45700 20.52800
C  40.20400 46.92300 19.19300
N  37.79100 47.12700 25.37300
C  38.24600 46.11400 24.49100
C  38.69600 44.98600 25.33800
C  38.38900 45.33600 26.67700
C  37.70900 46.58900 26.60500
C  39.36200 43.68500 24.82700
C  38.36400 44.82600 28.05800
O  38.70900 43.78200 28.56800
C  37.78400 45.98900 28.87800
C  36.57800 45.50000 29.67000
O  35.41300 45.40600 29.30400
O  36.90000 45.66000 30.97900
C  35.89600 45.08600 31.92800
H  34.64800 52.02700 27.18500
H  36.30500 51.16700 21.09000
H  38.87000 45.60200 22.40800
H  35.64000 47.96500 29.67100
H  35.64500 51.01800 29.19000
H  33.46200 50.90900 29.90400
H  33.67200 49.16900 29.99800
H  33.10600 49.77400 28.46000
H  38.07200 49.97000 29.73000
H  37.95600 48.31600 30.32900
H  37.33500 50.76900 31.47400
H  37.68400 49.14600 32.16300
H  33.77500 54.57300 24.91100
H  35.42700 54.78100 25.39700
H  34.27600 53.80700 26.37800
H  33.70700 55.05200 22.76200
H  34.78600 55.43600 21.34500
H  35.44300 55.14400 22.99400
H  38.02400 49.43100 20.13200
H  37.69000 46.54300 20.52000
H  35.19200 48.28100 19.80800
H  36.63200 47.41300 18.95200
H  36.15100 49.02900 18.59300
H  40.28900 47.02000 21.34600
H  40.19300 48.43600 20.59000
H  39.32500 46.54500 18.67100
H  41.09000 46.29600 19.29500
H  40.47800 47.81600 18.63300
H  39.63600 43.88800 23.79200
H  38.65800 42.85300 24.84300
H  40.33900 43.49000 25.27000
H  38.62100 46.30400 29.50000
H  35.85700 45.56500 32.90700
H  36.24700 44.10100 32.23600
H  34.90400 44.94900 31.49700

