158

Mg 8.83700 3.12400 27.05100
C  10.30400 1.67700 30.00700
C  7.02200 5.18500 29.26000
C  7.22200 4.27400 24.32000
C  10.34400 0.66100 25.15800
N  8.49800 3.26000 29.45300
C  9.37700 2.64300 30.38000
C  9.03300 3.29000 31.78300
C  7.90000 4.33600 31.46200
C  7.83100 4.26800 29.96400
C  6.51500 4.39000 32.20500
C  10.39700 3.87000 32.44100
C  10.24600 4.92400 33.49400
H  11.19200 4.78900 34.66300
N  7.33100 4.54100 26.76500
C  6.76600 5.29200 27.81000
C  5.84900 6.18900 27.16800
C  5.93700 6.02300 25.76300
C  6.82300 4.88900 25.53600
C  4.99500 7.22000 27.91400
C  5.43000 6.86200 24.53900
O  5.75900 6.68000 23.35600
C  4.51000 8.03000 24.87000
N  8.89300 2.66900 24.91900
C  8.15600 3.25700 24.05100
C  8.31200 2.60700 22.63500
C  9.38300 1.43400 22.93300
C  9.52500 1.56900 24.42200
C  7.00300 2.02800 22.04500
C  10.79300 1.60400 22.29300
C  11.53200 0.32400 21.85900
N  10.19900 1.63100 27.37800
C  10.74200 0.73700 26.50500
C  11.82700 0.03000 27.16000
C  11.64500 0.32800 28.53800
C  10.63000 1.27000 28.63300
C  12.67300 -1.10400 26.57300
C  12.14600 0.09400 29.92700
O  12.93500 -0.71400 30.22600
C  11.35800 1.00000 30.94600
C  10.89600 0.17100 32.07800
O  10.00400 -0.66400 32.08200
O  11.66300 0.45400 33.19100
C  11.53100 -0.26400 34.40700
H  6.60300 5.99700 29.85800
H  6.75400 4.60600 23.39100
H  10.77800 -0.15900 24.58200
H  8.64500 2.42400 32.31900
H  8.28500 5.33100 31.68200
H  6.25600 3.49300 32.76800
H  5.65900 4.64700 31.58200
H  6.56000 5.13100 33.00300
H  10.81700 4.32000 31.54200
H  10.92000 2.99400 32.82600
H  9.22400 4.88900 33.87000
H  10.32200 5.93300 33.08800
H  5.16900 8.23200 27.54600
H  5.09400 7.25900 28.99900
H  3.99400 6.93800 27.58900
H  5.18700 8.79600 25.24700
H  3.77200 7.78300 25.63400
H  3.91200 8.37500 24.02700
H  8.74200 3.32800 21.94000
H  8.88300 0.50000 22.67700
H  7.00600 0.94600 22.17500
H  6.89000 2.35000 21.01000
H  6.18300 2.50800 22.58000
H  11.44700 2.13100 22.98900
H  10.70700 2.20600 21.38800
H  12.00200 0.66500 20.93600
H  10.76700 -0.44500 21.74600
H  12.28600 0.08500 22.60800
H  12.99000 -0.87100 25.55600
H  12.13200 -2.05000 26.58200
H  13.57300 -1.15500 27.18600
H  12.12100 1.70100 31.28500
H  11.06700 -1.24000 34.26300
H  11.08500 0.19600 35.28900
H  12.56100 -0.43200 34.72200
Mg 46.88500 16.29000 29.25200
C  44.69900 15.77400 31.97600
C  49.01700 17.90800 31.39000
C  48.75200 17.04100 26.63700
C  44.42800 15.07000 27.22400
N  46.73900 16.86700 31.39100
C  45.87200 16.44900 32.33900
C  46.31600 16.73400 33.73800
C  47.53100 17.68900 33.47200
C  47.76200 17.55600 31.95900
C  47.47500 19.12100 34.03700
C  46.55300 15.43500 34.60000
C  46.23700 15.50300 36.15000
H  45.93200 16.82500 36.87200
N  48.67200 17.22000 29.08200
C  49.47200 17.71400 30.05400
C  50.79100 18.03700 29.54400
C  50.80600 17.79600 28.21800
C  49.36400 17.35400 27.88000
C  51.92000 18.64500 30.52800
C  51.89700 17.94900 27.14600
O  51.81300 17.68700 25.97000
C  53.23000 18.21200 27.65500
N  46.53300 16.17100 27.26000
C  47.44900 16.57000 26.37900
C  46.95300 16.50100 24.91400
C  45.61200 15.77800 25.02700
C  45.52500 15.58400 26.59100
C  46.83400 17.75400 24.02800
C  45.29900 14.57300 24.05300
C  45.63600 13.04500 24.52800
N  44.91700 15.48200 29.54700
C  44.05700 15.00200 28.59400
C  42.91600 14.48600 29.22500
C  43.16800 14.73400 30.59800
C  44.30300 15.38400 30.72200
C  41.72800 13.88100 28.57400
C  42.60300 14.53300 31.96300
O  41.60900 14.02800 32.39800
C  43.48000 15.36400 32.84900
C  42.76400 16.49800 33.38700
O  42.81400 17.68900 32.94100
O  42.10900 16.12300 34.50900
C  41.67100 17.21700 35.32700
H  49.74100 18.33300 32.08800
H  49.36800 17.19300 25.74900
H  43.68000 14.66200 26.54100
H  45.59400 17.44500 34.14000
H  48.46600 17.29000 33.86600
H  46.42800 19.42400 34.04600
H  48.05700 19.73000 33.34500
H  47.94600 19.21200 35.01600
H  47.62800 15.26600 34.54300
H  46.02600 14.61300 34.11500
H  46.96400 14.91800 36.71400
H  45.34000 14.88900 36.22900
H  51.64200 18.56800 31.58000
H  52.18100 19.64000 30.16700
H  52.79600 18.01000 30.40300
H  53.94800 18.36900 26.85100
H  53.60300 17.43800 28.32600
H  53.25800 19.09900 28.28800
H  47.51700 15.71600 24.41000
H  44.75000 16.40700 24.80700
H  47.37500 18.57400 24.50100
H  45.79800 18.07900 23.93200
H  47.24400 17.71400 23.01900
H  46.04000 14.72100 23.26800
H  44.25200 14.67500 23.76600
H  44.73900 12.44000 24.40100
H  45.94100 12.79300 25.54400
H  46.45600 12.63000 23.94100
H  41.43800 12.84200 28.73000
H  41.79700 14.08600 27.50500
H  40.86100 14.38900 28.99700
H  43.74200 14.65200 33.63100
H  40.70300 17.54900 34.95200
H  42.42800 17.98900 35.46500
H  41.44400 16.83200 36.32100

