158

Mg 1.37200 7.62100 25.47900
C  1.98200 9.48700 28.41500
C  1.42900 4.81600 27.39900
C  0.73200 5.82500 22.69500
C  1.64200 10.46500 23.58200
N  1.76800 7.22500 27.70700
C  1.76900 8.10500 28.68700
C  1.77700 7.45300 30.13600
C  1.81900 5.96100 29.73800
C  1.60900 5.95300 28.18900
C  3.00800 5.18000 30.27800
C  0.53800 8.05300 30.96100
C  0.91600 8.51400 32.37100
H  1.99200 7.68600 33.04400
N  1.22400 5.51600 25.09000
C  1.25700 4.53000 25.98300
C  1.08900 3.19300 25.30900
C  0.96000 3.58300 23.91900
C  0.92800 5.01900 23.83100
C  1.17700 1.81900 25.95100
C  0.85900 2.56800 22.76700
O  0.63200 2.96100 21.65000
C  0.85400 1.12300 22.92100
N  1.24200 8.03700 23.38500
C  0.88500 7.18300 22.45900
C  0.65600 7.88100 21.04500
C  0.93000 9.40500 21.38600
C  1.21000 9.32800 22.92500
C  1.63700 7.21800 20.03600
C  -0.23600 10.33200 21.00500
C  0.29400 11.62200 20.29800
N  1.68700 9.61100 25.89200
C  1.83800 10.64200 24.97400
C  2.19300 11.86500 25.73700
C  2.26900 11.41800 27.05400
C  1.96600 10.05900 27.09700
C  2.38900 13.25000 25.24300
C  2.51600 11.88900 28.44000
O  2.82800 13.02500 28.75400
C  2.25900 10.66300 29.41900
C  3.44700 10.54400 30.23600
O  4.51900 10.27400 29.88200
O  3.18000 11.08100 31.48100
C  4.28500 11.42000 32.38600
H  1.37200 3.83800 27.88300
H  0.35200 5.33800 21.79500
H  1.75300 11.36500 22.97200
H  2.64100 7.87400 30.65000
H  0.90800 5.51700 30.13900
H  3.72800 5.92700 30.61100
H  3.31900 4.49800 29.48700
H  2.60200 4.54700 31.06700
H  -0.30000 7.36100 31.04800
H  0.20800 8.94700 30.43100
H  0.07100 8.53600 33.05900
H  1.28100 9.52500 32.18800
H  1.27900 1.92800 27.03100
H  2.00800 1.21900 25.57900
H  0.24800 1.28000 25.76600
H  0.86300 0.63300 21.94700
H  -0.08000 0.95000 23.45500
H  1.65200 0.60600 23.45500
H  -0.38100 7.69600 20.76200
H  1.80600 9.77300 20.85100
H  2.61000 7.11000 20.51700
H  1.60000 7.82100 19.12900
H  1.39500 6.17800 19.81800
H  -0.70200 10.80300 21.87000
H  -0.95700 9.78200 20.40100
H  -0.32000 12.39600 20.75800
H  -0.02600 11.45500 19.27000
H  1.36100 11.84700 20.30300
H  2.86200 13.86900 26.00500
H  1.43500 13.64300 24.89200
H  3.00900 13.22000 24.34600
H  1.41900 10.91100 30.06800
H  3.97000 11.44800 33.42900
H  4.62300 12.42400 32.13000
H  5.06800 10.66600 32.29500
Mg 0.01300 43.08800 25.84900
C  2.49700 42.98900 28.42700
C  -2.32500 42.39500 28.34500
C  -2.15100 42.92000 23.40100
C  2.66500 43.22600 23.51100
N  0.13800 42.60700 28.06600
C  1.23300 42.73000 28.93000
C  0.74000 42.61200 30.41000
C  -0.79400 42.19300 30.28700
C  -0.98500 42.36500 28.75500
C  -1.12000 40.78900 30.95400
C  1.08600 43.94000 31.20800
C  1.35000 43.75900 32.76300
H  0.88600 42.42800 33.42700
N  -2.04900 42.82300 25.85500
C  -2.82200 42.55100 26.95000
C  -4.17000 42.49600 26.49400
C  -4.19300 42.67200 25.05700
C  -2.78500 42.85100 24.69200
C  -5.28700 42.36600 27.47000
C  -5.39700 42.60000 24.09400
O  -5.23700 42.73400 22.89300
C  -6.79200 42.14400 24.50400
N  0.19500 43.24500 23.75300
C  -0.86300 43.05100 22.91600
C  -0.58100 43.11900 21.41700
C  1.00500 43.19500 21.42600
C  1.35300 43.24800 22.95100
C  -1.09700 41.94600 20.62700
C  1.78000 44.37900 20.62700
C  1.24100 45.84100 20.80300
N  2.13700 43.15000 25.88900
C  3.02200 43.23900 24.87800
C  4.32600 43.16800 25.39900
C  4.17300 43.12400 26.76500
C  2.84400 43.11900 27.05900
C  5.71300 43.24200 24.63100
C  4.88500 43.00800 28.04100
O  6.04200 42.80500 28.31600
C  3.77400 43.09200 29.19500
C  4.05800 41.91100 30.09100
O  3.85200 40.73000 29.88000
O  4.57700 42.42800 31.20600
C  4.61300 41.43000 32.35400
H  -3.05400 42.34300 29.15600
H  -2.93900 42.83100 22.65100
H  3.51300 43.07700 22.83800
H  1.36800 41.96100 31.01900
H  -1.41600 42.92700 30.79900
H  -0.30500 40.54400 31.63600
H  -1.29500 40.02100 30.20000
H  -2.07000 40.93800 31.46800
H  0.35600 44.73000 31.03200
H  2.02400 44.41700 30.92300
H  0.92800 44.61500 33.28800
H  2.43500 43.78600 32.85900
H  -6.23900 42.75900 27.11400
H  -5.10900 42.98100 28.35200
H  -5.52400 41.33600 27.74000
H  -7.07100 42.91000 25.22800
H  -6.74800 41.13300 24.90900
H  -7.48400 42.12900 23.66200
H  -0.91800 44.04200 20.94600
H  1.45400 42.21900 21.24500
H  -1.74600 41.41800 21.32600
H  -0.28600 41.33900 20.22400
H  -1.67300 42.29600 19.77000
H  1.77700 44.08700 19.57700
H  2.78000 44.54600 21.02800
H  0.58000 46.07900 19.97000
H  2.03500 46.56700 20.98000
H  0.74200 46.00000 21.75900
H  6.49100 43.53300 25.33700
H  5.72100 43.92300 23.78000
H  5.99200 42.27000 24.22400
H  3.93200 44.03200 29.72200
H  5.67800 41.31600 32.55700
H  4.21600 40.43100 32.17200
H  4.16000 41.90500 33.22400

