158

Mg 56.36600 24.77200 44.79100
C  53.56200 26.36200 43.56300
C  55.24200 21.75100 43.69000
C  59.36200 23.54200 45.14000
C  57.64900 28.01100 45.51700
N  54.70800 24.14500 43.73900
C  53.69200 24.96600 43.35700
C  52.64200 24.14600 42.49600
C  52.95300 22.75300 43.00700
C  54.40400 22.85800 43.44300
C  52.03200 22.22000 44.07100
C  52.99000 24.18300 40.95500
C  51.76500 24.16000 39.99800
H  51.82100 24.64400 38.55300
N  57.15600 22.81100 44.58100
C  56.52200 21.70400 44.19200
C  57.47300 20.65600 44.35000
C  58.69500 21.11100 44.73900
C  58.44600 22.56200 44.79000
C  57.05000 19.26300 44.01200
C  59.98900 20.26600 44.99500
O  59.93700 19.04700 44.89000
C  61.32600 20.80300 45.40500
N  58.21800 25.63700 45.19600
C  59.35700 24.90400 45.26900
C  60.62600 25.75000 45.55700
C  59.99900 27.15400 45.73800
C  58.48100 26.92700 45.50800
C  61.61600 25.29400 46.52100
C  60.59700 28.35500 44.87100
C  60.38900 28.19900 43.36200
N  55.64400 26.80500 44.88300
C  56.25600 27.99500 45.25300
C  55.24500 29.06800 45.13200
C  54.12700 28.39600 44.45600
C  54.49300 27.07400 44.28700
C  55.44500 30.51900 45.54000
C  52.93500 28.68500 43.80800
O  52.37800 29.73100 43.51300
C  52.36300 27.32300 43.40300
C  51.98500 27.55500 41.95800
O  52.72200 27.57800 41.01800
O  50.61700 27.79100 41.92100
C  49.85200 28.05300 40.67500
H  54.74800 20.79800 43.49200
H  60.38500 23.17400 45.24700
H  58.12300 28.97100 45.73200
H  51.66000 24.55500 42.73200
H  52.99800 21.96900 42.25100
H  51.22600 22.92200 44.28400
H  52.44300 21.90600 45.03100
H  51.44400 21.32200 43.87900
H  53.61400 23.33700 40.66500
H  53.55700 25.07200 40.67700
H  51.03000 24.68200 40.61000
H  51.32500 23.16900 40.11200
H  57.86200 18.95400 43.35400
H  56.12100 19.17500 43.44900
H  56.96100 18.64300 44.90400
H  61.15200 21.19200 46.40800
H  61.50700 21.50200 44.58800
H  62.16300 20.10800 45.45700
H  61.11600 25.73500 44.58400
H  59.98500 27.45900 46.78400
H  61.19900 24.57400 47.22500
H  61.98500 26.20100 46.99900
H  62.39500 24.75300 45.98300
H  61.66100 28.36100 45.10800
H  60.15600 29.30100 45.18200
H  59.76900 27.31400 43.21500
H  61.35500 28.16300 42.85900
H  59.78800 29.05300 43.05200
H  54.84600 31.00100 44.76700
H  56.47300 30.87700 45.59600
H  55.04800 30.77100 46.52300
H  51.43000 26.98400 43.85300
H  49.01000 27.36000 40.66000
H  50.49900 27.65400 39.89500
H  49.42100 29.03700 40.49100
Mg 16.54500 51.54100 26.92900
C  18.41900 50.00500 29.45200
C  14.41500 52.61800 29.42500
C  14.84400 52.95400 24.54700
C  18.67500 50.02100 24.55600
N  16.33800 51.18700 29.24800
C  17.32600 50.71100 30.10800
C  17.10500 51.09400 31.61800
C  15.59600 51.63000 31.47500
C  15.40500 51.84300 29.92900
C  14.54900 50.79300 32.05600
C  18.04400 52.07900 32.28600
C  18.41800 51.96700 33.77400
H  17.49400 51.05600 34.65100
N  14.83200 52.58400 27.02200
C  14.12900 53.02500 28.13800
C  13.08000 53.93400 27.68600
C  13.27300 54.17000 26.26800
C  14.39900 53.19700 25.87300
C  12.18200 54.52100 28.74500
C  12.48900 55.10300 25.37000
O  12.61700 55.18300 24.16600
C  11.35000 55.87300 26.01400
N  16.59900 51.29800 24.82200
C  15.80500 52.08000 24.06900
C  16.13500 51.89200 22.56500
C  17.28500 50.73900 22.59800
C  17.54800 50.67000 24.06900
C  15.02200 51.72100 21.53800
C  18.44300 50.99200 21.61700
C  19.55100 52.04600 22.12100
N  18.20800 50.31400 26.88200
C  19.03400 49.73300 25.84500
C  20.10300 48.97200 26.44800
C  19.87900 49.20200 27.82900
C  18.69800 49.90400 28.07700
C  21.22700 48.20600 25.80300
C  20.47100 48.82900 29.09100
O  21.48200 48.09600 29.30400
C  19.53700 49.34600 30.24800
C  19.06700 48.31600 31.15200
O  18.06800 47.64800 31.10800
O  19.91900 48.40700 32.25500
C  19.61700 47.66400 33.48500
H  13.83700 53.01900 30.26100
H  14.39200 53.50900 23.72300
H  19.37100 49.59700 23.82800
H  17.13700 50.19500 32.23400
H  15.43700 52.61400 31.91600
H  14.95600 50.41200 32.99200
H  14.41600 49.95800 31.36800
H  13.57000 51.18000 32.34000
H  17.46700 52.98800 32.11000
H  18.95200 52.05300 31.68400
H  18.36600 52.99400 34.13500
H  19.42700 51.57200 33.89100
H  11.28700 55.02200 28.37700
H  12.89300 55.18500 29.23600
H  11.85500 53.72800 29.41800
H  10.91700 56.60100 25.32900
H  11.56000 56.46100 26.90800
H  10.52100 55.16600 26.05600
H  16.53400 52.86900 22.29300
H  16.90500 49.78900 22.22100
H  15.10800 50.78900 20.98000
H  15.01700 52.53800 20.81700
H  14.08300 51.78400 22.09000
H  18.13300 51.31400 20.62300
H  18.98000 50.05700 21.45500
H  19.70600 52.77500 21.32700
H  20.44500 51.58400 22.54100
H  19.21400 52.57100 23.01500
H  20.82400 47.70000 24.92600
H  21.73000 47.58600 26.54500
H  21.96700 48.91000 25.42300
H  20.10000 50.08800 30.81400
H  18.71600 47.05200 33.53400
H  19.58700 48.33600 34.34200
H  20.55400 47.11600 33.58000

