158

Mg 40.85700 7.44100 28.79700
C  42.64500 9.18400 31.48200
C  38.75300 6.47500 31.35300
C  39.16600 5.87400 26.42900
C  43.30500 8.36200 26.61300
N  40.77800 7.74200 31.15300
C  41.52800 8.54800 31.94600
C  41.00400 8.56500 33.38300
C  39.96200 7.41900 33.34300
C  39.87400 7.09200 31.88800
C  40.20900 6.24400 34.21300
C  40.37400 9.95800 33.89300
C  39.84600 9.84200 35.32700
H  40.39600 10.77100 36.41600
N  39.18100 6.35800 28.83500
C  38.40600 6.11200 29.95000
C  37.21300 5.45000 29.56400
C  37.26600 5.35300 28.11600
C  38.59300 5.80300 27.76300
C  36.17700 4.91800 30.55300
C  36.19000 4.97000 27.11800
O  36.27600 4.88800 25.91100
C  34.85300 4.57400 27.67500
N  41.29600 7.01500 26.84000
C  40.38800 6.41700 25.99300
C  40.95300 6.40900 24.56200
C  42.17500 7.30600 24.69400
C  42.23300 7.58100 26.11900
C  41.31200 5.06600 23.93300
C  41.97700 8.57500 23.82800
C  41.08800 9.76200 24.25200
N  42.62300 8.43200 29.01500
C  43.52200 8.70700 28.03100
C  44.66900 9.44000 28.52000
C  44.35200 9.68500 29.88000
C  43.09900 9.07600 30.15600
C  45.78000 9.95000 27.70600
C  44.74400 10.42500 31.13100
O  45.70500 11.15900 31.34300
C  43.65000 10.05800 32.25700
C  44.37100 9.47100 33.37300
O  45.28600 8.65100 33.26800
O  43.86100 10.09300 34.48600
C  44.28200 9.38800 35.70900
H  38.00800 6.28600 32.12900
H  38.63500 5.35600 25.62800
H  44.04200 8.77200 25.92000
H  41.83500 8.39100 34.06700
H  39.00200 7.90300 33.52300
H  39.25700 5.76100 34.43100
H  40.73900 6.51800 35.12500
H  40.79500 5.45100 33.74700
H  39.55700 10.35100 33.28800
H  41.21700 10.64100 34.00400
H  39.94500 8.82500 35.70600
H  38.77200 10.02400 35.32200
H  35.95300 3.89900 30.23800
H  35.26800 5.51100 30.45200
H  36.46600 4.94400 31.60400
H  34.07400 4.25500 26.98200
H  34.47300 5.46800 28.16900
H  34.90900 3.79500 28.43500
H  40.25000 6.89900 23.88800
H  43.12100 6.93900 24.29500
H  41.00700 4.27300 24.61500
H  42.36600 4.83100 23.79000
H  40.82800 4.93000 22.96600
H  41.67100 8.32300 22.81300
H  42.93700 9.07100 23.68500
H  40.38200 9.94500 23.44200
H  41.81500 10.54100 24.48100
H  40.36600 9.61700 25.05500
H  45.36000 10.81200 27.18800
H  46.04800 9.23000 26.93200
H  46.52300 10.29600 28.42400
H  43.15500 10.99000 32.52900
H  44.31700 8.31200 35.53700
H  43.58500 9.50900 36.53900
H  45.25200 9.73200 36.06900
Mg 6.49400 54.36100 41.35400
C  6.19800 50.93100 41.20600
C  10.00900 53.90400 40.53800
C  6.86400 57.71800 41.00600
C  3.16500 54.69700 41.74700
N  7.85400 52.60300 40.72900
C  7.47100 51.24900 40.83700
C  8.72300 50.33900 40.63900
C  9.93200 51.34100 40.69500
C  9.22200 52.68700 40.74500
C  10.91900 51.07500 41.88600
C  8.66400 49.61200 39.27800
C  8.45700 50.49500 38.10700
H  7.49200 49.96900 37.04400
N  8.15400 55.61900 40.83900
C  9.46900 55.24500 40.59200
C  10.27900 56.46100 40.32000
C  9.39800 57.53800 40.46800
C  8.04700 56.93900 40.77800
C  11.70100 56.39100 39.86400
C  9.76400 59.03300 40.20300
O  10.90700 59.34400 39.88300
C  8.79300 60.09500 40.17100
N  5.19500 56.00100 41.14700
C  5.53400 57.27600 41.14800
C  4.42700 58.22600 41.56600
C  3.24700 57.24400 41.55200
C  3.89300 55.85900 41.42700
C  4.63100 58.78500 42.99800
C  2.18800 57.51300 40.40500
C  0.78700 57.82500 40.85700
N  4.92600 53.11700 41.49300
C  3.60800 53.34600 41.80000
C  2.98100 52.12700 42.17900
C  3.98100 51.17300 41.99300
C  5.16700 51.80100 41.47300
C  1.63200 51.95300 42.73400
C  4.20700 49.79300 42.02800
O  3.44600 48.87600 42.36100
C  5.62900 49.58300 41.49500
C  5.43200 48.70500 40.35200
O  4.86500 49.04000 39.36400
O  5.78300 47.40100 40.60700
C  5.19800 46.33300 39.75400
H  11.09600 53.84600 40.44700
H  7.04200 58.79400 41.06300
H  2.12300 54.95400 41.94800
H  8.69800 49.59300 41.43400
H  10.47100 51.36100 39.74700
H  11.18200 51.94200 42.49200
H  11.84800 50.67900 41.47500
H  10.58600 50.21900 42.47300
H  8.01700 48.73900 39.20000
H  9.64600 49.17600 39.09000
H  9.41900 50.49700 37.59600
H  8.20400 51.54700 38.23100
H  11.82800 57.01400 38.97900
H  11.88100 55.39000 39.47200
H  12.44900 56.74400 40.57400
H  7.87200 59.76800 39.68900
H  9.22800 60.89400 39.57000
H  8.67400 60.52500 41.16600
H  4.36400 59.07600 40.88700
H  2.68200 57.18100 42.48200
H  3.92300 58.28900 43.66200
H  4.41400 59.85300 43.00400
H  5.63700 58.61600 43.38100
H  2.24200 56.81700 39.56700
H  2.61600 58.40000 39.93900
H  0.63100 58.86300 40.56400
H  0.55300 57.83600 41.92100
H  0.07700 57.31300 40.20700
H  1.04300 51.52100 41.92400
H  1.13300 52.77700 43.24300
H  1.86300 51.14600 43.42900
H  6.34100 49.27200 42.26000
H  4.21000 46.24900 40.20600
H  5.72200 45.37800 39.71400
H  5.10600 46.71800 38.73900

