158

Mg 0.84800 8.41700 26.59300
C  1.45200 10.32700 29.45300
C  1.09100 5.52200 28.50400
C  0.72900 6.50700 23.80900
C  0.93500 11.29300 24.74400
N  1.30200 7.96800 28.79200
C  1.30000 8.96800 29.74800
C  1.22300 8.32000 31.15300
C  1.22300 6.79400 30.80000
C  1.31800 6.66800 29.26000
C  2.22400 6.01200 31.68800
C  -0.11400 8.64400 31.91200
C  -0.01500 8.95500 33.39500
H  1.12800 8.37500 34.19200
N  0.96400 6.28100 26.17300
C  1.05700 5.29900 27.09100
C  1.04200 3.97700 26.43900
C  0.81800 4.16500 25.02700
C  0.88500 5.69700 24.90800
C  1.16800 2.70000 27.32400
C  0.54900 3.09400 23.94800
O  0.56700 3.41900 22.75900
C  0.67600 1.58300 24.32800
N  0.80600 8.82100 24.61400
C  0.79800 7.89200 23.61700
C  0.67400 8.54200 22.22300
C  0.62400 10.10400 22.58200
C  0.69900 10.12200 24.07500
C  1.96200 8.11500 21.41700
C  -0.58300 10.83800 22.00700
C  -1.16900 10.42600 20.54600
N  1.17400 10.44900 26.92100
C  1.22200 11.51500 26.07500
C  1.59300 12.69400 26.79600
C  1.73100 12.24100 28.09100
C  1.40100 10.92200 28.17500
C  1.64800 14.07300 26.34600
C  2.10000 12.67900 29.44500
O  2.44800 13.78500 29.88700
C  1.64500 11.50700 30.35000
C  2.78600 11.27700 31.27100
O  3.94900 11.12600 30.95400
O  2.33400 11.46600 32.58200
C  3.27900 11.81500 33.59100
H  0.80700 4.67000 29.12500
H  0.68600 5.93300 22.88100
H  0.94700 12.17000 24.09500
H  2.17500 8.52300 31.64100
H  0.25600 6.33200 30.99700
H  3.04200 6.70100 31.90100
H  2.71700 5.23500 31.10400
H  1.75700 5.59800 32.58200
H  -0.89900 7.92200 31.68800
H  -0.54300 9.50600 31.40100
H  -0.95300 8.63300 33.84700
H  0.13000 10.02900 33.50900
H  1.20900 2.77500 28.41100
H  2.13000 2.27600 27.03400
H  0.32900 2.01100 27.22600
H  0.72600 0.94600 23.44500
H  -0.19700 1.49800 24.97500
H  1.60700 1.38000 24.85700
H  -0.24500 8.15700 21.78200
H  1.55800 10.50300 22.18700
H  2.19500 8.97700 20.79200
H  1.74100 7.31300 20.71400
H  2.78000 7.90900 22.10800
H  -0.30400 11.88600 21.90500
H  -1.49300 10.70600 22.59200
H  -2.12200 9.91400 20.67700
H  -0.47400 9.66700 20.18400
H  -1.22600 11.27700 19.86700
H  2.00200 14.13500 25.31700
H  2.36000 14.64800 26.93800
H  0.66000 14.52500 26.43600
H  0.69700 11.72000 30.84500
H  3.90600 12.70100 33.49900
H  4.07000 11.08300 33.75600
H  2.78000 12.00400 34.54200
Mg 26.06800 1.18900 29.18300
C  28.04000 0.70600 32.07500
C  23.27500 1.71800 31.12100
C  24.06900 1.51900 26.31300
C  28.71200 0.42900 27.27500
N  25.72800 1.17500 31.30700
C  26.67300 1.01300 32.34200
C  26.05400 1.30000 33.69600
C  24.52700 1.48200 33.33600
C  24.53000 1.50200 31.82400
C  23.52000 0.49200 33.97600
C  26.76500 2.58200 34.29900
C  27.31700 2.23700 35.74800
H  26.91600 3.11400 36.88500
N  23.92200 1.34900 28.80800
C  22.94700 1.58800 29.78400
C  21.69400 1.57000 29.06000
C  21.93900 1.53800 27.69900
C  23.32500 1.53600 27.55200
C  20.38100 1.75200 29.77600
C  20.94600 1.46700 26.44400
O  21.36000 1.38400 25.29100
C  19.52300 1.26800 26.74100
N  26.29700 0.89800 27.09200
C  25.38300 1.13800 26.06400
C  26.01900 0.79400 24.62000
C  27.53600 0.90500 25.02700
C  27.56300 0.81200 26.57300
C  25.80300 -0.57200 24.12400
C  28.26700 2.23600 24.63200
C  29.58800 2.07600 23.79900
N  28.00300 0.52600 29.51700
C  28.98900 0.23300 28.65300
C  30.12300 -0.31400 29.37600
C  29.82200 -0.02300 30.68100
C  28.52100 0.43900 30.79300
C  31.39000 -0.52500 28.60200
C  30.36000 0.09000 32.09100
O  31.50500 -0.08700 32.50100
C  29.17500 0.51100 33.05400
C  28.98900 -0.55800 34.02100
O  28.05100 -1.32900 33.97100
O  29.83600 -0.46800 35.05600
C  29.52500 -1.19000 36.29800
H  22.50500 2.07200 31.80900
H  23.58600 1.72300 25.35500
H  29.56700 0.15300 26.65400
H  26.23000 0.42500 34.32200
H  24.18100 2.48700 33.57800
H  23.26900 -0.34800 33.32800
H  22.61700 1.05800 34.20900
H  23.93700 0.06800 34.88900
H  26.10000 3.44300 34.36400
H  27.60400 2.84800 33.65700
H  28.39900 2.37000 35.71400
H  27.11000 1.20700 36.03700
H  19.85500 0.81900 29.97800
H  19.85400 2.58400 29.30900
H  20.51400 2.15000 30.78200
H  19.13100 2.20200 27.14500
H  19.40400 0.37700 27.35700
H  18.99200 1.19100 25.79300
H  25.66600 1.52100 23.88800
H  28.16100 0.10800 24.62400
H  25.03500 -0.44300 23.36100
H  25.41400 -1.27900 24.85600
H  26.66900 -0.98400 23.60500
H  28.51600 2.79800 25.53200
H  27.66600 2.90500 24.01600
H  29.32800 2.17300 22.74500
H  29.87900 1.03400 23.93000
H  30.35500 2.83600 23.95100
H  32.17800 0.07300 29.05900
H  31.20600 -0.24200 27.56500
H  31.69800 -1.56900 28.64400
H  29.39300 1.42700 33.60400
H  28.59600 -0.79100 36.70500
H  30.18600 -1.13800 37.16300
H  29.33600 -2.24100 36.07800

