158

Mg 40.45900 9.51000 29.38400
C  42.31100 10.80200 32.07700
C  38.26400 8.16100 31.67600
C  38.92200 8.07600 26.83000
C  43.29700 10.32600 27.36800
N  40.36300 9.45000 31.62900
C  41.10500 10.20200 32.48400
C  40.50600 10.25900 33.93600
C  39.48300 9.08600 33.74100
C  39.28100 8.92700 32.21600
C  39.75900 7.73300 34.39900
C  39.79700 11.62100 34.30400
C  39.60400 11.70300 35.86700
H  40.29000 12.90400 36.61100
N  38.73800 8.43400 29.23600
C  37.94500 8.00300 30.31800
C  36.72400 7.33200 29.76200
C  36.86600 7.47900 28.31500
C  38.23100 8.02000 28.04800
C  35.63900 6.71400 30.63800
C  35.94000 7.15600 27.20100
O  36.09900 7.51500 26.03500
C  34.68800 6.40100 27.55100
N  40.99400 9.23600 27.42500
C  40.24000 8.54300 26.52200
C  40.96000 8.49500 25.16500
C  42.27800 9.18500 25.38000
C  42.15100 9.62800 26.81400
C  41.02700 7.11300 24.38900
C  42.70200 10.22800 24.34600
C  42.24900 11.70800 24.62800
N  42.35800 10.42300 29.59200
C  43.40100 10.68900 28.72100
C  44.48000 11.37400 29.40600
C  44.04100 11.46100 30.72400
C  42.77000 10.81100 30.76000
C  45.81100 11.72000 28.93200
C  44.47800 11.93300 31.97600
O  45.49300 12.50500 32.25400
C  43.35800 11.56900 32.89700
C  43.74400 10.79300 34.11000
O  43.67000 9.55600 34.27200
O  44.12100 11.70500 35.09900
C  44.31900 11.19800 36.45100
H  37.56700 7.68600 32.37000
H  38.49400 7.72500 25.88800
H  44.09200 10.62900 26.68400
H  41.24100 9.98400 34.69200
H  38.49800 9.35000 34.12600
H  39.03700 7.62100 35.20800
H  40.78000 7.72300 34.78000
H  39.63300 6.86400 33.75300
H  38.77700 11.60400 33.92000
H  40.33600 12.53000 34.03500
H  40.01200 10.81500 36.35000
H  38.52200 11.82400 35.91500
H  34.75800 7.33900 30.78600
H  36.00200 6.37000 31.60600
H  35.42400 5.77600 30.12400
H  34.99800 5.36500 27.69100
H  34.00700 6.43400 26.70100
H  34.13800 6.85800 28.37300
H  40.33500 9.11000 24.51800
H  43.04200 8.41300 25.47100
H  41.98600 6.59900 24.32700
H  40.53100 7.09800 23.41800
H  40.29800 6.50900 24.93000
H  42.25600 9.98200 23.38200
H  43.77300 10.23000 24.14500
H  41.66400 11.81800 25.54100
H  41.73300 12.12500 23.76300
H  43.17500 12.26000 24.79100
H  46.05500 11.27200 27.96900
H  46.46000 11.54800 29.79100
H  45.95000 12.80000 28.87800
H  42.72800 12.37000 33.28300
H  45.26500 11.62700 36.78000
H  44.43600 10.11800 36.54100
H  43.47900 11.50500 37.07400
Mg -11.82500 37.74600 42.43100
C  -9.62500 35.29400 41.23600
C  -9.97600 40.08200 40.75500
C  -14.25100 40.04200 43.13000
C  -14.11500 35.20600 43.25500
N  -10.11100 37.66200 41.01600
C  -9.24500 36.57500 40.84100
C  -7.93900 37.02700 40.11000
C  -8.05500 38.56400 40.08400
C  -9.48000 38.79300 40.58800
C  -6.91500 39.38800 40.77800
C  -7.75800 36.37200 38.65700
C  -6.37400 35.92000 38.28300
H  -5.72100 36.42200 37.08400
N  -11.95600 39.75500 42.20700
C  -11.07200 40.57500 41.51100
C  -11.44100 41.90600 41.68400
C  -12.63200 41.92800 42.41900
C  -13.02900 40.52300 42.63000
C  -10.68300 43.08700 41.14800
C  -13.33500 43.16800 42.98500
O  -12.84300 44.26700 42.80100
C  -14.62200 43.11700 43.86200
N  -13.92600 37.61500 43.11500
C  -14.65000 38.75000 43.21400
C  -16.04900 38.39800 43.69600
C  -16.06300 36.85200 43.76700
C  -14.68300 36.48600 43.28000
C  -16.52400 39.01800 45.02700
C  -17.29100 36.20500 42.94500
C  -18.37700 35.65200 43.94800
N  -11.90400 35.71400 42.36100
C  -12.80200 34.77400 42.90600
C  -12.18300 33.47800 43.00400
C  -10.88500 33.71200 42.39200
C  -10.82600 35.01200 41.98000
C  -12.76100 32.13800 43.58600
C  -9.61600 33.04100 42.04200
O  -9.29700 31.85700 42.21400
C  -8.75500 34.06200 41.26500
C  -7.47800 34.18100 41.97700
O  -7.32700 34.30900 43.16800
O  -6.46300 33.78500 41.18300
C  -5.17000 33.44500 41.78100
H  -9.30600 40.84100 40.34500
H  -15.09200 40.70400 43.34500
H  -14.84200 34.45600 43.57300
H  -7.07300 36.80700 40.73500
H  -8.07600 38.89700 39.04600
H  -6.06300 38.71200 40.85200
H  -7.20100 39.73700 41.77000
H  -6.68200 40.23100 40.12700
H  -8.09000 37.01000 37.83700
H  -8.32400 35.44100 38.62800
H  -6.26700 34.83900 38.36500
H  -5.64500 36.34800 38.97100
H  -11.16100 43.52800 40.27300
H  -9.69700 42.72100 40.86000
H  -10.61200 43.78700 41.98000
H  -15.49000 42.96500 43.22100
H  -14.87300 44.07100 44.32500
H  -14.67400 42.34400 44.62800
H  -16.70000 38.82600 42.93400
H  -16.08600 36.51100 44.80200
H  -16.70700 38.24300 45.77100
H  -17.44300 39.54100 44.76400
H  -15.86700 39.79500 45.41700
H  -16.90300 35.37000 42.36100
H  -17.78200 36.89000 42.25500
H  -18.51800 34.59500 43.72600
H  -19.39800 36.01400 43.82600
H  -18.09600 35.80500 44.99000
H  -13.82000 32.20200 43.83800
H  -12.21800 31.81100 44.47200
H  -12.80400 31.46000 42.73400
H  -8.52200 33.84100 40.22300
H  -4.92000 34.10400 42.61200
H  -4.51700 33.55100 40.91500
H  -5.27700 32.46300 42.24200

