158

Mg 34.96100 2.79000 29.54300
C  32.96300 3.78700 32.21100
C  37.69800 2.73900 31.70400
C  37.03400 2.34400 26.81200
C  32.27400 3.53600 27.45000
N  35.30500 3.42700 31.69200
C  34.35800 3.67800 32.55900
C  34.90400 3.57200 34.00600
C  36.48800 3.47300 33.78900
C  36.49600 3.20600 32.33300
C  37.37000 4.69800 34.11500
C  34.43600 2.35400 34.74700
C  34.19300 2.43500 36.29200
H  34.80700 3.55000 37.19500
N  36.99500 2.46600 29.29100
C  37.96000 2.43300 30.33200
C  39.14200 1.98400 29.70100
C  39.00800 1.97100 28.29200
C  37.59800 2.33500 28.09100
C  40.43400 1.74400 30.63700
C  40.04800 1.72100 27.11800
O  39.81600 1.61000 25.93200
C  41.47200 1.43800 27.55300
N  34.70300 2.89100 27.44700
C  35.70500 2.65500 26.48600
C  35.17200 2.58100 25.04100
C  33.57500 2.68800 25.28000
C  33.46800 3.03500 26.78100
C  35.70100 3.65400 24.05000
C  32.79200 1.26500 25.07800
C  31.44200 1.23200 24.39000
N  33.04700 3.52100 29.73600
C  32.10200 3.77900 28.85000
C  30.84000 4.05900 29.50100
C  31.13500 4.08300 30.84400
C  32.48600 3.78200 30.95600
C  29.58300 4.25900 28.82500
C  30.59100 4.33700 32.15500
O  29.51500 4.70600 32.44500
C  31.80600 4.14700 33.12400
C  32.02300 5.43900 33.80800
O  32.15900 6.53800 33.26700
O  31.82900 5.26800 35.17300
C  31.73400 6.43600 36.02500
H  38.60900 2.81700 32.30100
H  37.66700 2.11200 25.95300
H  31.41800 3.63100 26.77800
H  34.56600 4.45200 34.55400
H  36.97800 2.63800 34.29000
H  37.70500 4.53900 35.13900
H  36.66700 5.52900 34.17700
H  38.25900 4.91400 33.52200
H  35.17000 1.55500 34.63700
H  33.49800 2.08100 34.26300
H  34.52400 1.53600 36.81100
H  33.11900 2.49500 36.46800
H  41.25900 2.17700 30.07100
H  40.61100 0.66900 30.65400
H  40.51600 2.23700 31.60600
H  41.56600 0.52900 28.14700
H  41.78900 2.22400 28.24000
H  42.09200 1.52300 26.66100
H  35.33000 1.54400 24.74500
H  33.02400 3.46400 24.74800
H  36.54900 4.28100 24.32700
H  34.90200 4.34600 23.78300
H  36.05800 3.18600 23.13300
H  32.55800 0.92100 26.08600
H  33.51600 0.57200 24.64900
H  30.63800 0.95100 25.07100
H  31.44900 0.53800 23.54900
H  31.12000 2.21100 24.03300
H  29.18000 3.25200 28.72100
H  29.57600 4.75900 27.85700
H  28.91200 4.89100 29.40800
H  31.55700 3.28500 33.74300
H  31.65500 7.46400 35.67300
H  32.57300 6.51400 36.71700
H  30.90500 6.37500 36.73100
Mg 53.93800 25.07600 44.34500
C  50.96000 26.99500 43.82200
C  52.02500 22.38500 43.41300
C  56.78400 23.33800 44.14400
C  55.77900 27.96900 44.81100
N  51.68300 24.69300 43.71500
C  50.67400 25.63900 43.65900
C  49.45900 25.03600 43.10100
C  49.72300 23.57300 43.52600
C  51.22000 23.48300 43.44600
C  49.23500 23.13800 44.95100
C  49.20800 25.18100 41.59600
C  47.77800 25.23000 41.08100
H  47.54600 25.08200 39.61300
N  54.33200 23.09900 43.94500
C  53.37600 22.19600 43.51100
C  54.07000 20.96100 43.21300
C  55.49000 21.17400 43.35200
C  55.61300 22.53400 43.88800
C  53.36500 19.67600 42.90000
C  56.67100 20.32600 43.02400
O  56.51600 19.30200 42.35800
C  58.01600 20.70200 43.25600
N  56.00600 25.60600 44.43400
C  56.95900 24.69200 44.40100
C  58.36000 25.27200 44.56200
C  58.00500 26.78900 44.91100
C  56.52100 26.83400 44.77300
C  59.30900 24.50500 45.62000
C  58.79800 27.82400 44.10100
C  59.64700 28.82100 44.83500
N  53.52900 27.09400 44.33300
C  54.32800 28.18100 44.58100
C  53.53900 29.35800 44.52200
C  52.22000 28.96000 44.33100
C  52.28300 27.57500 44.14900
C  54.04500 30.75200 44.78400
C  50.82000 29.35100 44.22300
O  50.31700 30.44200 44.40900
C  50.02400 28.18100 43.65400
C  49.71100 28.54000 42.23600
O  50.51400 28.92300 41.36700
O  48.37900 28.52800 42.13700
C  47.81400 29.13500 40.86600
H  51.43800 21.47200 43.29100
H  57.77400 22.88000 44.09900
H  56.28400 28.89800 45.08300
H  48.63300 25.41000 43.70600
H  49.24400 22.93300 42.78500
H  48.34700 22.51200 44.87100
H  48.86700 23.95400 45.57200
H  50.02800 22.68300 45.54400
H  49.77200 24.45300 41.01200
H  49.66600 26.12900 41.31700
H  47.31600 26.18100 41.34800
H  47.23200 24.47300 41.64400
H  54.05600 18.89800 42.57500
H  52.62800 19.76500 42.10200
H  52.84400 19.37500 43.80800
H  58.37800 21.57000 42.70500
H  58.58200 19.79000 43.06400
H  58.07300 20.92700 44.32100
H  58.82600 25.19000 43.58000
H  58.09400 27.02500 45.97100
H  58.95700 23.51400 45.90700
H  59.37000 25.14700 46.49900
H  60.28900 24.32300 45.17900
H  58.07800 28.35100 43.47600
H  59.48700 27.21700 43.51400
H  60.68700 28.50100 44.89800
H  59.23300 28.87200 45.84200
H  59.50700 29.85600 44.52300
H  54.07200 30.91200 45.86200
H  53.48400 31.46600 44.18200
H  55.04200 30.85400 44.35600
H  49.15300 28.06200 44.29800
H  46.81800 29.45800 41.17000
H  47.76400 28.48200 39.99500
H  48.22900 30.12500 40.67500

