158

Mg 44.38500 42.51500 26.06500
C  43.03800 44.54400 28.63800
C  45.92400 40.71600 28.46900
C  45.59700 40.62100 23.53100
C  43.03300 44.83900 23.68000
N  44.35400 42.62900 28.31900
C  43.72500 43.47300 29.11600
C  43.85300 43.02600 30.59000
C  45.04900 42.05700 30.52800
C  45.13500 41.77400 28.98700
C  46.36400 42.43000 31.17500
C  42.60900 42.55200 31.47900
C  42.69600 41.86900 32.87000
H  41.83800 42.44600 33.96900
N  45.51700 40.87200 25.98300
C  46.09500 40.31100 27.09600
C  46.93200 39.16100 26.72500
C  46.73100 39.02900 25.31900
C  45.95300 40.21500 24.87400
C  47.85300 38.40300 27.71100
C  47.29100 37.99700 24.42500
O  47.05200 38.02800 23.20200
C  48.20600 36.90000 24.92800
N  44.22200 42.65800 23.89500
C  44.82200 41.77300 23.06100
C  44.74500 42.15700 21.57000
C  43.68700 43.26800 21.64000
C  43.59500 43.65900 23.19000
C  46.10700 42.30700 20.86500
C  42.22500 43.00600 20.98300
C  41.35800 42.07400 21.90500
N  43.28500 44.33200 26.07500
C  42.89700 45.17400 25.07200
C  42.17600 46.28500 25.64400
C  42.09900 45.94900 26.98100
C  42.87100 44.83500 27.23400
C  41.46200 47.50500 24.99700
C  41.54500 46.39800 28.28700
O  40.82100 47.41700 28.51000
C  42.11800 45.51300 29.42900
C  42.81200 46.32400 30.43300
O  43.87200 46.95500 30.28500
O  42.21400 46.22800 31.66800
C  42.83800 46.85000 32.88500
H  46.50000 40.14600 29.20100
H  45.92100 40.02400 22.67500
H  42.46900 45.44000 22.96500
H  44.23100 43.91800 31.08900
H  44.85200 41.06800 30.94300
H  46.56500 41.73400 31.98900
H  46.26500 43.42800 31.60200
H  47.18500 42.46200 30.45800
H  42.16300 41.79500 30.83400
H  41.97200 43.42100 31.64400
H  43.73800 41.92400 33.18600
H  42.45700 40.82200 32.68300
H  48.61200 39.04700 28.15500
H  48.43700 37.70400 27.11400
H  47.34800 37.81900 28.48000
H  48.38800 36.15900 24.15000
H  47.65200 36.41200 25.73000
H  49.18700 37.26600 25.23200
H  44.30200 41.23200 21.20100
H  44.02200 44.18500 21.15500
H  46.98500 42.56900 21.45600
H  46.06300 43.02700 20.04800
H  46.39300 41.32500 20.49000
H  42.40800 42.53100 20.01900
H  41.72600 43.97200 20.90000
H  40.99200 42.67600 22.73700
H  41.92900 41.22800 22.28800
H  40.49400 41.58500 21.45500
H  41.49300 48.23200 25.80800
H  40.45100 47.20100 24.72700
H  42.08500 47.80900 24.15500
H  41.23900 45.05200 29.87900
H  43.62500 47.55900 32.63100
H  43.12400 45.98700 33.48700
H  42.04400 47.37300 33.41800
Mg 2.00700 41.89500 24.97900
C  3.84300 41.86200 27.89700
C  -0.89900 41.32900 26.85800
C  0.31800 41.36900 22.07300
C  4.87800 42.35300 23.20600
N  1.54800 41.77300 27.16400
C  2.46100 41.86800 28.15300
C  1.75400 41.75000 29.52000
C  0.26000 41.52800 29.16800
C  0.28300 41.53800 27.65100
C  -0.24200 40.21000 29.76300
C  2.14300 43.06800 30.31700
C  2.57000 42.93800 31.77100
H  1.58900 43.04600 32.93900
N  -0.04300 41.40100 24.56300
C  -1.01800 41.20500 25.43900
C  -2.22800 40.88700 24.68300
C  -1.92500 40.93100 23.30100
C  -0.48200 41.20000 23.24900
C  -3.48600 40.31900 25.40200
C  -2.88300 40.73400 22.09600
O  -2.51600 40.80000 20.93400
C  -4.33900 40.69700 22.32700
N  2.51500 41.77400 22.96000
C  1.70300 41.58400 21.90900
C  2.45100 41.66300 20.57800
C  3.65100 42.47500 20.99800
C  3.72300 42.22300 22.51800
C  2.90000 40.20500 20.08400
C  3.55300 44.05300 20.90700
C  4.13200 44.64800 19.63300
N  3.95300 41.99700 25.36400
C  5.01800 42.29700 24.56600
C  6.26100 42.27600 25.38900
C  5.77700 42.01600 26.67200
C  4.40900 42.05000 26.64200
C  7.68500 42.35100 24.91700
C  6.25100 41.90300 27.94300
O  7.38400 41.77200 28.38200
C  5.07300 41.87700 28.83700
C  5.14300 40.72600 29.69200
O  4.66600 39.60600 29.56900
O  5.80200 41.08500 30.87200
C  5.71100 40.14100 31.96300
H  -1.83500 41.31600 27.42000
H  -0.20600 41.22700 21.12600
H  5.67600 42.60500 22.50400
H  2.11100 40.87500 30.06400
H  -0.33800 42.36200 29.53400
H  -0.43500 39.51000 28.95000
H  -1.12900 40.47500 30.33900
H  0.45800 39.78100 30.47900
H  1.19100 43.57100 30.48700
H  2.73800 43.74500 29.70400
H  3.24100 43.78400 31.91900
H  3.06600 41.97100 31.84000
H  -3.89200 39.41300 24.95300
H  -4.27600 41.06300 25.30000
H  -3.17300 40.11700 26.42700
H  -4.86000 40.67700 21.37000
H  -4.55600 41.57200 22.94000
H  -4.45600 39.78700 22.91500
H  1.92100 42.21500 19.80200
H  4.55500 42.16400 20.47500
H  2.50000 40.01000 19.08900
H  2.58100 39.49700 20.84800
H  3.98200 40.15800 20.20200
H  4.12700 44.45800 21.74000
H  2.50300 44.28300 21.09300
H  3.57300 45.55700 19.41400
H  4.00300 43.90500 18.84500
H  5.19800 44.81600 19.78700
H  8.17700 43.20900 25.37500
H  7.74300 42.40700 23.83000
H  8.14100 41.41600 25.24200
H  4.99600 42.78400 29.43500
H  5.47300 39.11800 31.67100
H  4.85200 40.34100 32.60400
H  6.55300 40.12800 32.65400

