158

Mg 41.96700 41.91100 27.76100
C  40.52200 44.39300 29.97300
C  42.82100 40.07400 30.52100
C  43.75000 39.96900 25.71800
C  42.11800 44.50300 25.41000
N  41.75300 42.30900 29.92000
C  40.91900 43.20100 30.58200
C  40.74800 42.79700 32.05100
C  41.63000 41.58200 32.24700
C  42.12900 41.30600 30.78900
C  42.71100 41.86500 33.33800
C  39.26600 42.68600 32.61600
C  38.98700 43.30800 33.99800
H  38.75000 42.37700 35.16300
N  43.07600 40.14900 27.97800
C  43.18300 39.51300 29.24000
C  43.88600 38.24100 28.98100
C  44.15800 38.19100 27.53400
C  43.69400 39.43400 27.00500
C  44.17400 37.16700 30.06700
C  44.79200 37.15400 26.68800
O  44.86400 37.27100 25.45100
C  45.35800 35.94800 27.34100
N  42.88300 42.20400 25.91000
C  43.37200 41.18700 25.21400
C  43.56100 41.62700 23.71100
C  42.93400 42.95400 23.62600
C  42.64200 43.26000 25.05700
C  45.06000 41.61500 23.18900
C  41.65400 42.98000 22.68100
C  40.23500 42.69600 23.33100
N  41.32100 44.03800 27.57200
C  41.45500 44.96800 26.52800
C  40.96700 46.27400 26.87100
C  40.56600 46.10100 28.22800
C  40.80200 44.72600 28.60000
C  40.91800 47.48300 25.97400
C  40.09700 46.75200 29.42900
O  39.86100 47.95900 29.61800
C  40.03800 45.71800 30.59700
C  40.90400 46.24400 31.68000
O  42.11100 46.51800 31.55000
O  40.08300 46.59500 32.84400
C  40.87900 47.35000 33.90700
H  42.97100 39.49100 31.43200
H  44.00300 39.31900 24.87700
H  42.03900 45.21600 24.58700
H  41.17200 43.67200 32.54400
H  40.99300 40.77800 32.61400
H  42.14800 41.95500 34.26700
H  43.17500 42.84300 33.21800
H  43.51600 41.13000 33.32200
H  38.95100 41.64400 32.67700
H  38.57600 43.13100 31.89900
H  38.09500 43.89700 33.78300
H  39.84900 43.92800 34.24400
H  45.23400 36.91700 30.02800
H  43.68800 36.21800 29.84300
H  44.00600 37.43600 31.11000
H  44.67700 35.36100 27.95800
H  46.12400 36.40300 27.96800
H  45.80300 35.25700 26.62500
H  42.94100 40.91900 23.16000
H  43.67700 43.68800 23.31400
H  45.32000 42.45000 22.53900
H  45.16800 40.71200 22.58700
H  45.81900 41.53800 23.96800
H  41.82000 42.56500 21.68700
H  41.46600 44.01400 22.39200
H  40.36100 42.37100 24.36300
H  39.75400 41.95400 22.69400
H  39.50100 43.50100 23.29400
H  40.43000 47.39300 25.00300
H  41.93800 47.79900 25.75500
H  40.47300 48.28500 26.56300
H  38.98800 45.64100 30.88100
H  41.27500 48.32700 33.62900
H  41.60600 46.71900 34.41800
H  40.20100 47.66000 34.70300
Mg 28.55700 58.42600 42.33400
C  25.85700 56.75100 40.84400
C  30.65000 56.64500 40.19100
C  31.06400 60.72900 42.69800
C  26.34600 60.47200 43.88100
N  28.23700 57.01700 40.62700
C  27.04800 56.38500 40.24800
C  27.27900 55.31800 39.18200
C  28.79700 55.06900 39.29800
C  29.31200 56.35600 40.03000
C  29.29800 53.72700 40.07200
C  26.90000 55.73500 37.74700
C  26.04700 54.72100 37.09000
H  26.43800 54.31100 35.62500
N  30.71700 58.48000 41.87600
C  31.33700 57.63200 40.97900
C  32.74900 57.89300 40.94500
C  32.85900 59.11400 41.67900
C  31.49700 59.51000 42.09100
C  33.76100 57.04200 40.20000
C  34.17900 59.83500 41.90600
O  35.24900 59.48700 41.32600
C  34.19900 60.98700 42.86400
N  28.66400 60.33100 43.18400
C  29.77000 61.07600 43.22100
C  29.52200 62.39000 44.04700
C  28.07600 62.12600 44.68900
C  27.63100 60.96000 43.82200
C  30.64000 62.81400 45.02300
C  27.11900 63.30100 44.50400
C  26.20300 63.64200 45.70500
N  26.44800 58.49200 42.48400
C  25.68500 59.46700 43.06500
C  24.28900 59.17500 42.91500
C  24.29000 57.99000 42.15000
C  25.64800 57.71800 41.83100
C  23.06800 59.89100 43.46900
C  23.48900 56.93300 41.56900
O  22.28000 56.63000 41.67300
C  24.48300 56.14600 40.58700
C  24.44500 54.67100 40.89900
O  24.89400 54.19800 41.97000
O  23.88800 53.99400 39.88100
C  23.74000 52.52600 40.27300
H  31.27200 55.91400 39.67000
H  31.75700 61.57000 42.77800
H  25.64500 61.07700 44.46000
H  26.75400 54.41200 39.48400
H  29.35700 55.14900 38.36600
H  30.04000 53.99500 40.82400
H  29.80400 53.17800 39.27800
H  28.53000 53.14500 40.58100
H  27.75000 55.93200 37.09400
H  26.29700 56.63500 37.87600
H  25.03400 55.12100 37.05700
H  26.07100 53.79400 37.66400
H  34.57200 56.68000 40.83100
H  34.20100 57.62300 39.39000
H  33.26300 56.15400 39.81000
H  33.79300 61.88300 42.39500
H  35.22900 61.12000 43.19600
H  33.57300 60.69200 43.70600
H  29.39500 63.22300 43.35500
H  28.19400 61.98900 45.76400
H  30.18400 62.83000 46.01200
H  30.93800 63.81000 44.69400
H  31.38500 62.02200 44.95200
H  26.46000 63.25100 43.63700
H  27.75300 64.18000 44.38800
H  26.81000 64.28800 46.34000
H  25.79800 62.86000 46.34800
H  25.25000 64.01900 45.33300
H  22.72900 59.38400 44.37200
H  22.31000 59.88300 42.68600
H  23.27400 60.91700 43.77300
H  24.23500 56.16900 39.52600
H  24.66900 51.99700 40.05600
H  23.01800 52.04800 39.61000
H  23.35900 52.42200 41.28900

