158

Mg 9.08100 3.76300 28.09700
C  10.55100 2.63300 31.04800
C  7.63700 6.29700 30.06700
C  7.38100 4.86100 25.40200
C  10.60800 1.23200 26.32600
N  8.99100 4.38300 30.36700
C  9.69000 3.75300 31.26800
C  9.48600 4.27300 32.70900
C  8.41900 5.33700 32.39700
C  8.33100 5.33900 30.86400
C  7.05300 5.13300 33.09800
C  10.79300 4.87100 33.32000
C  11.27000 4.34700 34.73400
H  11.81500 5.53200 35.64400
N  7.62300 5.24500 27.79900
C  7.20500 6.22100 28.69500
C  6.31600 7.15500 27.99600
C  6.18200 6.61400 26.69100
C  7.07000 5.51800 26.57600
C  5.52200 8.21500 28.67300
C  5.26100 7.07300 25.55000
O  5.04200 6.41100 24.59200
C  4.38100 8.27700 25.81300
N  8.68100 2.84800 26.19300
C  8.17500 3.67800 25.24500
C  8.65100 3.22500 23.79800
C  9.66600 2.15500 24.10800
C  9.67800 2.02700 25.64300
C  7.47100 2.86800 22.83800
C  11.14400 2.53900 23.57700
C  12.08400 1.33600 23.25900
N  10.21000 2.21300 28.57000
C  10.78900 1.26800 27.74400
C  11.60900 0.36000 28.55100
C  11.55200 0.87500 29.83200
C  10.68600 1.98400 29.85600
C  12.42800 -0.69300 28.03700
C  12.03000 0.63000 31.15700
O  12.83600 -0.27600 31.56000
C  11.40400 1.81500 32.06100
C  10.66900 1.17300 33.23500
O  9.48500 0.93700 33.31500
O  11.59500 0.68000 34.09600
C  11.10200 -0.02500 35.27400
H  7.15300 6.96100 30.78700
H  6.96600 5.15200 24.43500
H  11.19900 0.43000 25.87800
H  9.04100 3.48900 33.32200
H  8.75800 6.34400 32.64100
H  6.69800 6.14500 33.29500
H  7.32300 4.64400 34.03400
H  6.39100 4.57000 32.43900
H  10.75000 5.96000 33.34800
H  11.59200 4.58200 32.63700
H  12.00700 3.57900 34.50200
H  10.54100 3.68600 35.20200
H  4.49800 7.90300 28.88000
H  5.58000 9.10800 28.05100
H  6.03400 8.36000 29.62400
H  3.82100 8.55900 24.92000
H  4.91000 9.22800 25.85800
H  3.75200 8.12400 26.69000
H  9.16600 4.07300 23.34700
H  9.40700 1.15300 23.76500
H  6.53200 3.22900 23.25700
H  7.38900 1.78200 22.79200
H  7.58400 3.25800 21.82600
H  11.68500 3.19100 24.26300
H  11.02500 3.06000 22.62700
H  12.38600 1.46700 22.22000
H  11.67300 0.33700 23.40000
H  12.90200 1.38500 23.97800
H  12.46700 -1.51400 28.75300
H  13.35000 -0.33600 27.57900
H  11.80600 -1.11000 27.24500
H  12.26600 2.29800 32.52100
H  10.68000 -0.90300 34.78500
H  10.29100 0.59400 35.65800
H  11.90100 -0.34600 35.94300
Mg 40.21100 8.13800 28.80900
C  42.08800 9.35100 31.64700
C  38.33400 6.30100 31.15600
C  38.62400 6.65600 26.25800
C  42.41900 9.56400 26.72000
N  40.24600 7.81200 31.17200
C  40.97600 8.58000 32.03100
C  40.48900 8.35800 33.51000
C  39.35200 7.27900 33.30800
C  39.24200 7.11400 31.78500
C  39.60600 5.88100 33.98900
C  40.01600 9.66000 34.25100
C  39.60600 9.51900 35.72000
H  40.40200 10.42100 36.64500
N  38.61800 6.73600 28.71000
C  38.00800 6.09000 29.81000
C  37.02300 5.18700 29.24900
C  37.04800 5.25500 27.78400
C  38.11600 6.25600 27.50600
C  36.12000 4.40400 30.03100
C  36.17400 4.61200 26.70900
O  36.38100 4.84400 25.54200
C  35.17300 3.56900 27.06800
N  40.42000 8.17200 26.76600
C  39.71900 7.48500 25.88900
C  40.04500 7.87000 24.45100
C  41.21800 8.91800 24.66800
C  41.35200 8.91700 26.12000
C  40.42200 6.78800 23.47000
C  40.98600 10.30600 24.06600
C  40.20900 11.46500 24.86600
N  41.96400 9.14600 29.10600
C  42.78800 9.75900 28.12200
C  43.84200 10.45600 28.78400
C  43.52900 10.39600 30.15500
C  42.41000 9.56500 30.30000
C  45.05500 11.12300 28.17900
C  44.06600 10.81900 31.41600
O  45.08200 11.44600 31.66000
C  43.13800 10.12100 32.46600
C  43.94400 9.19300 33.39000
O  44.70300 8.32300 33.03800
O  43.59000 9.41100 34.68600
C  44.44500 8.69200 35.60200
H  37.59000 5.93900 31.86900
H  38.14200 6.28900 25.34900
H  43.08700 10.05900 26.01200
H  41.32100 7.98700 34.10900
H  38.35500 7.62100 33.58700
H  39.68400 5.12300 33.21000
H  38.70500 5.64200 34.55400
H  40.47200 5.79300 34.64600
H  39.11400 9.98200 33.73100
H  40.78500 10.41000 34.06600
H  39.82500 8.51800 36.09100
H  38.53300 9.69600 35.80300
H  36.10900 4.44700 31.12000
H  36.32600 3.35600 29.81200
H  35.10200 4.63900 29.72100
H  34.19700 3.86300 27.45400
H  35.57100 2.89000 27.82200
H  35.13200 3.04000 26.11600
H  39.19700 8.41900 24.04100
H  42.11600 8.50800 24.20600
H  41.03200 7.28700 22.71600
H  39.59400 6.23900 23.02100
H  41.05700 6.05600 23.96800
H  40.47900 10.19200 23.10700
H  41.98500 10.65600 23.80700
H  39.51700 11.91000 24.15200
H  40.84100 12.24000 25.30000
H  39.52500 11.07900 25.62200
H  44.83100 11.43700 27.15900
H  45.90900 10.45000 28.25300
H  45.16900 12.01200 28.79900
H  42.76100 10.94000 33.07700
H  43.94900 8.75400 36.57100
H  45.48500 9.01300 35.64500
H  44.44100 7.62100 35.40300

