158

Mg 5.79000 53.64000 40.65400
C  4.90000 50.26900 40.64500
C  9.08700 52.46000 39.95200
C  6.69000 56.86000 39.79500
C  2.51800 54.52000 40.86500
N  6.81600 51.60500 40.39500
C  6.23700 50.35600 40.32800
C  7.19300 49.26100 39.80000
C  8.57500 49.97500 40.08800
C  8.15700 51.43600 40.18600
C  9.24300 49.57200 41.39400
C  6.93200 48.85200 38.33000
C  6.91400 49.94200 37.26700
H  5.89400 49.87500 36.19800
N  7.62400 54.55600 40.06400
C  8.86000 53.88100 39.92900
C  9.79200 54.88300 39.59800
C  9.17600 56.10800 39.48000
C  7.77800 55.93100 39.77700
C  11.31900 54.53900 39.51800
C  9.93100 57.36400 39.21900
O  11.07800 57.33500 38.79500
C  9.29900 58.77300 39.39200
N  4.77600 55.39900 40.28300
C  5.33600 56.62100 40.07600
C  4.29500 57.80800 40.16700
C  2.94600 57.00100 40.41500
C  3.41400 55.53200 40.50700
C  4.72600 58.79500 41.39200
C  1.87200 57.41300 39.26800
C  1.83200 56.58300 38.00900
N  4.04200 52.66900 41.11300
C  2.71700 53.07600 41.07300
C  1.80600 52.03300 41.41800
C  2.60100 50.87100 41.35600
C  3.96700 51.32100 41.07300
C  0.34900 52.26800 41.85500
C  2.64800 49.43400 41.44300
O  1.82000 48.68500 41.75900
C  4.08500 48.98600 40.95700
C  3.92200 48.11400 39.78400
O  3.54600 48.48400 38.66700
O  4.40700 46.83600 40.02100
C  4.29600 45.86500 38.93200
H  10.08800 52.07200 39.75400
H  7.00700 57.90200 39.88000
H  1.47700 54.76900 41.08200
H  7.12000 48.43300 40.50500
H  9.20200 49.77000 39.22100
H  8.90300 48.60000 41.75200
H  8.93200 50.27400 42.16800
H  10.30700 49.55000 41.16100
H  5.97000 48.35800 38.19300
H  7.69500 48.10700 38.10400
H  7.91200 49.91100 36.83000
H  6.79400 50.88500 37.80000
H  11.75500 53.74000 40.11700
H  11.98500 55.31300 39.90000
H  11.67900 54.34900 38.50700
H  9.99500 59.55500 39.08800
H  8.97000 59.04700 40.39400
H  8.50000 58.80700 38.65100
H  4.24700 58.41100 39.26000
H  2.44700 57.34000 41.32400
H  3.85200 58.92800 42.03000
H  5.10900 59.73500 40.99600
H  5.57700 58.47300 41.99300
H  1.93400 58.43900 38.90500
H  0.90000 57.21300 39.71900
H  2.56300 55.77700 37.94900
H  1.94100 57.13400 37.07600
H  0.90700 56.00800 38.06200
H  -0.14400 53.02200 41.24200
H  0.36700 52.76700 42.82300
H  -0.10800 51.27900 41.90000
H  4.58600 48.42500 41.74600
H  5.25400 45.34700 38.87000
H  3.87900 46.33000 38.03900
H  3.49100 45.19900 39.24200
Mg -11.80700 37.49600 41.85700
C  -9.31700 35.15400 40.92400
C  -9.65000 39.98700 40.62200
C  -14.33100 39.47300 42.11500
C  -13.81400 34.82100 42.95400
N  -9.72700 37.49000 40.90100
C  -8.92800 36.45400 40.60600
C  -7.65900 36.94400 39.92300
C  -7.59400 38.52800 40.15700
C  -9.05000 38.70300 40.65100
C  -6.50500 39.00100 41.13500
C  -7.66300 36.53300 38.42100
C  -6.40600 35.79500 37.84600
H  -5.90900 36.25900 36.45300
N  -12.01700 39.44300 41.41600
C  -11.02600 40.33900 40.91700
C  -11.71200 41.59000 40.74800
C  -12.99800 41.50100 41.29200
C  -13.12500 40.11500 41.64500
C  -10.99500 42.81000 40.16900
C  -14.05700 42.58400 41.27200
O  -13.77700 43.70200 40.97200
C  -15.47300 42.27900 41.63500
N  -13.86900 37.15700 42.29900
C  -14.68100 38.18800 42.38600
C  -15.98000 37.79600 43.00400
C  -15.85000 36.28200 43.33800
C  -14.44900 36.03300 42.87000
C  -16.47900 38.68500 44.17700
C  -16.85700 35.32400 42.62500
C  -17.71800 34.42400 43.54200
N  -11.62700 35.51600 41.94300
C  -12.49400 34.55800 42.50000
C  -11.95300 33.24600 42.43300
C  -10.78000 33.45100 41.74500
C  -10.53700 34.88000 41.57600
C  -12.47400 31.92500 42.91200
C  -9.47000 32.80000 41.27200
O  -9.14900 31.62800 41.24300
C  -8.60400 33.82700 40.70200
C  -7.32700 33.64600 41.40100
O  -6.46100 32.88100 41.03400
O  -7.28000 34.54100 42.47100
C  -5.98200 34.45800 43.13900
H  -9.07900 40.77100 40.12000
H  -15.25900 40.04100 42.20300
H  -14.48800 34.03400 43.30000
H  -6.85900 36.39500 40.41900
H  -7.40400 39.03500 39.21100
H  -5.58400 38.42900 41.01800
H  -6.72600 38.89500 42.19700
H  -6.28900 40.04300 40.90100
H  -8.05500 37.42900 37.94000
H  -8.47600 35.80800 38.39200
H  -6.66100 34.73600 37.88100
H  -5.51900 35.86100 38.47600
H  -11.44300 43.05500 39.20700
H  -9.92500 42.61900 40.07900
H  -11.09100 43.67100 40.83100
H  -16.00900 43.22800 41.61900
H  -15.62000 41.95500 42.66600
H  -15.95800 41.63300 40.90400
H  -16.67800 37.84800 42.16800
H  -15.61500 36.04300 44.37500
H  -17.44000 39.03800 43.80200
H  -15.76800 39.48200 44.39200
H  -16.68700 38.01700 45.01200
H  -16.29300 34.65500 41.97600
H  -17.66200 35.82700 42.09000
H  -18.77500 34.69000 43.54600
H  -17.31300 34.76500 44.49400
H  -17.47800 33.36200 43.48200
H  -11.76000 31.37500 43.52500
H  -12.79900 31.36800 42.03400
H  -13.27200 32.08400 43.63700
H  -8.47400 33.64600 39.63500
H  -5.28000 34.61200 42.32000
H  -5.87200 33.43600 43.50300
H  -6.07300 35.13700 43.98600

