158

Mg 46.14700 24.94400 29.24800
C  46.72000 27.37200 31.66700
C  45.49600 22.70600 31.65400
C  45.93700 22.77700 26.77500
C  47.41400 27.43600 26.76200
N  46.10700 25.01800 31.31000
C  46.34000 26.11900 32.14000
C  46.01200 25.90600 33.57200
C  45.69200 24.37300 33.55000
C  45.76800 23.99100 32.04600
C  46.54400 23.50900 34.49800
C  44.99500 26.78100 34.28700
C  45.32200 27.36100 35.66400
H  44.20000 27.21600 36.76900
N  45.78600 22.98900 29.27200
C  45.38400 22.23300 30.32300
C  45.12900 20.89100 29.86100
C  45.25100 20.93700 28.40700
C  45.63700 22.30400 28.07600
C  44.73800 19.79000 30.82300
C  45.07400 19.79200 27.42500
O  45.16500 20.00200 26.18600
C  44.74600 18.33600 27.88500
N  46.70600 25.03300 27.00600
C  46.46100 23.97600 26.23100
C  46.95600 24.30200 24.76900
C  46.93600 25.87100 24.82200
C  47.07700 26.16300 26.27000
C  48.47300 23.78900 24.64100
C  45.57600 26.50000 24.22800
C  44.63000 27.35100 25.10800
N  46.92200 26.98000 29.13800
C  47.25400 27.87800 28.11100
C  47.68300 29.11000 28.74100
C  47.54400 29.00600 30.10700
C  47.02600 27.66100 30.32700
C  48.22500 30.26400 27.99900
C  47.64200 29.65900 31.40100
O  47.98400 30.80300 31.58800
C  47.14600 28.58500 32.47300
C  48.37500 28.30300 33.34300
O  49.21000 27.48500 33.05100
O  48.25600 28.99900 34.49600
C  49.28800 28.68200 35.49700
H  45.19900 22.04700 32.47300
H  45.84200 22.08800 25.93200
H  47.69200 28.08000 25.92500
H  46.86000 26.05600 34.24000
H  44.67200 24.17300 33.88000
H  46.68800 22.59600 33.92100
H  46.01800 23.34000 35.43800
H  47.48600 23.99400 34.75500
H  44.06000 26.24700 34.45700
H  44.76600 27.60700 33.61400
H  45.35600 28.42100 35.41500
H  46.27300 27.01300 36.06800
H  43.69800 19.53000 30.62400
H  44.92000 20.00300 31.87600
H  45.42100 18.98600 30.54900
H  44.70600 17.67500 27.01900
H  43.82300 18.32500 28.46500
H  45.49900 17.96600 28.58100
H  46.21100 23.88100 24.09300
H  47.82000 26.38400 24.44500
H  48.98700 24.33600 23.85200
H  48.38900 22.75700 24.29800
H  49.03400 23.77500 25.57500
H  45.03400 25.76200 23.63600
H  45.93700 27.17600 23.45300
H  43.58200 27.26100 24.82200
H  44.81000 28.42400 25.04400
H  44.64200 27.08200 26.16500
H  47.66300 31.17600 28.20200
H  48.12800 30.15500 26.91900
H  49.27600 30.44300 28.22400
H  46.36000 29.04100 33.07500
H  48.95000 27.82200 36.07500
H  49.32300 29.51200 36.20300
H  50.23800 28.46400 35.01000
Mg 6.38000 57.25500 42.16800
C  5.22900 53.94200 42.25100
C  9.23600 56.17800 40.97300
C  7.16500 60.47900 41.78000
C  3.09300 58.34100 43.12900
N  6.94100 55.27600 41.39700
C  6.44600 54.08400 41.55000
C  7.36400 52.98400 40.86800
C  8.71600 53.69000 40.94300
C  8.26100 55.18200 41.13000
C  9.65100 53.24400 42.15100
C  6.89900 52.66000 39.45100
C  7.53700 51.41800 38.92600
H  6.63700 50.56100 38.02800
N  7.96900 58.18800 41.33400
C  9.15500 57.59500 40.94100
C  10.05000 58.60700 40.38800
C  9.43000 59.87100 40.59500
C  8.10100 59.53200 41.30700
C  11.35200 58.16800 39.76700
C  10.09800 61.17200 40.17200
O  11.18500 61.20300 39.61000
C  9.56500 62.57300 40.66400
N  5.26100 59.15600 42.33900
C  5.87500 60.31600 42.24500
C  4.94600 61.47200 42.61700
C  3.53600 60.82000 42.64900
C  3.97200 59.35100 42.71200
C  5.37700 62.33000 43.79000
C  2.64500 61.11100 41.40500
C  1.09900 61.05200 41.61300
N  4.47300 56.32600 42.62600
C  3.29800 56.86600 43.14200
C  2.39200 55.74300 43.41300
C  3.21900 54.59200 43.26100
C  4.37800 54.98000 42.62600
C  0.96300 55.83900 43.87700
C  3.14900 53.14100 43.31000
O  2.37100 52.30600 43.78900
C  4.55100 52.68900 42.70200
C  4.37600 51.58200 41.71100
O  3.87300 51.62500 40.61500
O  4.92900 50.49400 42.31000
C  4.91800 49.20800 41.60100
H  10.25900 55.86400 40.75600
H  7.35500 61.55400 41.80100
H  2.08600 58.56000 43.48900
H  7.19000 52.22500 41.63000
H  9.30200 53.57900 40.03000
H  9.30600 52.26000 42.46900
H  9.67900 53.90800 43.01500
H  10.64200 53.09600 41.72400
H  7.21600 53.54700 38.90300
H  5.81400 52.57300 39.51000
H  8.03200 50.86300 39.72200
H  8.49100 51.73900 38.50800
H  11.19800 57.81100 38.74900
H  11.80600 57.30300 40.25000
H  12.12200 58.94000 39.74100
H  8.58800 62.61700 40.18300
H  10.09200 63.45500 40.30000
H  9.43200 62.55900 41.74500
H  4.90100 62.08600 41.71800
H  3.03100 61.12400 43.56600
H  6.33700 61.98100 44.17000
H  4.67100 62.31600 44.62000
H  5.43200 63.36900 43.46300
H  2.98300 60.49300 40.57300
H  2.85800 62.13600 41.10300
H  0.57500 60.51000 40.82500
H  0.56200 61.99200 41.48400
H  0.83200 60.64400 42.58800
H  0.33400 56.16300 43.04800
H  0.92100 56.66100 44.59100
H  0.67200 54.93900 44.41900
H  5.24400 52.36000 43.47600
H  5.81000 49.18000 40.97500
H  4.10900 48.88400 40.94500
H  4.92000 48.41600 42.34900

