158

Mg 16.05100 52.23300 26.17400
C  18.06400 51.02100 29.06100
C  13.77200 53.23600 28.63500
C  14.49200 53.63600 23.71100
C  18.75300 51.32700 24.14100
N  15.84900 51.97700 28.47900
C  16.84100 51.59000 29.47900
C  16.37400 51.82200 30.89400
C  14.90400 52.30600 30.72500
C  14.81700 52.54600 29.21200
C  13.82000 51.41600 31.35000
C  17.26800 52.87300 31.66000
C  17.37000 52.86200 33.16300
H  16.44000 51.90700 33.92300
N  14.18500 53.13200 26.14800
C  13.43300 53.50400 27.24100
C  12.28300 54.26900 26.66700
C  12.49100 54.43800 25.27200
C  13.76100 53.75700 24.99700
C  11.07000 54.70100 27.46600
C  11.71400 55.19400 24.22400
O  12.02500 55.27900 23.07400
C  10.34200 55.84800 24.58800
N  16.51300 52.36700 24.29100
C  15.72100 53.04800 23.37600
C  16.39500 53.31700 22.00700
C  17.81700 52.71600 22.22100
C  17.73400 52.13800 23.66700
C  15.72000 52.62200 20.77700
C  18.99000 53.77200 22.11200
C  20.32700 53.44900 21.43800
N  17.89700 51.17100 26.42500
C  18.86800 50.89900 25.49100
C  19.92800 50.18800 26.12700
C  19.70600 50.28400 27.52800
C  18.43400 50.84100 27.66000
C  21.15500 49.70900 25.33900
C  20.26600 49.88000 28.82000
O  21.23400 49.22900 29.13400
C  19.26500 50.54800 29.88200
C  19.14300 49.52400 30.98200
O  18.57000 48.44900 30.92400
O  19.65100 50.14400 32.07700
C  19.54900 49.25800 33.25500
H  13.04200 53.74700 29.26700
H  14.06200 54.16200 22.85600
H  19.56700 51.16100 23.43300
H  16.46000 50.81600 31.30400
H  14.69800 53.29800 31.12600
H  13.51700 50.66200 30.62300
H  13.01000 52.02100 31.75800
H  14.23700 50.89400 32.21200
H  17.14900 53.90900 31.34300
H  18.28800 52.68000 31.32600
H  17.10600 53.89100 33.41000
H  18.37300 52.59100 33.49100
H  11.11900 55.78600 27.55400
H  11.10700 54.32500 28.48800
H  10.13200 54.36500 27.02300
H  9.90500 56.12300 23.62800
H  10.48100 56.71900 25.22800
H  9.64000 55.05700 24.85000
H  16.35600 54.40000 21.88400
H  17.85900 51.88300 21.51900
H  16.44200 52.02400 20.22100
H  15.37400 53.32200 20.01700
H  14.93400 51.99900 21.20300
H  19.21300 54.16100 23.10500
H  18.57000 54.62300 21.57700
H  20.38400 52.37500 21.26400
H  21.11800 53.67700 22.15300
H  20.42900 53.99400 20.50000
H  21.90100 49.79400 26.12900
H  21.29400 50.31600 24.44500
H  20.99400 48.67300 25.04200
H  19.78200 51.45100 30.20800
H  20.32300 48.49400 33.17500
H  18.62400 48.68700 33.33800
H  19.63400 49.78800 34.20400
Mg -1.62200 34.95100 26.90600
C  -3.65000 33.06700 29.04400
C  -0.71500 36.99300 29.50200
C  -0.16300 37.05100 24.63000
C  -3.05100 33.29200 24.16200
N  -2.20300 35.10700 28.97700
C  -2.97800 34.12800 29.67600
C  -2.85300 34.42200 31.19800
C  -2.13700 35.86100 31.20000
C  -1.74600 36.06400 29.78500
C  -2.90700 37.06300 31.86000
C  -2.22400 33.30100 32.07600
C  -3.03300 32.48800 33.10000
H  -2.45400 32.42600 34.56000
N  -0.45500 36.75100 27.08900
C  -0.15800 37.32300 28.27300
C  0.71700 38.42600 27.99800
C  0.87000 38.49800 26.56100
C  0.07300 37.41600 25.99100
C  1.35500 39.27000 29.03900
C  1.73500 39.46800 25.74100
O  1.82500 39.45800 24.53400
C  2.39900 40.58800 26.48200
N  -1.49800 35.05500 24.66000
C  -0.89300 36.10800 23.96400
C  -1.20900 36.09800 22.49400
C  -2.01500 34.78100 22.35100
C  -2.18000 34.32300 23.82600
C  -1.94900 37.39400 22.08200
C  -1.41900 33.69000 21.42100
C  -0.48800 32.64200 21.97000
N  -2.91200 33.45400 26.60000
C  -3.50000 32.90800 25.43200
C  -4.43600 31.82400 25.77100
C  -4.53000 31.87000 27.21900
C  -3.58900 32.86800 27.66100
C  -5.09900 30.86100 24.82900
C  -5.20700 31.31800 28.36200
O  -6.16100 30.51600 28.36800
C  -4.51100 31.89800 29.55800
C  -5.67700 32.32200 30.44700
O  -6.20800 33.44500 30.50500
O  -5.97100 31.18700 31.19100
C  -6.97700 31.36200 32.21500
H  -0.31200 37.52800 30.36500
H  0.24300 37.77800 23.92400
H  -3.59800 32.66800 23.45200
H  -3.84500 34.59600 31.61300
H  -1.14600 35.74200 31.63800
H  -2.22300 37.66700 32.45700
H  -3.76700 36.74300 32.44900
H  -3.29600 37.70900 31.07200
H  -1.29300 33.60900 32.55100
H  -1.85200 32.58900 31.33900
H  -3.19400 31.45000 32.80900
H  -3.98200 33.02400 33.07800
H  1.36500 38.68300 29.95700
H  1.00200 40.30000 29.09200
H  2.41400 39.37000 28.80300
H  1.78900 41.16100 27.18100
H  2.74400 41.27000 25.70500
H  3.31700 40.19100 26.91500
H  -0.32000 36.19800 21.87100
H  -3.03100 34.84900 21.96000
H  -1.69400 38.21600 22.75100
H  -3.02700 37.41700 22.24000
H  -1.77500 37.71600 21.05500
H  -1.10100 34.13200 20.47700
H  -2.28200 33.14500 21.03900
H  -1.00800 31.70000 22.14300
H  -0.15200 32.96500 22.95600
H  0.40500 32.42300 21.38500
H  -5.40800 29.97500 25.38500
H  -4.37500 30.61400 24.05300
H  -5.95700 31.32100 24.33900
H  -4.03600 31.06900 30.08300
H  -6.66800 31.89000 33.11600
H  -7.42400 30.45500 32.62400
H  -7.77800 32.01700 31.87300

