158

Mg 45.95800 16.63600 27.13100
C  44.34100 16.38400 30.23200
C  48.31700 18.70600 28.55300
C  46.83800 17.67700 23.97600
C  43.15800 15.01500 25.74200
N  46.22200 17.52700 29.16700
C  45.54200 17.17300 30.29800
C  46.22000 17.70000 31.56800
C  47.40500 18.60500 30.93000
C  47.38600 18.19200 29.45800
C  47.17300 20.07600 31.20700
C  46.61100 16.70300 32.57700
C  46.74500 17.15600 34.10600
H  46.54700 18.64500 34.50900
N  47.50900 17.81700 26.33900
C  48.36600 18.55500 27.10100
C  49.35300 19.15500 26.23400
C  48.95200 18.87900 24.89400
C  47.70900 18.16700 25.00300
C  50.59700 19.97600 26.67300
C  49.54100 19.41400 23.63800
O  49.00100 19.20200 22.51600
C  50.79900 20.19500 23.61300
N  45.19900 16.31500 25.11700
C  45.70200 16.85000 23.98400
C  45.05300 16.34800 22.80000
C  44.09900 15.22400 23.42700
C  44.08100 15.65300 24.84000
C  44.41200 17.58700 22.07500
C  44.62700 13.73000 23.39100
C  43.68200 12.74800 22.63400
N  44.10700 15.85000 27.79800
C  43.16000 15.08900 27.15600
C  42.07700 14.70900 28.08200
C  42.51200 15.12200 29.30800
C  43.78500 15.80100 29.08900
C  40.73400 14.20500 27.65100
C  42.23800 15.21400 30.70200
O  41.21000 14.89000 31.34400
C  43.36800 16.06800 31.39600
C  42.76400 17.19000 32.31100
O  42.39700 18.28400 31.95800
O  42.72500 16.66900 33.57800
C  42.30700 17.57300 34.65500
H  49.18200 19.16200 29.03800
H  47.12400 17.78700 22.92800
H  42.48800 14.34600 25.19700
H  45.42700 18.28900 32.03000
H  48.34400 18.37900 31.43700
H  46.18700 20.11700 31.67000
H  47.13700 20.77100 30.36800
H  47.89800 20.30900 31.98600
H  47.59700 16.35000 32.27400
H  45.91700 15.86700 32.48200
H  47.78100 16.91400 34.34200
H  46.09600 16.52200 34.71000
H  51.47200 19.50100 26.22900
H  50.64200 20.10900 27.75400
H  50.57500 20.99700 26.29100
H  50.74800 21.14500 24.14500
H  50.81900 20.60200 22.60200
H  51.63100 19.52900 23.84100
H  45.73400 15.97600 22.03500
H  43.05400 15.18000 23.12100
H  44.55900 18.51400 22.62900
H  43.33200 17.44100 22.04300
H  44.72900 17.79900 21.05400
H  44.87700 13.31900 24.36900
H  45.54500 13.73100 22.80300
H  44.11200 12.50100 21.66300
H  42.71600 13.00000 22.19700
H  43.52300 11.83600 23.20900
H  40.63700 14.50900 26.60900
H  39.91200 14.72900 28.13800
H  40.70500 13.11800 27.72300
H  43.89300 15.37000 32.04800
H  42.86600 18.50800 34.62600
H  42.49700 17.07600 35.60600
H  41.22300 17.67600 34.61300
Mg 17.64000 52.64300 26.40100
C  19.69900 51.31800 28.92000
C  15.24500 53.29700 28.85200
C  15.81700 53.97300 24.07000
C  19.99100 51.80200 24.06400
N  17.49400 52.19100 28.72900
C  18.45000 51.69000 29.49700
C  18.13100 51.91100 31.00900
C  16.56200 52.19500 30.95300
C  16.35700 52.58000 29.40300
C  15.65500 51.02100 31.41500
C  19.10700 53.08200 31.56200
C  19.43000 52.96200 33.09500
H  18.52700 52.16500 34.13400
N  15.89200 53.61800 26.52500
C  14.99200 53.77200 27.49300
C  13.92400 54.64100 27.13100
C  13.98700 54.71800 25.72100
C  15.32700 54.07500 25.37500
C  12.89100 55.10300 28.15300
C  13.00000 55.32100 24.75400
O  13.24400 55.42300 23.58200
C  11.80900 56.09800 25.20500
N  18.01100 53.04300 24.31500
C  16.97000 53.43300 23.55700
C  17.32100 53.39400 22.02400
C  18.76100 52.83900 22.10700
C  18.98600 52.58400 23.60800
C  16.25300 52.50000 21.27400
C  19.88300 53.81500 21.46500
C  20.72700 54.69200 22.35300
N  19.40000 51.70400 26.41300
C  20.25600 51.40800 25.38200
C  21.46200 50.74200 25.89800
C  21.30300 50.71500 27.25900
C  19.99400 51.33500 27.50900
C  22.62500 50.27800 25.05900
C  21.89900 50.28200 28.48500
O  22.95200 49.72200 28.64100
C  20.91600 50.72000 29.61700
C  20.51700 49.63500 30.55100
O  20.10900 48.58500 30.20200
O  20.87100 49.98000 31.83800
C  20.64000 48.92600 32.76800
H  14.43200 53.45700 29.56400
H  15.14600 54.44000 23.34600
H  20.70700 51.52200 23.28900
H  18.30400 50.97400 31.53700
H  16.22700 53.03900 31.55600
H  14.73900 51.35200 31.90300
H  16.21000 50.47600 32.17900
H  15.47100 50.33300 30.58900
H  18.47400 53.95300 31.38900
H  19.93700 53.22100 30.87000
H  19.68900 53.96400 33.43600
H  20.41600 52.49600 33.10800
H  13.60000 55.30100 28.95600
H  12.21000 54.28100 28.37100
H  12.33800 56.00300 27.88200
H  11.17200 55.56800 25.91300
H  11.29500 56.47200 24.31900
H  12.22600 56.94000 25.75800
H  17.27500 54.41200 21.63800
H  18.78300 51.88200 21.58600
H  15.62400 52.00600 22.01400
H  16.81800 51.71000 20.77900
H  15.68500 53.01700 20.50000
H  19.39600 54.36200 20.65800
H  20.56800 53.15200 20.93600
H  20.73300 55.70500 21.95100
H  21.76800 54.38100 22.43300
H  20.36200 54.77600 23.37700
H  22.61400 49.20500 24.87000
H  23.54700 50.54900 25.57300
H  22.62600 50.79400 24.09800
H  21.43300 51.50900 30.16400
H  20.78500 49.28300 33.78800
H  21.27800 48.05700 32.61000
H  19.60300 48.59900 32.69200

