158

Mg 16.07200 -2.00500 27.73000
C  15.07800 0.35100 30.21500
C  18.00100 -3.48500 30.14800
C  17.13400 -3.94200 25.25200
C  14.34000 0.18600 25.31500
N  16.44300 -1.58900 29.92900
C  15.92500 -0.60900 30.75200
C  16.51800 -0.67200 32.13800
C  17.70900 -1.68500 32.00800
C  17.41600 -2.25200 30.57200
C  19.20100 -1.23000 32.31300
C  15.44200 -1.13100 33.11700
C  15.31400 -0.49500 34.51000
H  16.47200 0.35800 35.05000
N  17.28700 -3.62600 27.68700
C  17.95600 -4.12800 28.76300
C  18.62600 -5.31500 28.29100
C  18.49600 -5.36900 26.88000
C  17.61500 -4.32600 26.49800
C  19.42900 -6.07700 29.28700
C  19.20700 -6.33100 25.98400
O  18.89400 -6.33900 24.78900
C  20.36600 -7.13600 26.52600
N  15.99400 -1.83800 25.68800
C  16.50000 -2.78400 24.82100
C  16.24800 -2.35900 23.34000
C  15.32200 -1.14900 23.43700
C  15.22600 -0.89400 24.94900
C  17.59400 -2.08300 22.50100
C  13.92500 -1.35400 22.76200
C  13.63500 -0.36700 21.61500
N  14.92500 -0.20200 27.71900
C  14.25800 0.55300 26.66300
C  13.63200 1.66100 27.29000
C  13.85400 1.53000 28.66800
C  14.65000 0.40900 28.84400
C  13.06800 2.79200 26.49000
C  13.61500 2.28800 29.84200
O  12.86600 3.25800 30.04900
C  14.33500 1.47600 30.95400
C  15.17900 2.38600 31.72100
O  16.35000 2.49900 31.63100
O  14.40100 3.07800 32.56100
C  14.85500 4.11500 33.56300
H  18.78000 -3.84000 30.82600
H  17.53800 -4.50000 24.40400
H  13.93900 0.87400 24.56700
H  16.93200 0.31400 32.35100
H  17.44500 -2.57200 32.58400
H  19.68900 -1.70000 33.16700
H  18.99000 -0.19300 32.57700
H  19.92500 -1.26000 31.49900
H  15.62300 -2.20000 33.22800
H  14.53000 -0.94700 32.54800
H  15.02300 -1.19100 35.29600
H  14.44800 0.15100 34.36600
H  20.51000 -5.93100 29.28100
H  19.13500 -7.12200 29.19600
H  19.16900 -5.81000 30.31100
H  21.16400 -6.45700 26.82500
H  20.79000 -7.66600 25.67300
H  19.96000 -7.87400 27.21800
H  15.73700 -3.17100 22.82100
H  15.87500 -0.33400 22.97100
H  18.46200 -2.42800 23.06300
H  17.89300 -1.04200 22.37300
H  17.53200 -2.63800 21.56500
H  13.19800 -1.09000 23.52900
H  13.70900 -2.41300 22.61900
H  13.14400 -0.82500 20.75700
H  14.54500 0.00100 21.14100
H  13.04900 0.46300 22.01000
H  12.00000 2.58000 26.43600
H  13.58700 2.96700 25.54700
H  13.24800 3.80100 26.85900
H  13.65400 0.98800 31.65100
H  15.63300 4.74300 33.12800
H  15.08000 3.78600 34.57700
H  14.00100 4.76500 33.75800
Mg 49.30800 35.37300 28.34600
C  47.32900 34.01300 30.82400
C  49.68400 38.21100 30.22500
C  50.80300 36.91200 25.61400
C  48.60000 32.60100 26.27500
N  48.46100 36.06100 30.26700
C  47.83600 35.24800 31.17000
C  47.91300 35.92800 32.64600
C  48.33100 37.39800 32.29800
C  48.93300 37.23500 30.87800
C  47.17600 38.40400 32.30200
C  48.89900 35.15200 33.52100
C  49.82300 35.83600 34.60100
H  49.14500 36.39600 35.87800
N  50.14200 37.28700 27.97800
C  50.24600 38.25900 28.94500
C  50.80100 39.47800 28.35600
C  51.21900 39.18400 26.99500
C  50.72600 37.75200 26.80100
C  51.00400 40.74200 29.13100
C  51.89200 39.95900 25.89200
O  52.24800 39.46500 24.85100
C  52.27500 41.40700 26.10600
N  49.55500 34.85600 26.29500
C  50.37400 35.61900 25.42500
C  50.73500 34.80100 24.19100
C  50.34100 33.34200 24.51400
C  49.42000 33.61900 25.74700
C  50.02100 35.41500 22.92300
C  51.51000 32.28100 24.79400
C  51.55600 31.17800 23.70800
N  48.29800 33.63200 28.52100
C  48.07600 32.59000 27.61600
C  47.43600 31.51200 28.22500
C  46.97100 32.07000 29.47400
C  47.55800 33.37300 29.60300
C  47.13900 30.15300 27.64700
C  46.23400 31.77600 30.62800
O  45.62800 30.78400 30.93300
C  46.32500 33.05000 31.49000
C  46.71300 32.53900 32.83100
O  47.75900 32.08100 33.16800
O  45.69200 32.91400 33.66800
C  46.05600 32.88900 35.10400
H  49.95500 39.01700 30.90900
H  51.24100 37.32700 24.70400
H  48.57100 31.69100 25.67200
H  46.94000 35.85900 33.13400
H  49.13000 37.74300 32.95400
H  46.80900 38.31100 33.32400
H  46.45000 38.19800 31.51500
H  47.56900 39.40400 32.12200
H  49.49200 34.57400 32.81300
H  48.41300 34.48500 34.23400
H  50.31600 36.65900 34.08300
H  50.64600 35.18600 34.90100
H  51.02000 40.53700 30.20200
H  50.23700 41.45900 28.83600
H  51.95500 41.23300 28.92400
H  52.43500 41.96200 25.18100
H  53.00400 41.64900 26.87900
H  51.31100 41.81600 26.40600
H  51.82400 34.82100 24.18000
H  49.72800 33.06900 23.65500
H  49.67100 36.40800 23.20800
H  49.23900 34.82400 22.44700
H  50.74300 35.65500 22.14300
H  51.50800 31.99100 25.84500
H  52.48000 32.76900 24.69900
H  50.62800 31.06100 23.14900
H  51.64500 30.18600 24.15200
H  52.38700 31.37500 23.03000
H  47.90700 29.47800 28.02300
H  47.20600 30.15800 26.55900
H  46.13900 29.91800 28.01100
H  45.29000 33.38200 31.56800
H  47.03500 33.35300 35.22100
H  45.92900 31.85800 35.43500
H  45.38300 33.52400 35.67900

