158

Mg 35.19000 2.13100 28.86100
C  33.08500 3.19300 31.52500
C  37.80500 2.15600 31.23900
C  37.24200 1.49100 26.54200
C  32.53800 2.52300 26.67800
N  35.39800 2.63100 31.07300
C  34.39600 2.92500 31.92300
C  34.93900 3.00700 33.39700
C  36.45200 2.96500 33.26700
C  36.60900 2.65300 31.73500
C  37.13100 4.31100 33.65800
C  34.30000 1.82300 34.22700
C  34.09700 1.97500 35.75000
H  34.80100 3.04600 36.55500
N  37.20700 1.86400 28.85900
C  38.14900 1.84000 29.88300
C  39.42400 1.39600 29.42900
C  39.29600 1.30300 27.99900
C  37.85600 1.53500 27.75700
C  40.65500 1.04800 30.31200
C  40.38000 1.13000 26.98500
O  40.09400 1.19400 25.80200
C  41.82500 1.18700 27.48400
N  34.92000 2.07800 26.86900
C  35.93600 1.72300 26.12700
C  35.51100 1.44200 24.58700
C  33.94400 1.64500 24.67400
C  33.78900 2.14900 26.13500
C  36.22300 2.28200 23.54300
C  33.04200 0.41400 24.36000
C  32.91300 -0.81500 25.34200
N  33.18000 2.58600 29.00100
C  32.18400 2.72900 28.01200
C  30.94200 3.07400 28.59200
C  31.22700 3.28200 29.92700
C  32.61300 3.00500 30.15500
C  29.63800 3.22300 27.74500
C  30.68300 3.69900 31.25200
O  29.59600 4.04900 31.64900
C  31.82100 3.44900 32.31600
C  31.78500 4.57600 33.18400
O  32.36400 5.63800 32.95200
O  31.14000 4.18000 34.38900
C  31.29800 5.25100 35.35500
H  38.60400 2.15400 31.98400
H  37.72200 1.15300 25.62200
H  31.77900 2.60600 25.89700
H  34.47500 3.90800 33.79900
H  36.90200 2.24900 33.95400
H  38.00500 4.50600 33.03700
H  37.43100 4.29300 34.70500
H  36.28300 4.99500 33.61900
H  34.82900 0.87100 34.18600
H  33.27300 1.62400 33.92100
H  34.09500 0.96300 36.15500
H  33.07700 2.35700 35.76500
H  40.86700 0.00100 30.09600
H  40.49400 1.06700 31.39000
H  41.51600 1.68200 30.09600
H  42.50200 1.40900 26.66000
H  42.13000 0.33100 28.08700
H  41.82100 2.09900 28.08100
H  35.65900 0.38700 24.35800
H  33.58500 2.38600 23.95900
H  36.58100 1.62000 22.75500
H  37.07700 2.86500 23.88700
H  35.57700 3.02100 23.06800
H  33.45900 -0.01300 23.44800
H  32.07100 0.86800 24.16000
H  33.50000 -0.61200 26.23800
H  33.37300 -1.60400 24.74700
H  31.86500 -1.04700 25.52800
H  28.93500 2.45300 28.06400
H  29.88200 3.00900 26.70400
H  29.38200 4.25500 27.98400
H  31.39000 2.66800 32.94300
H  31.06600 6.26000 35.01300
H  32.30400 5.19900 35.77000
H  30.61900 5.14300 36.20100
Mg -10.64700 17.75300 43.42400
C  -7.14300 17.20000 43.26000
C  -9.92400 21.07900 42.47500
C  -13.86200 18.31500 43.05800
C  -11.13800 14.37600 43.77200
N  -8.71900 18.97500 42.91900
C  -7.42100 18.53900 43.03000
C  -6.40500 19.63400 42.64800
C  -7.37000 20.93900 42.62400
C  -8.79700 20.29600 42.65500
C  -7.12000 22.00500 43.79400
C  -5.41700 19.34200 41.42900
C  -5.78300 18.29600 40.37600
H  -5.65100 18.71700 38.88300
N  -11.77000 19.51000 42.72500
C  -11.31200 20.77200 42.45400
C  -12.41700 21.58200 42.14900
C  -13.56200 20.81600 42.37800
C  -13.07300 19.47700 42.70400
C  -12.23400 23.06400 41.75500
C  -15.03200 21.28100 42.27200
O  -15.33400 22.47300 42.03800
C  -16.18600 20.44400 42.60200
N  -12.33800 16.50300 43.28700
C  -13.57800 17.00600 43.37200
C  -14.58400 15.97300 43.85100
C  -13.71600 14.67400 43.72200
C  -12.30000 15.16000 43.47900
C  -15.22400 16.26600 45.20500
C  -14.11300 13.69000 42.54900
C  -15.22900 12.69300 42.75500
N  -9.51500 16.09600 43.53300
C  -9.80900 14.80100 43.68200
C  -8.61300 13.98200 43.72500
C  -7.58300 14.90300 43.58100
C  -8.16100 16.17300 43.42200
C  -8.56900 12.41600 43.83800
C  -6.13400 15.02500 43.58600
O  -5.28100 14.15600 43.67700
C  -5.82700 16.52300 43.42700
C  -4.91600 17.00400 44.55700
O  -3.90200 17.70300 44.44100
O  -5.35900 16.48500 45.77600
C  -4.71400 16.99900 46.96400
H  -9.72700 22.12800 42.24400
H  -14.94900 18.36600 42.96500
H  -11.41100 13.33600 43.96200
H  -5.68800 19.69700 43.46600
H  -7.28100 21.38600 41.63400
H  -6.96000 22.96900 43.31000
H  -6.27300 21.79700 44.44900
H  -8.03100 21.97900 44.39100
H  -4.46300 19.10200 41.89800
H  -5.28600 20.27900 40.88700
H  -6.82600 18.07300 40.60200
H  -5.19200 17.38300 40.46000
H  -13.06500 23.46000 41.17300
H  -11.39700 23.11400 41.05800
H  -12.03800 23.70600 42.61400
H  -16.20100 20.29400 43.68200
H  -16.22900 19.55600 41.97200
H  -17.05800 20.99600 42.25200
H  -15.41300 15.93100 43.14400
H  -13.72400 14.15700 44.68200
H  -14.51800 16.65600 45.93900
H  -15.73900 15.40600 45.63300
H  -15.94300 17.07200 45.05900
H  -13.24300 13.09800 42.26300
H  -14.42400 14.25700 41.67100
H  -16.17000 12.98600 42.28800
H  -15.27700 12.78700 43.84000
H  -14.82300 11.72800 42.45300
H  -9.17100 12.05000 43.00600
H  -9.02300 12.02300 44.74700
H  -7.53800 12.07700 43.73300
H  -5.26800 16.61800 42.49600
H  -4.35000 18.01300 46.80200
H  -3.89800 16.37800 47.33400
H  -5.46600 17.12000 47.74400

