158

Mg -8.80400 40.45800 42.57900
C  -8.08200 36.97100 41.70700
C  -6.10200 41.35300 40.90000
C  -10.01500 43.52200 42.75300
C  -12.08600 39.16900 43.52000
N  -7.49700 39.28500 41.19400
C  -7.17700 37.91400 41.22400
C  -5.90100 37.61800 40.37900
C  -5.16900 39.02300 40.45900
C  -6.31900 39.96200 40.86000
C  -4.01700 39.20900 41.52500
C  -6.18300 37.03800 38.93900
C  -5.42700 35.76200 38.50900
H  -4.53400 35.81700 37.24700
N  -8.10700 42.27400 42.01600
C  -6.89800 42.41200 41.37500
C  -6.66400 43.82300 41.19100
C  -7.74800 44.53700 41.76000
C  -8.68000 43.47200 42.28900
C  -5.40800 44.26100 40.45400
C  -8.03000 46.04200 41.72400
O  -7.23400 46.77400 41.11500
C  -9.24200 46.62300 42.29700
N  -10.78200 41.16900 43.06100
C  -10.92100 42.51000 43.08100
C  -12.36500 42.90300 43.52400
C  -13.08200 41.50500 43.74500
C  -11.98100 40.54800 43.36800
C  -12.58900 43.85100 44.67700
C  -14.36100 41.25500 42.94100
C  -15.60900 40.58300 43.56500
N  -9.78900 38.48800 42.90900
C  -11.07100 38.19600 43.31200
C  -11.24800 36.75800 43.26300
C  -10.08400 36.26800 42.77500
C  -9.28200 37.33000 42.37800
C  -12.48700 36.08500 43.81100
C  -9.39300 35.03900 42.41200
O  -9.59000 33.84100 42.61900
C  -8.09000 35.53600 41.63500
C  -6.84000 35.00100 42.21800
O  -6.31100 35.37200 43.25500
O  -6.36400 33.98700 41.43700
C  -5.05700 33.50700 41.98900
H  -5.07000 41.60500 40.64800
H  -10.45600 44.49500 42.97900
H  -12.99100 38.70400 43.91600
H  -5.22100 36.93800 40.89200
H  -4.78000 39.18000 39.45300
H  -3.89800 38.31500 42.13800
H  -4.37000 39.89400 42.29600
H  -3.05900 39.49100 41.08700
H  -6.00400 37.86500 38.25100
H  -7.27200 37.01200 38.90100
H  -6.20100 35.03900 38.25200
H  -4.89900 35.35600 39.37100
H  -5.03500 45.13800 40.98300
H  -5.53700 44.65700 39.44700
H  -4.54400 43.60800 40.56900
H  -9.31700 47.71000 42.27000
H  -9.21500 46.26800 43.32700
H  -10.15000 46.34100 41.76300
H  -12.76400 43.37100 42.62400
H  -13.32600 41.39200 44.80100
H  -11.62000 44.24700 44.98000
H  -13.09000 43.39700 45.53200
H  -13.20000 44.71000 44.39600
H  -14.12700 40.76000 41.99900
H  -14.65800 42.20100 42.48700
H  -15.44200 40.47400 44.63700
H  -15.81300 39.60900 43.12100
H  -16.49400 41.21900 43.53200
H  -12.08300 35.11600 44.10300
H  -13.19800 36.05000 42.98500
H  -12.89400 36.59000 44.68700
H  -7.95500 35.13600 40.63000
H  -4.33200 34.30700 42.14400
H  -4.65300 32.94400 41.14700
H  -5.05700 32.83600 42.84700
Mg -5.25900 24.63800 26.47900
C  -3.64400 26.64000 28.86700
C  -6.13300 22.42700 28.90400
C  -6.97900 22.92500 24.14000
C  -4.01200 26.80500 23.95200
N  -5.16100 24.69700 28.60200
C  -4.54200 25.64800 29.41500
C  -4.71100 25.36400 30.92900
C  -5.35800 23.95200 30.83000
C  -5.49200 23.60600 29.31400
C  -4.36100 22.94200 31.42900
C  -5.60600 26.45200 31.61800
C  -5.17100 26.90100 32.99700
H  -4.65700 25.77100 33.99400
N  -6.38900 22.86800 26.52300
C  -6.54800 22.07700 27.59400
C  -7.30800 20.86100 27.18800
C  -7.52800 21.02700 25.80400
C  -6.92300 22.30700 25.39200
C  -7.67500 19.79200 28.26500
C  -8.23200 20.03800 24.84900
O  -8.40900 20.28800 23.67400
C  -8.95300 18.88300 25.44800
N  -5.49000 24.88000 24.34200
C  -6.28700 24.05900 23.62200
C  -6.09200 24.42600 22.07900
C  -5.24700 25.72100 22.10100
C  -4.79400 25.76700 23.52600
C  -5.36100 23.29400 21.29900
C  -5.95400 26.95900 21.53700
C  -5.21800 27.77900 20.48100
N  -4.09400 26.35600 26.37200
C  -3.58600 27.06800 25.32700
C  -2.82700 28.17500 25.83700
C  -2.87200 28.07700 27.21200
C  -3.57800 26.92000 27.48700
C  -2.14400 29.19100 24.98000
C  -2.36300 28.66200 28.44500
O  -1.69000 29.66700 28.63800
C  -2.85700 27.74000 29.57600
C  -1.63100 27.20200 30.24600
O  -0.67000 26.72800 29.65300
O  -1.73900 27.32700 31.61000
C  -0.67000 26.75400 32.34500
H  -6.34100 21.77000 29.75200
H  -7.53000 22.37300 23.37600
H  -3.64400 27.57500 23.27100
H  -3.75100 25.51300 31.42400
H  -6.32000 23.84700 31.33100
H  -3.87100 22.43300 30.59900
H  -4.89800 22.24300 32.07000
H  -3.57500 23.42600 32.00900
H  -6.62600 26.11200 31.79800
H  -5.66300 27.37700 31.04400
H  -5.98000 27.38900 33.54100
H  -4.28900 27.53300 32.89400
H  -8.76300 19.73500 28.23200
H  -7.30500 20.07500 29.25000
H  -7.07800 18.90400 28.05700
H  -8.25400 18.21000 25.94400
H  -9.62400 18.32900 24.79100
H  -9.50800 19.36000 26.25600
H  -7.11800 24.55100 21.73400
H  -4.26400 25.66900 21.63400
H  -5.49300 22.28200 21.68200
H  -4.28200 23.44800 21.30400
H  -5.76800 23.30900 20.28800
H  -6.25400 27.58400 22.37800
H  -6.86900 26.56800 21.09300
H  -5.98000 28.18000 19.81300
H  -4.45300 27.28700 19.88100
H  -4.74400 28.53300 21.11000
H  -2.81000 29.73800 24.31400
H  -1.41200 28.68300 24.35200
H  -1.69200 29.90300 25.67100
H  -3.50500 28.28100 30.26700
H  0.29600 26.75300 31.84000
H  -0.91400 25.73300 32.63900
H  -0.48200 27.39000 33.21000

