158

Mg 39.75600 9.98400 29.32500
C  41.86000 10.75600 32.09000
C  37.76000 8.20000 31.53700
C  37.84500 9.15000 26.85500
C  42.04300 11.41000 27.26100
N  39.83600 9.68500 31.55100
C  40.66000 10.22000 32.46200
C  40.10900 10.00500 33.86800
C  38.99600 8.99300 33.74000
C  38.82000 8.91500 32.19100
C  39.21500 7.58800 34.44200
C  39.65300 11.39000 34.55700
C  39.44300 11.40500 36.11400
H  40.55900 12.04300 36.92500
N  37.92700 8.91700 29.23300
C  37.26100 8.26100 30.20500
C  36.06200 7.65500 29.69700
C  36.03700 7.91600 28.29400
C  37.34300 8.65500 28.07300
C  35.06000 6.83100 30.51400
C  35.01800 7.51500 27.18600
O  35.29500 7.82600 26.01700
C  33.59200 7.06700 27.63700
N  39.91900 10.23300 27.34500
C  38.96600 9.85700 26.52000
C  39.23700 10.33300 25.06400
C  40.50200 11.22100 25.24500
C  40.88600 10.88800 26.71200
C  39.35800 9.17600 24.03800
C  40.28200 12.70800 24.99300
C  39.35600 13.40300 26.00700
N  41.62000 10.92000 29.52200
C  42.43800 11.37200 28.58100
C  43.73500 11.80200 29.21100
C  43.45400 11.65700 30.63800
C  42.24500 11.04700 30.73100
C  44.95200 12.30700 28.53400
C  43.95100 11.87000 31.99400
O  44.91200 12.48800 32.48300
C  43.01300 11.22300 32.95900
C  43.53200 10.16400 33.85000
O  43.61300 8.99900 33.53100
O  43.96600 10.61700 35.05200
C  44.61000 9.73400 36.03000
H  37.12700 7.62000 32.21200
H  37.29600 8.79600 25.98000
H  42.80600 11.86800 26.62700
H  40.85900 9.57600 34.53300
H  38.15500 9.57000 34.12400
H  40.16800 7.47600 34.95900
H  39.12200 6.75700 33.74300
H  38.49200 7.57600 35.25700
H  38.70200 11.78500 34.20100
H  40.40200 12.14300 34.30900
H  39.38900 10.35700 36.40700
H  38.52000 11.89600 36.42100
H  34.83200 5.91400 29.97000
H  34.12500 7.39000 30.49400
H  35.47500 6.59000 31.49300
H  33.24900 7.92100 28.22100
H  33.59800 6.27200 28.38200
H  32.95200 6.87900 26.77500
H  38.38800 10.96200 24.79700
H  41.37300 11.04900 24.61200
H  38.61300 9.29700 23.25100
H  39.28700 8.21100 24.54000
H  40.36300 9.11200 23.62100
H  39.73900 12.86000 24.06100
H  41.28500 13.13400 24.98400
H  38.87300 12.64600 26.62500
H  38.63400 14.03500 25.49000
H  39.99700 14.01100 26.64500
H  44.63300 12.77100 27.60100
H  45.67400 11.49900 28.41400
H  45.41800 13.07100 29.15600
H  42.61000 11.89600 33.71600
H  43.80400 9.88900 36.74700
H  45.58400 10.04100 36.41000
H  44.61200 8.71700 35.63700
Mg -6.13400 25.16400 25.42500
C  -4.79500 26.54900 28.25900
C  -8.11800 23.12800 27.31400
C  -7.03600 23.53300 22.54300
C  -4.01300 27.27700 23.44300
N  -6.17500 24.67100 27.52500
C  -5.66900 25.53000 28.51400
C  -6.38400 25.18500 29.90400
C  -7.22600 23.91600 29.55400
C  -7.18900 23.88800 28.08900
C  -6.65100 22.58100 30.18400
C  -7.19500 26.36200 30.45900
C  -6.93300 26.64600 32.01100
H  -6.40600 25.52400 32.88800
N  -7.51500 23.75700 24.98300
C  -8.24600 22.93500 25.87700
C  -9.26600 22.22000 25.11000
C  -8.92300 22.32000 23.69300
C  -7.71800 23.21800 23.73500
C  -10.42100 21.53500 25.80700
C  -9.54400 21.58600 22.47800
O  -9.10200 21.59600 21.34400
C  -10.82300 20.82300 22.50000
N  -5.60500 25.33600 23.23700
C  -6.11400 24.52500 22.24700
C  -5.44300 24.88900 20.93800
C  -4.50500 26.05000 21.22300
C  -4.75000 26.30700 22.68800
C  -4.72100 23.65400 20.32100
C  -4.75900 27.30800 20.29000
C  -3.62600 27.62700 19.36200
N  -4.64900 26.57600 25.73200
C  -3.97700 27.47300 24.89400
C  -3.20600 28.37500 25.68800
C  -3.53900 28.13600 26.99800
C  -4.35400 26.95900 26.97500
C  -2.34100 29.44700 25.10200
C  -3.23700 28.54000 28.35900
O  -2.50000 29.42600 28.79200
C  -4.08300 27.51500 29.20100
C  -3.01700 26.92400 30.04200
O  -2.15700 26.12700 29.66800
O  -3.13000 27.36700 31.30300
C  -2.13900 26.80200 32.19300
H  -8.98200 22.71400 27.83800
H  -7.34800 22.99000 21.64900
H  -3.50400 28.01900 22.82500
H  -5.56600 24.94500 30.58400
H  -8.26000 23.89300 29.89700
H  -6.04200 22.21500 29.35700
H  -7.34600 21.81100 30.51800
H  -6.10800 22.75800 31.11200
H  -8.23400 26.11200 30.24200
H  -7.15600 27.26400 29.84700
H  -7.83300 26.96300 32.53800
H  -6.12200 27.36200 32.14700
H  -11.10000 21.07900 25.08700
H  -11.01200 22.28800 26.32900
H  -10.13300 20.76500 26.52300
H  -10.78700 20.05000 23.26700
H  -11.03800 20.32900 21.55200
H  -11.64000 21.48100 22.79500
H  -6.24700 25.19200 20.26700
H  -3.45800 25.75800 21.14300
H  -5.28200 23.27700 19.46600
H  -4.56800 22.85200 21.04200
H  -3.74500 23.92200 19.91500
H  -5.10500 28.05500 21.00300
H  -5.51400 26.89700 19.62000
H  -3.27000 28.53400 19.85000
H  -4.08200 27.88500 18.40700
H  -2.89600 26.81900 19.40500
H  -2.85300 29.95900 24.28800
H  -1.34600 29.07700 24.85400
H  -2.14100 30.20300 25.86200
H  -4.70100 28.07200 29.90600
H  -1.17200 26.61600 31.72400
H  -2.51600 25.90700 32.68700
H  -1.98400 27.53400 32.98600

