158

Mg 0.89300 8.45700 25.69800
C  1.75000 10.40900 28.46200
C  1.12400 5.70800 27.63900
C  0.50000 6.57000 22.87000
C  1.23200 11.27700 23.71500
N  1.35000 8.05400 27.79300
C  1.56800 9.04500 28.78100
C  1.34700 8.40700 30.16500
C  1.47600 6.87900 29.89100
C  1.28600 6.85700 28.35400
C  2.83800 6.24600 30.20400
C  -0.03800 8.74500 30.85000
C  -0.15200 8.62500 32.40100
H  1.08000 8.25300 33.26400
N  0.78300 6.40600 25.28100
C  0.93400 5.42400 26.28400
C  0.75800 4.11900 25.60800
C  0.52100 4.29800 24.25400
C  0.59700 5.79000 24.03200
C  0.84100 2.84200 26.43900
C  0.34300 3.35500 23.10100
O  0.31100 3.74100 21.95300
C  0.25300 1.87600 23.40900
N  1.04200 8.82300 23.57100
C  0.68900 7.89200 22.66900
C  0.72500 8.42000 21.28900
C  0.83600 9.98700 21.48600
C  1.12500 10.07000 23.00800
C  1.75600 7.82000 20.32000
C  -0.39200 10.86000 21.03000
C  -1.52200 10.96400 21.98400
N  1.39300 10.38500 25.98100
C  1.36100 11.45200 25.09300
C  1.58200 12.72900 25.77100
C  1.73200 12.32000 27.10400
C  1.62100 10.93100 27.15700
C  1.74300 14.06100 25.19100
C  1.97600 12.86300 28.50300
O  2.25000 13.95300 28.90800
C  1.83300 11.54400 29.34500
C  3.01400 11.36700 30.23700
O  4.08000 11.02200 29.87200
O  2.63900 11.61600 31.54000
C  3.77300 11.50600 32.46500
H  1.03800 4.85600 28.31700
H  0.31600 6.06100 21.92100
H  1.13000 12.22000 23.17400
H  2.06900 8.68500 30.93300
H  0.62100 6.37200 30.33900
H  2.54500 5.61700 31.04500
H  3.50500 7.02600 30.57300
H  3.24800 5.53400 29.48800
H  -0.74000 7.96400 30.55900
H  -0.34400 9.70200 30.42700
H  -0.93900 7.92100 32.67100
H  -0.49500 9.60200 32.74000
H  -0.16300 2.45100 26.60400
H  1.38800 2.97700 27.37200
H  1.47800 2.13400 25.91000
H  -0.08900 1.26200 22.57600
H  -0.58300 1.82900 24.10800
H  1.16500 1.44400 23.82000
H  -0.28400 8.11100 21.01800
H  1.73600 10.49300 21.13600
H  2.44100 7.07900 20.73300
H  2.37400 8.69700 20.13000
H  1.28000 7.47500 19.40200
H  -0.60400 10.35100 20.09000
H  -0.04500 11.85800 20.76400
H  -1.53100 10.18500 22.74600
H  -2.40600 10.76700 21.37600
H  -1.59200 11.90700 22.52600
H  2.47200 14.03700 24.38100
H  1.98600 14.75000 26.00000
H  0.76000 14.39000 24.85400
H  1.03300 11.71400 30.06500
H  4.53600 12.27800 32.36200
H  4.11300 10.47300 32.39300
H  3.35400 11.62400 33.46400
Mg 10.27400 47.67900 26.66100
C  8.11300 47.95900 29.49300
C  12.89700 48.61300 28.47900
C  12.01900 47.43600 23.88300
C  7.21900 47.19900 24.79500
N  10.40800 48.31600 28.66800
C  9.48000 48.31100 29.69200
C  10.14600 48.55300 31.03700
C  11.50300 49.22100 30.60900
C  11.62800 48.70800 29.17000
C  11.70700 50.76500 30.72400
C  10.32200 47.26800 31.85600
C  10.27000 47.47800 33.36700
H  10.20700 46.22500 34.31500
N  12.24500 47.96400 26.24600
C  13.22600 48.26100 27.16800
C  14.50900 48.08300 26.46800
C  14.22200 47.78200 25.13900
C  12.76300 47.72900 25.02200
C  15.77100 48.27500 27.10700
C  15.14600 47.55400 24.05400
O  14.73300 47.40700 22.88300
C  16.65600 47.63100 24.18200
N  9.64400 47.55700 24.55200
C  10.61000 47.32500 23.62500
C  9.95000 47.03100 22.32000
C  8.44300 46.86500 22.60600
C  8.37100 47.14000 24.09500
C  10.29100 48.01600 21.16000
C  7.81100 45.52300 22.26700
C  6.30800 45.64100 21.92400
N  8.05400 47.58300 26.98800
C  6.99900 47.33800 26.19100
C  5.71700 47.32600 26.97500
C  6.13300 47.59800 28.23700
C  7.57000 47.62100 28.22000
C  4.30900 47.02500 26.39500
C  5.67600 47.87600 29.62800
O  4.56900 47.92900 30.17700
C  6.99700 47.82900 30.44000
C  7.15000 46.50800 31.10800
O  7.59300 45.48800 30.58700
O  6.72300 46.63500 32.38700
C  6.63700 45.39400 32.97700
H  13.76500 48.87600 29.08700
H  12.60800 47.18000 23.00000
H  6.32000 47.25500 24.17700
H  9.63300 49.24800 31.70300
H  12.30500 48.92900 31.28700
H  11.58800 51.22100 29.74100
H  12.65400 50.91700 31.24400
H  10.88300 51.17100 31.31100
H  11.32800 46.88600 31.68100
H  9.63100 46.48300 31.54800
H  9.31600 47.97500 33.54700
H  11.15100 48.07200 33.60900
H  15.81800 48.24400 28.19600
H  15.98500 49.33000 26.93800
H  16.59100 47.61800 26.81700
H  17.07100 47.66500 23.17400
H  16.84400 46.70800 24.73100
H  16.86300 48.55600 24.71800
H  10.36500 46.05700 22.06100
H  7.99700 47.77100 22.19700
H  10.75400 48.92600 21.53900
H  9.36900 48.32500 20.66600
H  10.91300 47.43300 20.48100
H  7.84300 44.74700 23.03100
H  8.32900 45.08500 21.41400
H  6.00900 46.66300 22.15700
H  5.70300 44.92900 22.48500
H  6.15500 45.54500 20.84900
H  3.87200 47.95700 26.03500
H  3.73300 46.49000 27.15000
H  4.47400 46.34700 25.55800
H  6.85000 48.51400 31.27500
H  6.27600 45.57700 33.98800
H  7.58800 44.86100 32.98300
H  5.82300 44.88200 32.46300

