158

Mg 49.47000 44.72600 42.93500
C  46.07800 45.44500 41.81100
C  49.03900 41.65700 41.94100
C  52.78000 44.58600 43.10600
C  49.66200 48.27600 43.60100
N  47.78800 43.78000 41.86600
C  46.52500 44.14600 41.53500
C  45.64500 43.05100 40.93800
C  46.59000 41.79000 41.13100
C  47.89100 42.41200 41.70600
C  45.95600 40.73400 42.05300
C  45.32400 43.37600 39.41400
C  44.44100 42.35800 38.63700
H  44.93600 41.71500 37.28400
N  50.71100 43.27300 42.65900
C  50.38100 42.00900 42.30300
C  51.50900 41.21600 42.30300
C  52.65100 42.02500 42.62900
C  52.11600 43.37100 42.80100
C  51.45700 39.79800 41.94500
C  54.03500 41.57600 42.70900
O  54.41400 40.38800 42.52300
C  55.24900 42.54500 43.18100
N  51.05300 46.22300 43.51400
C  52.33100 45.89400 43.43000
C  53.26500 47.09500 43.58200
C  52.24700 48.26200 43.96600
C  50.86900 47.56000 43.66100
C  54.73500 47.04100 44.30300
C  52.31900 49.54800 43.06200
C  51.90800 50.87900 43.63500
N  48.16800 46.49800 42.87200
C  48.38600 47.82300 43.26800
C  47.17800 48.60200 43.11400
C  46.33000 47.70600 42.50000
C  46.90300 46.44300 42.41500
C  47.02900 50.08800 43.48000
C  45.00000 47.59800 41.87500
O  44.19600 48.50300 41.72200
C  44.77700 46.09300 41.54700
C  43.69200 45.58500 42.31300
O  42.69300 45.07500 41.82000
O  43.86200 45.58800 43.65800
C  42.60400 45.20400 44.28800
H  48.91800 40.60200 41.69000
H  53.86100 44.45000 43.02900
H  49.69900 49.32300 43.91000
H  44.70100 42.94200 41.47100
H  46.94600 41.37500 40.18800
H  44.93500 40.98300 42.34000
H  46.56400 40.57900 42.94500
H  46.06900 39.84900 41.42700
H  46.26700 43.45600 38.87300
H  44.81600 44.34000 39.43100
H  43.44800 42.80200 38.56100
H  44.38700 41.48200 39.28400
H  51.09000 39.27500 42.82800
H  52.42800 39.40200 41.64700
H  50.76600 39.46100 41.17300
H  56.05900 41.83400 43.34100
H  55.11000 42.91800 44.19500
H  55.51400 43.26600 42.40700
H  53.65000 47.27200 42.57800
H  52.20300 48.56800 45.01100
H  55.00000 46.08800 44.76100
H  54.84500 47.88600 44.98300
H  55.57900 47.23200 43.64000
H  51.71900 49.43000 42.16000
H  53.33900 49.64900 42.69200
H  52.76500 51.53200 43.46800
H  51.62200 50.88300 44.68700
H  50.97400 51.09500 43.11600
H  47.23500 50.62800 42.55600
H  47.75000 50.30400 44.26900
H  45.99700 50.26200 43.78600
H  44.55900 46.15400 40.48100
H  41.86900 45.80400 43.75100
H  42.54000 45.36300 45.36400
H  42.53300 44.12200 44.18100
Mg 36.33200 49.75200 24.50600
C  36.49600 48.31000 27.69100
C  35.06500 52.64100 25.94800
C  35.47300 50.93400 21.37000
C  37.07900 46.61000 23.04100
N  35.69700 50.30100 26.65600
C  36.05000 49.66400 27.81600
C  35.96300 50.55500 29.04300
C  35.41600 51.86800 28.40800
C  35.34700 51.58800 26.91000
C  34.11900 52.54700 29.02300
C  37.33300 50.59100 29.91900
C  37.29400 50.61000 31.43100
H  35.89600 50.67600 32.17900
N  35.43600 51.58600 23.71900
C  35.04200 52.58100 24.53700
C  34.60200 53.69100 23.71400
C  34.56100 53.20600 22.34600
C  35.20400 51.84500 22.47200
C  34.19800 55.00000 24.23100
C  34.04200 53.83300 21.09200
O  34.10700 53.20400 20.05300
C  33.47300 55.24500 21.06400
N  36.24100 48.88800 22.50900
C  36.06500 49.64700 21.38700
C  36.29500 48.79900 20.15000
C  36.97500 47.47400 20.70700
C  36.71100 47.61600 22.13900
C  35.06400 48.50700 19.25500
C  38.46100 47.44900 20.23800
C  38.60300 46.40400 19.10800
N  36.80700 47.85500 25.14300
C  37.13700 46.68700 24.44300
C  37.40300 45.63700 25.42900
C  37.18400 46.21800 26.64000
C  36.81700 47.56100 26.50000
C  37.80700 44.11000 25.16200
C  37.13900 45.85600 28.05600
O  37.44200 44.80900 28.59100
C  36.75800 47.22400 28.77200
C  35.45700 46.95400 29.43700
O  34.39300 46.63000 28.90200
O  35.58500 47.24900 30.72600
C  34.42100 46.97700 31.46700
H  34.88700 53.56600 26.50100
H  35.36500 51.20500 20.31800
H  37.18600 45.65700 22.51800
H  35.11400 50.14600 29.59100
H  36.24800 52.56500 28.50900
H  33.78800 52.01000 29.91200
H  33.32700 52.54200 28.27500
H  34.09200 53.61700 29.22900
H  37.91500 51.47100 29.64700
H  37.85100 49.66700 29.66300
H  37.79500 51.49200 31.83100
H  37.90400 49.80500 31.84200
H  33.11500 54.97600 24.11000
H  34.57100 55.82900 23.63000
H  34.51500 55.19200 25.25600
H  32.88300 55.35500 20.15400
H  34.02000 56.18800 21.05600
H  32.67700 55.23800 21.81000
H  36.90100 49.35400 19.43400
H  36.43600 46.56800 20.43000
H  34.15100 48.49500 19.85100
H  35.29500 47.56100 18.76500
H  34.92400 49.31400 18.53600
H  39.04200 47.14300 21.10800
H  38.72900 48.47600 19.98800
H  38.68500 46.94800 18.16700
H  37.77500 45.69800 19.05400
H  39.51500 45.81600 19.21600
H  37.34500 43.32500 25.76100
H  38.89100 44.05700 25.05700
H  37.57000 43.91200 24.11700
H  37.57800 47.54700 29.41300
H  33.85100 46.11800 31.11300
H  33.69700 47.78500 31.56900
H  34.71600 46.71400 32.48300

