158

Mg 50.16900 45.16700 42.32600
C  46.83400 44.97600 41.13800
C  50.47100 41.70900 41.42200
C  53.55300 45.49100 42.39600
C  49.72200 48.54000 42.74100
N  48.81300 43.53800 41.48400
C  47.52500 43.73800 41.13400
C  46.87900 42.29900 40.73800
C  48.03200 41.29600 40.92500
C  49.20800 42.22700 41.31600
C  47.70600 40.20700 41.95300
C  46.34700 42.15300 39.26100
C  47.00100 42.99200 38.15500
H  47.02200 42.31200 36.67900
N  51.72000 43.77800 42.19400
C  51.68300 42.42000 41.76600
C  53.08000 41.90000 41.72900
C  53.93000 42.92200 42.28500
C  53.06600 44.13700 42.32400
C  53.46100 40.49500 41.31400
C  55.41700 42.85900 42.54200
O  55.93700 41.74100 42.48000
C  56.20900 43.90800 43.08700
N  51.43700 46.82300 42.49900
C  52.76000 46.71600 42.43300
C  53.44100 48.11200 42.62600
C  52.23200 49.05800 42.91100
C  51.06900 48.11000 42.72700
C  54.62300 48.16600 43.61800
C  52.18000 50.41900 41.99300
C  52.06800 51.79500 42.70100
N  48.50700 46.55200 42.15600
C  48.50400 47.91800 42.29100
C  47.23400 48.40700 41.97800
C  46.53400 47.29500 41.48000
C  47.38300 46.19400 41.58900
C  46.76600 49.90700 42.16600
C  45.26700 46.90300 40.93200
O  44.27100 47.55300 40.65700
C  45.39900 45.31700 40.79800
C  44.39100 44.86900 41.76900
O  43.27500 44.56800 41.43700
O  44.98200 44.72400 43.02100
C  43.98900 44.26000 44.00000
H  50.63600 40.65800 41.17400
H  54.61500 45.54500 42.15100
H  49.69800 49.63100 42.72000
H  46.04400 42.04000 41.38800
H  48.34500 40.71000 40.06100
H  48.21500 39.26400 41.75300
H  46.67400 39.90100 41.78400
H  48.08200 40.47700 42.94000
H  45.27500 42.33200 39.18200
H  46.36100 41.09000 39.01800
H  48.05100 43.19500 38.36400
H  46.49100 43.94500 38.01500
H  54.24800 40.47900 40.56000
H  52.56900 40.06800 40.85600
H  53.92800 39.92500 42.11600
H  56.48200 44.69000 42.38000
H  57.19800 43.55800 43.38000
H  55.66000 44.29500 43.94600
H  53.83700 48.26800 41.62200
H  52.13200 49.33300 43.96100
H  54.62400 47.34600 44.33700
H  54.53000 49.10900 44.15600
H  55.54300 48.10200 43.03700
H  51.36600 50.33200 41.27300
H  53.10900 50.37700 41.42400
H  53.01200 52.27400 42.43800
H  51.95200 51.71700 43.78200
H  51.16400 52.33300 42.41700
H  46.43600 49.96900 43.20300
H  45.98100 50.24900 41.49200
H  47.66700 50.51200 42.06400
H  45.18600 44.98900 39.78000
H  43.29100 45.08600 44.13700
H  44.41400 43.93600 44.94900
H  43.38500 43.40800 43.68900
Mg 1.53600 42.01600 26.28000
C  3.78700 41.98900 29.12600
C  -0.99600 41.35700 28.36300
C  -0.14800 41.40900 23.57000
C  4.56900 42.08400 24.36200
N  1.44600 41.85900 28.50500
C  2.41000 41.92700 29.43900
C  1.76800 41.80300 30.81900
C  0.32000 41.27100 30.51000
C  0.23200 41.56700 29.05400
C  0.06600 39.77600 30.87100
C  1.84900 43.08800 31.72700
C  2.21200 42.91600 33.19200
H  1.80600 41.62400 33.86600
N  -0.29900 41.52100 26.05100
C  -1.24700 41.36000 26.99100
C  -2.51900 41.05200 26.40600
C  -2.24800 40.91400 24.98100
C  -0.85000 41.29100 24.78800
C  -3.82800 40.98800 27.20800
C  -3.25800 40.55300 23.94600
O  -3.02700 40.59900 22.73600
C  -4.61400 40.22400 24.45100
N  2.12700 41.93200 24.23300
C  1.17900 41.81600 23.28800
C  1.85500 41.96400 21.90600
C  3.28700 42.47600 22.25200
C  3.39000 42.10300 23.72400
C  1.85700 40.59200 21.17500
C  3.57100 44.01000 22.00000
C  4.58500 44.39500 20.93100
N  3.75200 41.99200 26.64500
C  4.80800 42.08400 25.73400
C  6.13200 42.24800 26.39600
C  5.77500 42.20100 27.76600
C  4.33400 42.07200 27.81000
C  7.46900 42.33000 25.78600
C  6.28300 42.19600 29.06900
O  7.40200 42.28100 29.46300
C  4.95400 42.21600 30.02200
C  5.18100 41.21100 31.09400
O  4.94900 39.97600 30.97800
O  5.62000 41.81600 32.19200
C  6.11500 40.88700 33.21800
H  -1.80000 40.97300 28.99400
H  -0.74000 41.20900 22.67500
H  5.43900 42.29100 23.73600
H  2.36100 41.04800 31.33600
H  -0.46000 41.76800 31.08600
H  -0.20000 39.15600 30.01500
H  -0.79700 39.68200 31.53000
H  0.88900 39.32600 31.42700
H  1.03000 43.79600 31.59600
H  2.66600 43.71900 31.37500
H  1.53700 43.60000 33.70700
H  3.29200 43.03200 33.27700
H  -3.76900 41.30600 28.24900
H  -4.11900 39.93700 27.21100
H  -4.60200 41.64100 26.80400
H  -5.12800 41.14000 24.73900
H  -4.61400 39.48000 25.24800
H  -5.19500 39.74000 23.66600
H  1.49900 42.85100 21.38300
H  3.99000 41.91300 21.63800
H  1.16600 39.88000 21.62800
H  2.79900 40.09300 21.40200
H  1.63000 40.57300 20.10900
H  3.97400 44.35700 22.95200
H  2.60500 44.48700 21.83300
H  5.39400 44.86800 21.48800
H  4.13800 45.09300 20.22300
H  4.92700 43.52200 20.37500
H  7.76200 43.37300 25.66800
H  7.59500 41.82500 24.82800
H  8.17000 41.85600 26.47300
H  4.89600 43.21300 30.45900
H  6.67200 40.10900 32.69500
H  5.38800 40.30600 33.78400
H  6.73100 41.47300 33.90000

