158

Mg -1.52400 17.53200 27.01500
C  -2.29400 15.37200 29.60500
C  -2.52600 20.15400 29.11500
C  -1.21900 19.68700 24.41200
C  -1.49500 14.88200 24.75200
N  -2.39800 17.64800 29.07900
C  -2.47800 16.64200 30.02600
C  -2.83400 17.20800 31.38100
C  -3.42900 18.60400 30.99000
C  -2.64500 18.87900 29.73600
C  -4.97600 18.54500 30.72000
C  -1.60200 17.37800 32.31300
C  -1.86700 17.17500 33.75100
H  -0.62300 16.80700 34.56200
N  -1.70200 19.60400 26.84400
C  -2.04200 20.53200 27.84900
C  -1.87600 21.84500 27.33100
C  -1.39300 21.75300 26.00900
C  -1.44100 20.29400 25.69300
C  -2.28900 22.98300 28.17100
C  -1.01400 22.75700 25.04100
O  -0.67100 22.54700 23.90600
C  -1.06400 24.21400 25.48100
N  -1.49200 17.39000 24.91000
C  -1.39600 18.41200 24.03700
C  -1.22600 17.89900 22.52800
C  -1.07600 16.36800 22.72500
C  -1.33600 16.18600 24.23900
C  -2.49300 18.30700 21.64700
C  0.28600 15.71200 22.33400
C  1.53200 16.29600 22.99200
N  -1.83000 15.52800 27.12200
C  -1.76400 14.54600 26.09000
C  -1.89500 13.21000 26.69000
C  -2.04900 13.52300 28.06400
C  -2.03100 14.87600 28.26500
C  -1.84700 11.91700 26.03400
C  -2.21800 12.94700 29.37200
O  -2.26500 11.78900 29.78600
C  -2.42800 14.08600 30.38100
C  -1.50000 13.98000 31.55300
O  -0.32300 14.22400 31.57000
O  -2.20100 13.70200 32.64700
C  -1.49200 13.54200 33.96100
H  -2.90500 20.90000 29.81700
H  -1.08400 20.38100 23.58000
H  -1.50900 14.02900 24.07000
H  -3.53400 16.52900 31.86800
H  -3.21600 19.36400 31.74200
H  -5.20000 18.83000 29.69200
H  -5.40700 19.27300 31.40700
H  -5.29900 17.52200 30.91000
H  -1.25000 18.40900 32.28200
H  -0.82400 16.72500 31.91800
H  -2.50100 16.29000 33.79800
H  -2.40500 18.06700 34.07200
H  -1.44300 23.58300 28.50500
H  -2.70200 22.81200 29.16500
H  -3.06800 23.60500 27.72900
H  -0.25600 24.32900 26.20300
H  -2.08100 24.32900 25.85400
H  -0.86200 24.88400 24.64500
H  -0.36500 18.30700 21.99700
H  -1.79800 15.96100 22.01700
H  -3.28800 18.65900 22.30400
H  -2.68800 17.58100 20.85700
H  -2.30300 19.23300 21.10400
H  0.40400 15.83100 21.25700
H  0.16500 14.64300 22.50700
H  1.28000 16.95200 23.82500
H  2.11800 16.85900 22.26700
H  2.14400 15.44000 23.27700
H  -1.25300 11.36000 26.76000
H  -1.41800 11.83100 25.03600
H  -2.83400 11.45800 26.07700
H  -3.43800 14.08400 30.79000
H  -2.01400 14.02300 34.78800
H  -0.47600 13.93500 33.94800
H  -1.45800 12.47700 34.19400
Mg 46.85200 44.64300 44.01700
C  43.39400 44.22000 43.52600
C  47.22500 41.20300 43.15900
C  50.13900 45.00900 43.53000
C  46.32900 48.10600 43.99400
N  45.50000 42.98500 43.33000
C  44.11000 43.06800 43.27900
C  43.51500 41.71300 43.02300
C  44.69400 40.74300 42.97400
C  45.89200 41.67600 43.19800
C  44.61000 39.54200 43.93400
C  42.54300 41.53800 41.80300
C  43.13200 42.23300 40.57300
H  42.90300 41.54700 39.21000
N  48.51100 43.29300 43.70700
C  48.44800 41.91200 43.42300
C  49.80900 41.38200 43.22800
C  50.70900 42.51700 43.43500
C  49.79400 43.67000 43.67100
C  50.17300 40.02700 42.88700
C  52.20200 42.44300 43.47100
O  52.83000 41.38900 43.33000
C  53.09600 43.58400 43.85100
N  48.04000 46.37900 43.69200
C  49.39200 46.23300 43.49600
C  50.09200 47.57700 43.17000
C  48.83000 48.53400 43.39800
C  47.65500 47.63700 43.66800
C  51.35400 47.68100 44.17800
C  48.55000 49.64300 42.30900
C  48.12100 51.13000 42.71200
N  45.18900 45.92200 43.86100
C  45.12000 47.26800 44.02300
C  43.79500 47.71600 44.22200
C  42.97700 46.50500 43.99800
C  43.95800 45.48500 43.69600
C  43.39500 49.14000 44.49300
C  41.65100 45.88900 43.91200
O  40.54700 46.38700 43.94400
C  41.89000 44.43100 43.59400
C  41.24800 43.59800 44.65600
O  40.31100 42.78100 44.50800
O  41.80700 43.91300 45.89500
C  41.17100 43.22200 47.06000
H  47.27600 40.18100 42.77800
H  51.14600 45.19600 43.15300
H  46.24000 49.18200 44.15800
H  42.91000 41.45600 43.89200
H  44.90200 40.29400 42.00200
H  44.53300 38.70700 43.23700
H  43.68500 39.54500 44.51000
H  45.46600 39.46000 44.60400
H  41.60100 41.97100 42.13800
H  42.52000 40.46200 41.62800
H  44.21100 42.33400 40.68900
H  42.64900 43.18600 40.79100
H  50.18700 39.33400 43.72800
H  51.18800 39.87800 42.51900
H  49.40900 39.66400 42.19900
H  52.72400 44.21000 44.66300
H  53.08900 44.33700 43.06300
H  54.07900 43.25400 44.18600
H  50.48300 47.57500 42.15300
H  49.18500 49.11800 44.24700
H  52.30500 47.73200 43.64700
H  51.38100 46.86700 44.90100
H  51.33800 48.50300 44.89400
H  47.62300 49.35400 41.81600
H  49.33200 49.55000 41.55500
H  48.50900 51.74300 41.89900
H  48.65500 51.45000 43.60700
H  47.05400 51.22700 42.91300
H  42.31300 49.04100 44.57400
H  43.57500 49.82700 43.66600
H  43.91800 49.37200 45.42100
H  41.33500 44.32600 42.66200
H  40.09900 43.36100 47.20200
H  41.69100 43.41500 47.99900
H  41.19900 42.15800 46.82300

