158

Mg -1.79000 33.43000 26.93100
C  -3.58700 31.71200 29.34500
C  -0.55900 35.48700 29.32800
C  -0.54000 35.32000 24.48500
C  -3.45100 31.49600 24.38100
N  -2.10000 33.67300 28.99800
C  -2.82500 32.74800 29.87800
C  -2.59100 33.10700 31.36100
C  -1.70100 34.35600 31.29100
C  -1.46300 34.54600 29.74000
C  -2.28300 35.55400 32.08700
C  -2.04000 31.90300 32.25100
C  -2.94700 31.57400 33.49100
H  -2.16900 31.44800 34.80500
N  -0.56600 35.18700 26.92700
C  -0.10600 35.79400 27.99900
C  0.87000 36.82200 27.49400
C  0.77400 36.87000 26.05000
C  -0.16700 35.80700 25.75600
C  1.73900 37.57200 28.43500
C  1.52400 37.74400 25.10100
O  1.45400 37.66000 23.88000
C  2.29300 38.80700 25.61200
N  -2.01600 33.45800 24.68400
C  -1.33000 34.33600 23.96900
C  -1.54600 34.14800 22.47300
C  -2.39700 32.84700 22.41500
C  -2.60600 32.50600 23.92900
C  -2.02500 35.42600 21.66000
C  -1.78600 31.64000 21.69100
C  -0.85800 30.71800 22.48400
N  -3.17700 31.94800 26.77400
C  -3.80200 31.22400 25.70500
C  -4.77800 30.32400 26.22400
C  -4.73100 30.45500 27.63300
C  -3.73200 31.48000 27.90700
C  -5.54600 29.28400 25.37400
C  -5.26200 29.93900 28.92900
O  -6.01200 28.94200 29.12100
C  -4.53500 30.77500 29.98800
C  -5.44300 31.47900 30.92600
O  -5.83600 32.62900 30.92700
O  -5.86100 30.53200 31.86300
C  -6.68000 31.15300 32.90300
H  -0.03400 36.12600 30.04000
H  0.01900 35.82900 23.69800
H  -4.07700 30.94200 23.67900
H  -3.61700 33.21900 31.71100
H  -0.80400 34.14000 31.87200
H  -2.51700 36.39200 31.43100
H  -1.61900 35.94200 32.86000
H  -3.26600 35.32500 32.50000
H  -1.05700 32.08600 32.68500
H  -1.93100 30.99600 31.65600
H  -3.53300 30.67300 33.30600
H  -3.55900 32.43200 33.76700
H  1.34000 38.58400 28.49700
H  2.78900 37.40900 28.19000
H  1.62300 37.19400 29.45100
H  2.77700 39.37200 24.81500
H  3.09800 38.38000 26.20900
H  1.67900 39.49100 26.19700
H  -0.58200 33.91100 22.02400
H  -3.40000 33.09400 22.06700
H  -2.10000 36.23600 22.38500
H  -2.96400 35.31000 21.11800
H  -1.17900 35.75300 21.05500
H  -1.11600 31.98600 20.90400
H  -2.49500 31.05600 21.10300
H  -0.64400 31.09600 23.48400
H  0.03300 30.60400 21.86500
H  -1.32800 29.74300 22.61200
H  -4.84600 28.98700 24.59300
H  -6.50000 29.62100 24.96800
H  -5.77200 28.35100 25.88900
H  -4.00100 30.04900 30.60100
H  -6.22900 32.04500 33.33700
H  -6.89400 30.42600 33.68700
H  -7.63300 31.40100 32.43500
Mg -5.93500 24.86000 25.90300
C  -4.45900 26.01400 28.94100
C  -7.88300 22.85800 27.86500
C  -7.06300 23.54800 23.13700
C  -3.35300 26.58200 24.13900
N  -6.02800 24.34700 28.24000
C  -5.49700 25.09400 29.23700
C  -6.07600 24.77400 30.55800
C  -6.94000 23.46300 30.21600
C  -6.99000 23.59500 28.66200
C  -6.28500 22.09700 30.53800
C  -6.93900 25.98200 31.15900
C  -6.52200 26.36200 32.56800
H  -5.86200 25.31700 33.49800
N  -7.36500 23.41300 25.51200
C  -8.04700 22.67000 26.44400
C  -8.83500 21.76800 25.75600
C  -8.74100 21.97100 24.36600
C  -7.72200 23.06700 24.25800
C  -9.67100 20.67200 26.46300
C  -9.38200 21.33600 23.25600
O  -9.14200 21.70300 22.10300
C  -10.38400 20.22200 23.46200
N  -5.32600 25.08800 23.94500
C  -5.94900 24.40100 22.94900
C  -5.44500 24.83000 21.55600
C  -4.30100 25.79800 21.88500
C  -4.32300 25.83300 23.42400
C  -4.87800 23.62900 20.77300
C  -4.51400 27.24100 21.27900
C  -3.47800 27.58100 20.20200
N  -4.40100 26.10500 26.34500
C  -3.40000 26.70400 25.54300
C  -2.50800 27.45100 26.35700
C  -2.92600 27.26400 27.68800
C  -4.05000 26.43200 27.62600
C  -1.34200 28.35000 25.86700
C  -2.72600 27.60900 29.11200
O  -1.88200 28.33900 29.67300
C  -3.72600 26.78600 29.97400
C  -2.85700 25.98900 30.90300
O  -2.34700 24.90100 30.61400
O  -2.62500 26.66600 32.04100
C  -1.52600 26.32800 32.93500
H  -8.44600 22.09800 28.41100
H  -7.37600 23.12800 22.17900
H  -2.64000 27.10900 23.50100
H  -5.32900 24.49200 31.30000
H  -7.96800 23.44900 30.57600
H  -7.05700 21.55000 31.08000
H  -5.48600 22.30200 31.25000
H  -6.03900 21.54400 29.63100
H  -7.99700 25.72900 31.22100
H  -6.91800 26.83800 30.48500
H  -7.25200 26.81400 33.23800
H  -5.73500 27.07000 32.30700
H  -10.73500 20.89200 26.37100
H  -9.38700 20.58900 27.51200
H  -9.41900 19.71000 26.01900
H  -10.71200 20.06900 22.43400
H  -11.24800 20.63100 23.98600
H  -10.03900 19.27300 23.87300
H  -6.18600 25.36600 20.96300
H  -3.35000 25.30800 21.67500
H  -5.21000 23.71500 19.73800
H  -5.30600 22.72200 21.19900
H  -3.79300 23.52500 20.78300
H  -4.48900 28.06400 21.99300
H  -5.44100 27.36300 20.72000
H  -2.72500 26.79600 20.13400
H  -2.99900 28.54300 20.37900
H  -4.00100 27.61800 19.24600
H  -1.68200 29.34800 25.59300
H  -0.85400 27.98100 24.96400
H  -0.80500 28.39300 26.81500
H  -4.23300 27.56300 30.54700
H  -0.73000 27.04800 32.74700
H  -1.15100 25.32900 32.71200
H  -1.85000 26.37800 33.97400

