158

Mg 9.11900 4.39500 27.50700
C  10.02000 2.59800 30.35600
C  7.16500 6.40000 29.35200
C  8.43400 6.24000 24.75400
C  10.51400 1.98700 25.51100
N  8.58100 4.36400 29.60200
C  9.20500 3.66600 30.65500
C  8.88000 4.32700 32.04900
C  7.83500 5.47300 31.67300
C  7.77400 5.37100 30.09400
C  6.48200 5.45400 32.46700
C  10.13200 4.60900 32.94400
C  9.65700 5.27200 34.22100
H  10.08200 4.62800 35.55100
N  7.98800 6.16600 27.11200
C  7.20700 6.82100 28.04900
C  6.36900 7.82100 27.41500
C  6.93400 7.87600 26.11700
C  7.86800 6.71900 25.92900
C  5.37700 8.68700 28.13300
C  6.69500 8.94300 25.00800
O  7.25500 8.87500 23.88200
C  5.67500 10.03000 25.17500
N  9.43800 4.13900 25.46600
C  9.15900 5.04300 24.48400
C  9.44800 4.51000 23.06700
C  9.99100 3.08300 23.34100
C  9.93200 3.03500 24.87200
C  8.20800 4.65400 22.11800
C  11.30300 2.72500 22.63300
C  11.30500 1.41100 21.87500
N  10.06500 2.57800 27.77000
C  10.66700 1.72000 26.88500
C  11.35400 0.60700 27.59100
C  11.15600 1.00000 28.98100
C  10.32300 2.08900 29.01500
C  12.06700 -0.56600 27.07800
C  11.51900 0.66600 30.32000
O  12.18700 -0.31100 30.63900
C  10.82100 1.67600 31.24500
C  9.96900 0.96100 32.20300
O  8.84400 0.59700 32.00800
O  10.57300 0.82100 33.40600
C  9.84200 0.22900 34.51500
H  6.58700 7.00900 30.05100
H  8.12600 6.71600 23.82000
H  11.00600 1.22800 24.89900
H  8.37800 3.59600 32.68200
H  8.24700 6.46900 31.83500
H  5.65600 5.42100 31.75600
H  6.24000 6.36800 33.00800
H  6.45700 4.64900 33.20100
H  10.75400 5.23900 32.30900
H  10.70500 3.70500 33.15100
H  8.56800 5.30400 34.21200
H  10.13100 6.25300 34.18300
H  5.59800 9.74000 27.95400
H  5.46700 8.58000 29.21400
H  4.35100 8.39700 27.90600
H  5.74500 10.74700 24.35700
H  6.04300 10.54300 26.06300
H  4.73500 9.50400 25.33900
H  10.24400 5.11700 22.63500
H  9.23500 2.36600 23.02100
H  7.99000 3.65400 21.74200
H  8.47300 5.25300 21.24700
H  7.39700 5.09300 22.70000
H  12.18600 2.76000 23.27200
H  11.51500 3.52500 21.92400
H  10.31600 1.02000 21.63500
H  11.78800 0.76200 22.60500
H  11.78000 1.43300 20.89500
H  11.40000 -1.08500 26.38900
H  12.38000 -1.17700 27.92500
H  12.96000 -0.25100 26.53800
H  11.62100 2.10500 31.84900
H  9.07600 0.95800 34.78000
H  10.40200 -0.07600 35.39900
H  9.30600 -0.65200 34.16100
Mg 16.56700 51.82000 26.40800
C  18.47500 50.83000 29.20200
C  14.08400 52.75000 28.46900
C  14.85900 52.82100 23.65900
C  19.21300 50.86600 24.34800
N  16.33900 51.85000 28.55100
C  17.22000 51.40000 29.53700
C  16.65500 51.58100 30.93500
C  15.15000 51.89000 30.61000
C  15.19400 52.17800 29.10800
C  14.05500 50.82300 30.99500
C  17.40600 52.65500 31.78600
C  17.80800 52.21000 33.15600
H  16.80700 52.70100 34.20100
N  14.78000 52.75700 26.15200
C  13.84300 53.01400 27.12800
C  12.72300 53.73100 26.54200
C  12.91000 53.74600 25.14100
C  14.19800 53.02900 24.95400
C  11.54600 54.30300 27.39400
C  12.07200 54.36700 24.02600
O  12.39100 54.37300 22.87900
C  10.68200 54.95200 24.31800
N  16.89000 51.68500 24.29100
C  16.05700 52.24700 23.36900
C  16.68800 52.29300 21.95500
C  18.08200 51.65900 22.20900
C  18.12600 51.47800 23.69500
C  15.84400 51.67300 20.85400
C  19.33100 52.50600 21.75200
C  20.29300 51.90500 20.72900
N  18.39000 50.82500 26.65600
C  19.38200 50.54700 25.72500
C  20.55100 49.92000 26.39100
C  20.24300 50.07800 27.76400
C  18.90900 50.58900 27.86200
C  21.85100 49.44200 25.81900
C  20.72000 49.88000 29.11300
O  21.84000 49.52300 29.49400
C  19.56400 50.20000 30.13000
C  19.14100 48.94000 30.83800
O  18.65400 47.95600 30.31100
O  19.21700 49.14900 32.16700
C  18.73800 48.05500 33.08600
H  13.32800 53.08200 29.18400
H  14.37300 53.07200 22.71400
H  20.10900 50.60100 23.78400
H  16.74000 50.60500 31.41200
H  14.85300 52.79700 31.13800
H  13.47000 51.12400 31.86500
H  14.59200 49.87700 31.05500
H  13.36600 50.67900 30.16200
H  16.90200 53.62100 31.79600
H  18.37200 52.83200 31.31300
H  18.77900 52.63500 33.41100
H  17.90800 51.12700 33.22800
H  10.62500 53.87600 26.99700
H  11.55200 55.38700 27.28600
H  11.57900 53.99300 28.43800
H  10.20500 55.09100 23.34800
H  10.89200 55.76800 25.00900
H  10.07600 54.11300 24.66100
H  16.83600 53.35300 21.75300
H  18.15300 50.67400 21.74700
H  16.19200 50.73600 20.41800
H  15.73400 52.50800 20.16200
H  14.92000 51.35200 21.33600
H  19.86100 52.92900 22.60500
H  18.96400 53.40500 21.25600
H  21.18100 52.53600 20.75900
H  19.81500 51.99900 19.75400
H  20.44400 50.83400 20.86900
H  21.72600 48.51600 25.25800
H  22.59800 49.36900 26.61000
H  22.07100 50.15300 25.02200
H  20.07200 50.83300 30.85600
H  17.68700 48.29900 33.24000
H  19.23300 48.06600 34.05700
H  18.88300 47.06200 32.66200

