158

Mg 35.48700 49.12000 26.47500
C  35.83200 46.77100 29.05800
C  34.34200 51.41500 28.70300
C  34.47200 50.98500 23.82900
C  36.03800 46.49900 24.28700
N  35.06500 49.01500 28.67400
C  35.48200 48.03500 29.51900
C  35.41400 48.52100 30.94300
C  34.61700 49.91700 30.84400
C  34.61800 50.13900 29.30500
C  33.23200 50.09000 31.43000
C  36.79700 48.70600 31.63600
C  36.80300 48.30800 33.15800
H  36.69200 49.43100 34.24600
N  34.67700 50.98900 26.31000
C  34.35000 51.79400 27.29500
C  33.85000 53.06800 26.75800
C  33.96400 53.01500 25.34100
C  34.43300 51.65300 25.08700
C  33.12300 54.15700 27.60800
C  33.54600 54.12500 24.29600
O  33.36600 53.90000 23.10400
C  33.18000 55.48000 24.81900
N  35.40200 48.78000 24.42600
C  34.83500 49.70400 23.53400
C  34.84400 49.18000 22.04700
C  35.57000 47.80100 22.23800
C  35.72000 47.68500 23.74600
C  33.44200 49.14100 21.28100
C  36.88700 47.54200 21.47200
C  36.78000 46.64300 20.17000
N  35.89200 47.09300 26.56800
C  36.14900 46.10400 25.59200
C  36.58100 44.83800 26.16500
C  36.48000 45.03900 27.55100
C  36.05900 46.43300 27.70100
C  36.89200 43.61700 25.36000
C  36.62100 44.52100 28.93400
O  36.89900 43.40600 29.34200
C  36.33900 45.68800 29.90000
C  35.28700 45.30900 30.92200
O  34.08100 45.22100 30.87700
O  35.96400 44.95100 32.07200
C  35.18700 44.69400 33.24400
H  34.05600 52.25000 29.34600
H  33.92900 51.62600 23.13100
H  36.18900 45.58300 23.71100
H  34.83500 47.81200 31.53400
H  35.25300 50.62700 31.37400
H  33.16000 50.95700 32.08600
H  32.85700 49.18400 31.90400
H  32.52300 50.38600 30.65600
H  37.01900 49.77200 31.57600
H  37.56100 48.22700 31.02200
H  37.72300 47.73900 33.29100
H  35.92900 47.67000 33.29000
H  33.62900 55.12200 27.62400
H  33.06400 53.83300 28.64700
H  32.09800 54.28900 27.26000
H  33.02200 56.15800 23.98100
H  34.15000 55.78700 25.21000
H  32.39700 55.49700 25.57700
H  35.49100 49.86100 21.49400
H  34.87700 47.01100 21.94700
H  32.69200 49.69500 21.84700
H  33.00200 48.16900 21.06000
H  33.56500 49.79400 20.41700
H  37.58000 47.20900 22.24500
H  37.32100 48.46600 21.09100
H  37.85700 46.52500 20.05000
H  36.35800 47.10600 19.27800
H  36.43300 45.61000 20.19400
H  37.77200 43.85600 24.76300
H  36.12400 43.22100 24.69700
H  37.20100 42.72700 25.90900
H  37.25400 46.01500 30.39400
H  34.35900 45.39300 33.36300
H  35.82100 44.57200 34.12200
H  34.74500 43.70000 33.17800
Mg -4.96800 25.94700 26.72900
C  -3.80400 27.52300 29.55900
C  -6.65200 23.83100 28.57200
C  -5.71200 24.32800 23.84200
C  -2.69400 27.97400 24.78900
N  -5.19500 25.75100 28.89600
C  -4.74600 26.53100 29.88400
C  -5.37400 26.18800 31.22000
C  -6.08900 24.78100 30.87300
C  -6.03000 24.78400 29.30800
C  -5.43200 23.50900 31.52500
C  -6.33100 27.27800 31.79200
C  -6.14000 27.67900 33.20400
H  -5.72700 26.66000 34.29600
N  -6.15100 24.39600 26.26700
C  -6.74300 23.64000 27.16300
C  -7.62900 22.65200 26.45300
C  -7.44000 22.84300 25.11900
C  -6.42900 23.97200 24.97500
C  -8.41500 21.56500 27.14400
C  -8.06800 22.10700 23.92200
O  -7.81000 22.53000 22.78900
C  -9.02000 20.93800 24.17200
N  -4.21600 26.12700 24.64200
C  -4.65700 25.25400 23.66900
C  -3.95500 25.42200 22.33500
C  -3.03900 26.62400 22.61800
C  -3.40100 27.01300 24.08400
C  -3.29600 24.18700 21.78700
C  -3.28100 27.79900 21.63300
C  -1.97900 28.12200 20.96300
N  -3.51400 27.51700 27.07700
C  -2.71600 28.22000 26.18600
C  -1.99500 29.17100 26.97900
C  -2.39000 28.97400 28.31500
C  -3.28300 27.93100 28.30300
C  -1.03000 30.23700 26.46200
C  -2.28400 29.38200 29.75000
O  -1.57700 30.26800 30.20800
C  -3.17300 28.43200 30.58400
C  -2.22800 27.68700 31.54000
O  -1.57800 26.67500 31.22900
O  -2.19500 28.29300 32.75300
C  -1.20000 27.71900 33.72900
H  -7.07400 23.01300 29.16000
H  -5.81400 23.71300 22.94600
H  -2.18800 28.74700 24.20700
H  -4.61700 25.99300 31.97900
H  -7.15800 24.73800 31.08400
H  -6.16200 22.89500 32.05300
H  -4.57600 23.84000 32.11300
H  -5.02800 22.88800 30.72600
H  -7.34900 26.91600 31.64300
H  -6.11000 28.18900 31.23500
H  -7.14200 27.98100 33.50900
H  -5.30500 28.37300 33.10600
H  -8.01400 20.58500 26.88300
H  -9.47400 21.73600 26.94700
H  -8.42900 21.72500 28.22200
H  -8.59900 20.26300 24.91600
H  -9.05400 20.45500 23.19500
H  -9.92400 21.48000 24.44900
H  -4.76400 25.69500 21.65800
H  -2.01200 26.26200 22.67000
H  -4.00000 23.74600 21.08100
H  -3.28000 23.47800 22.61400
H  -2.29600 24.32800 21.37700
H  -3.72600 28.63300 22.17400
H  -3.81800 27.46100 20.74600
H  -1.40100 28.73300 21.65600
H  -2.08100 28.35900 19.90400
H  -1.19100 27.37200 21.02800
H  -1.49200 30.97900 25.81000
H  -0.39000 29.78000 25.70700
H  -0.51200 30.67200 27.31700
H  -3.84700 29.06900 31.15600
H  -1.60400 26.74000 33.99000
H  -1.37400 28.25200 34.66400
H  -0.19600 27.69800 33.30700

