158

Mg 16.77000 -1.35600 27.55200
C  15.60700 0.78200 29.96600
C  18.47500 -3.04300 29.76500
C  18.15200 -3.22900 24.95100
C  14.80500 0.39500 25.12200
N  17.08600 -1.06000 29.60700
C  16.51200 -0.17000 30.47200
C  16.99000 -0.38900 31.88500
C  18.02900 -1.54800 31.74400
C  17.83700 -1.93900 30.26600
C  19.41200 -1.22800 32.15800
C  15.88900 -0.67000 32.89300
C  15.88400 0.10000 34.22900
H  17.23200 0.81700 34.72100
N  18.12700 -2.88600 27.39900
C  18.70900 -3.52400 28.47400
C  19.52300 -4.60100 28.02900
C  19.45200 -4.65000 26.60400
C  18.55600 -3.54500 26.23900
C  20.23200 -5.49600 29.03600
C  19.97900 -5.70600 25.62600
O  19.77500 -5.62200 24.43500
C  20.67300 -6.95400 26.15500
N  16.55100 -1.40900 25.33600
C  17.21400 -2.18500 24.46100
C  16.76200 -1.96700 23.00200
C  15.65600 -0.86300 23.10800
C  15.60000 -0.58700 24.61600
C  17.81100 -1.67300 21.82200
C  14.25700 -1.29400 22.60400
C  13.45600 -2.36600 23.53500
N  15.41100 0.27300 27.50700
C  14.71200 0.83000 26.46500
C  13.92400 1.95900 27.06900
C  14.24000 1.95400 28.46100
C  15.13000 0.90200 28.64700
C  12.96800 3.01300 26.30900
C  13.91100 2.63500 29.65000
O  13.27400 3.64900 29.93300
C  14.74600 1.79900 30.79400
C  15.54700 2.83800 31.46400
O  16.61600 3.27300 31.09300
O  14.94400 3.25800 32.58700
C  15.57900 4.36100 33.34200
H  19.11900 -3.53200 30.49900
H  18.49600 -3.74000 24.04900
H  14.26700 0.93800 24.34200
H  17.60300 0.46800 32.16300
H  17.71800 -2.30600 32.46300
H  19.98000 -1.12100 31.23300
H  19.93700 -2.03800 32.66500
H  19.52400 -0.28100 32.68700
H  16.07600 -1.69600 33.21300
H  14.87000 -0.54900 32.52600
H  15.65800 -0.63400 35.00200
H  15.07800 0.82200 34.10000
H  20.68600 -4.82600 29.76600
H  21.00000 -6.12100 28.58000
H  19.46700 -6.19500 29.37500
H  21.62400 -6.54100 26.49300
H  20.85800 -7.58800 25.28900
H  20.13800 -7.49600 26.93500
H  16.29100 -2.90100 22.69600
H  15.93500 0.00500 22.51100
H  18.78400 -1.57500 22.30500
H  17.52400 -0.78200 21.26300
H  17.79700 -2.50300 21.11600
H  14.22400 -1.77900 21.62900
H  13.69400 -0.37800 22.42700
H  12.71000 -1.92000 24.19300
H  14.17500 -2.99300 24.06300
H  12.89200 -2.94000 22.79900
H  12.63600 3.59000 27.17200
H  12.16000 2.42000 25.88000
H  13.44500 3.57500 25.50600
H  14.09900 1.40800 31.57900
H  15.69000 5.22000 32.68000
H  16.54000 4.13800 33.80500
H  14.86700 4.61400 34.12700
Mg -2.57300 34.16000 26.43900
C  -3.91700 32.35800 29.18600
C  -1.08600 36.20500 28.71400
C  -1.57900 35.77000 23.76400
C  -4.58900 32.21400 24.32400
N  -2.65000 34.33400 28.66000
C  -3.09900 33.41900 29.60600
C  -2.75500 33.84700 31.08500
C  -1.90600 35.16500 30.81800
C  -1.94300 35.25500 29.29200
C  -2.39100 36.45500 31.46200
C  -1.87900 32.94700 32.00400
C  -2.56000 32.47000 33.25900
H  -1.74100 32.15400 34.53800
N  -1.50600 35.70100 26.27900
C  -0.90800 36.44000 27.30100
C  0.05800 37.29600 26.68800
C  -0.00800 37.07700 25.29100
C  -1.13300 36.16300 25.03000
C  0.94400 38.13600 27.51500
C  0.94800 37.60700 24.19300
O  0.72400 37.54200 23.02900
C  2.19800 38.40500 24.55200
N  -3.29000 34.26700 24.39000
C  -2.61000 34.88500 23.48000
C  -3.08400 34.57600 22.03800
C  -3.95900 33.38000 22.27600
C  -3.98200 33.26300 23.74600
C  -3.71200 35.77000 21.19500
C  -3.53200 32.04900 21.54100
C  -2.63200 30.88600 22.19200
N  -3.92700 32.58400 26.61200
C  -4.63200 31.81700 25.70500
C  -5.32800 30.73300 26.32900
C  -5.17000 31.01400 27.65700
C  -4.26500 32.08200 27.82700
C  -6.18600 29.76400 25.65700
C  -5.48900 30.50700 28.96700
O  -6.25600 29.60100 29.29900
C  -4.64400 31.28600 29.97600
C  -5.53400 31.92000 31.05500
O  -6.21200 32.91700 31.03200
O  -5.53700 31.02300 32.16700
C  -6.50900 31.39700 33.15600
H  -0.63200 36.88400 29.43800
H  -1.15600 36.25700 22.88300
H  -5.12800 31.62600 23.57800
H  -3.63300 34.00200 31.71300
H  -0.85400 35.01500 31.05900
H  -1.72800 36.69500 32.29300
H  -3.32600 36.33200 32.00900
H  -2.33900 37.32700 30.81000
H  -0.87600 33.33900 32.17100
H  -1.63300 32.08400 31.38600
H  -2.80900 31.44200 32.99600
H  -3.45100 33.06500 33.46200
H  1.11100 39.05500 26.95100
H  1.97000 37.77000 27.48100
H  0.55500 38.34500 28.51100
H  2.73200 38.14700 25.46700
H  1.90300 39.44300 24.70500
H  2.84500 38.17800 23.70500
H  -2.19500 34.23200 21.50900
H  -5.00600 33.50300 21.99900
H  -2.89600 36.35600 20.77200
H  -4.14800 36.55200 21.81700
H  -4.37200 35.43400 20.39500
H  -2.96400 32.39300 20.67700
H  -4.46200 31.53200 21.30300
H  -1.98900 31.29100 22.97300
H  -1.91800 30.47100 21.48000
H  -3.28100 30.08500 22.54600
H  -6.46300 29.94200 24.61800
H  -7.05900 29.61900 26.29300
H  -5.62000 28.83400 25.69200
H  -3.87600 30.68300 30.46100
H  -6.07700 32.12900 33.83900
H  -6.63900 30.50600 33.77000
H  -7.48500 31.67400 32.75700

