158

Mg 0.57500 7.72100 25.53300
C  1.30700 9.76200 28.29800
C  0.51600 5.09000 27.62200
C  0.27900 5.76300 22.71100
C  1.16600 10.59000 23.42200
N  0.97300 7.47300 27.61200
C  1.17600 8.42100 28.60300
C  1.18900 7.84700 30.05300
C  1.07100 6.32000 29.82400
C  0.74300 6.29200 28.25100
C  2.36700 5.37400 30.18400
C  0.07900 8.32800 30.98000
C  0.43200 8.46300 32.44500
H  1.70300 7.62200 32.83900
N  0.35200 5.69900 25.20300
C  0.42400 4.76500 26.24300
C  0.34300 3.43200 25.62100
C  0.19900 3.65000 24.16400
C  0.34200 5.06800 23.99900
C  0.27400 2.15900 26.44500
C  0.05700 2.54700 23.09800
O  0.08200 2.82800 21.89700
C  -0.06900 1.12900 23.48700
N  0.84800 8.04700 23.41100
C  0.47300 7.12700 22.50400
C  0.27800 7.71600 21.09600
C  0.33600 9.29400 21.44000
C  0.83100 9.38200 22.83100
C  1.29200 7.26400 20.06000
C  -1.04200 10.03100 21.49100
C  -1.16500 11.24100 20.59800
N  1.12700 9.73700 25.76700
C  1.25100 10.80700 24.85200
C  1.48900 12.04800 25.51300
C  1.40200 11.69800 26.84100
C  1.24400 10.29700 27.00100
C  1.80100 13.28600 24.90000
C  1.63300 12.28800 28.18900
O  1.87000 13.43800 28.53300
C  1.40300 11.07700 29.17400
C  2.66200 11.08400 30.03800
O  3.83400 10.94700 29.60400
O  2.31700 11.36500 31.38000
C  3.42200 11.19000 32.24400
H  0.29700 4.22800 28.25600
H  0.08200 5.25700 21.76400
H  1.20900 11.51100 22.83800
H  2.17900 8.11800 30.41900
H  0.25400 5.81700 30.34200
H  2.10400 4.58200 30.88600
H  3.12300 6.06600 30.55400
H  2.83400 4.86500 29.34200
H  -0.78600 7.68300 30.83000
H  -0.06900 9.33500 30.59000
H  -0.38900 8.33500 33.15000
H  0.81400 9.48400 32.48300
H  0.96700 1.37000 26.15300
H  -0.77400 1.86500 26.38400
H  0.60400 2.27100 27.47800
H  -0.21500 0.52300 22.59300
H  -0.94200 1.16200 24.13800
H  0.81400 0.70700 23.96800
H  -0.72000 7.51900 20.70500
H  1.00600 9.84800 20.78200
H  1.69800 6.26700 20.22600
H  2.15400 7.91100 19.89400
H  0.75900 7.24000 19.11000
H  -1.38000 10.19500 22.51400
H  -1.81700 9.30600 21.24500
H  -0.25300 11.47400 20.04800
H  -1.38900 12.09700 21.23500
H  -1.97100 11.13300 19.87300
H  1.37100 13.53200 23.92900
H  2.86800 13.31900 24.67900
H  1.44500 14.04400 25.59800
H  0.53300 11.37300 29.76100
H  3.93800 10.24500 32.07600
H  3.04100 11.13200 33.26300
H  4.21300 11.91000 32.03200
Mg 35.63800 49.65800 25.58300
C  36.10200 47.86800 28.59500
C  34.24600 52.15700 27.39100
C  34.81500 51.05700 22.62900
C  36.66400 46.78100 23.87800
N  35.26200 49.99200 27.74300
C  35.61000 49.18700 28.79500
C  35.29900 49.83300 30.19300
C  34.31900 51.02900 29.77700
C  34.69700 51.17100 28.24900
C  32.74900 50.69800 30.05500
C  36.53900 50.29300 30.98100
C  36.67400 49.62900 32.36300
H  35.47400 49.65100 33.32000
N  34.79100 51.42900 25.09300
C  34.34500 52.35700 25.98100
C  33.90100 53.55400 25.25700
C  33.98100 53.21200 23.90900
C  34.54400 51.83100 23.77500
C  33.44700 54.85500 25.95800
C  33.50500 54.07300 22.67300
O  33.76700 53.80800 21.50100
C  32.84900 55.38600 22.93800
N  35.69300 48.96200 23.62000
C  35.37200 49.77400 22.55800
C  35.56900 49.08200 21.17100
C  36.42200 47.82600 21.63000
C  36.22300 47.83200 23.16100
C  34.20000 48.76700 20.48500
C  37.89600 47.66900 21.11700
C  39.03400 48.40500 21.82100
N  36.24400 47.68900 26.04600
C  36.57700 46.64900 25.26500
C  37.03800 45.49300 26.09500
C  36.89800 45.94600 27.41700
C  36.35100 47.25700 27.37700
C  37.65200 44.17100 25.51800
C  37.11100 45.58800 28.79700
O  37.66200 44.64800 29.36900
C  36.51800 46.86800 29.61400
C  35.37200 46.29900 30.40200
O  34.27500 46.09800 29.90500
O  35.80300 45.93000 31.62800
C  34.81200 45.20000 32.47100
H  33.80600 53.00600 27.91800
H  34.49500 51.44200 21.65900
H  36.88000 45.95500 23.19700
H  34.78900 49.10600 30.82400
H  34.51200 51.91800 30.37700
H  32.20800 51.03500 29.17100
H  32.43400 51.26100 30.93400
H  32.60600 49.65100 30.32400
H  36.52300 51.36300 31.18500
H  37.42700 50.04100 30.40100
H  37.43500 50.20400 32.88900
H  37.08000 48.62800 32.21600
H  33.94600 55.71300 25.50600
H  33.78400 54.86800 26.99500
H  32.36400 54.96600 26.00600
H  31.94000 55.32600 23.53600
H  32.63600 55.88100 21.99000
H  33.63700 55.92900 23.46000
H  36.13400 49.74200 20.51300
H  35.80100 47.01800 21.24200
H  33.46500 48.57300 21.26600
H  34.35600 47.88700 19.86200
H  33.95900 49.62800 19.86000
H  37.99500 47.91700 20.06000
H  38.19700 46.62200 21.09000
H  39.49900 47.83600 22.62600
H  38.54300 49.25300 22.29800
H  39.77300 48.83400 21.14400
H  38.69600 44.34900 25.25900
H  37.04200 43.77600 24.70500
H  37.62800 43.27300 26.13500
H  37.27800 47.21700 30.31300
H  33.84100 45.69200 32.53300
H  35.14600 45.10100 33.50400
H  34.75200 44.17500 32.10400

