158

Mg 40.62200 10.15000 29.30000
C  42.73200 11.72700 31.62400
C  38.54400 9.17000 31.78500
C  38.81400 8.67700 26.94100
C  43.20500 10.84600 26.87300
N  40.70600 10.20800 31.51500
C  41.61100 11.08500 32.23800
C  41.18900 11.06500 33.71800
C  39.98600 10.10600 33.74900
C  39.69800 9.86500 32.22500
C  40.13100 8.84700 34.64200
C  40.82700 12.46000 34.31400
C  41.35200 12.84800 35.72500
H  41.35200 11.73700 36.79800
N  38.90400 9.13100 29.33600
C  38.08100 8.92300 30.45700
C  36.92000 8.18000 30.08500
C  37.03100 7.98700 28.63900
C  38.32200 8.62100 28.24000
C  35.85700 7.69400 30.99300
C  36.15100 7.22000 27.74000
O  36.47900 6.92800 26.60600
C  34.77500 6.74000 28.15700
N  41.06300 9.82700 27.27100
C  40.07100 9.25700 26.50800
C  40.47700 9.19400 25.04800
C  41.72800 10.13700 24.96800
C  42.04700 10.30200 26.42100
C  40.44100 7.78800 24.37900
C  41.61200 11.46700 24.25500
C  40.69600 12.38800 24.98900
N  42.55700 11.16600 29.20600
C  43.47200 11.29200 28.19400
C  44.71000 11.97100 28.64300
C  44.39400 12.24100 30.01600
C  43.14000 11.66700 30.30600
C  45.97700 12.26100 27.86800
C  44.93800 12.77600 31.20800
O  45.98200 13.38100 31.40700
C  43.84600 12.44900 32.38800
C  44.50700 11.70500 33.48700
O  44.53100 10.48000 33.60000
O  45.05500 12.59200 34.34700
C  45.35600 11.86500 35.57700
H  37.91200 8.91400 32.63800
H  38.34300 8.08200 26.15600
H  43.81700 11.32400 26.10600
H  42.05800 10.61200 34.19500
H  39.15900 10.72200 34.10300
H  41.14500 8.47300 34.50200
H  39.41200 8.14400 34.22100
H  39.98600 9.07900 35.69700
H  39.78200 12.76800 34.28300
H  41.30700 13.20700 33.68200
H  40.68100 13.60800 36.12700
H  42.37300 13.21200 35.61700
H  36.16900 7.84700 32.02600
H  35.66100 6.62200 30.98000
H  35.01500 8.38100 30.91400
H  35.08700 5.86300 28.72300
H  34.32600 6.39000 27.22700
H  34.29000 7.56900 28.67100
H  39.68000 9.70000 24.50200
H  42.65300 9.67300 24.62400
H  40.33700 7.07800 25.19900
H  41.36600 7.53800 23.85800
H  39.58000 7.67400 23.72100
H  41.29500 11.23500 23.23900
H  42.62800 11.86400 24.25300
H  40.55600 12.10400 26.03300
H  39.74600 12.42600 24.45500
H  41.14300 13.37900 25.06300
H  46.20200 11.44000 27.18700
H  46.80700 12.28200 28.57500
H  45.95000 13.22200 27.35500
H  43.55700 13.45700 32.68500
H  45.83600 10.88600 35.59500
H  44.40800 11.69400 36.08700
H  46.08300 12.42000 36.16900
Mg -11.93600 39.47400 41.29700
C  -9.94600 36.49300 40.73100
C  -9.44000 41.14000 39.68100
C  -13.91500 42.00800 41.14800
C  -14.42600 37.40800 42.63800
N  -9.99200 38.75700 40.17400
C  -9.36400 37.54800 40.12200
C  -8.17500 37.60400 39.13600
C  -7.95400 39.17900 39.09100
C  -9.23400 39.77000 39.64300
C  -6.60600 39.65700 39.79600
C  -8.50600 36.87000 37.79300
C  -7.59500 35.68900 37.34700
H  -6.41500 35.96300 36.29500
N  -11.63400 41.34100 40.48300
C  -10.60800 41.89100 39.90900
C  -10.81200 43.23400 39.64000
C  -12.12800 43.53900 40.09100
C  -12.62300 42.27300 40.60400
C  -9.72600 44.08900 38.93200
C  -12.85100 44.88300 39.92200
O  -12.27800 45.79100 39.36600
C  -14.23000 45.17600 40.36000
N  -13.82800 39.59700 41.70600
C  -14.49500 40.81900 41.61100
C  -15.91200 40.81400 42.18900
C  -16.08700 39.34400 42.51600
C  -14.72700 38.69500 42.22400
C  -16.21800 41.82400 43.35500
C  -17.33700 38.70200 41.86600
C  -17.36600 38.56300 40.33000
N  -12.16700 37.41800 41.68500
C  -13.16400 36.74800 42.39900
C  -12.79200 35.31900 42.47900
C  -11.49900 35.24500 41.92900
C  -11.18800 36.51800 41.39500
C  -13.54300 34.28800 43.30200
C  -10.39100 34.31700 41.71000
O  -10.19100 33.15800 42.02000
C  -9.37900 35.10700 40.82100
C  -8.13100 34.89600 41.50100
O  -7.36500 33.94200 41.33900
O  -7.81900 35.91500 42.41100
C  -6.91100 35.53900 43.51000
H  -8.58500 41.72200 39.32900
H  -14.48800 42.90500 41.39400
H  -15.18900 36.85900 43.19200
H  -7.34100 37.06500 39.58700
H  -7.87300 39.41700 38.03000
H  -6.01200 38.83900 40.20200
H  -6.82500 40.40300 40.56000
H  -6.13900 40.17200 38.95600
H  -8.47500 37.60500 36.98800
H  -9.53800 36.51900 37.81600
H  -8.22400 34.90700 36.92200
H  -7.13700 35.28700 38.25100
H  -10.07700 44.24100 37.91200
H  -8.67600 43.84500 39.09300
H  -9.71000 45.11000 39.31300
H  -14.13800 45.34900 41.43200
H  -14.94500 44.38700 40.12500
H  -14.49100 46.07500 39.80300
H  -16.52800 41.15100 41.35600
H  -16.20300 39.26800 43.59800
H  -15.23800 42.19900 43.65300
H  -16.77700 41.42000 44.19800
H  -16.79800 42.64200 42.92800
H  -18.12900 39.42000 42.07800
H  -17.57800 37.77400 42.38500
H  -16.48800 39.05500 39.91200
H  -18.14600 39.04000 39.73700
H  -17.42600 37.48600 40.17700
H  -13.11200 34.41700 44.29500
H  -13.24100 33.26900 43.05900
H  -14.60300 34.48200 43.46300
H  -9.40500 34.62700 39.84300
H  -7.04100 34.47400 43.70300
H  -6.97200 36.16000 44.40400
H  -5.86600 35.65800 43.22400

