158

Mg -10.16600 39.59700 42.62300
C  -9.33100 36.31300 41.76900
C  -7.39400 40.69200 40.86300
C  -11.39700 42.72800 42.41800
C  -13.22300 38.48800 43.74500
N  -8.49300 38.62500 41.48300
C  -8.45200 37.24200 41.26300
C  -7.26900 36.93200 40.36200
C  -6.50800 38.36900 40.21500
C  -7.52600 39.34600 40.88500
C  -5.06300 38.43500 40.78700
C  -7.78200 36.38200 38.96400
C  -6.86400 35.27400 38.37200
H  -5.71500 35.66300 37.36500
N  -9.39900 41.50200 41.88800
C  -8.26400 41.74900 41.19700
C  -8.07900 43.16300 41.02700
C  -9.24600 43.74400 41.49400
C  -10.05300 42.66000 42.01300
C  -6.81300 43.83200 40.37000
C  -9.50400 45.21300 41.42800
O  -8.61000 45.91200 41.02000
C  -10.76400 45.88200 41.87400
N  -12.05900 40.48700 43.03200
C  -12.31200 41.80400 42.97100
C  -13.72900 42.08000 43.34100
C  -14.26500 40.77700 43.92900
C  -13.17100 39.80500 43.43200
C  -13.83100 43.40800 44.28500
C  -15.76900 40.40800 43.40600
C  -16.81000 39.91400 44.42200
N  -11.07100 37.77500 42.92400
C  -12.28900 37.47200 43.37800
C  -12.46300 35.99300 43.40700
C  -11.22800 35.55000 42.79000
C  -10.51900 36.71500 42.45800
C  -13.70700 35.21500 43.80500
C  -10.51400 34.31100 42.51600
O  -10.71800 33.13900 42.76200
C  -9.29900 34.77700 41.58600
C  -8.05700 34.21900 42.11400
O  -7.68300 34.29400 43.30900
O  -7.39900 33.51600 41.06100
C  -6.01600 33.02900 41.36200
H  -6.48600 40.95500 40.31600
H  -11.71600 43.77200 42.39500
H  -14.17500 38.10000 44.11400
H  -6.66600 36.27200 40.98400
H  -6.34000 38.54900 39.15400
H  -4.50600 39.14500 40.17700
H  -4.56600 37.46800 40.70000
H  -5.01100 38.79300 41.81500
H  -7.81000 37.25700 38.31500
H  -8.79600 36.05500 39.19700
H  -7.43800 34.40800 38.04400
H  -6.28500 34.83900 39.18700
H  -7.09800 44.31000 39.43300
H  -6.01100 43.14000 40.11400
H  -6.30300 44.61000 40.93900
H  -10.73000 45.65300 42.93900
H  -11.64300 45.46900 41.37800
H  -10.92500 46.95000 41.72600
H  -14.09300 42.23400 42.32600
H  -14.18800 40.80100 45.01600
H  -14.46600 44.09400 43.72500
H  -12.80800 43.77300 44.38300
H  -14.31900 43.18800 45.23500
H  -15.59700 39.65000 42.64100
H  -16.18700 41.30900 42.95800
H  -16.53800 40.02300 45.47100
H  -17.02900 38.87200 44.18800
H  -17.69100 40.47500 44.10900
H  -14.30800 35.72500 44.55900
H  -13.28300 34.28300 44.18000
H  -14.19500 35.14800 42.83300
H  -9.56000 34.51100 40.56200
H  -5.35200 33.88500 41.24300
H  -5.66900 32.29100 40.63900
H  -5.76000 32.68900 42.36600
Mg -1.81200 34.66700 26.95200
C  -3.39900 32.89700 29.45200
C  -0.73900 36.98300 29.38000
C  -1.00200 36.99800 24.53600
C  -3.72700 32.98800 24.60000
N  -1.92300 34.72400 29.16900
C  -2.69100 33.95600 30.01100
C  -2.37100 34.21500 31.50500
C  -1.57700 35.56600 31.45100
C  -1.42100 35.80300 29.90600
C  -2.25500 36.66400 32.32700
C  -1.52000 32.95600 32.06800
C  -2.14200 32.31900 33.34600
H  -1.29300 32.18500 34.55600
N  -0.72700 36.63700 26.92400
C  -0.40500 37.35800 28.02500
C  0.40200 38.48600 27.56700
C  0.15800 38.55300 26.12700
C  -0.58500 37.40900 25.84700
C  1.13100 39.35900 28.55300
C  0.69500 39.64500 25.17700
O  0.50200 39.59100 23.97200
C  1.58000 40.66700 25.79600
N  -2.34200 35.02700 24.90800
C  -1.79500 35.93700 24.07400
C  -2.22000 35.69300 22.61000
C  -3.15700 34.41100 22.70900
C  -3.08300 34.17300 24.17300
C  -2.84600 37.04200 22.09100
C  -2.59600 33.20500 21.90000
C  -1.07300 32.97400 22.00200
N  -3.23700 33.23200 26.95500
C  -3.89400 32.56700 25.91100
C  -4.73800 31.53700 26.46300
C  -4.56100 31.65500 27.85000
C  -3.61500 32.66500 28.08000
C  -5.66000 30.59500 25.76200
C  -5.07600 31.04900 29.09500
O  -5.85100 30.12700 29.35800
C  -4.32500 31.89300 30.13900
C  -5.27000 32.40000 31.12500
O  -5.97200 33.40700 31.09400
O  -5.36100 31.57800 32.23900
C  -6.33900 31.90200 33.30500
H  -0.23000 37.58900 30.13200
H  -0.74100 37.74200 23.78100
H  -4.34900 32.41900 23.90600
H  -3.23100 34.28700 32.17100
H  -0.58400 35.41900 31.87600
H  -2.87400 37.31600 31.71100
H  -1.48200 37.26800 32.80100
H  -2.87200 36.18200 33.08500
H  -0.50100 33.27400 32.29100
H  -1.51600 32.21700 31.26600
H  -2.52900 31.32600 33.12000
H  -3.06100 32.85100 33.59300
H  1.20000 38.85600 29.51700
H  0.61000 40.31600 28.55900
H  2.09700 39.38600 28.04900
H  2.50400 40.24900 26.19500
H  1.11900 41.21800 26.61600
H  1.91300 41.43000 25.09200
H  -1.31800 35.57200 22.01100
H  -4.20200 34.64800 22.51500
H  -2.03300 37.58200 21.60400
H  -3.29300 37.56100 22.93900
H  -3.72400 36.92000 21.45700
H  -2.92700 33.42200 20.88500
H  -3.04100 32.24700 22.16600
H  -0.85400 33.47100 22.94700
H  -0.47700 33.43400 21.21400
H  -0.81800 31.93600 22.21600
H  -5.79300 30.76300 24.69300
H  -6.59700 30.82900 26.26800
H  -5.22000 29.60900 25.91300
H  -3.81300 31.09200 30.67400
H  -7.01000 31.06800 33.50900
H  -7.04700 32.71400 33.13800
H  -5.89700 32.23800 34.24300

