158

Mg 26.17000 0.53100 28.31200
C  28.13000 0.29000 31.31300
C  23.47600 1.30000 30.33100
C  24.50700 0.89400 25.60600
C  29.00300 -0.50300 26.54900
N  25.84300 0.64000 30.61000
C  26.83500 0.75500 31.56300
C  26.17900 0.90800 32.93300
C  24.72100 1.31200 32.64900
C  24.64400 1.00900 31.10500
C  23.69600 0.67700 33.63100
C  26.86300 2.00300 33.78400
C  27.33800 1.70000 35.21500
H  27.53200 2.84900 36.26200
N  24.21300 0.90900 27.99800
C  23.26200 1.17100 28.93700
C  22.02400 1.41300 28.20000
C  22.30200 1.38800 26.83700
C  23.70600 0.90700 26.75400
C  20.67700 1.63000 28.97300
C  21.37500 1.72300 25.71000
O  21.69700 1.68500 24.50700
C  19.95800 2.11500 26.03300
N  26.70800 0.21300 26.32800
C  25.82100 0.61400 25.39100
C  26.39500 0.28000 23.99600
C  27.85300 -0.20500 24.28100
C  27.93600 -0.11800 25.85300
C  25.55500 -0.68000 23.12500
C  28.80100 0.67000 23.54600
C  29.00100 2.08300 24.05700
N  28.18500 0.00500 28.76800
C  29.17100 -0.47500 27.92500
C  30.36600 -0.81800 28.74800
C  30.00100 -0.58200 30.07100
C  28.65300 0.02500 30.04500
C  31.61600 -1.47700 28.19300
C  30.44400 -0.70800 31.46900
O  31.45500 -1.17400 31.97200
C  29.26900 -0.09100 32.29700
C  28.77900 -1.07200 33.28900
O  27.91100 -1.92300 33.08100
O  29.46900 -0.96600 34.47700
C  29.00500 -1.71100 35.59300
H  22.62200 1.69300 30.88700
H  23.96800 1.15800 24.69400
H  29.91500 -0.94300 26.14000
H  26.25500 -0.05100 33.44600
H  24.53100 2.37500 32.79600
H  22.85500 0.22400 33.10600
H  23.38600 1.39100 34.39500
H  24.25900 -0.08400 34.17100
H  26.20700 2.87300 33.81000
H  27.76300 2.37100 33.29200
H  28.37000 1.35800 35.14100
H  26.95100 0.76300 35.61600
H  20.56300 1.15400 29.94700
H  19.91700 1.07100 28.42600
H  20.31400 2.65700 28.99800
H  19.41600 1.25700 26.43000
H  19.40100 2.34200 25.12400
H  20.12000 2.94900 26.71500
H  26.39100 1.22600 23.45600
H  28.08800 -1.23100 23.99700
H  25.73000 -0.35000 22.10100
H  24.48400 -0.57700 23.30200
H  25.89300 -1.70000 23.30900
H  28.33200 0.74000 22.56500
H  29.72300 0.08800 23.56100
H  29.18200 2.74000 23.20700
H  29.83600 2.11400 24.75700
H  28.12000 2.32900 24.65000
H  31.96500 -1.26400 27.18200
H  31.43800 -2.54900 28.28500
H  32.49400 -1.18200 28.76800
H  29.69000 0.76700 32.82200
H  27.93000 -1.67300 35.76800
H  29.59600 -1.53000 36.49100
H  29.13200 -2.72700 35.22100
Mg 47.84000 34.05900 27.08300
C  45.91100 32.97500 29.93600
C  48.74600 36.84300 28.85500
C  49.05400 35.44500 24.25700
C  46.74900 31.24500 25.41600
N  47.37800 34.76900 29.09000
C  46.56700 34.25800 30.09600
C  46.61100 35.11000 31.36900
C  47.13800 36.41700 30.74600
C  47.82600 35.98800 29.45300
C  46.05400 37.52500 30.57000
C  47.50800 34.56600 32.56100
C  46.91800 34.91500 33.90100
H  47.87200 35.42000 35.00400
N  48.78600 35.90600 26.58000
C  49.20600 36.78400 27.54800
C  50.07400 37.76600 26.85200
C  50.26200 37.43300 25.49200
C  49.32300 36.22300 25.36900
C  50.66900 38.99700 27.52600
C  51.15500 38.05400 24.37500
O  51.11000 37.61600 23.20800
C  52.15700 39.18600 24.77800
N  47.74300 33.49200 25.20100
C  48.37300 34.20500 24.22600
C  48.09600 33.61500 22.82500
C  47.43500 32.27300 23.14200
C  47.21600 32.35900 24.68600
C  47.23100 34.48100 21.93200
C  48.47600 31.15300 22.80700
C  49.66200 30.74700 23.70200
N  46.74100 32.40600 27.51700
C  46.37600 31.27400 26.75800
C  45.55500 30.37500 27.48900
C  45.33100 31.02900 28.70200
C  46.05700 32.22800 28.69000
C  44.99700 29.08900 27.00600
C  44.55000 30.91400 30.01300
O  43.80800 29.99600 30.43200
C  44.82000 32.19900 30.70800
C  44.96600 32.00200 32.19500
O  45.97600 31.70800 32.73200
O  43.74800 31.92700 32.73100
C  43.81200 31.68900 34.23500
H  49.08400 37.65300 29.50500
H  49.52500 35.69600 23.30400
H  46.35900 30.38600 24.86400
H  45.58400 35.27800 31.69400
H  47.95300 36.84700 31.32700
H  45.99900 37.89400 29.54600
H  46.19900 38.43000 31.15900
H  45.10200 37.03100 30.76800
H  48.50000 35.01300 32.49000
H  47.75700 33.50800 32.48000
H  46.42500 34.00300 34.24000
H  46.05900 35.57800 33.79700
H  51.75500 38.92200 27.55800
H  50.27400 38.92500 28.53900
H  50.36700 39.95300 27.09600
H  52.92300 39.34300 24.01900
H  52.63900 38.83600 25.69100
H  51.79500 40.20100 24.94200
H  49.10200 33.51000 22.41900
H  46.50000 32.11000 22.60500
H  47.24200 35.50100 22.31800
H  46.22400 34.07000 21.86500
H  47.65400 34.47200 20.92800
H  49.01900 31.41900 21.90000
H  47.88000 30.25000 22.67800
H  49.74000 31.42900 24.54900
H  50.62800 30.89100 23.21900
H  49.42300 29.76500 24.11000
H  44.62600 28.43900 27.79800
H  45.68000 28.55100 26.34800
H  44.12600 29.24000 26.36800
H  43.91800 32.80600 30.63800
H  42.92600 32.20200 34.60900
H  44.61600 32.09400 34.85100
H  43.89100 30.61600 34.40900

