158

Mg 42.23300 40.79700 26.80900
C  41.30500 43.11400 29.34000
C  42.96500 38.60900 29.38800
C  43.54600 38.80600 24.50900
C  41.69600 43.28600 24.38200
N  42.09000 40.84300 29.17400
C  41.67900 41.89100 29.96000
C  41.77200 41.53900 31.40700
C  42.35200 40.07800 31.42100
C  42.41900 39.81700 29.89400
C  43.63100 39.81300 32.14100
C  40.50600 41.79600 32.34300
C  40.52700 41.05900 33.73400
H  40.46100 41.95200 35.04800
N  43.09900 38.95300 26.93800
C  43.27300 38.14500 28.05900
C  43.70300 36.82500 27.61000
C  43.92200 36.87800 26.22700
C  43.52700 38.23500 25.85200
C  43.88500 35.69800 28.69600
C  44.31300 35.82800 25.23900
O  44.50100 35.94800 24.01100
C  44.32200 34.44200 25.71300
N  42.52700 40.96400 24.76800
C  43.20200 40.07200 24.01400
C  43.22600 40.51300 22.53600
C  42.69100 41.95300 22.57400
C  42.17900 42.06400 23.98400
C  44.66000 40.39400 21.88500
C  41.63900 42.31500 21.55300
C  40.15800 42.00500 21.84800
N  41.52200 42.78000 26.80700
C  41.32200 43.66200 25.72000
C  40.85500 44.93500 26.17400
C  40.82200 44.77100 27.56500
C  41.26200 43.45500 27.92000
C  40.44700 46.07900 25.33900
C  40.41800 45.44500 28.83400
O  39.96200 46.57100 28.99800
C  40.81300 44.41200 30.02700
C  42.07100 44.96300 30.68700
O  43.11000 45.20000 30.12700
O  41.80000 45.39400 31.95600
C  42.80900 46.18800 32.64600
H  43.15300 37.90400 30.20000
H  44.06800 38.18400 23.77800
H  41.42300 44.03400 23.63400
H  42.53500 42.21100 31.79900
H  41.57600 39.38600 31.74900
H  43.74600 40.60300 32.88300
H  44.42600 39.81000 31.39500
H  43.41000 38.86500 32.63000
H  39.61400 41.55900 31.76400
H  40.50300 42.87500 32.50000
H  41.46600 40.51300 33.82400
H  39.72800 40.31700 33.72100
H  43.81400 34.64400 28.43000
H  43.23000 35.77600 29.56400
H  44.89500 35.95300 29.01500
H  45.21400 34.35400 26.33200
H  44.27600 33.67300 24.94100
H  43.37500 34.30500 26.23500
H  42.50500 39.85700 22.04900
H  43.46200 42.72300 22.57000
H  45.36900 39.98000 22.60100
H  45.02000 41.37500 21.57500
H  44.73600 39.66600 21.07800
H  41.95500 41.81200 20.63900
H  41.78800 43.34700 21.23700
H  40.19400 41.50700 22.81700
H  39.74900 41.27200 21.15400
H  39.53100 42.89700 21.87300
H  41.39400 46.54500 25.06600
H  39.83800 46.71200 25.98400
H  39.93900 45.66000 24.47100
H  40.02000 44.34300 30.77100
H  42.56100 46.19600 33.70800
H  42.62500 47.18300 32.24200
H  43.83500 45.84100 32.52300
Mg -10.94100 16.70200 42.45700
C  -7.57500 17.40700 42.88500
C  -11.33300 20.05700 41.85900
C  -14.14500 16.07300 41.40000
C  -10.25400 13.30400 42.56500
N  -9.54300 18.48600 42.20400
C  -8.27000 18.54400 42.51600
C  -7.66900 19.93200 42.44900
C  -8.95300 20.75600 42.58200
C  -10.02900 19.74100 42.15600
C  -9.23700 21.28500 43.92900
C  -6.96500 20.01400 41.05500
C  -5.46300 20.11500 41.02700
H  -4.63400 19.03500 40.24500
N  -12.50600 17.87500 41.66700
C  -12.47800 19.22300 41.55800
C  -13.77100 19.67400 41.12300
C  -14.61800 18.52800 40.87500
C  -13.78800 17.45200 41.34800
C  -14.00100 21.18100 40.95700
C  -16.11200 18.54200 40.34000
O  -16.60700 19.63800 39.98800
C  -16.88400 17.28300 40.19200
N  -12.07100 14.95500 42.09600
C  -13.37300 14.92900 41.73200
C  -13.89200 13.48000 41.55000
C  -12.59200 12.65400 41.79200
C  -11.52300 13.72900 42.15200
C  -15.22600 12.99000 42.34800
C  -12.17100 11.63300 40.73000
C  -11.98200 10.11600 41.19300
N  -9.25500 15.53600 42.73700
C  -9.14100 14.17400 42.74300
C  -7.80100 13.86700 43.04000
C  -7.12500 15.05500 43.14700
C  -8.05300 16.05700 42.87500
C  -7.22000 12.49900 43.31500
C  -5.84500 15.67500 43.31800
O  -4.72200 15.17600 43.37600
C  -6.08200 17.29700 43.25600
C  -5.73100 17.70200 44.64800
O  -6.44500 17.65200 45.64900
O  -4.42000 18.06800 44.65200
C  -4.16100 18.90700 45.86000
H  -11.37900 21.14600 41.79200
H  -15.11000 15.66900 41.08800
H  -10.18800 12.22400 42.71100
H  -6.99400 19.95700 43.30400
H  -8.93800 21.52100 41.80600
H  -8.27600 21.41700 44.42600
H  -9.71100 20.54700 44.57600
H  -9.89200 22.15600 43.91000
H  -7.28500 20.97900 40.66300
H  -7.21200 19.25000 40.31700
H  -5.03700 20.22800 42.02400
H  -5.33300 21.07100 40.52000
H  -13.74700 21.53500 39.95800
H  -13.35200 21.71200 41.65400
H  -15.05300 21.33100 41.19700
H  -17.83700 17.41500 39.68100
H  -17.09800 17.04700 41.23400
H  -16.25800 16.57300 39.65100
H  -14.18800 13.31000 40.51500
H  -12.84200 12.12400 42.71000
H  -15.29200 13.64800 43.21500
H  -15.25400 12.01500 42.83600
H  -16.01100 13.18300 41.61700
H  -11.26500 11.99200 40.24300
H  -12.87700 11.57100 39.90200
H  -12.56300 9.42200 40.58600
H  -12.25200 10.14800 42.24900
H  -10.95900 9.74000 41.20200
H  -6.15900 12.60200 43.54200
H  -7.25700 11.95200 42.37300
H  -7.81600 11.92600 44.02500
H  -5.43000 17.83600 42.56800
H  -3.93200 19.92300 45.53700
H  -3.22100 18.53900 46.27100
H  -4.85400 19.00200 46.69500

