158

Mg 48.44900 34.60200 26.65100
C  46.59500 32.94500 29.15500
C  49.09600 37.08700 28.75300
C  49.92000 36.16700 24.04300
C  47.68000 31.85300 24.56100
N  47.84200 34.95500 28.69200
C  47.13000 34.19200 29.52800
C  47.31500 34.62200 30.86600
C  47.79500 36.10100 30.70200
C  48.32200 36.03600 29.28400
C  46.82300 37.27000 30.83600
C  48.41200 33.76700 31.56700
C  48.32500 33.85600 33.15000
H  47.52300 34.92100 33.88600
N  49.48800 36.38100 26.43700
C  49.62200 37.28200 27.45600
C  50.39800 38.39900 26.98600
C  50.61600 38.19800 25.54600
C  50.00300 36.87200 25.25300
C  50.74200 39.59500 27.91500
C  51.11500 39.15400 24.42900
O  50.91200 38.96100 23.23500
C  51.63700 40.61900 24.84200
N  48.71100 34.14500 24.53900
C  49.47900 34.86400 23.74600
C  49.53800 34.22700 22.31000
C  48.87800 32.82500 22.44300
C  48.43200 32.90400 23.96400
C  48.93000 35.09200 21.11700
C  49.85400 31.61500 22.25000
C  49.14700 30.31700 21.79300
N  47.47100 32.78000 26.80500
C  47.24100 31.77800 25.84700
C  46.45400 30.70400 26.41900
C  46.16900 31.16200 27.69900
C  46.78800 32.39800 27.87600
C  45.97100 29.51900 25.70200
C  45.35200 30.81300 28.88500
O  44.58300 29.86100 29.12900
C  45.51000 32.03700 29.81400
C  45.74800 31.60100 31.20300
O  46.58100 30.82100 31.59800
O  44.73600 32.05900 31.92800
C  44.68000 31.64500 33.35900
H  49.26900 37.83800 29.52600
H  50.35100 36.63700 23.15700
H  47.58200 30.93600 23.97600
H  46.34200 34.57300 31.35400
H  48.70200 36.34700 31.25400
H  45.97000 37.00500 31.46000
H  46.48400 37.63000 29.86400
H  47.34000 38.01800 31.43700
H  49.39600 34.21800 31.44000
H  48.32700 32.69000 31.42000
H  49.38200 33.83700 33.41600
H  47.83300 32.93000 33.44600
H  51.80500 39.82300 27.84000
H  50.47500 39.37000 28.94800
H  50.24400 40.47200 27.50100
H  51.38600 41.36200 24.08500
H  52.70000 40.56300 25.07700
H  51.21200 40.96000 25.78500
H  50.60200 34.08900 22.11800
H  48.01800 32.63500 21.80000
H  49.65600 35.27400 20.32400
H  48.47400 35.98500 21.54200
H  48.10600 34.50100 20.71800
H  50.35500 31.41900 23.19800
H  50.54500 31.96200 21.48200
H  49.41100 30.03300 20.77400
H  48.06300 30.42000 21.76300
H  49.33700 29.54100 22.53500
H  46.30900 28.58900 26.15900
H  46.16400 29.56200 24.63000
H  44.88700 29.53500 25.82000
H  44.63700 32.68800 29.79000
H  45.22100 32.46200 33.83700
H  45.20200 30.73200 33.65000
H  43.62400 31.58700 33.62100
Mg 0.70200 44.02000 26.15700
C  2.11400 43.92200 29.24000
C  -2.42500 43.16600 27.47800
C  -0.63300 44.13200 23.05300
C  3.89200 44.64000 24.75100
N  0.00800 43.43200 28.06400
C  0.81000 43.55200 29.25100
C  -0.04000 43.57900 30.57200
C  -1.45800 43.17300 30.00200
C  -1.34700 43.28900 28.40200
C  -2.03300 41.85700 30.54900
C  -0.03400 44.95100 31.34800
C  -0.16600 44.84500 32.86200
H  -0.38400 43.51400 33.68400
N  -1.22200 43.63800 25.39200
C  -2.34800 43.28800 26.17500
C  -3.50700 43.22900 25.29700
C  -3.06200 43.63900 23.99000
C  -1.58900 43.82700 24.08800
C  -4.94100 42.86100 25.86000
C  -3.85300 43.98900 22.71800
O  -3.34300 44.38800 21.71300
C  -5.37100 44.00900 22.71300
N  1.51000 44.18300 24.16500
C  0.78300 44.23600 23.02900
C  1.55300 44.67700 21.79600
C  2.95100 45.09000 22.42600
C  2.82000 44.60000 23.86800
C  1.65000 43.62800 20.77800
C  3.14700 46.62400 22.34500
C  2.88400 47.47900 21.09200
N  2.62100 44.30800 26.78800
C  3.84500 44.44200 26.11900
C  4.86700 44.47500 27.12800
C  4.24300 44.27200 28.33800
C  2.92300 44.12700 28.05000
C  6.38200 44.65600 26.89000
C  4.54600 44.08000 29.69500
O  5.56000 44.21200 30.38900
C  3.12000 43.85000 30.38300
C  3.16400 42.59600 31.16200
O  2.85100 41.45600 30.77400
O  3.68400 42.80100 32.48700
C  3.92800 41.62300 33.31700
H  -3.39000 43.10500 27.98700
H  -1.05800 44.26100 22.05500
H  4.91900 44.75800 24.40000
H  0.31700 42.87100 31.32000
H  -2.20600 43.92400 30.25500
H  -1.12700 41.30800 30.80600
H  -2.51200 41.25600 29.77600
H  -2.77700 42.12900 31.29800
H  -0.93500 45.50800 31.09000
H  0.74900 45.65200 31.05800
H  -0.95500 45.50800 33.21800
H  0.67600 45.36800 33.31600
H  -4.82400 41.98900 26.50300
H  -5.54400 42.66700 24.97200
H  -5.26700 43.68300 26.49700
H  -5.79400 43.03700 22.46000
H  -5.58000 44.62600 21.83900
H  -5.82400 44.39100 23.62800
H  1.13000 45.52500 21.25700
H  3.80000 44.61700 21.93200
H  1.10200 42.72200 21.03600
H  2.68400 43.44100 20.48800
H  1.21700 44.05000 19.87200
H  4.21900 46.77900 22.47400
H  2.66500 47.06900 23.21600
H  3.83800 47.95100 20.85900
H  2.08100 48.18100 21.31500
H  2.57900 46.79200 20.30200
H  6.89000 43.75300 26.55100
H  6.61800 45.10700 27.85300
H  6.54100 45.42700 26.13600
H  2.93000 44.64600 31.10200
H  3.06700 40.96200 33.22500
H  3.98000 42.00600 34.33600
H  4.88000 41.18300 33.01700

