158

Mg 24.26600 -6.91200 47.22300
C  27.10700 -4.73700 46.39200
C  22.42400 -5.19400 44.85200
C  22.08900 -9.39900 47.30100
C  26.73000 -8.98300 48.87000
N  24.82300 -5.25100 45.72500
C  25.94100 -4.41100 45.69900
C  25.77400 -3.19800 44.77800
C  24.14700 -3.31700 44.54300
C  23.79800 -4.76500 45.00700
C  23.33800 -2.23300 45.31800
C  26.55800 -3.33300 43.38900
C  26.78800 -2.04400 42.65000
H  25.96200 -1.75700 41.46500
N  22.42800 -7.17800 46.40800
C  21.80100 -6.31500 45.50700
C  20.50000 -6.78900 45.26000
C  20.36900 -8.06400 45.86800
C  21.66900 -8.25300 46.61500
C  19.54500 -6.17200 44.25900
C  19.12800 -8.98600 45.83200
O  18.14900 -8.66400 45.19000
C  19.03900 -10.26800 46.54400
N  24.46100 -8.90300 47.78800
C  23.35100 -9.70300 47.82400
C  23.65400 -11.09600 48.40300
C  25.16300 -10.95500 48.81400
C  25.52900 -9.53400 48.42500
C  22.67100 -11.43400 49.65500
C  26.11300 -12.01700 48.23700
C  26.09600 -13.31600 49.13100
N  26.42500 -6.83100 47.64900
C  27.24400 -7.71600 48.45300
C  28.57100 -7.19700 48.63100
C  28.51900 -5.99800 47.87600
C  27.27400 -5.88700 47.18500
C  29.72800 -7.78600 49.41200
C  29.30400 -4.90300 47.46700
O  30.42100 -4.57700 47.78800
C  28.45800 -4.05500 46.34000
C  28.37100 -2.64800 46.67900
O  28.00100 -2.12500 47.71200
O  28.86900 -1.94300 45.57700
C  28.95000 -0.48400 45.70700
H  21.85200 -4.51800 44.21200
H  21.56000 -10.35300 47.23700
H  27.23600 -9.52800 49.66900
H  25.99100 -2.23000 45.23000
H  23.90800 -3.32500 43.48000
H  22.66000 -1.72500 44.63100
H  23.99700 -1.44300 45.67800
H  22.84200 -2.59000 46.22000
H  25.96600 -3.96800 42.73000
H  27.52800 -3.79700 43.56500
H  27.83900 -1.97700 42.36700
H  26.73100 -1.17300 43.30300
H  18.51000 -6.02900 44.56900
H  19.58900 -6.59500 43.25600
H  19.91400 -5.15100 44.16600
H  19.56400 -11.11900 46.11200
H  17.96900 -10.43200 46.42100
H  19.30300 -10.21400 47.60000
H  23.66000 -11.84300 47.61000
H  25.25200 -11.08900 49.89200
H  21.96000 -12.14400 49.23500
H  22.18800 -10.50300 49.95300
H  23.26200 -11.88400 50.45300
H  27.09400 -11.55100 48.33100
H  25.95800 -12.29300 47.19400
H  26.98100 -13.40000 49.76100
H  26.06100 -14.11800 48.39300
H  25.25200 -13.44300 49.80900
H  30.18400 -8.73900 49.14400
H  29.25900 -7.88600 50.39100
H  30.44000 -6.96400 49.48800
H  28.94500 -4.18800 45.37400
H  29.08700 0.02000 44.75000
H  29.84500 -0.26100 46.28800
H  28.06600 -0.01600 46.14000
Mg 17.52800 -2.28100 27.26500
C  16.68700 -0.40500 30.07400
C  19.47900 -4.23900 29.32800
C  18.93600 -3.79600 24.41800
C  16.02200 0.08700 25.22100
N  18.17100 -2.09800 29.43100
C  17.53000 -1.46200 30.44300
C  17.97900 -1.90200 31.86000
C  18.98900 -3.06800 31.54000
C  18.86300 -3.18300 29.99100
C  20.39500 -2.65200 31.97200
C  16.79700 -2.32100 32.74200
C  16.91100 -1.73900 34.15300
H  18.23100 -1.41800 34.76900
N  18.82500 -3.86600 26.89700
C  19.54000 -4.54100 27.89300
C  20.35900 -5.64500 27.26700
C  20.07700 -5.62200 25.86700
C  19.25300 -4.39000 25.65400
C  21.14700 -6.63200 28.05300
C  20.53700 -6.53500 24.73000
O  20.10200 -6.35900 23.57000
C  21.37500 -7.78700 24.99100
N  17.38700 -1.99700 25.07800
C  18.15300 -2.64500 24.15600
C  17.98000 -1.95200 22.76300
C  17.02200 -0.77900 23.05900
C  16.79600 -0.92600 24.54800
C  19.38200 -1.61200 22.13600
C  15.72200 -0.67000 22.15600
C  14.56100 -1.51500 22.71700
N  16.39300 -0.65000 27.51100
C  15.78200 0.20600 26.61900
C  15.00000 1.21200 27.33800
C  15.39500 0.98300 28.66300
C  16.27500 -0.10400 28.73800
C  14.02900 2.15200 26.67100
C  15.09500 1.47900 30.03200
O  14.25500 2.30500 30.40700
C  15.97600 0.59800 30.98600
C  16.85000 1.42800 31.85500
O  17.88900 1.94900 31.52100
O  16.42100 1.51900 33.14400
C  17.12500 2.61700 33.91500
H  20.08600 -4.92100 29.92600
H  19.43000 -4.22800 23.54600
H  15.68700 0.86300 24.52900
H  18.38900 -0.99800 32.31100
H  18.85700 -4.00100 32.08800
H  21.00700 -2.80900 31.08400
H  20.66900 -3.26600 32.83000
H  20.50300 -1.60400 32.24900
H  16.65200 -3.39700 32.83500
H  15.94200 -1.83100 32.27500
H  16.31600 -2.39800 34.78500
H  16.28100 -0.85500 34.05400
H  20.50400 -7.46100 28.34700
H  21.52400 -6.14600 28.95300
H  21.97300 -7.11500 27.53100
H  20.87400 -8.48200 25.66500
H  22.32500 -7.44100 25.39600
H  21.66600 -8.21300 24.03100
H  17.45600 -2.71800 22.19000
H  17.45600 0.19900 22.85500
H  19.55200 -2.34900 21.35100
H  20.09100 -1.65500 22.96300
H  19.42000 -0.60900 21.71200
H  15.97700 -0.98200 21.14300
H  15.33300 0.34600 22.10700
H  13.86700 -0.79800 23.15700
H  14.84800 -2.29400 23.42300
H  14.00900 -1.92700 21.87300
H  13.56100 1.61500 25.84600
H  14.57900 3.00400 26.27100
H  13.26200 2.41200 27.40100
H  15.27800 0.10900 31.66500
H  16.64400 2.84000 34.86700
H  17.09000 3.52800 33.31700
H  18.17100 2.31700 33.97300

