158

Mg 47.34300 25.36200 28.72000
C  48.02400 27.73800 31.20700
C  46.34500 23.15800 31.13700
C  46.60200 23.13400 26.18700
C  48.75900 27.61100 26.41000
N  47.45600 25.39200 30.95300
C  47.51900 26.52800 31.73100
C  47.09800 26.22000 33.18800
C  46.64400 24.75000 33.08900
C  46.93100 24.36000 31.66600
C  47.34800 23.68700 34.14300
C  45.94100 27.26200 33.58400
C  46.02300 28.01900 34.95300
H  46.59900 27.41600 36.22200
N  46.53000 23.39700 28.69200
C  46.11100 22.74900 29.83900
C  45.45900 21.59700 29.34400
C  45.49500 21.61400 27.94600
C  46.26400 22.71100 27.55900
C  44.90400 20.50100 30.29500
C  44.75000 20.70700 27.00300
O  44.83900 20.78000 25.79300
C  43.74300 19.73800 27.47500
N  47.68200 25.32600 26.63000
C  47.30700 24.31900 25.78300
C  47.69700 24.62700 24.34200
C  48.16400 26.07700 24.45900
C  48.19100 26.40200 25.92300
C  48.79100 23.67500 23.81200
C  47.24300 27.09000 23.80600
C  47.99000 28.08800 22.81900
N  48.26200 27.31300 28.71700
C  48.81400 28.03600 27.75100
C  49.29400 29.34400 28.27200
C  48.95600 29.28300 29.63000
C  48.36900 28.01000 29.86900
C  49.94000 30.40500 27.48600
C  48.90200 30.00800 30.89600
O  49.20800 31.13900 31.20200
C  48.37200 28.94300 32.01600
C  49.33400 28.77300 33.10000
O  50.22500 27.89900 33.20100
O  49.08200 29.74800 34.01500
C  50.09800 29.91800 35.00100
H  45.79900 22.58400 31.88800
H  46.17800 22.58000 25.34700
H  49.05500 28.35900 25.67200
H  47.89200 26.23200 33.93500
H  45.57400 24.58400 33.21100
H  48.15000 23.37200 33.47500
H  46.68600 22.84500 34.35000
H  47.71300 24.26100 34.99500
H  45.05200 26.63600 33.65400
H  45.79900 28.02900 32.82200
H  45.05200 28.42800 35.23500
H  46.52700 28.97000 34.78500
H  45.12900 19.50400 29.91700
H  43.81900 20.58000 30.37100
H  45.25200 20.56700 31.32600
H  43.16000 20.08400 28.32800
H  44.27600 18.88000 27.88600
H  43.02200 19.38100 26.74000
H  46.69300 24.60800 23.91700
H  49.19500 26.13300 24.11200
H  49.64200 24.05200 24.37800
H  48.85900 23.87000 22.74200
H  48.45700 22.67400 24.08600
H  46.73200 27.68200 24.56500
H  46.40300 26.65400 23.26500
H  49.02300 27.74500 22.76700
H  48.00000 29.13800 23.11000
H  47.57700 28.20600 21.81700
H  50.98900 30.15500 27.32800
H  49.92900 31.33500 28.05400
H  49.44300 30.56300 26.52800
H  47.48500 29.43200 32.41900
H  49.87400 29.30700 35.87500
H  50.07100 30.97000 35.28200
H  51.12500 29.64700 34.75400
Mg 1.96300 42.72000 26.41100
C  3.43500 42.61400 29.49400
C  -1.06700 41.69500 28.28200
C  0.39900 42.10600 23.57700
C  4.92000 42.95600 24.79100
N  1.31700 42.32100 28.67900
C  2.06100 42.46500 29.67700
C  1.35500 42.38900 31.10700
C  -0.09600 41.97100 30.60900
C  0.03500 42.07900 29.05700
C  -0.55100 40.56700 31.06900
C  1.39500 43.76900 31.73800
C  1.90800 43.80500 33.22300
H  1.49500 42.69600 34.21900
N  -0.09900 42.22900 25.93700
C  -1.13100 41.79900 26.83300
C  -2.33000 41.47200 26.07800
C  -1.96500 41.63700 24.73200
C  -0.53500 41.98700 24.66800
C  -3.62200 40.97200 26.70000
C  -2.76200 41.35100 23.42400
O  -2.31600 41.45100 22.25200
C  -4.08100 40.82500 23.51900
N  2.60500 42.72400 24.33700
C  1.77400 42.43700 23.33900
C  2.51700 42.43300 21.95100
C  3.96600 42.71500 22.42900
C  3.85400 42.84800 23.91600
C  2.29400 41.12300 21.17700
C  4.44800 44.00500 21.75900
C  3.90300 45.33600 22.37700
N  3.77700 42.85300 26.90300
C  4.94800 42.93100 26.22200
C  6.05400 43.00800 27.06500
C  5.50600 42.96600 28.38600
C  4.10500 42.85000 28.20000
C  7.45400 43.18000 26.62100
C  5.87300 42.95100 29.84100
O  6.98500 43.02200 30.39800
C  4.50100 42.71200 30.55600
C  4.76700 41.47100 31.36900
O  4.59300 40.33700 30.98500
O  5.21800 41.86600 32.57600
C  5.52600 40.76100 33.46300
H  -2.04900 41.51000 28.72100
H  -0.02900 41.87000 22.60100
H  5.86800 43.07700 24.26100
H  1.76400 41.70100 31.84700
H  -0.87700 42.60500 31.02800
H  -1.24700 40.64500 31.90500
H  0.35200 40.08900 31.45100
H  -0.94800 40.01300 30.21800
H  0.44400 44.24200 31.49300
H  2.13500 44.43700 31.29700
H  1.47000 44.77400 33.46200
H  2.97900 43.98300 33.32500
H  -4.42400 41.71000 26.70700
H  -3.47300 40.37900 27.60300
H  -4.00100 40.24000 25.98700
H  -4.63700 41.01700 22.60200
H  -4.56800 41.50700 24.21600
H  -4.03500 39.79200 23.86600
H  2.10800 43.27700 21.39600
H  4.67400 41.89300 22.31700
H  1.85200 41.36000 20.20900
H  1.68300 40.41200 21.73300
H  3.22900 40.59900 20.97900
H  4.23000 44.00100 20.69100
H  5.53600 43.98000 21.69200
H  3.47100 45.96100 21.59500
H  4.82000 45.78000 22.76400
H  3.16900 45.29300 23.18200
H  7.53100 42.96000 25.55600
H  8.16800 42.59100 27.19700
H  7.70400 44.23800 26.69400
H  4.33600 43.59200 31.17800
H  5.99900 41.19200 34.34500
H  6.33600 40.20200 32.99500
H  4.65000 40.12300 33.58300

