158

Mg 47.59800 15.48200 27.67600
C  45.36200 14.90500 30.23000
C  49.10500 17.86900 29.80900
C  49.58100 16.34200 25.19300
C  45.40800 13.77900 25.48200
N  47.31900 16.19000 29.85500
C  46.43000 15.63700 30.70600
C  46.74700 16.11800 32.10600
C  47.76700 17.31000 31.93900
C  48.05900 17.14100 30.43100
C  47.23300 18.66900 32.44900
C  47.23000 14.98600 33.03400
C  47.08100 15.45900 34.48800
H  48.31000 15.22200 35.40000
N  49.32000 16.69400 27.59600
C  49.72600 17.63400 28.53400
C  50.92200 18.21800 27.96300
C  51.13500 17.72400 26.67300
C  49.97000 16.85900 26.44700
C  51.78100 19.31700 28.73300
C  52.27100 18.05000 25.74500
O  52.43000 17.52100 24.66600
C  53.26500 19.09500 26.15800
N  47.55900 14.98400 25.56000
C  48.52900 15.51700 24.73800
C  48.10900 15.24900 23.22300
C  46.91100 14.24100 23.34400
C  46.56300 14.32400 24.85700
C  47.80200 16.52700 22.40200
C  47.23900 12.76800 22.94100
C  47.97000 11.79400 23.94500
N  45.77700 14.52000 27.74600
C  45.01400 13.85200 26.85100
C  43.73300 13.50200 27.44600
C  43.84900 13.80000 28.78600
C  45.09600 14.47900 28.95100
C  42.60700 12.88700 26.59000
C  43.10400 13.82100 30.06300
O  41.92600 13.56400 30.34000
C  44.13000 14.45900 31.03900
C  43.47900 15.53100 31.84000
O  42.87800 16.50300 31.41200
O  43.49100 15.24800 33.19500
C  42.92600 16.31400 34.00900
H  49.45400 18.66700 30.46900
H  50.12800 16.73200 24.33200
H  44.69800 13.26100 24.83400
H  45.83300 16.49600 32.56500
H  48.68700 17.17400 32.50700
H  47.61500 19.44800 31.78900
H  47.73500 18.95000 33.37500
H  46.14700 18.75700 32.44100
H  48.26000 14.76600 32.75400
H  46.72600 14.02700 32.92000
H  46.27900 14.83000 34.87300
H  46.64300 16.44100 34.66300
H  51.26900 19.60800 29.65000
H  51.81700 20.17600 28.06300
H  52.80000 19.05700 29.01900
H  54.04400 19.02200 25.39800
H  53.79400 18.92700 27.09600
H  52.89100 20.11900 26.14900
H  48.94800 14.70900 22.78500
H  46.05000 14.55400 22.75400
H  48.70500 16.74600 21.83300
H  47.45100 17.37500 22.99000
H  47.02700 16.27000 21.68000
H  47.93000 12.67800 22.10300
H  46.28700 12.29600 22.69700
H  48.86800 11.33200 23.53400
H  47.23600 11.04200 24.23400
H  48.14100 12.16300 24.95600
H  41.65500 13.09700 27.07700
H  42.79700 11.81700 26.50400
H  42.59400 13.29400 25.57800
H  44.34400 13.64800 31.73600
H  43.33000 17.28700 33.72800
H  43.04200 15.91800 35.01700
H  41.86900 16.35800 33.74600
Mg 46.49200 34.64700 28.19100
C  44.87700 32.67900 30.58900
C  46.52200 37.30600 30.37500
C  47.22500 36.72600 25.57900
C  45.39000 32.20900 25.71100
N  46.01200 34.76900 30.29800
C  45.44900 33.82600 31.10000
C  45.40400 34.32800 32.50500
C  45.45500 35.90600 32.30700
C  46.01700 36.05500 30.87800
C  44.19800 36.74800 32.62300
C  46.63900 33.84200 33.25700
C  46.52700 33.81100 34.80000
H  45.60400 34.77200 35.52600
N  47.05900 36.64900 28.10400
C  47.04900 37.56200 29.14400
C  47.71100 38.76300 28.64200
C  47.84200 38.64700 27.23200
C  47.33800 37.30100 26.90700
C  47.98800 39.90800 29.61700
C  48.40900 39.66200 26.30600
O  48.60200 39.45500 25.10400
C  48.82500 41.09500 26.84500
N  46.26200 34.52700 25.90500
C  46.86400 35.42200 25.16100
C  46.85100 34.97900 23.64400
C  46.48200 33.44800 23.81600
C  46.01700 33.36500 25.23100
C  45.80200 35.82800 22.83300
C  47.70700 32.53400 23.54200
C  47.44500 31.21400 22.80400
N  45.47100 32.76400 28.10100
C  45.15800 31.89300 27.05100
C  44.60800 30.69200 27.67700
C  44.53900 30.98600 29.03900
C  44.96300 32.27200 29.21900
C  44.29200 29.45700 26.84600
C  44.11800 30.42200 30.30800
O  43.82300 29.31300 30.58800
C  43.92400 31.62600 31.26800
C  44.18600 31.22300 32.73000
O  44.98700 30.36400 33.09200
O  43.23700 31.78700 33.48000
C  43.03700 31.48100 34.86600
H  46.27200 38.12500 31.05300
H  47.50300 37.46600 24.82500
H  45.25100 31.42500 24.96400
H  44.50400 33.93300 32.97500
H  46.11400 36.20800 33.12000
H  44.26700 37.42100 33.47800
H  43.46900 35.96500 32.83400
H  43.86300 37.49700 31.90700
H  47.55500 34.29200 32.87700
H  46.77600 32.79300 32.99200
H  47.52600 33.99100 35.19500
H  46.30700 32.79200 35.12000
H  47.89600 39.53500 30.63700
H  47.39700 40.79000 29.36800
H  49.04100 40.14400 29.45900
H  49.07100 41.64700 25.93900
H  49.71100 41.01200 27.47500
H  47.99400 41.56400 27.37400
H  47.79500 35.10900 23.11500
H  45.72100 33.06800 23.13500
H  44.86400 35.35900 22.53600
H  46.32700 36.39300 22.06300
H  45.53700 36.60600 23.55000
H  48.20300 32.31200 24.48700
H  48.45200 33.10300 22.98600
H  46.47900 31.27200 22.30200
H  47.53300 30.33700 23.44500
H  48.19400 31.22600 22.01300
H  45.17700 29.19800 26.26500
H  43.48200 29.59100 26.12900
H  44.07200 28.62400 27.51300
H  42.93500 32.08400 31.28100
H  41.98400 31.32400 35.10000
H  43.50900 32.24900 35.47900
H  43.66500 30.59900 34.99100

