158

Mg 7.96500 3.08500 28.33900
C  9.45100 1.89200 31.20400
C  6.05500 5.14500 30.20800
C  6.32100 3.85600 25.55700
C  9.74300 0.50700 26.53400
N  7.77700 3.36100 30.52500
C  8.55300 2.89300 31.50400
C  8.19200 3.54900 32.82400
C  7.07200 4.59600 32.44900
C  6.92100 4.31900 30.96200
C  5.80600 4.44900 33.25600
C  9.45200 4.08100 33.59800
C  9.62500 3.58800 35.06000
H  10.08200 4.59200 36.17600
N  6.52400 4.42800 27.92700
C  5.88000 5.16900 28.81800
C  5.06600 6.12600 28.16700
C  5.13900 5.82000 26.77600
C  5.98000 4.58600 26.69900
C  4.29100 7.11900 28.81600
C  4.57900 6.63400 25.66500
O  4.73100 6.20000 24.52300
C  3.72500 7.84200 25.81400
N  7.98300 2.19900 26.27800
C  7.23300 2.71200 25.29800
C  7.55300 2.06800 23.90200
C  8.74600 1.06400 24.19600
C  8.79800 1.23900 25.73500
C  6.28100 1.48900 23.25000
C  10.15000 1.59400 23.56300
C  11.02200 0.52500 22.97600
N  9.31400 1.57000 28.69400
C  10.00600 0.65700 27.85600
C  10.94700 -0.12700 28.70200
C  10.72500 0.34700 29.99200
C  9.75200 1.41200 29.90000
C  11.91600 -1.18500 28.04900
C  11.26300 0.23600 31.32500
O  12.11700 -0.45700 31.80400
C  10.40400 1.23500 32.15700
C  9.69800 0.43500 33.13400
O  8.68900 -0.30900 32.98000
O  10.33100 0.55100 34.32600
C  9.86000 -0.29100 35.36600
H  5.43500 5.78100 30.84300
H  5.73600 4.06700 24.65900
H  10.27400 -0.25300 25.95700
H  7.76100 2.70000 33.35400
H  7.52700 5.58600 32.46000
H  5.54700 5.48400 33.47800
H  5.98100 3.92800 34.19700
H  4.99900 4.00700 32.67100
H  9.31600 5.15300 33.73900
H  10.35300 3.85100 33.03100
H  10.48500 2.91900 35.06500
H  8.71300 3.06000 35.34000
H  4.74300 8.04400 28.45700
H  4.32000 7.13600 29.90600
H  3.26900 7.19700 28.44600
H  2.67300 7.62100 25.99300
H  3.81700 8.34400 24.85000
H  4.06000 8.62800 26.49100
H  7.77000 2.89300 23.22300
H  8.43100 0.02200 24.13200
H  6.27500 0.40300 23.15200
H  6.14400 1.99500 22.29400
H  5.51800 1.72600 23.99100
H  10.69300 2.18400 24.30200
H  10.01500 2.24500 22.69900
H  10.48900 -0.42500 22.95100
H  11.90000 0.48400 23.62000
H  11.27800 0.80500 21.95400
H  12.75500 -1.28400 28.73900
H  12.28900 -1.01200 27.04000
H  11.33800 -2.10900 28.08600
H  11.05100 1.94700 32.66800
H  10.57700 -0.30800 36.18700
H  9.83300 -1.28100 34.91100
H  8.86500 -0.05100 35.74300
Mg 47.38700 25.71300 29.49500
C  48.41100 28.17000 31.97400
C  46.15200 23.74600 31.92800
C  47.29800 23.33500 27.23200
C  49.21200 27.73100 27.19300
N  47.14700 26.08400 31.63500
C  47.66700 27.07800 32.40300
C  47.14900 26.89000 33.81900
C  46.57300 25.41600 33.83600
C  46.55700 25.07300 32.33800
C  47.60100 24.50800 34.59100
C  46.09900 27.96900 34.13700
C  46.15800 28.77400 35.50700
H  46.85900 27.91700 36.65800
N  46.64900 23.76700 29.63100
C  46.19100 23.16000 30.67200
C  45.63500 21.92600 30.32600
C  45.97200 21.76200 28.90700
C  46.69800 22.97800 28.51100
C  44.79300 21.04500 31.27600
C  45.58900 20.62300 27.97500
O  45.86400 20.67900 26.78800
C  44.81300 19.47900 28.39800
N  48.09500 25.58900 27.47900
C  47.78900 24.50300 26.75100
C  48.21800 24.71100 25.26100
C  48.66200 26.20600 25.24600
C  48.60600 26.59600 26.69800
C  49.13400 23.65700 24.66900
C  47.80900 27.05300 24.32500
C  48.57500 27.69100 23.15800
N  48.55400 27.67600 29.48400
C  49.28900 28.25500 28.50700
C  49.89600 29.50000 28.94400
C  49.53100 29.54800 30.34300
C  48.77600 28.37800 30.59900
C  50.74100 30.49000 28.08100
C  49.70500 30.23700 31.53100
O  50.25500 31.27200 31.81800
C  49.05000 29.30900 32.71200
C  50.08900 28.95000 33.67600
O  51.15900 28.44800 33.34000
O  49.72600 29.44400 34.91400
C  50.63200 29.17000 36.03600
H  45.70200 23.20200 32.76000
H  47.19700 22.63300 26.40200
H  49.64100 28.25700 26.33800
H  48.08500 27.01300 34.36400
H  45.59100 25.35100 34.30400
H  48.54300 25.02200 34.78200
H  47.92300 23.73900 33.89000
H  47.24900 23.96000 35.46500
H  45.12500 27.48700 34.06100
H  45.99900 28.77300 33.40700
H  45.19400 29.08200 35.91100
H  46.73200 29.70100 35.51100
H  43.87800 20.69400 30.80000
H  44.49300 21.45500 32.24000
H  45.36400 20.22000 31.70200
H  43.74600 19.69500 28.35600
H  45.09400 19.13800 29.39500
H  44.97900 18.66500 27.69200
H  47.32100 24.58300 24.65500
H  49.67800 26.14600 24.85800
H  49.89000 23.45600 25.42800
H  49.54600 24.09700 23.76100
H  48.45800 22.84400 24.40100
H  47.26500 27.77800 24.93000
H  46.96900 26.55700 23.83900
H  48.05500 27.54500 22.21100
H  49.59400 27.31600 23.06700
H  48.43700 28.76900 23.24700
H  50.99400 30.06800 27.10900
H  51.67100 30.53400 28.64900
H  50.16000 31.40700 27.99100
H  48.26600 29.85700 33.23500
H  51.53800 29.67300 35.69700
H  50.80500 28.09500 36.07900
H  50.26700 29.52800 36.99900

