158

Mg 48.74100 45.94100 44.16900
C  45.50600 46.21500 42.81600
C  48.85800 42.86900 42.71200
C  51.95800 45.99900 44.80800
C  48.55300 49.41400 44.99300
N  47.29500 44.67200 42.94600
C  46.01000 44.92800 42.57500
C  45.47200 43.83900 41.58300
C  46.45400 42.69000 41.91800
C  47.62600 43.46500 42.56000
C  46.02500 41.55500 42.91500
C  45.58400 44.31700 40.05600
C  44.29400 44.48500 39.24100
H  44.03300 43.42400 38.21300
N  50.23300 44.57500 43.88500
C  50.07600 43.33400 43.31100
C  51.31400 42.57600 43.48900
C  52.31600 43.53400 43.98400
C  51.52600 44.76400 44.25000
C  51.52400 41.18700 42.97600
C  53.79700 43.32300 44.13600
O  54.19200 42.12700 44.00400
C  54.72400 44.30000 44.67100
N  50.02200 47.45700 44.91200
C  51.34100 47.20300 45.11600
C  52.22800 48.47800 45.34400
C  51.05000 49.57200 45.40400
C  49.81300 48.75700 45.12400
C  53.09400 48.44500 46.62900
C  51.22200 50.69400 44.33400
C  51.45800 52.05700 44.97200
N  47.33600 47.51900 44.15600
C  47.42300 48.86200 44.46600
C  46.14700 49.56500 44.13400
C  45.39900 48.53800 43.45200
C  46.18100 47.31000 43.42800
C  45.71500 50.96000 44.36100
C  44.11300 48.34600 42.72900
O  43.23800 49.15700 42.37300
C  44.13000 46.80400 42.33100
C  42.98100 46.14000 43.06300
O  42.81000 46.17200 44.30500
O  42.08200 45.59000 42.18700
C  41.08900 44.73500 42.81300
H  48.75600 41.80500 42.48900
H  53.04800 46.06000 44.84900
H  48.57100 50.48800 45.19000
H  44.45200 43.64200 41.91200
H  46.78500 42.23000 40.98700
H  45.67200 40.67300 42.38000
H  45.15500 41.88300 43.48400
H  46.79100 41.31800 43.65300
H  46.15000 43.52900 39.55900
H  46.20700 45.21100 40.07600
H  44.26900 45.45300 38.74100
H  43.41000 44.55200 39.87400
H  50.74700 40.99800 42.23500
H  51.46400 40.43500 43.76300
H  52.46400 41.19400 42.42300
H  55.77400 44.01100 44.64700
H  54.51600 44.44000 45.73200
H  54.70600 45.14000 43.97700
H  52.89200 48.58900 44.48700
H  50.95700 49.98500 46.40900
H  52.57100 48.91400 47.46300
H  53.88700 49.11000 46.28700
H  53.49100 47.45400 46.84800
H  50.32100 50.90300 43.75800
H  52.04500 50.39600 43.68400
H  52.51500 52.13800 45.22500
H  50.85800 52.11100 45.88100
H  51.12300 52.82400 44.27300
H  44.74800 50.87100 44.85700
H  45.79000 51.59500 43.47900
H  46.34500 51.40900 45.12800
H  43.94300 46.72900 41.25900
H  41.18300 43.71800 42.43400
H  40.09900 45.16100 42.65000
H  41.18600 44.68600 43.89700
Mg 9.98500 47.83700 26.01500
C  7.84200 47.94100 28.87500
C  12.39200 49.42200 27.94700
C  11.80200 48.23500 23.19600
C  7.23900 46.77900 24.06700
N  10.06300 48.73800 28.19500
C  9.13700 48.41200 29.18400
C  9.62700 49.08000 30.49800
C  11.12600 49.56500 30.21400
C  11.25400 49.29100 28.72300
C  11.26500 51.04800 30.47300
C  9.44200 48.16700 31.83200
C  10.47000 48.19600 33.00200
H  10.05000 48.55500 34.40700
N  11.86000 48.54300 25.69300
C  12.72300 49.14500 26.57100
C  13.91500 49.39500 25.85600
C  13.83200 49.11800 24.52300
C  12.41800 48.63000 24.41300
C  15.11600 49.99000 26.58700
C  14.82500 49.35500 23.51700
O  14.55600 49.18100 22.34100
C  16.21100 49.80600 23.75500
N  9.52000 47.63200 23.91100
C  10.51300 47.67200 22.92200
C  10.03100 47.02900 21.59300
C  8.66700 46.38000 22.02100
C  8.47300 46.99300 23.36500
C  9.94500 47.99800 20.37800
C  8.64200 44.77100 22.12200
C  9.61100 44.16000 23.21100
N  7.92800 47.52900 26.34000
C  6.97400 47.05900 25.44800
C  5.71900 46.82600 26.21400
C  6.02300 47.10000 27.58700
C  7.37900 47.52400 27.61500
C  4.45800 46.22400 25.61700
C  5.57400 47.11500 28.96600
O  4.52700 46.79100 29.45900
C  6.80000 47.49700 29.85100
C  7.07100 46.25600 30.60900
O  7.63100 45.27600 30.16700
O  6.66500 46.40700 31.91400
C  7.05200 45.33100 32.84000
H  13.15700 49.86600 28.58800
H  12.37700 48.37200 22.27800
H  6.40600 46.39600 23.47500
H  8.90300 49.89400 30.54700
H  11.89700 49.00700 30.74500
H  12.14700 51.31100 31.05700
H  10.36100 51.33200 31.01200
H  11.30600 51.61900 29.54500
H  9.48300 47.09900 31.61900
H  8.39100 48.40200 32.00200
H  11.30000 48.87600 32.80900
H  10.88200 47.18700 33.01100
H  15.01900 50.09500 27.66700
H  15.35400 50.93400 26.09600
H  15.95000 49.30400 26.43900
H  16.70400 49.93900 22.79200
H  16.80500 49.10800 24.34400
H  16.32100 50.80000 24.18800
H  10.64300 46.21100 21.21300
H  7.81700 46.80000 21.48300
H  10.43500 48.93400 20.64300
H  8.96000 48.11500 19.92600
H  10.62700 47.56800 19.64400
H  8.86900 44.36400 21.13700
H  7.64000 44.39200 22.32400
H  10.20000 44.97100 23.63900
H  10.17100 43.32100 22.79800
H  8.95600 43.85500 24.02700
H  4.46800 45.57700 24.74000
H  3.69000 46.98500 25.47800
H  4.26600 45.63900 26.51700
H  6.53700 48.31800 30.51900
H  7.92900 45.74500 33.33900
H  7.19500 44.39200 32.30500
H  6.24700 45.30400 33.57500

