158

Mg -2.08500 16.62400 25.63100
C  -2.48700 14.41100 28.51000
C  -2.86800 19.24500 27.73300
C  -1.83100 18.53200 23.00200
C  -1.58500 13.71900 23.76800
N  -2.60100 16.74000 27.86600
C  -2.58100 15.78000 28.83600
C  -2.86200 16.34000 30.25400
C  -3.04800 17.87000 29.93700
C  -2.93000 18.00200 28.42600
C  -4.33900 18.52900 30.58100
C  -1.70400 16.06100 31.30600
C  -1.77600 16.98500 32.58800
H  -1.73700 16.22700 33.91300
N  -2.17500 18.57600 25.42600
C  -2.52400 19.49500 26.37800
C  -2.52400 20.84600 25.71700
C  -2.18800 20.62300 24.39000
C  -2.07900 19.17900 24.20200
C  -2.73000 22.19500 26.54100
C  -2.03600 21.73500 23.29400
O  -1.90600 21.42500 22.12700
C  -2.10500 23.11300 23.60500
N  -2.09900 16.15900 23.61500
C  -1.87800 17.16200 22.71800
C  -1.75500 16.63000 21.26000
C  -1.39000 15.08100 21.57400
C  -1.69100 14.94700 23.08800
C  -2.93800 16.83700 20.33300
C  0.10500 14.67600 21.28900
C  0.66100 14.72200 19.76500
N  -2.14300 14.51700 26.02200
C  -1.85100 13.50900 25.11400
C  -2.02100 12.19700 25.77700
C  -2.26700 12.57600 27.09700
C  -2.29200 14.00200 27.17100
C  -2.15400 10.77200 25.13500
C  -2.27900 12.00900 28.43800
O  -2.00800 10.85700 28.78800
C  -2.46200 13.19600 29.46600
C  -1.24500 13.16200 30.34500
O  -0.08100 13.52900 30.05800
O  -1.58100 12.53800 31.58100
C  -0.47300 12.48900 32.55300
H  -2.90900 20.08300 28.43200
H  -1.90100 19.12000 22.08500
H  -1.18200 12.85000 23.24500
H  -3.75500 15.90000 30.69900
H  -2.20000 18.36400 30.41200
H  -4.86000 17.79600 31.19700
H  -4.94000 18.79200 29.71100
H  -4.07300 19.42500 31.14300
H  -0.71100 16.15600 30.86600
H  -1.96800 15.07000 31.67400
H  -2.64400 17.62900 32.73200
H  -0.91800 17.65400 32.52500
H  -1.82600 22.79600 26.64000
H  -2.90700 21.98000 27.59500
H  -3.50900 22.83700 26.13100
H  -1.25800 23.47900 24.18500
H  -3.02400 23.32600 24.15000
H  -2.32400 23.64000 22.67600
H  -0.85100 17.14100 20.92800
H  -2.06700 14.35800 21.11900
H  -3.66100 17.48000 20.83600
H  -3.38800 15.90100 20.00400
H  -2.50600 17.37700 19.49000
H  0.27100 13.66600 21.66400
H  0.81900 15.32100 21.80100
H  0.19200 15.53500 19.21100
H  0.39800 13.83400 19.19000
H  1.73600 14.90000 19.76000
H  -2.25300 10.95300 24.06400
H  -3.05000 10.29100 25.52600
H  -1.25200 10.24000 25.43600
H  -3.26900 13.15300 30.19800
H  0.03800 13.45200 32.56500
H  0.20500 11.64200 32.44700
H  -0.94700 12.32500 33.52100
Mg 44.25800 4.00800 47.60200
C  42.19300 6.73800 47.10400
C  41.65700 1.94800 46.77900
C  46.35400 1.36400 47.43400
C  47.02200 6.22700 47.75900
N  42.21700 4.35500 47.00300
C  41.63100 5.50700 46.80600
C  40.20400 5.36300 46.35200
C  39.92400 3.84200 46.47000
C  41.39400 3.31600 46.73400
C  39.17500 3.38800 47.76400
C  40.07200 5.88900 44.89300
C  38.70500 6.56600 44.43100
H  38.16400 5.98400 43.06700
N  43.99300 1.91100 47.38000
C  42.86200 1.27900 47.11100
C  42.98400 -0.06700 47.13200
C  44.35700 -0.29600 47.36600
C  44.95200 1.01900 47.50800
C  41.89900 -1.09200 46.86100
C  45.00700 -1.61900 47.28000
O  44.21500 -2.58100 47.05900
C  46.42900 -1.96700 47.42600
N  46.36100 3.85800 47.29900
C  46.96600 2.62800 47.43600
C  48.51300 2.84000 47.86600
C  48.75900 4.34200 47.94200
C  47.30600 4.83200 47.60400
C  48.91300 2.07500 49.14900
C  49.87000 4.92700 47.02700
C  51.17100 5.38000 47.81500
N  44.60800 6.03300 47.36400
C  45.80200 6.79100 47.51000
C  45.43100 8.19700 47.48400
C  44.04500 8.22400 47.39600
C  43.57300 6.91000 47.34900
C  46.24500 9.38800 47.64100
C  42.89600 9.08800 47.28900
O  42.83900 10.34300 47.15200
C  41.60900 8.17300 47.13200
C  40.71700 8.54800 48.31400
O  40.63800 7.96600 49.38800
O  39.80900 9.55300 47.89100
C  38.70900 9.74900 48.85600
H  40.72600 1.39000 46.65700
H  46.97400 0.46600 47.47100
H  47.83500 6.91700 47.99600
H  39.63300 5.97700 47.04900
H  39.42100 3.31600 45.65900
H  38.50300 2.54200 47.61500
H  38.58300 4.22100 48.14300
H  39.93400 3.22100 48.52900
H  40.29100 5.11900 44.15300
H  40.85100 6.64600 44.80800
H  38.79400 7.64800 44.33700
H  37.93300 6.32800 45.16300
H  42.04100 -2.02500 47.40600
H  41.74000 -1.28000 45.79900
H  40.94000 -0.70700 47.20800
H  47.00100 -1.50500 46.62100
H  46.50900 -3.04000 47.24500
H  46.83300 -1.90100 48.43600
H  49.20300 2.37800 47.16000
H  48.99800 4.58900 48.97600
H  48.91200 1.03200 48.83300
H  48.15400 2.17500 49.92600
H  49.87200 2.39900 49.55400
H  49.42900 5.73000 46.43600
H  50.10600 4.15400 46.29500
H  52.05200 4.85200 47.44900
H  50.99200 5.30000 48.88800
H  51.34600 6.40900 47.50300
H  45.85800 10.05100 48.41500
H  46.22600 9.78400 46.62600
H  47.24300 9.10200 47.97100
H  41.10700 8.55100 46.24200
H  38.05900 8.87600 48.81300
H  38.12300 10.63000 48.59700
H  39.16600 10.00200 49.81300

