158

Mg 45.18200 4.11100 46.29400
C  43.43000 7.12200 46.28500
C  42.06100 2.50400 45.80200
C  46.69100 1.23600 45.48900
C  48.18000 5.90600 46.06900
N  42.99500 4.74800 45.95700
C  42.56000 6.06600 45.94500
C  41.03900 6.09400 45.81800
C  40.60600 4.60400 46.08900
C  41.92300 3.87600 45.97500
C  40.00000 4.35500 47.51300
C  40.50500 6.48100 44.48300
C  39.76800 7.81400 44.28900
H  40.29000 8.77000 43.22800
N  44.52000 2.15900 45.83700
C  43.19500 1.72100 45.66200
C  43.08000 0.24400 45.38100
C  44.44100 -0.15900 45.38100
C  45.33500 1.06700 45.56200
C  41.81600 -0.55200 45.07300
C  44.96200 -1.48600 45.04000
O  44.22100 -2.40500 44.68000
C  46.40600 -1.85500 44.91700
N  47.12600 3.69400 45.84500
C  47.51000 2.41100 45.65100
C  49.09400 2.29700 45.47200
C  49.55700 3.78900 45.57900
C  48.18300 4.53600 45.79800
C  49.84100 1.36800 46.51000
C  50.36700 4.41200 44.38200
C  51.61600 5.19300 44.75900
N  45.73000 6.12500 46.27100
C  46.98900 6.70700 46.22300
C  46.83600 8.14700 46.36900
C  45.44300 8.36900 46.43400
C  44.81400 7.10800 46.37500
C  47.87600 9.21800 46.41900
C  44.42100 9.40000 46.50400
O  44.47000 10.63100 46.59600
C  43.09500 8.59900 46.38500
C  42.35400 8.85700 47.63800
O  42.27400 8.07800 48.56200
O  41.62500 9.98800 47.45800
C  40.57000 10.31100 48.40700
H  41.11700 1.95600 45.75800
H  47.38400 0.43900 45.20900
H  49.19900 6.29600 46.01100
H  40.60600 6.73700 46.58400
H  39.83900 4.30700 45.37500
H  40.31200 5.17200 48.16300
H  40.30200 3.40600 47.95700
H  38.91300 4.27700 47.49000
H  39.89600 5.76900 43.92600
H  41.39400 6.73700 43.90800
H  39.81000 8.40400 45.20400
H  38.71200 7.57600 44.15900
H  40.95600 0.09500 45.25000
H  41.78200 -1.39200 45.76700
H  41.88300 -0.86800 44.03200
H  46.56500 -1.33600 43.97200
H  46.50800 -2.94000 44.94000
H  47.04700 -1.50300 45.72500
H  49.27800 1.96800 44.44900
H  50.10100 4.03100 46.49200
H  50.36600 0.61600 45.92200
H  49.10400 0.96600 47.20500
H  50.58400 2.00300 46.99300
H  49.65800 5.07300 43.88400
H  50.58500 3.67600 43.60900
H  51.87900 5.26600 45.81500
H  51.37400 6.11200 44.22500
H  52.52600 4.79300 44.31200
H  47.62400 10.21200 46.78800
H  48.38700 9.28100 45.45800
H  48.64000 8.86400 47.11100
H  42.52200 9.00400 45.55100
H  40.60200 9.92000 49.42400
H  39.73300 9.82800 47.90200
H  40.31500 11.35700 48.57100
Mg 49.07600 35.39300 27.52000
C  47.00700 33.67000 29.65700
C  49.33300 37.99500 29.83800
C  50.52100 37.36500 25.07800
C  48.36900 32.97300 25.13700
N  48.12900 35.81200 29.40300
C  47.47300 34.90700 30.17100
C  47.51000 35.25300 31.70800
C  47.82700 36.81500 31.60200
C  48.47800 36.92200 30.14500
C  46.60300 37.78900 31.84800
C  48.69000 34.40000 32.34800
C  48.55000 34.00700 33.85100
H  47.63500 34.80700 34.69600
N  49.88700 37.34700 27.46500
C  49.87200 38.18900 28.56500
C  50.62600 39.37200 28.22000
C  50.96900 39.31600 26.86300
C  50.46300 37.96800 26.37000
C  50.94100 40.42100 29.26800
C  51.77000 40.28200 25.95600
O  52.07000 40.04000 24.76700
C  52.36000 41.53200 26.57800
N  49.41600 35.13500 25.46300
C  50.08800 36.09700 24.64500
C  50.40100 35.55300 23.33400
C  49.95400 34.00300 23.37100
C  49.16700 34.00000 24.73500
C  49.78300 36.40700 22.17800
C  51.09100 32.92500 23.46100
C  50.95100 31.78200 22.39700
N  48.01100 33.60400 27.40600
C  47.78700 32.73200 26.36600
C  47.07900 31.49400 26.79600
C  46.64400 31.91800 28.04500
C  47.27100 33.12500 28.38300
C  46.62500 30.28100 26.15300
C  45.83800 31.50400 29.21800
O  45.21500 30.45300 29.50400
C  46.05200 32.59300 30.35500
C  46.51500 31.90100 31.55900
O  47.57000 31.27500 31.56700
O  45.69300 32.09200 32.60200
C  46.02200 31.21600 33.72900
H  49.42000 38.63900 30.71500
H  50.94500 37.99400 24.29300
H  48.31000 32.15800 24.41200
H  46.51300 35.06800 32.10900
H  48.55300 37.01100 32.39100
H  46.27000 38.19000 30.89100
H  46.85800 38.68300 32.41700
H  45.70200 37.34000 32.26800
H  49.54900 35.04500 32.16200
H  48.92500 33.53100 31.73400
H  49.56500 34.06900 34.24400
H  48.22500 32.96600 33.84400
H  50.16000 40.45800 30.02800
H  51.08400 41.43800 28.90300
H  51.85900 40.09500 29.75700
H  52.92500 41.37800 27.49700
H  51.57500 42.27100 26.73600
H  52.96900 42.00200 25.80600
H  51.48800 35.58500 23.40000
H  49.23600 33.71500 22.60300
H  49.10500 35.80100 21.57800
H  50.63900 36.64100 21.54400
H  49.36200 37.33100 22.57400
H  51.14900 32.41800 24.42400
H  52.06600 33.39700 23.33800
H  50.33300 32.22200 21.61500
H  50.59700 30.84200 22.82200
H  51.95700 31.54800 22.04900
H  45.66500 30.37100 25.64600
H  46.59300 29.43800 26.84300
H  47.40600 30.05300 25.42700
H  45.15100 33.12900 30.65400
H  45.66200 31.66600 34.65400
H  47.08100 30.98200 33.83800
H  45.53800 30.24500 33.62300

