158

Mg 53.78800 24.92800 44.81800
C  51.08900 26.99300 44.05100
C  52.04900 22.29900 43.39900
C  56.64800 23.21600 44.39700
C  55.57500 27.83000 45.51400
N  51.79600 24.69900 43.91000
C  50.80500 25.71600 43.75300
C  49.55100 25.13800 43.08700
C  49.83200 23.65800 43.27800
C  51.32100 23.50000 43.49800
C  49.00300 22.90900 44.36900
C  49.46600 25.55700 41.62200
C  48.02500 25.78700 41.07700
H  47.81100 25.42500 39.62500
N  54.32200 23.03100 44.05800
C  53.46100 22.07500 43.57400
C  54.14600 20.78000 43.42200
C  55.46400 20.96400 43.81000
C  55.53800 22.43300 44.08900
C  53.42400 19.52000 42.98900
C  56.58300 19.97400 43.81000
O  56.35700 18.83500 43.40700
C  57.92300 20.28600 44.27900
N  55.74400 25.50200 44.80700
C  56.80000 24.56000 44.69800
C  58.10000 25.16300 44.97700
C  57.83300 26.66700 45.12200
C  56.31500 26.74500 45.03100
C  58.89700 24.47800 46.18700
C  58.54400 27.61700 44.10000
C  59.49900 28.63400 44.70600
N  53.44800 27.03700 44.90700
C  54.20900 28.04300 45.36600
C  53.44300 29.25800 45.55800
C  52.22500 28.89900 44.89100
C  52.26800 27.53600 44.58400
C  53.82400 30.44300 46.27600
C  50.91500 29.42100 44.56900
O  50.47300 30.54400 44.81100
C  50.26800 28.30700 43.76000
C  50.44600 28.69300 42.31500
O  51.50700 28.76200 41.78700
O  49.25900 28.99300 41.79100
C  49.21700 29.54200 40.42900
H  51.41100 21.44600 43.16000
H  57.61500 22.77500 44.14900
H  56.13400 28.70700 45.84600
H  48.65800 25.35800 43.67300
H  49.47700 23.12900 42.39300
H  48.32500 22.23300 43.84800
H  48.38200 23.55600 44.98900
H  49.73200 22.37600 44.98000
H  49.85100 24.71500 41.04600
H  50.13500 26.37800 41.36500
H  47.72700 26.83200 41.16600
H  47.28200 25.22100 41.63800
H  53.52100 19.43900 41.90700
H  52.43100 19.45000 43.43200
H  53.96400 18.65400 43.37300
H  58.33200 20.93800 43.50600
H  58.57600 19.42600 44.13400
H  57.90600 20.63500 45.31200
H  58.70600 24.92300 44.10300
H  58.18200 26.89800 46.12800
H  58.76600 25.13600 47.04600
H  59.95600 24.43000 45.93600
H  58.55400 23.50500 46.54000
H  57.90800 28.19100 43.42700
H  59.04400 26.92800 43.42000
H  60.51800 28.47800 44.35300
H  59.35500 28.71400 45.78400
H  59.13500 29.57000 44.28300
H  54.73100 30.22000 46.83800
H  52.99200 30.83500 46.86000
H  53.97700 31.27900 45.59300
H  49.24000 28.25100 44.12000
H  50.24700 29.75400 40.14400
H  48.78700 30.53800 40.31600
H  48.68100 28.93800 39.69700
Mg 9.34800 48.08800 25.96500
C  7.49900 47.71900 28.80200
C  12.07500 49.08400 27.70700
C  10.99800 48.39800 22.93400
C  6.38300 47.59800 24.07800
N  9.68700 48.42400 27.97600
C  8.83000 48.12800 29.01200
C  9.54100 48.28100 30.40600
C  10.90800 48.79700 29.92300
C  10.90300 48.71700 28.40300
C  11.29700 50.22200 30.58000
C  9.55000 46.98600 31.22400
C  10.48700 46.92300 32.41000
H  9.93400 46.38000 33.72800
N  11.23700 48.79900 25.40500
C  12.24000 49.05200 26.28300
C  13.50300 49.15700 25.57300
C  13.23800 48.96700 24.16600
C  11.73400 48.70100 24.14000
C  14.75000 49.43200 26.38700
C  14.14900 48.96700 22.98800
O  13.73800 48.86400 21.82700
C  15.59900 49.29600 23.12000
N  8.70000 48.14100 23.77100
C  9.61800 48.18800 22.79500
C  8.92100 47.85500 21.42300
C  7.41800 47.58200 21.77500
C  7.50000 47.76100 23.28400
C  9.10500 48.88000 20.20400
C  6.80500 46.28500 21.20200
C  7.41400 44.96200 21.75600
N  7.30000 47.83800 26.32500
C  6.23200 47.64500 25.48400
C  5.02800 47.39700 26.20300
C  5.46700 47.34200 27.59200
C  6.83700 47.69900 27.60600
C  3.64400 46.99200 25.75400
C  5.01000 47.15300 28.93900
O  3.90200 46.95400 29.38900
C  6.35400 47.31200 29.78200
C  6.52100 46.00100 30.45600
O  6.97000 44.99000 30.02200
O  6.09100 46.09200 31.80800
C  6.35800 44.96000 32.71900
H  13.01400 49.20400 28.25100
H  11.53300 48.40700 21.98200
H  5.44200 47.34500 23.58400
H  8.95200 48.96400 31.01900
H  11.76300 48.20800 30.25700
H  11.36700 51.07900 29.91100
H  12.29400 50.15100 31.01300
H  10.62000 50.50300 31.38600
H  9.76400 46.16600 30.53900
H  8.55500 46.90900 31.66400
H  10.68400 47.98000 32.58900
H  11.41700 46.39600 32.20000
H  15.42800 48.61500 26.14000
H  14.73400 49.56400 27.46900
H  15.17000 50.34600 25.96700
H  15.63100 50.19100 23.74100
H  16.04700 49.38600 22.13000
H  15.95600 48.34900 23.52400
H  9.46400 46.93500 21.20600
H  6.83400 48.37500 21.30900
H  9.09900 48.31400 19.27300
H  10.01000 49.45400 20.40500
H  8.25200 49.55800 20.22200
H  7.00600 46.29900 20.13100
H  5.73400 46.19600 21.38100
H  6.72100 44.12200 21.78200
H  7.77100 45.12900 22.77300
H  8.32200 44.68900 21.21700
H  3.20900 46.04300 26.06600
H  3.67800 46.90100 24.66800
H  3.01300 47.86400 25.92500
H  6.35000 48.05700 30.57700
H  7.24500 44.38100 32.45700
H  5.46600 44.34200 32.61600
H  6.30800 45.50000 33.66400

