158

Mg 5.87400 55.58400 40.95500
C  4.32400 52.46100 41.10300
C  8.43000 54.15500 39.22100
C  7.16800 58.60300 40.71200
C  2.67300 57.04400 41.92600
N  6.10500 53.64600 39.94700
C  5.40300 52.50200 40.23600
C  5.88600 51.37000 39.29900
C  7.33300 51.81600 39.10500
C  7.30800 53.33300 39.44800
C  8.55000 51.03300 39.61200
C  4.97100 51.17500 37.98100
C  4.78000 49.75800 37.53200
H  5.43200 49.32300 36.21100
N  7.69100 56.23000 40.30900
C  8.69700 55.50900 39.64300
C  9.83700 56.35300 39.41300
C  9.53400 57.62100 39.92000
C  8.09700 57.58700 40.36100
C  11.23800 55.82500 39.05600
C  10.44400 58.91900 39.82200
O  11.60500 58.88500 39.40600
C  9.83900 60.24000 40.18300
N  4.92600 57.50000 41.15200
C  5.82000 58.62200 41.03300
C  5.07600 59.94500 41.33700
C  3.74500 59.40700 41.93400
C  3.75800 57.89200 41.75500
C  6.00100 60.96900 42.07200
C  2.49000 60.02100 41.26200
C  1.50600 60.79900 42.23400
N  3.84600 54.90600 41.45200
C  2.67900 55.62100 41.85200
C  1.66900 54.67000 42.10500
C  2.31600 53.39300 42.01000
C  3.57000 53.61400 41.50100
C  0.26900 54.94000 42.51200
C  2.18500 51.90800 42.20900
O  1.24900 51.28200 42.70000
C  3.53600 51.23500 41.64400
C  3.13000 50.16300 40.71600
O  2.36000 50.13000 39.77200
O  3.88500 49.00100 41.01500
C  3.54800 47.84500 40.18200
H  9.34000 53.70700 38.81800
H  7.40400 59.65400 40.53300
H  1.76700 57.46000 42.37300
H  6.05100 50.45900 39.87300
H  7.55000 51.82300 38.03600
H  8.21200 50.29800 40.34200
H  9.31500 51.69900 40.01200
H  8.99100 50.60000 38.71500
H  5.44700 51.68200 37.14100
H  3.99400 51.65700 38.03500
H  3.70200 49.62700 37.44700
H  5.05500 49.05000 38.31300
H  11.24500 54.74700 38.89800
H  12.04900 56.08600 39.73600
H  11.60800 56.40100 38.20800
H  10.56600 61.05000 40.23500
H  9.31800 60.12300 41.13400
H  9.10400 60.47600 39.41400
H  4.92500 60.33500 40.33000
H  3.78200 59.48000 43.02100
H  6.70600 60.31400 42.58400
H  5.50400 61.63700 42.77500
H  6.51700 61.72000 41.47400
H  1.81200 59.24800 40.90000
H  2.81500 60.70000 40.47400
H  1.90200 60.66100 43.24000
H  0.48700 60.42400 42.14300
H  1.51100 61.87600 42.06300
H  -0.27300 55.68100 41.92300
H  0.22100 55.07100 43.59300
H  -0.27200 54.01200 42.32600
H  4.01200 50.80500 42.52500
H  4.34800 47.10600 40.14900
H  3.41600 48.00400 39.11200
H  2.65600 47.38400 40.60600
Mg -0.90800 34.42300 26.97000
C  -2.87200 32.70500 29.13400
C  0.11200 36.58500 29.47200
C  0.69700 36.24000 24.62900
C  -2.15400 32.44900 24.23000
N  -1.33000 34.58400 29.11200
C  -2.23400 33.75500 29.81700
C  -2.07500 34.05000 31.36300
C  -1.30500 35.41900 31.39700
C  -0.80200 35.57900 29.93000
C  -1.93500 36.68700 32.07900
C  -1.34900 32.90900 32.17100
C  -2.02400 32.16300 33.32300
H  -1.21800 32.17000 34.67400
N  0.28800 36.16300 27.03900
C  0.67000 36.81800 28.13900
C  1.66600 37.83100 27.77900
C  1.91100 37.68900 26.34700
C  0.92800 36.59300 25.96400
C  2.35300 38.73300 28.79200
C  2.87100 38.41100 25.40200
O  2.94300 38.22000 24.21500
C  3.65300 39.53700 26.04200
N  -0.69600 34.27600 24.81500
C  -0.00600 35.19500 24.09600
C  -0.38200 35.19000 22.62200
C  -1.02000 33.80100 22.52900
C  -1.34600 33.47600 23.93000
C  -1.28900 36.39000 22.16900
C  -0.12500 32.67900 21.85500
C  0.81700 31.86600 22.79000
N  -2.16800 32.84300 26.70600
C  -2.52000 32.09400 25.54200
C  -3.27100 30.99900 25.98400
C  -3.55500 31.27000 27.35700
C  -2.81700 32.35000 27.75500
C  -3.92100 29.94100 25.00900
C  -4.35400 30.77900 28.52400
O  -5.15900 29.85300 28.62700
C  -3.82000 31.67100 29.67500
C  -5.03600 32.26200 30.31700
O  -5.75900 33.10400 29.81000
O  -5.20600 31.76400 31.55000
C  -6.19500 32.37600 32.38700
H  0.35600 37.34300 30.22000
H  1.04400 36.88900 23.82200
H  -2.53700 31.85100 23.40000
H  -3.12000 34.26300 31.58900
H  -0.40000 35.13400 31.93400
H  -2.36200 37.40700 31.38100
H  -1.16700 37.17100 32.68300
H  -2.75700 36.38500 32.72800
H  -0.39100 33.28800 32.52800
H  -1.08500 32.21600 31.37200
H  -2.23400 31.10500 33.16800
H  -3.01900 32.56200 33.51900
H  3.39500 38.41900 28.86000
H  2.05000 38.64500 29.83600
H  2.12700 39.79500 28.70700
H  4.29600 39.13500 26.82400
H  2.93500 40.24400 26.45900
H  4.29100 40.09700 25.35800
H  0.54200 35.14800 22.04500
H  -1.92500 33.81100 21.92200
H  -1.53400 37.16200 22.89900
H  -2.24800 35.99800 21.83100
H  -0.73100 36.80200 21.32800
H  0.46000 33.13700 21.05700
H  -0.69200 31.92600 21.30900
H  0.92600 32.13000 23.84200
H  1.82500 31.86900 22.37500
H  0.54700 30.81300 22.85900
H  -4.41000 29.13800 25.56100
H  -3.18500 29.62400 24.27100
H  -4.67200 30.51400 24.46500
H  -3.28700 31.06600 30.40800
H  -6.90300 33.10900 32.00100
H  -5.62900 32.87200 33.17600
H  -6.80700 31.61400 32.87000

