158

Mg 25.30200 1.29300 29.89800
C  27.59900 0.91300 32.62900
C  22.90400 1.83600 32.12800
C  23.27500 1.49300 27.32400
C  28.08300 0.76900 27.75300
N  25.31200 1.29300 32.13900
C  26.34600 1.42200 32.97700
C  25.83200 1.89600 34.37600
C  24.28200 1.96500 34.20800
C  24.15400 1.71000 32.71700
C  23.58200 0.86200 35.11700
C  26.46000 3.24500 34.90900
C  26.94200 3.19600 36.39100
H  26.29800 4.18900 37.38800
N  23.30200 1.60200 29.71400
C  22.42200 1.77300 30.74700
C  21.08700 1.72900 30.29400
C  21.19200 1.73500 28.89100
C  22.65200 1.64000 28.58300
C  19.87200 1.74700 31.19300
C  20.11100 1.76800 27.83700
O  20.31700 1.69100 26.65500
C  18.68200 1.78100 28.25700
N  25.62200 1.06100 27.92600
C  24.62800 1.25400 26.99100
C  25.11900 1.23100 25.50800
C  26.60800 1.33400 25.76800
C  26.78300 1.00800 27.25200
C  24.60900 0.16200 24.54200
C  27.35700 2.59300 25.24100
C  27.32100 3.79100 26.13500
N  27.31300 0.77600 30.11400
C  28.33400 0.60500 29.11900
C  29.59200 0.39700 29.76900
C  29.31100 0.55400 31.13700
C  27.95800 0.74400 31.30900
C  30.86100 0.06800 29.07800
C  29.99700 0.64100 32.39500
O  31.14300 0.52600 32.68500
C  28.88800 0.99300 33.44000
C  29.10200 0.00900 34.50200
O  29.10500 -1.18200 34.29800
O  29.20000 0.66600 35.66200
C  29.36900 -0.04700 36.91700
H  22.14800 1.99700 32.89900
H  22.61100 1.62500 26.46700
H  28.86600 0.77700 26.99200
H  26.07700 1.14900 35.13100
H  23.94800 2.96100 34.49700
H  24.04900 -0.10800 34.94600
H  22.55600 0.76000 34.76300
H  23.57200 1.19300 36.15500
H  25.75100 4.05200 34.72500
H  27.40100 3.42900 34.38900
H  28.01300 3.39500 36.38800
H  26.73100 2.20700 36.79800
H  19.56500 2.78500 31.32100
H  20.26100 1.38200 32.14400
H  19.14600 0.98500 30.90900
H  18.51300 2.59300 28.96400
H  18.45500 0.75300 28.53800
H  18.03600 1.97900 27.40100
H  24.76200 2.13000 25.00700
H  27.11300 0.42700 25.43500
H  24.23000 -0.62700 25.19100
H  25.41200 -0.39400 24.05700
H  23.82700 0.34000 23.80400
H  26.90700 2.80000 24.27000
H  28.41000 2.35000 25.09600
H  26.85800 3.64300 27.11000
H  26.65100 4.48900 25.63200
H  28.32200 4.21700 26.20200
H  31.04100 0.13000 28.00400
H  30.99000 -0.95900 29.42000
H  31.50300 0.84700 29.48900
H  29.04100 2.01900 33.77400
H  29.43300 -1.12900 36.80300
H  28.59500 -0.01400 37.68500
H  30.30000 0.26700 37.38900
Mg 17.50000 51.88300 26.09800
C  19.34100 50.57400 28.77200
C  14.87200 52.54200 28.37100
C  15.68000 53.16400 23.57800
C  19.86800 50.80600 23.94000
N  17.20900 51.62600 28.30000
C  18.14700 51.21900 29.21300
C  17.64600 51.42000 30.65300
C  16.18100 51.79400 30.49100
C  16.09500 52.12000 28.97600
C  15.29100 50.56600 30.77300
C  18.48900 52.57500 31.35600
C  18.76800 52.44400 32.87500
H  17.76600 51.72300 33.74500
N  15.60500 52.88400 26.03100
C  14.66800 52.96100 27.01800
C  13.44700 53.52500 26.43300
C  13.75300 53.97100 25.15300
C  15.08500 53.34000 24.83200
C  12.25800 53.96600 27.40400
C  12.89500 54.83900 24.26600
O  13.32900 55.25400 23.20500
C  11.51700 55.32200 24.65200
N  17.76400 52.04100 24.00800
C  16.87300 52.62500 23.14300
C  17.40100 52.53100 21.69700
C  18.84100 51.97500 21.92400
C  18.80000 51.57400 23.38400
C  16.45900 51.66300 20.74100
C  19.96900 52.91100 21.63100
C  21.13100 52.29500 20.76600
N  19.21900 50.80000 26.22600
C  20.10900 50.40600 25.25400
C  21.18000 49.69800 25.87400
C  20.95100 49.71700 27.23900
C  19.74100 50.44200 27.45500
C  22.34800 49.00600 25.20800
C  21.52700 49.41800 28.57900
O  22.54600 48.75800 28.78100
C  20.47600 49.91900 29.63900
C  19.92200 48.77200 30.40600
O  19.25800 47.86100 29.93100
O  20.15300 48.98200 31.74500
C  19.62400 47.95300 32.63400
H  14.09700 52.80700 29.09300
H  14.94100 53.54900 22.87200
H  20.65500 50.45400 23.26900
H  17.72400 50.45500 31.15400
H  15.84000 52.68000 31.02800
H  15.88600 49.65500 30.83600
H  14.47100 50.48800 30.05900
H  14.85400 50.76300 31.75200
H  17.98200 53.53600 31.28100
H  19.45500 52.65600 30.85700
H  18.95700 53.44300 33.26700
H  19.70200 51.88300 32.88800
H  12.51700 54.98700 27.68400
H  12.25800 53.36500 28.31400
H  11.28000 53.87900 26.93200
H  11.38400 55.69500 25.66800
H  10.77100 54.57100 24.39200
H  11.34100 56.19300 24.02100
H  17.49600 53.51600 21.23900
H  18.86600 51.03200 21.37700
H  16.21800 52.33900 19.92100
H  15.59600 51.42300 21.36200
H  16.97700 50.75200 20.44000
H  20.42600 53.33700 22.52300
H  19.54300 53.78900 21.14600
H  21.16500 52.64900 19.73500
H  21.02600 51.21300 20.69000
H  22.05300 52.49700 21.31200
H  22.33200 47.94000 25.43200
H  23.18000 49.49400 25.71500
H  22.32500 49.15700 24.12800
H  20.88800 50.67800 30.30400
H  20.56000 47.39600 32.66900
H  18.83800 47.37400 32.14900
H  19.47300 48.31000 33.65300

