158

Mg 7.97100 2.42500 27.99500
C  9.73100 1.07700 30.90400
C  6.05100 4.00200 30.27400
C  6.24800 3.44300 25.39600
C  9.69700 0.03400 26.13000
N  7.88400 2.47900 30.25800
C  8.77000 2.03300 31.23000
C  8.55200 2.67400 32.62500
C  7.26400 3.46800 32.40800
C  7.01300 3.28900 30.85600
C  6.09300 2.96800 33.28300
C  9.83600 3.47200 33.19100
C  10.36700 2.93700 34.55600
H  10.33800 3.98000 35.72200
N  6.42000 3.50200 27.82800
C  5.73200 4.12700 28.92400
C  4.59800 4.86800 28.34400
C  4.70200 4.78700 26.89700
C  5.85500 3.89700 26.62900
C  3.57800 5.58400 29.20300
C  3.91600 5.39300 25.76500
O  4.09800 5.13600 24.58400
C  2.88800 6.34700 26.08100
N  8.04400 1.90600 26.01600
C  7.16700 2.45900 25.10500
C  7.38100 1.79600 23.69400
C  8.55200 0.84400 23.93800
C  8.78000 0.88100 25.45600
C  6.07500 1.19500 23.09900
C  9.88200 1.22300 23.18700
C  10.80000 0.11000 22.77100
N  9.50200 0.80800 28.34500
C  10.01600 -0.03800 27.46000
C  10.96600 -0.87800 28.17400
C  10.88400 -0.44700 29.54100
C  9.95400 0.49200 29.59300
C  11.85800 -1.88300 27.52200
C  11.45000 -0.65800 30.88800
O  12.32800 -1.45300 31.20500
C  10.62200 0.33000 31.81700
C  9.71400 -0.53800 32.66100
O  8.75300 -1.19500 32.26300
O  10.05800 -0.41900 33.95700
C  9.40100 -1.23400 35.00200
H  5.52800 4.61400 31.01100
H  5.70700 3.59200 24.45800
H  10.25400 -0.67000 25.50800
H  8.42400 1.80200 33.26700
H  7.51300 4.48000 32.72800
H  6.49600 2.36100 34.09300
H  5.19500 2.56900 32.81000
H  5.71000 3.83200 33.82700
H  9.64800 4.52600 33.39700
H  10.68100 3.40300 32.50600
H  11.37100 2.51700 34.50700
H  9.76900 2.16300 35.03800
H  2.69300 4.95400 29.29300
H  3.08600 6.42900 28.72100
H  3.90100 5.76900 30.22700
H  2.12500 5.92800 26.73600
H  2.46200 6.64300 25.12300
H  3.34400 7.18800 26.60500
H  7.76900 2.45300 22.91500
H  8.16900 -0.09700 23.54200
H  6.11100 0.14100 22.82500
H  5.73300 1.84200 22.29200
H  5.28600 1.17300 23.85000
H  10.40500 1.91500 23.84700
H  9.72100 1.76700 22.25600
H  10.94700 0.09000 21.69100
H  10.40000 -0.83100 23.14800
H  11.78800 0.26200 23.20800
H  12.06800 -1.71400 26.46600
H  11.26200 -2.79500 27.55600
H  12.80700 -1.97500 28.05000
H  11.42300 0.93700 32.23900
H  10.13200 -1.94500 35.38400
H  8.55700 -1.82200 34.64100
H  8.97400 -0.61500 35.79200
Mg 27.98300 49.97600 26.24100
C  25.87700 50.84600 28.90500
C  30.33300 49.32100 28.65900
C  30.12400 49.21900 23.81600
C  25.39500 50.66200 24.12400
N  28.09500 50.20100 28.50600
C  27.13200 50.45500 29.39900
C  27.51200 50.31700 30.82300
C  29.02500 49.92300 30.74800
C  29.13200 49.80000 29.22200
C  29.97300 50.88300 31.57300
C  26.53000 49.40200 31.65700
C  25.93400 50.00600 32.91700
H  26.01200 49.17900 34.20700
N  29.87600 49.29300 26.19700
C  30.67000 48.99300 27.31100
C  31.97200 48.46700 26.84100
C  31.92700 48.50900 25.41600
C  30.59600 49.02100 25.06400
C  33.10400 48.07800 27.77900
C  33.04600 48.12000 24.45300
O  32.94700 48.34900 23.28500
C  34.30700 47.55000 24.94000
N  27.80900 50.08100 24.27900
C  28.82900 49.56100 23.45600
C  28.29900 49.54500 21.99300
C  26.74600 49.67500 22.20500
C  26.56400 50.07800 23.67800
C  28.97200 50.65600 21.12000
C  26.02800 48.25800 21.92300
C  25.17200 48.12400 20.59200
N  26.07700 50.76400 26.46500
C  25.10500 51.02100 25.49200
C  23.88400 51.57000 26.06000
C  24.18700 51.47300 27.41400
C  25.47700 50.97500 27.60300
C  22.68600 52.02700 25.37800
C  23.68300 51.76000 28.71700
O  22.57300 52.08500 29.06500
C  24.71100 51.41700 29.69200
C  25.03100 52.64300 30.48200
O  25.83400 53.49200 30.13100
O  24.29900 52.70700 31.62200
C  24.65200 53.81400 32.52900
H  31.03300 49.07400 29.46000
H  30.79200 48.82300 23.04800
H  24.57900 50.60500 23.40000
H  27.40000 51.31900 31.23700
H  29.17600 48.88200 31.03100
H  30.86800 51.11100 30.99600
H  30.35500 50.36300 32.45200
H  29.47600 51.77400 31.95700
H  27.01400 48.46900 31.94600
H  25.66700 49.04800 31.09500
H  24.88000 50.26400 32.81100
H  26.36600 50.98400 33.12900
H  33.87600 48.82900 27.61000
H  33.37700 47.05000 27.54100
H  32.75600 48.26400 28.79500
H  34.83000 48.17100 25.66800
H  34.91800 47.52000 24.03800
H  34.11600 46.54000 25.30300
H  28.52100 48.55000 21.60500
H  26.29900 50.48800 21.63500
H  29.64800 51.37700 21.57900
H  28.19400 51.17900 20.56400
H  29.46600 50.08800 20.33300
H  25.54900 48.08300 22.88600
H  26.78200 47.47300 21.98300
H  25.21200 48.95500 19.88800
H  24.15300 47.99600 20.95500
H  25.49000 47.24600 20.03000
H  22.24500 51.38300 24.61800
H  23.03300 52.96600 24.94500
H  21.93300 52.09200 26.16300
H  24.20800 50.75400 30.39600
H  25.45800 53.53200 33.20600
H  23.76200 53.97300 33.13800
H  24.74900 54.73000 31.94600

