158

Mg 40.86400 9.53100 29.32700
C  42.81500 10.90900 32.12200
C  38.75700 8.25300 31.83900
C  39.14500 8.29700 26.95000
C  43.48500 10.45800 27.19300
N  40.82500 9.70900 31.75500
C  41.66000 10.29600 32.63700
C  41.19000 10.16600 34.15100
C  40.13100 8.94500 34.00500
C  39.85400 8.99500 32.47100
C  40.59600 7.47000 34.39600
C  40.71700 11.44000 34.87200
C  41.56400 11.95900 36.04700
H  40.80700 12.49100 37.33600
N  39.20400 8.37000 29.32800
C  38.42800 8.01500 30.46300
C  37.24700 7.35800 29.92600
C  37.28500 7.48400 28.54100
C  38.53800 8.06600 28.19300
C  36.12900 6.92200 30.87900
C  36.14700 7.14300 27.55400
O  36.32800 7.28500 26.33700
C  34.84100 6.69800 27.99300
N  41.17800 9.42400 27.37400
C  40.28500 8.85200 26.53900
C  40.90800 8.77500 25.08600
C  42.16100 9.63700 25.14900
C  42.28600 9.92700 26.62900
C  41.08800 7.33200 24.45400
C  42.10800 10.93700 24.28200
C  43.10400 10.95900 23.12000
N  42.79700 10.42400 29.56300
C  43.71800 10.71200 28.55100
C  44.88900 11.33400 29.16100
C  44.55800 11.50500 30.50600
C  43.30300 10.89900 30.74300
C  46.15700 11.76800 28.41200
C  44.91900 12.08700 31.85000
O  45.94300 12.66700 32.20000
C  43.88200 11.67100 32.86100
C  44.52200 10.90900 33.91500
O  44.97100 9.78600 33.83900
O  44.64800 11.70900 35.02100
C  45.47800 11.17700 36.05400
H  38.19100 7.72500 32.60900
H  38.50100 7.91600 26.15400
H  44.32200 10.80800 26.58600
H  42.01600 9.78900 34.75400
H  39.18500 9.10700 34.52200
H  41.60900 7.50600 34.79700
H  40.56900 6.70400 33.62200
H  39.96400 7.17700 35.23400
H  39.68400 11.27300 35.17700
H  40.65400 12.18000 34.07400
H  42.27400 12.64000 35.57900
H  42.10000 11.06500 36.36800
H  35.34000 7.67200 30.91000
H  36.50800 6.90000 31.90100
H  35.79400 5.91400 30.63400
H  34.52700 7.37100 28.79100
H  35.02200 5.73500 28.47000
H  34.25800 6.65800 27.07300
H  40.20500 9.15000 24.34300
H  43.02300 9.06100 24.81600
H  42.08900 6.92100 24.59100
H  40.82800 7.31000 23.39600
H  40.40300 6.63300 24.93400
H  42.17700 11.83100 24.90200
H  41.14500 11.00300 23.77700
H  43.86200 11.74200 23.14900
H  42.55500 11.15500 22.19900
H  43.66600 10.03700 22.96700
H  46.87600 12.18000 29.12000
H  45.95600 12.48900 27.61900
H  46.61300 10.88300 27.97000
H  43.69900 12.65000 33.30600
H  46.41600 10.84800 35.60800
H  44.92400 10.34900 36.49700
H  45.63400 11.94800 36.80900
Mg 26.53200 50.07100 26.37300
C  24.41700 51.47200 28.72500
C  28.71600 49.13400 28.73300
C  28.58300 48.78200 23.87200
C  24.35900 51.33000 23.88600
N  26.58600 50.28200 28.46800
C  25.54800 50.75400 29.22800
C  25.82300 50.45600 30.81100
C  27.26800 49.86600 30.74300
C  27.52200 49.68800 29.21700
C  28.34500 50.85300 31.31600
C  24.72200 49.69500 31.49200
C  24.22400 50.13400 32.89700
H  25.12800 50.79200 33.98300
N  28.29000 49.06000 26.33400
C  29.11600 48.82300 27.40400
C  30.24800 48.10100 27.03600
C  30.15800 47.87900 25.62100
C  28.89300 48.53700 25.20000
C  31.31800 47.59100 28.01500
C  31.09300 47.01600 24.75900
O  30.82700 46.63500 23.66100
C  32.46800 46.77600 25.28500
N  26.59300 50.22700 24.13500
C  27.43900 49.49600 23.38900
C  27.16200 49.61900 21.89600
C  25.70300 50.29300 21.86500
C  25.51100 50.67000 23.35000
C  28.29700 50.34000 21.13400
C  24.62700 49.37100 21.22000
C  24.12500 48.15300 21.96500
N  24.69700 51.15000 26.26900
C  23.96000 51.57600 25.22900
C  22.80800 52.29900 25.71700
C  22.97400 52.32700 27.07000
C  24.14500 51.61100 27.38200
C  21.80900 53.03300 24.90500
C  22.36800 52.79800 28.29800
O  21.43300 53.54000 28.55400
C  23.29000 52.23900 29.42300
C  23.68600 53.42000 30.24600
O  24.21200 54.46600 29.87500
O  23.06600 53.36600 31.45400
C  23.19600 54.45200 32.46600
H  29.23500 48.80200 29.63500
H  29.31300 48.35500 23.18100
H  23.55700 51.50500 23.16600
H  25.77100 51.40300 31.34800
H  27.32700 48.88400 31.21200
H  29.15300 50.92700 30.58900
H  28.65400 50.28700 32.19500
H  28.00300 51.85100 31.59000
H  25.03500 48.65600 31.60000
H  23.91100 49.61800 30.76800
H  24.09100 49.16500 33.37800
H  23.31400 50.70500 32.71400
H  31.49400 46.53000 27.84000
H  30.84200 47.75500 28.98200
H  32.23100 48.18000 27.92500
H  32.84300 47.65900 25.80200
H  33.22900 46.57200 24.53100
H  32.54300 45.92800 25.96700
H  27.17600 48.62000 21.46000
H  25.64200 51.25000 21.34800
H  28.17500 51.40800 20.95300
H  28.57700 49.81400 20.22200
H  29.25800 50.33800 21.64900
H  25.07800 49.17800 20.24600
H  23.69400 49.84500 20.91500
H  23.08500 48.39400 22.18600
H  24.77500 48.19900 22.83900
H  24.27400 47.25400 21.36700
H  21.85600 54.07700 25.21600
H  20.80600 52.62000 25.01300
H  22.16700 52.98900 23.87700
H  22.75100 51.50000 30.01800
H  23.70000 55.31500 32.02900
H  23.78100 54.11800 33.32200
H  22.19900 54.75900 32.78200

