158

Mg 43.81100 3.66900 46.77500
C  41.86900 6.62300 46.31100
C  40.83600 1.88400 46.87100
C  45.68700 0.91200 46.22600
C  46.63300 5.66700 46.01200
N  41.59300 4.21900 46.49400
C  41.05100 5.48100 46.41800
C  39.55400 5.46000 46.88900
C  39.37100 3.93700 47.29400
C  40.61100 3.28700 46.86900
C  39.08400 3.72200 48.79700
C  38.52000 5.90400 45.76500
C  38.72900 5.60600 44.25500
H  38.97400 6.81900 43.35400
N  43.36900 1.68900 46.64900
C  42.05000 1.13700 46.70300
C  42.25700 -0.30800 46.69700
C  43.60400 -0.63700 46.66200
C  44.30200 0.67600 46.55000
C  41.04200 -1.20800 46.84700
C  44.20600 -1.97200 46.89200
O  43.52200 -2.99800 47.03500
C  45.68800 -2.20900 47.09300
N  45.81000 3.30500 46.11000
C  46.35400 2.07900 46.12200
C  47.87200 2.15400 45.66800
C  48.17300 3.65900 45.66900
C  46.78700 4.29400 45.92900
C  48.75900 1.40600 46.69200
C  48.81700 4.07800 44.31600
C  50.30000 3.80600 44.16400
N  44.24100 5.72600 46.19900
C  45.41500 6.37100 46.06300
C  45.20000 7.77800 45.98900
C  43.83000 7.96800 46.09200
C  43.26500 6.67800 46.25500
C  46.27700 8.84400 45.69800
C  42.79300 8.98000 46.06400
O  42.92400 10.19300 46.04300
C  41.40300 8.11400 46.17900
C  40.60600 8.59800 47.34600
O  40.68400 8.24300 48.51300
O  39.58900 9.41500 46.85800
C  38.73400 9.95300 47.92100
H  39.96100 1.30000 47.16400
H  46.24100 -0.02400 46.12600
H  47.47400 6.35700 45.92400
H  39.37600 6.06900 47.77600
H  38.57600 3.39800 46.77800
H  40.04400 3.87500 49.28900
H  38.83800 2.68000 49.00400
H  38.32100 4.43100 49.11800
H  38.41700 6.98900 45.73200
H  37.53200 5.54200 46.04900
H  37.82300 5.14300 43.86200
H  39.57800 4.92400 44.22500
H  40.25200 -0.77100 47.45800
H  41.24400 -2.20400 47.24200
H  40.56800 -1.30000 45.87000
H  46.26200 -1.41000 47.56400
H  46.14100 -2.27000 46.10400
H  45.89000 -3.06300 47.74000
H  47.83500 1.78600 44.64200
H  48.87300 4.02900 46.41700
H  49.08900 0.50400 46.17800
H  48.14300 1.11400 47.54200
H  49.68700 1.94200 46.89300
H  48.66900 5.14900 44.17700
H  48.28500 3.61900 43.48200
H  50.80200 4.76000 44.00300
H  50.46800 3.21500 43.26400
H  50.74300 3.24500 44.98800
H  46.61600 8.57700 44.69700
H  47.08700 8.78500 46.42500
H  46.01900 9.87700 45.92900
H  40.87600 8.12800 45.22500
H  39.20900 10.89300 48.20000
H  38.61600 9.37500 48.83700
H  37.72500 10.17600 47.57200
Mg 48.13600 45.87000 43.17100
C  44.89900 46.23000 42.11000
C  48.31800 42.72000 41.83900
C  51.64400 46.20600 42.93000
C  48.08300 49.15400 44.30600
N  46.80500 44.72000 42.07900
C  45.52900 45.10200 41.70100
C  44.87700 43.94200 40.93200
C  45.83100 42.72000 41.19300
C  47.09300 43.42300 41.74900
C  45.27100 41.65400 42.14400
C  44.68800 44.29700 39.41300
C  43.43900 43.54700 38.83100
H  43.52700 43.16600 37.33000
N  49.76000 44.63300 42.57800
C  49.59700 43.32600 42.08300
C  50.90400 42.77800 41.75300
C  51.90100 43.69000 42.15500
C  51.14000 44.88600 42.55700
C  51.11200 41.36300 41.20900
C  53.37300 43.47200 42.06600
O  53.80700 42.40000 41.67900
C  54.33000 44.61000 42.44100
N  49.56300 47.45200 43.43300
C  50.92200 47.29400 43.34800
C  51.64900 48.49900 43.96400
C  50.60200 49.50200 44.27400
C  49.33200 48.65500 44.06400
C  52.63700 48.10100 45.08000
C  50.63800 50.79300 43.32700
C  51.48900 51.98300 43.87700
N  46.71200 47.33000 43.45400
C  46.78900 48.60800 43.99000
C  45.44600 49.19700 43.99900
C  44.68000 48.32500 43.22300
C  45.51900 47.23600 42.85200
C  45.15400 50.66900 44.46900
C  43.39800 48.12900 42.60000
O  42.45100 48.95900 42.66200
C  43.43200 46.77100 41.82700
C  42.43200 45.81400 42.30100
O  41.46200 45.44400 41.64400
O  42.42400 45.65200 43.62700
C  41.27000 44.92700 44.18200
H  48.42100 41.66000 41.60000
H  52.72600 46.34800 42.94000
H  48.07500 50.18900 44.65400
H  43.89800 43.74200 41.36500
H  46.06600 42.18300 40.27300
H  44.31200 41.98000 42.54600
H  45.98100 41.65800 42.97100
H  45.26700 40.62800 41.77600
H  45.54500 43.99700 38.81000
H  44.44400 45.35600 39.32600
H  42.49700 44.04100 39.07200
H  43.43900 42.66400 39.47000
H  51.58700 41.41200 40.22900
H  50.24900 40.71300 41.05900
H  51.74800 40.71000 41.80600
H  54.41000 45.36200 41.65600
H  55.35900 44.34300 42.68400
H  53.99800 44.96400 43.41600
H  52.22300 48.95800 43.15900
H  50.66200 49.81800 45.31500
H  52.48200 47.03900 45.26800
H  52.49800 48.70000 45.98000
H  53.64800 48.20500 44.68300
H  49.65600 51.25900 43.23800
H  50.98700 50.57800 42.31700
H  51.64400 51.94400 44.95500
H  50.97100 52.94000 43.81800
H  52.41500 52.07700 43.31000
H  45.93600 51.41100 44.30900
H  44.85200 50.67500 45.51700
H  44.23700 50.92900 43.94000
H  43.23900 47.16400 40.82900
H  41.48000 44.55400 45.18400
H  40.74200 44.17500 43.59600
H  40.52500 45.64700 44.52100

