158

Mg 9.54500 47.93500 25.95200
C  7.79200 47.88000 29.00400
C  12.37500 48.62400 27.72800
C  11.02000 47.94100 23.03300
C  6.48400 47.01300 24.38700
N  9.90700 48.52000 28.09900
C  9.15500 48.36800 29.17700
C  9.88600 48.84600 30.47600
C  11.22800 49.33600 29.94000
C  11.23200 48.83500 28.50500
C  11.51600 50.95600 30.18100
C  9.94300 47.69000 31.45600
C  10.95700 47.92900 32.53100
H  10.56500 47.55300 33.99100
N  11.39700 48.36500 25.42100
C  12.49500 48.44500 26.27700
C  13.68700 48.57800 25.47800
C  13.34500 48.19900 24.18800
C  11.88100 48.08500 24.16700
C  15.06400 48.81800 26.11500
C  14.23600 47.87400 23.03200
O  13.84400 47.45500 21.95900
C  15.69600 47.99600 23.13900
N  8.83500 47.62200 23.91300
C  9.67700 47.58200 22.90900
C  8.94400 47.31400 21.59100
C  7.64300 46.78300 22.09400
C  7.60000 47.18300 23.58000
C  8.77800 48.72400 20.90800
C  7.41300 45.23800 21.93100
C  8.37400 44.28200 22.64600
N  7.47700 47.68600 26.50200
C  6.44100 47.22000 25.74300
C  5.21800 47.02700 26.60300
C  5.74200 47.24500 27.89500
C  7.10900 47.65800 27.76400
C  3.85700 46.72600 26.09200
C  5.38900 47.24100 29.35800
O  4.34800 46.97100 29.86700
C  6.69800 47.62100 30.18400
C  6.95400 46.34400 30.95500
O  7.71900 45.41600 30.65400
O  6.20100 46.30800 32.10100
C  6.57200 45.28700 33.11500
H  13.32200 48.56800 28.26900
H  11.50600 48.02200 22.05800
H  5.62400 46.65100 23.82100
H  9.25700 49.61400 30.92600
H  12.03500 48.75500 30.38600
H  11.76100 51.44000 29.23600
H  12.42200 51.05200 30.78000
H  10.72700 51.31300 30.84300
H  10.09800 46.68000 31.07600
H  8.99200 47.70700 31.98700
H  11.29600 48.96500 32.56600
H  11.82600 47.35200 32.21500
H  14.95900 49.13000 27.15400
H  15.57000 49.55700 25.49400
H  15.59200 47.86600 26.08000
H  16.19100 47.23500 23.74200
H  15.92900 49.01800 23.43800
H  16.08400 47.81800 22.13600
H  9.48700 46.63600 20.93300
H  6.77900 47.24200 21.61400
H  9.34400 48.85200 19.98600
H  9.07300 49.50900 21.60500
H  7.73700 48.94200 20.66800
H  7.39400 45.01600 20.86400
H  6.40200 44.98900 22.25300
H  8.98600 44.80400 23.38100
H  9.02000 43.79500 21.91500
H  7.78300 43.58800 23.24400
H  3.46200 47.70100 25.80700
H  3.26700 46.42900 26.96000
H  3.89000 45.97200 25.30600
H  6.48500 48.46400 30.84200
H  7.62700 45.35700 33.38200
H  6.41300 44.29600 32.69000
H  5.96400 45.37000 34.01500
Mg -5.93800 24.98400 26.10800
C  -4.30300 26.28300 29.06800
C  -7.80600 22.95200 28.19400
C  -6.74400 23.28800 23.43500
C  -3.53200 26.76200 24.25300
N  -5.93400 24.63200 28.38900
C  -5.18000 25.24300 29.35700
C  -5.62800 24.92400 30.71300
C  -6.61100 23.70400 30.43100
C  -6.87200 23.78000 28.86500
C  -5.93700 22.27800 30.73600
C  -6.43500 26.14300 31.23900
C  -6.30100 26.45000 32.74600
H  -5.65300 25.34800 33.64200
N  -7.23500 23.47400 25.85700
C  -7.97400 22.84800 26.79000
C  -8.82000 21.91300 26.09500
C  -8.60100 21.99400 24.74700
C  -7.49300 22.89400 24.59900
C  -9.73300 21.02800 26.88100
C  -9.24200 21.19200 23.55000
O  -8.88800 21.34600 22.42200
C  -10.35400 20.25000 23.81200
N  -5.35600 25.17800 24.06900
C  -5.85500 24.31000 23.16100
C  -5.12600 24.49200 21.73600
C  -4.21000 25.72700 22.01200
C  -4.33000 25.86800 23.53500
C  -4.40300 23.21700 21.31900
C  -4.60700 27.01400 21.23700
C  -5.46300 28.02600 21.89100
N  -4.40800 26.33300 26.52100
C  -3.55200 26.95400 25.63900
C  -2.74900 27.90300 26.40800
C  -3.04500 27.69600 27.69400
C  -4.03800 26.68900 27.74900
C  -1.78500 28.87000 25.90900
C  -2.63500 28.04400 28.99000
O  -1.81700 28.86800 29.45300
C  -3.43400 27.17700 29.95700
C  -2.44500 26.46100 30.85200
O  -1.90100 25.35700 30.69200
O  -2.33100 27.16700 32.02400
C  -1.69900 26.68600 33.29200
H  -8.28400 22.25100 28.88200
H  -6.94400 22.65000 22.57200
H  -2.81200 27.34200 23.67200
H  -4.74300 24.63900 31.28100
H  -7.55500 23.89300 30.94300
H  -5.84900 21.58300 29.90100
H  -6.62800 21.86000 31.46800
H  -5.01600 22.34900 31.31400
H  -7.47700 26.04400 30.93500
H  -6.20100 27.07500 30.72300
H  -7.30100 26.57600 33.16100
H  -5.75100 27.38300 32.86800
H  -9.61200 19.96200 26.68400
H  -10.68700 21.27200 26.41400
H  -9.80400 21.23600 27.94800
H  -11.10200 20.55900 24.54300
H  -9.82200 19.36000 24.14600
H  -10.77800 20.02500 22.83300
H  -5.84700 24.82100 20.98700
H  -3.16900 25.50100 21.78100
H  -4.55300 22.39900 22.02400
H  -3.34100 23.41400 21.17100
H  -4.73900 22.90400 20.33100
H  -4.94600 26.80200 20.22300
H  -3.66800 27.50200 20.97600
H  -4.88900 28.92900 22.10100
H  -6.02800 27.73500 22.77700
H  -6.13500 28.40800 21.12200
H  -2.28500 29.83100 25.78100
H  -1.44000 28.60600 24.90900
H  -0.84600 28.87900 26.46200
H  -4.07200 27.85700 30.52100
H  -2.29700 27.11500 34.09700
H  -0.62900 26.88400 33.34800
H  -1.72400 25.59800 33.36000

