158

Mg 46.58000 24.63200 28.08200
C  47.02900 27.20200 30.40800
C  46.00500 22.44000 30.58100
C  46.28600 22.20900 25.71700
C  47.81400 26.81100 25.53500
N  46.45700 24.85100 30.16200
C  46.65300 25.99600 30.92300
C  46.45900 25.70100 32.37600
C  46.28200 24.14000 32.43100
C  46.32000 23.72900 30.97400
C  47.20500 23.30200 33.31800
C  45.37000 26.50300 33.20700
C  45.12200 25.89300 34.59700
H  45.21300 26.79200 35.87700
N  45.98700 22.67000 28.15600
C  45.86800 21.89200 29.26100
C  45.63400 20.52200 28.92500
C  45.68500 20.45900 27.52100
C  45.92500 21.81800 27.02800
C  45.41700 19.37500 29.93700
C  45.66400 19.23300 26.59600
O  45.77700 19.26800 25.36000
C  45.63500 17.91500 27.22100
N  46.73000 24.59800 25.93400
C  46.60800 23.44800 25.19000
C  47.07600 23.64900 23.71100
C  47.01700 25.25300 23.62300
C  47.27300 25.58900 25.09600
C  48.53200 23.09700 23.61100
C  45.81500 26.01300 22.94400
C  44.61700 26.50800 23.76600
N  47.30500 26.55700 27.93300
C  47.72100 27.33400 26.86800
C  48.18400 28.62200 27.32900
C  47.90500 28.58300 28.71400
C  47.32700 27.38800 29.01600
C  48.90500 29.72800 26.67400
C  48.13800 29.28900 29.92700
O  48.78300 30.36800 30.06700
C  47.46800 28.52700 31.12300
C  48.63300 28.36300 32.11800
O  49.67400 27.72300 31.99400
O  48.35100 29.00400 33.28000
C  49.34600 28.80300 34.33100
H  45.83000 21.70300 31.36800
H  46.24500 21.38800 24.99800
H  48.04200 27.60500 24.82000
H  47.43100 26.03500 32.73700
H  45.34300 23.81400 32.87800
H  47.87300 22.54500 32.90600
H  46.70300 22.65600 34.03800
H  47.77600 24.02200 33.90400
H  44.42000 26.50900 32.67200
H  45.67200 27.54000 33.35000
H  45.80000 25.05300 34.74900
H  44.11800 25.47000 34.59700
H  46.32200 18.76900 29.89100
H  44.65300 18.69100 29.56900
H  45.05400 19.71900 30.90500
H  46.36800 17.79500 28.01800
H  45.92900 17.06300 26.60800
H  44.60000 17.74100 27.51700
H  46.32700 23.20400 23.05500
H  47.92800 25.56600 23.11400
H  48.49100 22.12700 23.11500
H  49.11000 23.00600 24.53000
H  49.16200 23.77400 23.03400
H  45.35500 25.28300 22.27700
H  46.14000 26.86100 22.34200
H  44.00900 25.61000 23.87200
H  44.07400 27.32600 23.29400
H  44.80400 26.83800 24.78800
H  49.62800 30.20100 27.33900
H  48.21100 30.54600 26.48200
H  49.42400 29.42700 25.76400
H  46.67300 29.13600 31.55400
H  49.14500 27.90000 34.90700
H  49.19000 29.62700 35.02800
H  50.41300 28.91700 34.13800
Mg 46.95100 34.75300 26.71600
C  45.20900 33.27700 29.47800
C  47.28300 37.57700 28.69900
C  48.07500 36.37000 24.05600
C  46.45800 31.90200 24.81200
N  46.42500 35.29900 29.05600
C  45.64200 34.58600 29.89500
C  45.29800 35.38700 31.13500
C  45.94600 36.84600 30.80400
C  46.52400 36.60300 29.40800
C  44.95700 38.10600 30.85900
C  45.91700 34.80100 32.43200
C  45.84400 35.71000 33.66200
H  47.07000 36.28800 34.20900
N  47.59300 36.69200 26.47800
C  47.77700 37.65500 27.41800
C  48.51900 38.77200 26.82100
C  48.80300 38.32700 25.51200
C  48.11400 37.11900 25.25800
C  48.82500 39.99100 27.62800
C  49.79300 39.02800 24.53600
O  49.99100 38.57700 23.34900
C  50.53900 40.16900 25.04100
N  47.16900 34.23200 24.69400
C  47.66400 35.09000 23.78100
C  47.70200 34.35800 22.34200
C  47.51200 32.79300 22.67100
C  47.03200 32.93200 24.17900
C  46.60800 35.00300 21.43800
C  48.67700 31.82400 22.49100
C  49.86600 31.84400 23.45100
N  46.08300 32.96900 26.97100
C  46.02800 31.87400 26.18200
C  45.32300 30.75700 26.90400
C  44.91700 31.31100 28.09000
C  45.46700 32.62000 28.16900
C  44.86400 29.46100 26.27700
C  44.23200 31.03400 29.30900
O  43.58500 29.99600 29.66700
C  44.32700 32.31600 30.21600
C  44.75700 31.90900 31.51700
O  45.91800 31.73200 31.82500
O  43.69900 31.73100 32.32600
C  44.02900 31.12200 33.64400
H  47.46600 38.41800 29.37100
H  48.49500 36.92400 23.21400
H  46.45700 30.85500 24.49900
H  44.22000 35.35000 31.29100
H  46.69900 37.07700 31.55700
H  45.44700 38.88200 31.44700
H  44.02800 37.80100 31.34100
H  44.64500 38.40900 29.85900
H  46.91700 34.42300 32.21900
H  45.28800 33.97600 32.76700
H  45.53000 35.09600 34.50600
H  45.10700 36.49200 33.47600
H  48.39500 40.86200 27.13400
H  49.90300 40.12800 27.70100
H  48.34100 39.97700 28.60500
H  49.84500 40.84900 25.53500
H  51.15500 40.60300 24.25400
H  51.19400 39.60400 25.70400
H  48.67100 34.50200 21.86400
H  46.78500 32.30000 22.02600
H  46.08000 35.83400 21.90700
H  45.85500 34.27000 21.15000
H  47.12200 35.27900 20.51800
H  49.16900 32.12500 21.56600
H  48.30000 30.82700 22.26600
H  50.81600 31.52400 23.02300
H  49.55200 31.24500 24.30700
H  49.97900 32.87500 23.78700
H  43.84800 29.34100 26.65400
H  45.49800 28.66600 26.66900
H  44.77300 29.55400 25.19500
H  43.31400 32.71800 30.22900
H  43.20600 30.62900 34.16200
H  44.18300 31.99900 34.27300
H  44.88500 30.44900 33.70400

