158

Mg 8.47800 4.04100 27.19700
C  9.43500 2.21200 30.15900
C  6.27800 5.81400 29.24900
C  7.40200 5.35400 24.43600
C  10.30100 1.70600 25.40500
N  7.99500 4.03700 29.47200
C  8.56100 3.26300 30.43900
C  8.25800 3.79900 31.82500
C  7.08700 4.82300 31.55700
C  7.02900 4.88800 29.96000
C  5.73800 4.62200 32.23500
C  9.44800 4.52100 32.41100
C  10.07700 3.87700 33.62500
H  10.37200 4.76100 34.81500
N  7.14100 5.46400 26.91900
C  6.30500 6.05200 27.85300
C  5.63200 7.13600 27.16700
C  6.04700 7.11800 25.82000
C  6.91600 5.92900 25.67000
C  4.62400 8.01100 27.86200
C  5.75800 8.19900 24.71900
O  6.22800 8.14200 23.57100
C  4.73800 9.30500 24.86200
N  8.77200 3.51700 25.18400
C  8.27500 4.29600 24.20300
C  8.80000 3.91100 22.77600
C  9.79800 2.76000 23.15900
C  9.65700 2.70400 24.65100
C  7.77000 3.64100 21.67200
C  11.29500 2.92900 22.73000
C  12.01000 1.84000 21.83300
N  9.52100 2.21100 27.60400
C  10.32200 1.41500 26.77900
C  11.16800 0.56000 27.50800
C  10.81000 0.82700 28.88200
C  9.84500 1.86300 28.82500
C  12.14400 -0.41100 26.84000
C  11.00600 0.49800 30.30300
O  11.67600 -0.35300 30.83900
C  10.20900 1.40400 31.11200
C  9.31300 0.69100 32.08000
O  8.18300 0.42100 31.98100
O  10.05000 0.43400 33.17800
C  9.20000 0.06000 34.35500
H  5.76000 6.43800 29.98000
H  7.10000 5.82900 23.50000
H  10.91100 0.99500 24.84500
H  7.82800 3.08800 32.53000
H  7.37000 5.83000 31.86300
H  5.79000 3.79800 32.94800
H  4.91500 4.38700 31.56000
H  5.39900 5.58000 32.62900
H  9.23700 5.57000 32.62100
H  10.16400 4.56900 31.59000
H  11.03200 3.53500 33.22900
H  9.52000 3.03900 34.04400
H  4.40700 7.65000 28.86700
H  3.64600 7.99900 27.38100
H  4.92800 9.05700 27.83400
H  4.54300 9.91000 23.97600
H  5.32400 9.99100 25.47300
H  3.80100 9.12400 25.39000
H  9.43000 4.74300 22.46300
H  9.38700 1.86300 22.69600
H  6.76100 3.64800 22.08500
H  7.77100 2.60700 21.32700
H  7.89300 4.33200 20.83800
H  11.94500 2.99100 23.60200
H  11.34800 3.87300 22.18800
H  12.74500 2.25300 21.14200
H  11.26500 1.34300 21.21300
H  12.38800 1.00400 22.42100
H  12.69400 -0.02300 25.98300
H  11.53400 -1.26500 26.54700
H  12.81500 -0.90100 27.54600
H  10.80800 2.06400 31.74000
H  8.54300 0.87100 34.67000
H  9.86100 -0.36900 35.10700
H  8.53100 -0.76500 34.10700
Mg -5.48000 25.42500 26.26300
C  -4.04500 26.81600 29.10000
C  -7.46900 23.32700 28.31000
C  -6.49300 23.88200 23.50800
C  -3.10700 27.22900 24.35900
N  -5.67600 25.01000 28.44400
C  -5.00300 25.76800 29.38900
C  -5.54700 25.50400 30.83200
C  -6.48000 24.21000 30.51900
C  -6.58000 24.18000 29.01500
C  -5.88200 22.89800 31.18100
C  -6.36300 26.58900 31.52500
C  -6.01400 26.75100 32.98700
H  -5.94100 25.58000 33.93900
N  -6.86000 23.82700 25.92100
C  -7.60900 23.18000 26.87000
C  -8.44800 22.21800 26.16500
C  -8.08600 22.26000 24.77000
C  -7.08000 23.31600 24.69000
C  -9.36300 21.27300 26.88100
C  -8.53600 21.43500 23.59000
O  -7.86900 21.44200 22.54700
C  -9.67900 20.62800 23.67800
N  -4.76200 25.45900 24.17800
C  -5.40100 24.78300 23.31200
C  -4.87200 25.11600 21.92200
C  -3.86900 26.22100 22.11400
C  -3.96300 26.40000 23.63000
C  -4.14900 23.89200 21.23500
C  -4.25500 27.54100 21.40700
C  -3.39100 27.81700 20.21200
N  -3.86200 26.67600 26.58500
C  -3.03100 27.39500 25.75300
C  -2.21400 28.32000 26.45200
C  -2.59800 28.08400 27.83900
C  -3.50800 27.04700 27.81400
C  -1.26600 29.32100 25.92200
C  -2.26800 28.49900 29.20400
O  -1.58400 29.42400 29.64700
C  -3.24800 27.60700 30.10800
C  -2.38700 26.73400 30.99300
O  -1.88500 25.74900 30.61200
O  -2.50800 27.14800 32.25900
C  -1.88900 26.32300 33.34400
H  -8.25800 22.79100 28.84100
H  -6.71800 23.36000 22.57600
H  -2.52600 27.92200 23.74800
H  -4.71400 25.16800 31.44900
H  -7.44200 24.33900 31.01500
H  -6.60700 22.28100 31.71300
H  -5.01600 23.10800 31.80800
H  -5.57200 22.29200 30.33000
H  -7.44700 26.48800 31.46500
H  -6.18700 27.56800 31.07900
H  -6.80400 27.35100 33.43700
H  -5.09000 27.30600 33.15100
H  -10.38900 21.63400 26.96100
H  -8.94000 20.87500 27.80300
H  -9.59700 20.35400 26.34500
H  -10.08500 20.55700 22.66900
H  -10.39400 21.20300 24.26700
H  -9.58900 19.58600 23.98600
H  -5.68100 25.40300 21.25000
H  -2.81900 25.99900 21.92200
H  -3.06200 23.95000 21.16900
H  -4.67600 23.72800 20.29500
H  -4.34900 23.02700 21.86800
H  -4.08200 28.38600 22.07300
H  -5.29600 27.58700 21.08600
H  -3.96500 27.88800 19.28700
H  -2.51800 27.17900 20.07300
H  -2.92700 28.79500 20.34200
H  -1.81100 30.26400 25.88100
H  -0.98200 29.03000 24.91100
H  -0.36500 29.50100 26.50900
H  -3.84400 28.28100 30.72300
H  -1.75300 26.85700 34.28400
H  -0.95200 25.86700 33.02500
H  -2.65200 25.60100 33.63500

