158

Mg 1.09400 8.26800 27.52500
C  1.51100 10.29900 30.18700
C  1.01700 5.52900 29.73300
C  0.68900 6.25400 24.98300
C  1.67700 10.88600 25.32600
N  1.44600 8.02200 29.75800
C  1.21700 9.01200 30.57000
C  0.96700 8.51300 32.03000
C  1.11500 6.98400 31.74700
C  1.26800 6.81500 30.28800
C  2.33900 6.27100 32.58700
C  -0.39300 9.03000 32.77600
C  -0.38800 9.12000 34.28500
H  0.75300 8.37600 35.08300
N  0.85900 6.15000 27.41900
C  0.68400 5.22500 28.40200
C  0.34900 3.97200 27.91500
C  0.29100 4.12300 26.46600
C  0.61200 5.54100 26.18300
C  0.23200 2.83300 28.78300
C  0.21100 3.02900 25.39800
O  0.36500 3.28400 24.20800
C  0.17900 1.53800 25.72400
N  1.19900 8.45900 25.43100
C  1.03100 7.48500 24.56400
C  1.00700 7.91000 23.06800
C  0.91900 9.48800 23.20900
C  1.26800 9.62500 24.78400
C  2.37700 7.43000 22.41400
C  -0.44900 10.14400 22.87100
C  -0.41900 11.53900 22.21900
N  1.46400 10.17800 27.70700
C  1.80000 11.14500 26.78000
C  2.02900 12.41800 27.37300
C  1.88200 12.15600 28.72400
C  1.59300 10.75400 28.85900
C  2.16800 13.79000 26.65600
C  1.85500 12.74000 30.04500
O  2.02000 13.92900 30.36000
C  1.57500 11.55800 30.99300
C  2.55200 11.40400 32.17000
O  3.77600 11.43300 32.07700
O  1.84700 11.51900 33.32700
C  2.70800 11.92000 34.50200
H  1.10100 4.71400 30.45500
H  0.44700 5.61800 24.12900
H  1.73500 11.65000 24.54800
H  1.81900 8.80000 32.64700
H  0.21300 6.49300 32.11100
H  2.02200 6.19600 33.62700
H  3.23700 6.88800 32.54600
H  2.60000 5.32300 32.11700
H  -1.21500 8.41000 32.41900
H  -0.61500 9.99900 32.32800
H  -1.35900 8.82300 34.68200
H  -0.24200 10.16100 34.57100
H  1.17100 2.36200 29.07600
H  -0.39500 2.03400 28.38700
H  -0.41900 3.13700 29.60200
H  1.01300 1.29200 26.38100
H  0.14600 0.88400 24.85300
H  -0.71500 1.27200 26.28700
H  0.16200 7.49300 22.52000
H  1.64800 10.06200 22.63700
H  2.62800 8.26100 21.75400
H  2.22600 6.50400 21.85900
H  3.09100 7.06500 23.15200
H  -1.18800 10.16700 23.67100
H  -0.77800 9.45100 22.09600
H  0.53000 12.07500 22.23700
H  -1.07500 12.30600 22.63000
H  -0.75200 11.40400 21.19000
H  2.49700 13.58300 25.63800
H  2.97800 14.31300 27.16400
H  1.32500 14.48100 26.67600
H  0.53200 11.70400 31.27500
H  3.30500 12.80900 34.29500
H  3.39600 11.11600 34.76300
H  2.01100 12.04100 35.33100
Mg 17.09700 -1.32700 28.05700
C  16.06300 0.64200 30.88200
C  19.03200 -3.09000 29.98300
C  18.46400 -2.66500 25.17700
C  15.35300 0.89400 26.07800
N  17.56800 -1.02500 30.11700
C  17.06100 -0.31000 31.15500
C  17.49300 -0.79800 32.57600
C  18.63700 -1.77900 32.14900
C  18.36500 -1.99000 30.65500
C  20.06100 -1.34600 32.52700
C  16.35200 -1.38400 33.45600
C  16.64100 -1.46500 35.01200
H  17.89400 -0.84500 35.63700
N  18.42500 -2.80800 27.63600
C  19.05300 -3.46000 28.62000
C  19.80500 -4.53400 28.03600
C  19.73200 -4.43200 26.64300
C  18.85200 -3.24600 26.42600
C  20.43500 -5.59800 28.96300
C  20.36300 -5.19100 25.55900
O  20.13800 -4.95700 24.35500
C  21.25300 -6.37800 25.89800
N  16.90300 -0.93600 25.91200
C  17.47200 -1.68900 24.94700
C  17.16900 -1.11900 23.52400
C  16.15600 0.02700 23.79400
C  16.05600 -0.05000 25.35900
C  18.44200 -0.76100 22.75100
C  14.81700 0.02100 23.05700
C  14.87700 0.73700 21.64100
N  15.84800 0.40700 28.28100
C  15.18500 1.14200 27.43800
C  14.40400 2.13300 28.11000
C  14.77100 2.00500 29.48700
C  15.59500 0.91400 29.57300
C  13.72600 3.30200 27.40500
C  14.66300 2.60500 30.88900
O  14.15700 3.65100 31.31500
C  15.44000 1.58900 31.83800
C  16.31500 2.51100 32.63800
O  17.32200 3.02000 32.24100
O  15.72300 2.84900 33.76900
C  16.48400 3.83900 34.56800
H  19.73500 -3.62700 30.62300
H  18.81900 -3.03000 24.21100
H  14.83100 1.55100 25.37900
H  17.94400 0.06200 33.07200
H  18.55100 -2.73100 32.67300
H  20.69800 -1.49900 31.65500
H  20.40600 -2.00400 33.32400
H  20.09200 -0.33000 32.92100
H  16.07500 -2.35800 33.05300
H  15.49400 -0.71900 33.34900
H  16.51400 -2.52000 35.25600
H  15.84100 -0.85600 35.43200
H  21.43400 -5.25000 29.22200
H  20.38000 -6.60000 28.53500
H  19.81900 -5.69000 29.85700
H  22.06800 -5.97500 26.49900
H  21.72600 -6.84500 25.03400
H  20.77100 -7.10900 26.54700
H  16.67100 -1.93600 23.00100
H  16.61300 0.99100 23.57100
H  18.42800 0.31900 22.60000
H  18.58400 -1.28500 21.80700
H  19.25500 -0.93400 23.45700
H  13.98000 0.22300 23.72500
H  14.61700 -1.01500 22.78400
H  14.55800 -0.00100 20.90600
H  15.90200 0.95400 21.34200
H  14.26900 1.63500 21.52900
H  14.34300 3.39100 26.51200
H  13.86400 4.17400 28.04500
H  12.68300 3.16800 27.12000
H  14.66000 1.09000 32.41300
H  15.98100 4.04100 35.51300
H  16.49200 4.78700 34.02900
H  17.53300 3.57300 34.69700

