158

Mg 17.30800 -1.21600 28.29200
C  16.22700 0.90900 30.91300
C  19.15400 -2.94300 30.42400
C  18.66900 -2.71400 25.52400
C  15.73800 1.10100 26.04800
N  17.57200 -1.01400 30.46500
C  16.99500 -0.18300 31.33100
C  17.52100 -0.49700 32.71200
C  18.59800 -1.57600 32.48100
C  18.41600 -1.94300 31.00400
C  19.99100 -1.28200 32.99500
C  16.33800 -0.79400 33.67600
C  16.47900 -0.29000 35.13000
H  17.80700 0.20000 35.61800
N  18.62600 -2.68300 28.06100
C  19.33200 -3.27700 29.02300
C  20.14100 -4.38500 28.52800
C  19.88800 -4.47800 27.13100
C  19.00900 -3.21500 26.82500
C  21.02200 -5.28400 29.40500
C  20.24200 -5.52500 26.19900
O  19.87700 -5.55300 25.03700
C  21.13100 -6.73400 26.59000
N  17.25300 -0.78900 26.05600
C  17.88500 -1.61400 25.12300
C  17.38200 -1.42500 23.71100
C  16.37100 -0.19200 23.97800
C  16.37800 0.04500 25.45200
C  18.52900 -1.21800 22.67800
C  15.04600 -0.46500 23.38200
C  14.00000 -1.17100 24.21100
N  16.10700 0.57900 28.39900
C  15.58500 1.45400 27.43700
C  14.88400 2.56400 27.98400
C  15.08500 2.33500 29.42200
C  15.78900 1.19900 29.60300
C  14.16900 3.64000 27.18200
C  14.72300 2.89100 30.68500
O  14.06900 3.87400 31.01300
C  15.49000 1.97200 31.73200
C  16.36100 2.96100 32.51600
O  17.28500 3.58000 32.00900
O  15.86900 3.15800 33.82400
C  16.48300 4.07000 34.75600
H  19.76500 -3.46900 31.16100
H  19.08100 -3.32500 24.71800
H  15.19000 1.73300 25.34600
H  18.14300 0.33600 33.04100
H  18.31200 -2.45600 33.05800
H  20.21900 -1.89100 33.86900
H  20.12300 -0.23900 33.28300
H  20.71100 -1.52500 32.21400
H  16.41600 -1.87400 33.79900
H  15.39900 -0.47300 33.22400
H  16.17100 -1.17800 35.68100
H  15.78300 0.52300 35.33600
H  20.63700 -6.29200 29.25600
H  20.95100 -5.06600 30.47100
H  22.06400 -5.19300 29.09900
H  20.52800 -7.43100 27.17200
H  21.97200 -6.44600 27.22000
H  21.55800 -7.27000 25.74200
H  16.81900 -2.33200 23.49200
H  16.83300 0.68800 23.53100
H  19.44900 -1.68600 23.02800
H  18.57900 -0.14300 22.50700
H  18.22200 -1.77700 21.79400
H  15.19900 -1.25300 22.64400
H  14.68100 0.39000 22.81400
H  14.08800 -0.87100 25.25500
H  14.12900 -2.23900 24.38600
H  12.98800 -0.92900 23.88600
H  14.01500 3.31900 26.15200
H  14.76600 4.54900 27.11200
H  13.19700 3.94100 27.57200
H  14.75600 1.46100 32.35500
H  16.44400 5.10000 34.40300
H  17.52600 3.77300 34.86500
H  15.91500 4.05500 35.68600
Mg 9.17100 49.03200 26.31500
C  7.39300 49.14500 29.25500
C  11.93900 50.23800 27.94000
C  10.74200 49.08100 23.25700
C  6.11200 48.30700 24.65300
N  9.59800 49.40000 28.35700
C  8.72300 49.49700 29.41800
C  9.47000 50.02900 30.63900
C  10.59700 50.88400 30.00600
C  10.79100 50.08900 28.67200
C  10.26400 52.42900 29.76400
C  9.95900 48.87600 31.49600
C  9.90800 49.11600 33.03900
H  9.67700 47.94000 33.97900
N  11.14200 49.48600 25.68900
C  12.15800 49.91600 26.56600
C  13.32600 50.03200 25.79400
C  13.02100 49.62500 24.40600
C  11.57400 49.34200 24.35800
C  14.67700 50.53900 26.49000
C  13.98100 49.34700 23.29300
O  13.68000 48.91500 22.17300
C  15.39600 49.59200 23.54300
N  8.52800 48.90900 24.27400
C  9.35600 48.79500 23.25000
C  8.66300 48.41900 21.95900
C  7.23400 47.99100 22.41900
C  7.24400 48.41600 23.88200
C  8.63400 49.54900 20.90200
C  6.85700 46.49800 22.18200
C  7.68700 45.39300 22.80300
N  7.08200 48.82300 26.83400
C  5.99200 48.61700 26.04800
C  4.82500 48.53400 26.89000
C  5.36300 48.70900 28.13100
C  6.74000 48.86800 28.06000
C  3.36800 48.20900 26.45400
C  5.03500 48.78700 29.57500
O  3.90900 48.70200 30.06700
C  6.32300 49.11300 30.33300
C  6.46300 47.99700 31.28500
O  6.76200 46.91300 30.92300
O  6.15200 48.35500 32.60700
C  5.96600 47.24700 33.55000
H  12.77300 50.71000 28.46300
H  11.21300 48.79900 22.31300
H  5.18700 48.06400 24.12500
H  8.84900 50.62200 31.31100
H  11.48000 50.90500 30.64600
H  10.17600 52.43500 28.67700
H  10.92700 53.16300 30.22200
H  9.24700 52.65200 30.08600
H  10.99400 48.67700 31.21600
H  9.40000 47.96200 31.29300
H  9.07000 49.77300 33.27500
H  10.89200 49.46500 33.35100
H  14.50600 51.17700 27.35700
H  15.37800 51.02900 25.81400
H  15.18800 49.64000 26.83500
H  16.04400 49.44600 22.67900
H  15.73300 48.92000 24.33200
H  15.49200 50.63000 23.86300
H  9.23600 47.56500 21.59700
H  6.43500 48.67500 22.13400
H  7.70100 49.49300 20.34100
H  9.51000 49.33500 20.28900
H  8.78100 50.55100 21.30400
H  6.91300 46.45200 21.09400
H  5.81100 46.31700 22.43200
H  8.24400 45.79800 23.64800
H  8.43800 45.01800 22.10700
H  6.97600 44.62200 23.09900
H  3.27800 48.11800 25.37200
H  2.60400 48.79800 26.96200
H  3.11900 47.20600 26.80200
H  6.14400 50.07400 30.81400
H  4.95900 46.86400 33.38700
H  5.97500 47.65700 34.56000
H  6.85200 46.64100 33.36000

