158

Mg 40.82500 9.09900 29.22700
C  42.53100 10.45700 31.89000
C  38.71500 7.48700 31.50000
C  38.97000 8.08700 26.62400
C  43.30300 10.27900 27.15000
N  40.77800 8.73200 31.49000
C  41.56000 9.53600 32.32400
C  41.10000 9.27800 33.80700
C  40.04700 8.08800 33.66800
C  39.85100 8.01100 32.15100
C  40.23400 6.79700 34.45900
C  40.59700 10.60600 34.44800
C  39.84100 10.54900 35.77600
H  40.45800 11.17100 36.92500
N  39.01000 8.12800 29.09000
C  38.26600 7.59400 30.12300
C  37.03200 7.04800 29.58700
C  37.19000 7.12300 28.13900
C  38.43700 7.81200 27.88800
C  35.99600 6.39300 30.42700
C  36.20400 6.75300 27.01900
O  36.36100 7.02800 25.84000
C  34.82900 6.22100 27.39900
N  41.13300 9.12400 27.18100
C  40.24800 8.64400 26.29800
C  40.83300 8.69900 24.82400
C  42.07100 9.66400 25.07600
C  42.23900 9.59500 26.58200
C  41.27200 7.34400 24.21700
C  41.97500 11.09100 24.51400
C  43.23500 11.84800 23.94400
N  42.55400 10.08000 29.40000
C  43.44700 10.53800 28.46300
C  44.49000 11.24700 29.09100
C  44.16000 11.30400 30.44000
C  42.97500 10.55800 30.55000
C  45.76800 11.71600 28.39100
C  44.60400 11.69100 31.73300
O  45.64100 12.29300 32.00700
C  43.50800 11.26000 32.67700
C  44.11300 10.49100 33.80600
O  44.61100 9.35000 33.65600
O  44.07400 11.06600 34.97600
C  44.45700 10.35900 36.18800
H  37.92100 6.99900 32.07000
H  38.38700 8.02800 25.70200
H  43.99700 10.73300 26.44000
H  41.89800 8.85500 34.41700
H  39.13200 8.50900 34.08400
H  39.29000 6.59700 34.96500
H  41.05100 6.82000 35.18000
H  40.35400 5.89600 33.85800
H  39.89100 10.99800 33.71500
H  41.45400 11.27700 34.50400
H  39.43800 9.55300 35.96200
H  38.86300 10.98000 35.56000
H  36.50200 5.75200 31.14900
H  35.31500 5.72100 29.90500
H  35.33200 7.07800 30.95500
H  35.05100 5.18400 27.65000
H  34.08900 6.05400 26.61600
H  34.45100 6.78400 28.25200
H  40.08100 9.29000 24.30100
H  43.00500 9.19600 24.76600
H  41.21100 6.52600 24.93400
H  42.25700 7.41100 23.75500
H  40.65600 7.04800 23.36800
H  41.44200 11.66500 25.27100
H  41.28700 11.10600 23.66800
H  44.15600 11.26700 23.98100
H  43.44600 12.76300 24.49700
H  43.08800 12.17400 22.91500
H  46.36400 12.32000 29.07400
H  45.57600 12.40700 27.57000
H  46.35600 10.89400 27.98100
H  43.11700 12.24400 32.93500
H  43.67600 9.67700 36.52500
H  44.62900 11.07500 36.99100
H  45.41100 9.83600 36.12600
Mg 16.82000 51.63500 27.06000
C  18.75800 50.44300 29.86300
C  14.36800 52.42900 29.34700
C  14.90100 52.23300 24.53900
C  19.35900 50.32500 24.95600
N  16.64500 51.44500 29.34500
C  17.57500 50.97400 30.26200
C  16.95700 51.21100 31.65100
C  15.46600 51.48700 31.39100
C  15.48700 51.83500 29.90100
C  14.46900 50.29500 31.67000
C  17.87300 52.36300 32.37300
C  18.02000 52.11900 33.94600
H  17.15200 52.93900 34.96200
N  14.88700 52.39000 27.00800
C  14.05000 52.72000 27.99700
C  12.76600 53.19300 27.40600
C  12.81600 52.99500 26.00100
C  14.21300 52.54400 25.77500
C  11.64700 53.61900 28.24900
C  11.70300 53.16900 24.91100
O  11.89100 52.87100 23.75700
C  10.43600 53.77000 25.22400
N  17.06300 51.28100 24.98500
C  16.15000 51.72200 24.15800
C  16.66700 51.68900 22.73100
C  18.03900 51.04600 22.84000
C  18.18600 50.88500 24.35700
C  15.76600 51.07700 21.61700
C  19.25200 51.78100 22.04600
C  20.15900 52.86400 22.73900
N  18.66700 50.58500 27.33900
C  19.58000 50.12600 26.34300
C  20.62500 49.42600 26.95300
C  20.38600 49.63300 28.34300
C  19.18800 50.27600 28.52100
C  21.72500 48.65900 26.29000
C  20.86900 49.35100 29.67600
O  21.78100 48.65700 30.03200
C  19.86300 49.96000 30.75000
C  19.37000 48.92500 31.79800
O  18.60400 48.02700 31.54200
O  19.77600 49.27400 33.07600
C  19.19900 48.38500 34.18800
H  13.58000 52.77700 30.01800
H  14.16500 52.37100 23.74400
H  20.07800 50.10300 24.16500
H  17.04800 50.22000 32.09500
H  15.11300 52.30800 32.01600
H  13.56900 50.29500 31.05500
H  14.04600 50.17000 32.66700
H  15.00700 49.38800 31.39500
H  17.28700 53.27500 32.25800
H  18.86200 52.46200 31.92600
H  19.05100 52.20000 34.29000
H  17.85200 51.07800 34.22100
H  11.43200 54.63300 27.91100
H  11.83600 53.49700 29.31500
H  10.72100 53.06400 28.09800
H  10.54200 54.83200 25.44600
H  9.80800 53.08200 25.79000
H  9.85200 53.79200 24.30400
H  16.92000 52.72000 22.48000
H  18.00200 50.04600 22.40700
H  14.90400 50.48600 21.92800
H  16.37400 50.44600 20.96800
H  15.43700 51.93800 21.03600
H  18.79900 52.37400 21.25100
H  19.84600 50.99000 21.58700
H  19.92400 53.72800 22.11700
H  21.23700 52.71100 22.69200
H  19.89400 53.17300 23.75000
H  22.46600 49.38300 25.94900
H  21.46700 48.17500 25.34800
H  22.14300 47.90000 26.95200
H  20.35900 50.78100 31.26800
H  19.73200 47.43500 34.22200
H  18.12400 48.22900 34.09400
H  19.30900 48.75500 35.20800

