158

Mg 24.84300 -6.28700 45.39500
C  27.07900 -3.92900 43.70000
C  22.36700 -5.13600 43.32100
C  23.09900 -8.97400 46.28000
C  27.78500 -7.70700 46.78800
N  24.76000 -4.75900 43.60200
C  25.80000 -3.88600 43.20800
C  25.34500 -3.05400 42.04000
C  23.74300 -3.26400 42.14100
C  23.57700 -4.45900 43.06600
C  23.05200 -1.99400 42.67800
C  25.95400 -3.58900 40.60400
C  26.48900 -2.58500 39.60300
H  26.02200 -2.76200 38.14200
N  22.98100 -6.88700 44.92700
C  22.10000 -6.29200 44.03900
C  20.79400 -6.92100 44.12200
C  20.93600 -7.97800 45.12100
C  22.41600 -7.98300 45.48000
C  19.61900 -6.45300 43.24000
C  19.82500 -8.80500 45.54100
O  18.65600 -8.72600 45.11900
C  20.12700 -9.88700 46.45000
N  25.24800 -7.98000 46.52300
C  24.38800 -8.97900 46.76900
C  25.03500 -10.27500 47.32500
C  26.38000 -9.68500 47.82000
C  26.49900 -8.39100 46.90700
C  24.23500 -11.11100 48.32700
C  27.56700 -10.68200 47.56100
C  28.82200 -10.49800 48.39400
N  26.92500 -5.91800 45.38300
C  27.97300 -6.54500 46.07000
C  29.19900 -5.92100 45.79600
C  28.84500 -4.81600 44.92600
C  27.44300 -4.88800 44.66500
C  30.56500 -6.32600 46.34300
C  29.41500 -3.60800 44.32300
O  30.51400 -3.12300 44.46100
C  28.30200 -3.09100 43.33200
C  28.17500 -1.61000 43.60300
O  27.55600 -1.11800 44.49400
O  28.82600 -0.93000 42.60800
C  28.85500 0.55900 42.67900
H  21.46000 -4.72800 42.87100
H  22.59800 -9.92600 46.46800
H  28.65700 -8.29700 47.07800
H  25.64700 -2.03900 42.29900
H  23.36000 -3.51200 41.15100
H  23.80000 -1.20500 42.60800
H  22.61900 -2.07500 43.67400
H  22.24000 -1.68600 42.01900
H  25.21300 -4.18600 40.07200
H  26.68000 -4.33300 40.93100
H  27.57800 -2.58400 39.64400
H  26.11800 -1.61200 39.92600
H  18.75100 -7.11200 43.23600
H  19.98800 -6.41700 42.21500
H  19.19600 -5.47200 43.46100
H  19.26400 -10.36400 46.91400
H  20.71900 -9.50700 47.28200
H  20.54300 -10.74800 45.92500
H  25.12600 -10.93200 46.46000
H  26.27000 -9.41300 48.87000
H  24.67900 -11.13600 49.32200
H  24.09800 -12.10200 47.89300
H  23.24100 -10.69200 48.47900
H  27.95500 -10.42900 46.57400
H  27.14600 -11.68700 47.61000
H  29.17600 -11.38900 48.91200
H  28.64000 -9.74100 49.15700
H  29.66200 -10.08400 47.83600
H  30.81400 -7.35700 46.09500
H  30.52600 -6.20300 47.42600
H  31.28500 -5.58000 46.00700
H  28.61400 -3.06000 42.28800
H  29.85800 0.87600 42.96300
H  28.16400 0.92700 43.43800
H  28.69000 1.06300 41.72700
Mg 47.91400 34.41800 26.52400
C  46.15000 33.10400 29.44200
C  48.38400 37.34800 28.34100
C  49.42700 35.70300 23.76400
C  47.21600 31.46800 24.84500
N  47.55200 35.03800 28.67900
C  46.84300 34.34700 29.65500
C  46.88200 35.18200 30.88900
C  47.05700 36.63500 30.40200
C  47.67400 36.37600 29.04600
C  45.78600 37.53500 30.39400
C  47.96100 34.63400 31.90200
C  47.55700 34.64600 33.46500
H  46.51000 35.67400 33.99800
N  48.79500 36.23400 26.12400
C  48.90100 37.31000 27.00200
C  49.48800 38.42200 26.32400
C  49.86200 37.99800 25.03400
C  49.28500 36.61800 24.89200
C  49.75900 39.79800 26.97000
C  50.70600 38.82000 24.03200
O  51.07800 38.22100 23.05900
C  51.31100 40.20700 24.29600
N  48.07600 33.72600 24.39400
C  48.88900 34.44300 23.56900
C  49.31100 33.54300 22.37000
C  48.85200 32.10800 22.87100
C  47.97500 32.43600 24.07000
C  48.76800 34.12700 20.98300
C  49.96600 31.12100 23.25900
C  49.76600 29.73600 22.68400
N  46.80300 32.70100 26.97000
C  46.57100 31.58700 26.12200
C  45.88600 30.61600 26.95900
C  45.62600 31.20800 28.17200
C  46.19300 32.48400 28.16300
C  45.53800 29.17800 26.50700
C  44.94200 30.95900 29.38500
O  44.18800 30.03500 29.66800
C  45.24900 32.19100 30.26800
C  45.99200 31.60300 31.52500
O  47.20000 31.37400 31.65400
O  45.05300 31.45600 32.51400
C  45.45500 30.72600 33.68300
H  48.41400 38.30000 28.87500
H  49.97800 35.97600 22.86200
H  47.19700 30.45300 24.44300
H  45.98100 35.09200 31.49600
H  47.79800 37.18100 30.98700
H  44.91200 37.20400 30.95500
H  45.44700 37.71400 29.37400
H  45.92900 38.48900 30.90100
H  48.85400 35.24600 31.77700
H  48.28200 33.66900 31.51000
H  48.46100 34.91900 34.01000
H  47.23900 33.64400 33.75100
H  50.83600 39.96800 26.96800
H  49.42100 39.80600 28.00600
H  49.24300 40.59900 26.44000
H  50.43500 40.84500 24.41700
H  51.87400 40.52000 23.41700
H  52.05300 40.21900 25.09400
H  50.39600 33.55600 22.27500
H  48.35100 31.75200 21.97100
H  48.30600 33.40700 20.30800
H  49.50000 34.58300 20.31600
H  47.91500 34.80000 21.06400
H  49.95100 30.93900 24.33400
H  50.86900 31.66300 22.97800
H  48.69800 29.54400 22.79500
H  50.39100 29.04700 23.25300
H  50.04800 29.60400 21.64000
H  45.02300 29.25300 25.55000
H  44.76200 28.71200 27.11500
H  46.47000 28.64600 26.31400
H  44.38100 32.76100 30.60100
H  45.76800 29.69800 33.50000
H  44.74000 30.69900 34.50500
H  46.35900 31.20300 34.06100

