158

Mg 6.90700 57.45000 41.70200
C  5.52000 54.26000 41.65100
C  9.79300 56.14100 40.53800
C  7.97100 60.56100 41.22200
C  3.64900 58.63400 42.36400
N  7.54700 55.51200 41.08400
C  6.79600 54.39200 41.08600
C  7.71800 53.19000 40.59300
C  9.12300 53.79100 40.81500
C  8.84500 55.28000 40.79800
C  9.88600 53.27300 42.11600
C  7.45500 52.90200 39.10000
C  7.64000 51.40200 38.79500
H  6.65000 50.67300 37.83200
N  8.71100 58.20900 40.95600
C  9.76000 57.53200 40.50900
C  10.87400 58.40800 40.25100
C  10.37900 59.76400 40.36200
C  8.96500 59.58000 40.94500
C  12.26000 57.90200 39.86200
C  11.18600 61.03700 40.17200
O  12.38300 60.98600 39.95700
C  10.58100 62.39000 40.49000
N  5.84700 59.31600 41.47200
C  6.63500 60.41100 41.50800
C  5.71000 61.69500 41.74800
C  4.28900 61.10500 41.94700
C  4.56300 59.59500 41.92000
C  6.21400 62.75600 42.77300
C  3.09800 61.45900 40.96900
C  1.90800 62.27600 41.55200
N  4.96700 56.64100 42.09800
C  3.75600 57.20700 42.45600
C  2.74900 56.24600 42.79000
C  3.44300 55.00300 42.55400
C  4.76000 55.37400 42.09200
C  1.32900 56.47200 43.18500
C  3.37900 53.54700 42.63400
O  2.43900 52.85600 43.07100
C  4.72800 53.02300 42.07100
C  4.48400 51.98900 41.08400
O  3.87500 52.16000 40.03700
O  4.77400 50.75700 41.66800
C  4.37200 49.58100 40.86800
H  10.73500 55.77900 40.12300
H  8.29800 61.59800 41.32200
H  2.71300 59.16800 42.54100
H  7.49800 52.30600 41.19200
H  9.73000 53.44400 39.97800
H  10.68300 52.69700 41.64600
H  9.35200 52.56500 42.74900
H  10.15400 54.10000 42.77300
H  8.18100 53.46800 38.51600
H  6.46300 53.27100 38.84100
H  7.65800 50.77500 39.68600
H  8.61800 51.22700 38.34800
H  12.26800 57.85800 38.77300
H  12.50500 56.87500 40.13000
H  13.01600 58.58200 40.25400
H  10.17100 62.69100 41.45500
H  9.76000 62.52300 39.78500
H  11.24500 63.18500 40.15100
H  5.70800 62.17500 40.76900
H  4.02000 61.28300 42.98800
H  5.53100 62.94000 43.60300
H  6.31400 63.75100 42.34100
H  7.12700 62.50200 43.31200
H  2.60300 60.69000 40.37600
H  3.50600 62.13400 40.21700
H  2.02000 62.21000 42.63500
H  0.92400 61.83800 41.39000
H  1.83600 63.32900 41.27800
H  1.07800 57.43600 42.74300
H  1.10200 56.57100 44.24600
H  0.56700 55.76900 42.84700
H  5.28600 52.60200 42.90700
H  3.87800 48.94800 41.60600
H  5.09300 48.97100 40.32300
H  3.67700 49.86500 40.07800
Mg 15.45600 52.21700 26.25400
C  17.67300 51.46500 28.77200
C  12.94100 52.62400 28.53700
C  13.23900 52.38000 23.70600
C  18.05300 51.28600 23.89900
N  15.34600 51.91200 28.36700
C  16.36000 51.68800 29.25100
C  15.94900 52.01700 30.65400
C  14.40500 51.83900 30.53300
C  14.19700 52.19500 29.05100
C  13.88300 50.45200 30.99300
C  16.54100 53.40100 31.11900
C  16.56500 53.78900 32.57500
H  15.72900 52.90500 33.49900
N  13.37000 52.47400 26.09900
C  12.56600 52.74300 27.13200
C  11.21800 53.12600 26.69700
C  11.27900 52.99700 25.26700
C  12.64300 52.47200 24.96900
C  10.14400 53.66100 27.62100
C  10.15000 53.22000 24.27900
O  10.33900 52.94700 23.12100
C  8.87900 53.72800 24.70900
N  15.58600 51.98100 24.14200
C  14.54500 52.18900 23.31500
C  14.95800 52.12900 21.90300
C  16.48200 51.78200 21.90900
C  16.72400 51.65600 23.38500
C  14.01700 51.15000 21.06700
C  17.34600 52.88700 21.22400
C  18.18200 52.52100 20.01700
N  17.54300 51.57600 26.29500
C  18.48100 51.26600 25.25600
C  19.68000 50.78300 25.89100
C  19.39800 50.89400 27.25800
C  18.10900 51.44400 27.47100
C  20.97000 50.37200 25.28700
C  19.96100 50.71900 28.59500
O  21.06000 50.25600 28.92000
C  18.93900 51.12900 29.62600
C  18.76400 50.02300 30.62600
O  18.48900 48.84800 30.41600
O  18.93400 50.54300 31.91600
C  18.81600 49.61300 32.99700
H  12.17300 52.80700 29.29100
H  12.72600 52.68200 22.79100
H  18.83100 50.95400 23.20900
H  16.42800 51.27300 31.29100
H  13.81300 52.58400 31.06500
H  14.65200 49.69000 30.86500
H  12.97600 50.20300 30.44200
H  13.67000 50.64000 32.04500
H  15.97800 54.15700 30.57100
H  17.54100 53.34400 30.69000
H  16.26600 54.83500 32.65500
H  17.62000 53.75400 32.84800
H  10.23300 53.20100 28.60600
H  9.18300 53.19600 27.40000
H  10.12500 54.75100 27.63300
H  8.54900 52.98600 25.43700
H  8.17500 53.78700 23.87900
H  9.01300 54.69900 25.18400
H  14.55400 53.08000 21.55800
H  16.52100 50.75300 21.55000
H  14.57300 50.58000 20.32200
H  13.21300 51.74500 20.63300
H  13.67600 50.41800 21.79900
H  18.09100 53.36700 21.85900
H  16.67800 53.73900 21.10400
H  18.00000 51.48200 19.74000
H  19.23300 52.56600 20.30400
H  17.93900 53.28800 19.28100
H  20.92500 50.75500 24.26800
H  20.90800 49.28400 25.33300
H  21.78500 50.79900 25.87100
H  19.20400 51.96200 30.27700
H  17.87000 49.07400 32.94600
H  18.83900 50.16500 33.93600
H  19.65200 48.91500 33.03400

