158

Mg 47.25600 25.85900 28.37100
C  48.29500 27.99000 30.84700
C  46.42600 23.45900 30.78500
C  46.62600 23.64300 25.91400
C  48.48600 28.16400 25.99600
N  47.54300 25.75900 30.50900
C  47.73400 26.80300 31.40300
C  47.68900 26.42200 32.82600
C  47.31900 24.87400 32.69100
C  47.07700 24.64100 31.20600
C  48.27000 23.81000 33.35000
C  46.62700 27.25200 33.66300
C  47.29800 28.04100 34.76900
H  46.50100 28.17100 36.09700
N  46.62700 23.77900 28.33300
C  46.29700 23.02300 29.46400
C  45.78300 21.68600 28.94700
C  45.79500 21.71500 27.52500
C  46.32900 23.06300 27.21100
C  45.09300 20.66200 29.97600
C  45.35400 20.66500 26.50500
O  45.45400 20.81700 25.27700
C  44.85200 19.39000 27.08400
N  47.53100 25.91200 26.22700
C  47.12700 24.89200 25.43300
C  47.33800 25.23900 23.89600
C  47.92600 26.68600 23.94200
C  47.92300 26.95600 25.44900
C  48.31400 24.20700 23.25300
C  47.02500 27.76100 23.22100
C  47.60000 29.16900 22.88500
N  48.12000 27.69800 28.34500
C  48.61400 28.50000 27.33300
C  49.16300 29.71500 27.90200
C  49.12400 29.53800 29.23900
C  48.41600 28.30100 29.48000
C  49.58200 30.98000 27.21200
C  49.22700 30.25600 30.50700
O  49.54800 31.42500 30.66400
C  48.78600 29.26600 31.62400
C  49.94500 28.91100 32.41800
O  50.75500 27.98400 32.26500
O  49.98900 29.73700 33.52400
C  50.93800 29.38900 34.59500
H  46.00100 22.80600 31.55000
H  46.38900 22.92300 25.12800
H  48.64300 29.02500 25.34400
H  48.72400 26.63100 33.09600
H  46.38300 24.66100 33.20700
H  49.12200 24.35000 33.76300
H  48.66800 23.19800 32.54100
H  47.80600 23.17700 34.10700
H  45.87500 26.68800 34.21500
H  46.06400 28.01700 33.12800
H  47.47700 29.07000 34.45600
H  48.25700 27.57000 34.98500
H  44.00800 20.70100 29.88000
H  45.26000 20.94700 31.01500
H  45.52300 19.66400 29.88400
H  45.52500 18.80300 27.70900
H  44.47400 18.81100 26.24200
H  43.98700 19.78800 27.61600
H  46.34600 25.18900 23.44500
H  48.95800 26.70400 23.59300
H  48.47400 23.37500 23.93800
H  49.24100 24.71500 22.98800
H  47.82200 23.94600 22.31600
H  46.06200 27.84200 23.72600
H  46.85000 27.30900 22.24500
H  48.66300 28.92900 22.88000
H  47.25900 29.81700 23.69200
H  47.30900 29.51600 21.89400
H  50.62500 30.82500 26.93800
H  49.44300 31.84400 27.86100
H  49.05400 31.09900 26.26600
H  47.99000 29.52300 32.32300
H  51.91600 29.54400 34.13900
H  50.80600 28.39400 35.01900
H  50.86600 30.10600 35.41200
Mg 9.88200 47.70200 25.50200
C  8.03600 48.09500 28.27900
C  12.68300 48.87100 27.34700
C  11.86300 47.10600 22.76900
C  7.10500 47.01600 23.63300
N  10.29100 48.25800 27.59500
C  9.34900 48.23100 28.58100
C  9.87900 48.71500 29.90000
C  11.23900 49.44500 29.43900
C  11.44900 48.86500 28.00700
C  11.02900 51.05200 29.35800
C  10.12400 47.57300 30.89600
C  9.67300 47.86300 32.33800
H  9.33500 46.69800 33.36900
N  11.95700 47.88700 25.13000
C  12.93600 48.31300 26.01000
C  14.28500 48.07600 25.44900
C  14.04000 47.55700 24.12900
C  12.57300 47.48700 23.93700
C  15.57200 48.39200 26.26100
C  15.07000 47.09500 23.16800
O  14.71400 46.54200 22.13000
C  16.53400 47.25500 23.48100
N  9.49900 47.10900 23.46600
C  10.48200 46.77100 22.58200
C  9.84700 46.26400 21.25000
C  8.34600 46.23600 21.55800
C  8.31200 46.91400 22.92700
C  10.23600 47.23700 20.14500
C  7.82400 44.84300 21.53500
C  8.05400 43.84600 22.69600
N  7.93900 47.48400 25.86900
C  6.89700 47.29300 24.99000
C  5.66400 47.32400 25.74200
C  6.09300 47.60400 27.04200
C  7.44100 47.76800 27.04300
C  4.19100 47.28200 25.21800
C  5.57200 47.85600 28.39100
O  4.43100 47.87100 28.83300
C  6.83500 48.07000 29.25100
C  6.86200 46.89300 30.17500
O  7.28800 45.77900 29.79200
O  6.23200 47.14100 31.30800
C  6.04800 46.07000 32.26300
H  13.49200 49.24700 27.97600
H  12.42500 46.87500 21.86200
H  6.20100 46.83300 23.04800
H  9.30800 49.52500 30.35200
H  12.17300 49.12700 29.90200
H  10.13700 51.52400 29.77000
H  11.23200 51.40200 28.34600
H  11.88100 51.29900 29.99300
H  11.16200 47.24700 30.82400
H  9.56000 46.68200 30.62200
H  8.73800 48.42300 32.31300
H  10.50600 48.45200 32.72300
H  15.27900 48.44100 27.31000
H  16.23500 49.19800 25.94800
H  16.13200 47.48600 26.02800
H  16.85200 48.14800 24.01900
H  17.11600 47.16400 22.56400
H  16.65300 46.41200 24.16200
H  10.24600 45.28100 20.99900
H  7.87600 46.93500 20.86700
H  9.51500 47.09800 19.33900
H  11.22800 46.97400 19.77700
H  10.30900 48.27300 20.47500
H  8.31700 44.35700 20.69300
H  6.75400 44.94200 21.35400
H  8.54800 44.29300 23.55900
H  8.86200 43.13700 22.51400
H  7.12400 43.45400 23.10600
H  4.08000 46.50400 24.46300
H  4.02100 48.27800 24.80900
H  3.49800 47.06000 26.02900
H  6.66900 48.95900 29.85900
H  5.69100 46.39500 33.24000
H  6.63900 45.15900 32.16200
H  5.13700 45.59700 31.89700

