158

Mg 41.52700 8.63800 29.74500
C  43.31900 9.69300 32.36500
C  39.18500 7.32400 31.97700
C  39.95500 7.17100 27.08200
C  44.19400 9.44000 27.54800
N  41.35300 8.47700 31.87200
C  42.10100 9.19500 32.75800
C  41.65800 9.05600 34.16100
C  40.50000 8.04500 34.13700
C  40.32000 7.92000 32.59200
C  40.83800 6.63300 34.71800
C  41.37100 10.47400 34.67600
C  40.96200 10.67300 36.15100
H  41.73700 9.94800 37.25700
N  39.75800 7.47000 29.53600
C  38.90800 7.08000 30.59100
C  37.83100 6.25600 30.01900
C  37.94500 6.32300 28.59600
C  39.30400 6.90000 28.33300
C  36.68000 5.48800 30.82300
C  36.84100 6.01500 27.49400
O  37.10900 6.24700 26.30300
C  35.44600 5.63100 27.89400
N  42.09500 8.28500 27.71100
C  41.18700 7.77300 26.82200
C  41.63900 7.94300 25.35700
C  42.86700 8.85000 25.53500
C  43.09200 8.86200 26.96900
C  42.06600 6.59900 24.65600
C  42.68300 10.28000 25.04400
C  43.84200 10.78500 24.24000
N  43.40300 9.39400 29.90500
C  44.37300 9.65700 28.95400
C  45.52500 10.22300 29.66300
C  45.08800 10.29000 30.98700
C  43.88000 9.76800 31.11300
C  46.85000 10.68300 29.10300
C  45.49600 10.77300 32.27300
O  46.44200 11.40700 32.70300
C  44.37600 10.33300 33.25200
C  45.02300 9.37800 34.24600
O  44.85600 8.17200 34.16100
O  45.61700 10.13100 35.23100
C  46.07100 9.36700 36.42200
H  38.56300 6.88600 32.76000
H  39.56800 6.58800 26.24400
H  44.92000 9.92500 26.89200
H  42.43100 8.61700 34.79100
H  39.60600 8.42600 34.62900
H  41.88800 6.48200 34.97000
H  40.55200 5.86800 33.99700
H  40.16500 6.67300 35.57400
H  40.37200 10.73500 34.32800
H  42.02300 11.25000 34.27500
H  39.88000 10.62200 36.27700
H  41.26900 11.69600 36.36800
H  35.78700 6.10300 30.71200
H  36.91800 5.32300 31.87400
H  36.49300 4.50400 30.39400
H  34.92100 6.35700 28.51500
H  35.52300 4.66400 28.39100
H  34.95400 5.45200 26.93800
H  40.81500 8.41200 24.81900
H  43.85500 8.47500 25.26600
H  41.80200 5.77600 25.32000
H  43.13800 6.50800 24.48000
H  41.58300 6.41500 23.69700
H  42.45900 11.00800 25.82400
H  41.86400 10.26500 24.32500
H  44.27600 11.63400 24.76900
H  43.47700 11.26100 23.33000
H  44.69600 10.12100 24.10900
H  47.17800 10.06900 28.26500
H  47.58000 10.57900 29.90600
H  46.74600 11.72100 28.78700
H  44.14600 11.27500 33.75000
H  45.36300 9.59400 37.22000
H  47.05800 9.73900 36.69900
H  46.00600 8.29600 36.23000
Mg -10.93700 16.75700 40.22900
C  -7.57700 16.26000 40.40000
C  -10.44900 20.13200 40.29700
C  -14.29400 17.18400 39.48700
C  -11.37400 13.29500 39.88800
N  -9.15300 17.99300 40.23500
C  -7.86100 17.64900 40.35500
C  -6.99300 18.81400 40.19600
C  -7.91300 19.95100 40.75900
C  -9.29600 19.37300 40.43600
C  -7.72100 20.29200 42.25800
C  -6.47700 19.10400 38.83300
C  -5.04400 18.69900 38.50700
H  -4.83000 18.01300 37.17400
N  -12.17900 18.43500 39.99400
C  -11.79000 19.76200 40.01900
C  -12.83000 20.61600 39.56100
C  -13.97800 19.79200 39.37300
C  -13.53500 18.38700 39.64500
C  -12.58800 22.04900 39.11400
C  -15.36600 20.23800 38.84700
O  -15.51800 21.40600 38.59300
C  -16.59600 19.35900 38.79600
N  -12.53800 15.44100 39.56600
C  -13.86500 15.85700 39.53300
C  -14.85900 14.66200 39.48500
C  -13.85900 13.45100 39.72900
C  -12.50100 14.10100 39.74000
C  -16.08000 14.75500 40.38600
C  -13.97100 12.41600 38.57500
C  -14.07700 10.88400 38.95000
N  -9.72100 15.06600 40.11900
C  -10.03800 13.72800 39.98500
C  -8.83300 12.96000 39.97600
C  -7.83500 13.90200 40.15800
C  -8.40900 15.20000 40.23300
C  -8.63600 11.54400 39.97300
C  -6.41300 14.10100 40.25800
O  -5.55000 13.29300 40.37700
C  -6.20400 15.62500 40.44500
C  -5.51300 15.71800 41.76800
O  -5.73100 15.02900 42.74100
O  -4.67700 16.75700 41.76000
C  -4.05300 16.99400 43.04900
H  -10.20500 21.19300 40.37500
H  -15.37600 17.21700 39.34600
H  -11.51700 12.21300 39.92300
H  -6.14200 18.68900 40.86600
H  -7.86500 20.90700 40.23800
H  -8.66100 20.31600 42.81000
H  -7.26000 21.27900 42.24800
H  -7.05400 19.62800 42.80800
H  -6.60600 20.16700 38.62500
H  -7.17000 18.62000 38.14500
H  -4.52200 18.12100 39.27100
H  -4.47300 19.62800 38.51700
H  -13.08200 22.74400 39.79400
H  -13.03700 22.10100 38.12200
H  -11.51600 22.23600 39.06100
H  -17.55600 19.86900 38.87200
H  -16.62800 18.67400 39.64400
H  -16.61800 18.92300 37.79800
H  -15.24000 14.64000 38.46400
H  -13.98600 12.86800 40.64000
H  -16.06700 13.84000 40.97700
H  -16.97500 14.69900 39.76600
H  -16.09400 15.67000 40.97900
H  -13.30600 12.58600 37.72800
H  -14.83500 12.79500 38.02900
H  -13.50400 10.19700 38.32700
H  -15.14000 10.65900 38.86300
H  -13.83200 10.74500 40.00400
H  -7.89900 11.20900 40.70200
H  -8.32500 11.17200 38.99700
H  -9.53400 11.12400 40.42600
H  -5.49600 16.06600 39.74400
H  -3.83500 16.06000 43.56700
H  -4.71000 17.55200 43.71600
H  -3.13900 17.53200 42.79500

