158

Mg 1.48800 -0.59700 43.35600
C  4.87200 0.27100 42.93200
C  0.60200 2.39200 42.03900
C  -1.70000 -1.65600 43.14500
C  2.55300 -3.83500 44.14100
N  2.66800 1.06500 42.52500
C  4.02400 1.24300 42.47200
C  4.42500 2.62600 41.96700
C  3.06100 3.35300 41.83500
C  1.98500 2.23500 42.07900
C  2.88300 4.75700 42.64400
C  5.26100 2.54200 40.61600
C  6.40800 3.55800 40.50600
H  6.41200 4.14800 39.06300
N  -0.24500 0.29000 42.62000
C  -0.43700 1.49000 42.12000
C  -1.80800 1.86800 41.94700
C  -2.56400 0.73300 42.33800
C  -1.50100 -0.29100 42.77200
C  -2.33600 3.12400 41.34900
C  -4.08700 0.59000 42.32900
O  -4.68800 1.57500 41.97300
C  -4.81700 -0.58300 42.79200
N  0.58800 -2.44000 43.70500
C  -0.73700 -2.63000 43.51100
C  -1.12700 -4.17300 43.43500
C  0.10900 -4.79200 44.08100
C  1.14400 -3.66800 43.88400
C  -2.57000 -4.64800 43.86900
C  0.45500 -6.28500 43.51900
C  1.07500 -7.18000 44.65000
N  3.36700 -1.63100 43.53300
C  3.61600 -2.91800 43.97200
C  5.07900 -3.14800 44.11900
C  5.62000 -1.84900 43.78000
C  4.53800 -1.06800 43.29700
C  5.80000 -4.40700 44.59500
C  6.83700 -1.07000 43.62200
O  7.95600 -1.43700 43.84400
C  6.38100 0.37500 42.97900
C  6.79300 1.41900 43.96800
O  6.16800 1.64200 45.00900
O  8.00700 1.89400 43.65100
C  8.55800 2.86400 44.59900
H  0.37000 3.45900 42.01800
H  -2.68000 -2.12600 43.04700
H  2.83200 -4.85700 44.40600
H  5.04900 3.10300 42.72300
H  2.88100 3.70800 40.82000
H  2.30700 4.68000 43.56600
H  2.38800 5.46800 41.98300
H  3.81200 5.14000 43.06500
H  4.62800 2.63100 39.73300
H  5.84100 1.63400 40.45100
H  7.33600 3.02400 40.70500
H  6.30400 4.42900 41.15300
H  -2.93800 3.05500 40.44300
H  -1.46800 3.68200 40.99600
H  -2.70700 3.73800 42.16900
H  -5.90700 -0.56900 42.81300
H  -4.62900 -0.72900 43.85600
H  -4.50500 -1.40800 42.15100
H  -1.14600 -4.46400 42.38500
H  -0.05300 -4.91800 45.15100
H  -2.53900 -5.55000 44.48000
H  -3.10900 -4.97500 42.98000
H  -3.13200 -3.91500 44.44900
H  1.27400 -6.19200 42.80600
H  -0.44500 -6.71900 43.08400
H  2.15200 -7.08500 44.51500
H  0.75500 -8.18500 44.37500
H  0.69300 -6.97600 45.65100
H  5.59300 -5.19600 43.87200
H  5.28200 -4.64300 45.52400
H  6.87700 -4.26200 44.67600
H  6.86400 0.44400 42.00400
H  9.64500 2.80800 44.65600
H  8.25700 2.87600 45.64700
H  8.42300 3.87300 44.20900
Mg -11.77000 38.74700 40.77200
C  -9.90200 35.81900 39.98200
C  -9.12400 40.57400 39.30000
C  -13.71500 41.47800 40.61500
C  -14.40300 36.64900 41.44400
N  -9.72900 38.29700 39.72200
C  -9.23000 37.01600 39.48100
C  -7.97800 37.03700 38.61100
C  -7.66300 38.58900 38.59600
C  -8.88300 39.22300 39.31300
C  -6.33500 38.99300 39.24600
C  -8.22600 36.38500 37.23900
C  -6.96800 35.62800 36.74400
H  -6.39600 36.02300 35.40000
N  -11.38300 40.81400 40.34600
C  -10.22300 41.39900 39.81800
C  -10.47200 42.85500 39.84800
C  -11.80400 43.07200 39.98600
C  -12.38700 41.75700 40.30100
C  -9.32800 43.71200 39.36300
C  -12.53900 44.42600 39.96800
O  -11.78400 45.39600 40.02600
C  -14.02200 44.67800 40.08500
N  -13.72500 39.04500 40.92300
C  -14.27700 40.27700 41.04800
C  -15.84200 40.16600 41.22000
C  -16.05900 38.59800 41.20700
C  -14.61600 38.03400 41.27300
C  -16.56900 40.82900 42.44200
C  -16.75300 38.09400 39.88800
C  -17.59900 36.80200 40.06700
N  -12.11700 36.67900 40.90700
C  -13.19700 35.96200 41.27400
C  -12.92000 34.57800 41.32700
C  -11.66700 34.46500 40.85600
C  -11.19300 35.74700 40.59900
C  -13.93300 33.48900 41.57900
C  -10.59400 33.55300 40.59500
O  -10.56400 32.35200 40.68900
C  -9.38600 34.35700 39.98200
C  -8.32300 34.09500 40.92000
O  -7.54400 33.14900 40.74500
O  -8.07500 35.17800 41.79600
C  -6.89700 35.11500 42.73800
H  -8.47700 41.20200 38.68400
H  -14.45000 42.28500 40.62500
H  -15.27100 36.03600 41.69500
H  -7.27100 36.51300 39.25500
H  -7.57800 38.91000 37.55800
H  -5.58900 39.55200 38.68300
H  -5.83100 38.13400 39.69000
H  -6.55700 39.75400 39.99400
H  -8.60200 37.13100 36.53900
H  -9.07900 35.70800 37.29100
H  -7.19400 34.56500 36.66100
H  -6.13000 35.65300 37.44100
H  -8.32700 43.35900 39.61200
H  -9.36100 44.73400 39.74000
H  -9.36900 43.76400 38.27500
H  -14.27700 45.69500 39.78700
H  -14.33600 44.45800 41.10500
H  -14.68800 44.13400 39.41400
H  -16.28300 40.66900 40.36000
H  -16.67900 38.23000 42.02500
H  -17.22300 41.64200 42.12500
H  -15.80900 41.24600 43.10300
H  -17.15900 40.08800 42.98300
H  -15.93100 37.91500 39.19400
H  -17.42900 38.82400 39.44300
H  -17.89400 36.63700 41.10300
H  -17.03800 35.99600 39.59400
H  -18.59900 36.84300 39.63700
H  -14.72300 33.55300 40.83000
H  -14.24900 33.58500 42.61800
H  -13.60200 32.46400 41.41100
H  -9.05500 33.92900 39.03600
H  -6.33000 34.20500 42.54400
H  -7.22700 35.29400 43.76100
H  -6.21700 35.89600 42.39700

