158

Mg 25.08600 1.85900 29.26500
C  27.32700 1.38100 32.01600
C  22.54000 1.75300 31.46000
C  23.02100 1.74100 26.61400
C  27.92200 1.34100 27.18600
N  25.02300 1.67500 31.54500
C  26.04100 1.51700 32.46200
C  25.54000 1.69800 33.88500
C  23.98900 1.68300 33.56600
C  23.79100 1.65300 32.07500
C  23.23100 0.64100 34.36300
C  26.02500 2.95900 34.62300
C  25.15900 3.44100 35.78700
H  25.90500 4.22100 36.92700
N  23.03100 1.88400 29.10100
C  22.16200 1.84500 30.07700
C  20.88100 2.08500 29.55400
C  20.92100 1.95500 28.11400
C  22.31500 1.80000 27.89500
C  19.65400 2.05300 30.49900
C  19.84300 1.81700 27.01700
O  20.10100 1.69400 25.80400
C  18.39600 1.74400 27.47400
N  25.43500 1.40300 27.25900
C  24.41600 1.60000 26.33900
C  24.91300 1.55200 24.88300
C  26.51600 1.72000 25.14600
C  26.65900 1.41200 26.59200
C  24.45400 0.40000 24.01500
C  27.08000 3.14600 24.76700
C  26.82600 4.33100 25.65500
N  27.21400 1.48000 29.47000
C  28.16200 1.34900 28.54100
C  29.43100 1.07600 29.18900
C  29.15500 1.11400 30.55300
C  27.77200 1.37300 30.63700
C  30.82800 0.83300 28.64100
C  29.68200 1.02400 31.91100
O  30.81300 0.90900 32.32700
C  28.54600 1.21900 32.89000
C  28.47700 0.23700 34.03100
O  27.67500 -0.73200 34.05400
O  29.37800 0.51000 35.05500
C  29.59200 -0.61300 35.90100
H  21.76400 1.75500 32.22800
H  22.37100 1.90500 25.75200
H  28.73900 1.46200 26.47100
H  25.63600 0.86600 34.58400
H  23.64400 2.66000 33.90400
H  23.64600 -0.33700 34.11900
H  22.15100 0.65200 34.21400
H  23.34400 0.78400 35.43800
H  26.12500 3.73400 33.86400
H  27.05900 2.85200 34.94900
H  24.77800 2.51600 36.21900
H  24.33900 4.10200 35.50600
H  19.20600 3.02000 30.73100
H  19.96500 1.65900 31.46700
H  18.88300 1.36500 30.15300
H  17.93300 0.76200 27.57000
H  17.91300 2.29000 26.66300
H  18.18600 2.32700 28.37100
H  24.59600 2.48100 24.40900
H  27.15200 0.99800 24.63400
H  25.15600 0.18200 23.21000
H  23.45900 0.62100 23.63000
H  24.39500 -0.44900 24.69500
H  26.46900 3.46200 23.92100
H  28.11200 3.02800 24.43700
H  26.82300 3.91900 26.66400
H  25.89500 4.89000 25.56400
H  27.60300 5.08900 25.55400
H  31.02000 -0.16700 29.03200
H  31.57900 1.58300 28.89000
H  30.83300 0.73000 27.55600
H  28.70300 2.16900 33.40100
H  28.79900 -0.65200 36.64800
H  30.51600 -0.54300 36.47400
H  29.64300 -1.50800 35.28000
Mg -11.45100 38.75600 42.48100
C  -10.14200 35.63400 41.65900
C  -8.95500 40.13900 40.71900
C  -13.19200 41.65000 42.56000
C  -14.52900 36.96200 43.24700
N  -9.76700 37.93800 41.33600
C  -9.39000 36.66700 41.17700
C  -8.13000 36.59600 40.33100
C  -7.53700 37.99000 40.37500
C  -8.87700 38.75200 40.81000
C  -6.29700 38.19300 41.17800
C  -8.41300 35.97300 38.94100
C  -7.60600 34.82000 38.57200
H  -6.61400 35.00200 37.39500
N  -11.00600 40.69000 41.84700
C  -9.88500 41.06400 41.20800
C  -9.95800 42.48900 41.00300
C  -11.17200 42.96800 41.55200
C  -11.87300 41.75900 42.03900
C  -8.88500 43.22600 40.16700
C  -11.67100 44.49300 41.56800
O  -10.90900 45.33800 41.06100
C  -12.93800 44.92600 42.14500
N  -13.51500 39.17200 42.86300
C  -13.89600 40.45800 42.96500
C  -15.32100 40.54500 43.51700
C  -15.77600 39.09400 43.62800
C  -14.55400 38.31800 43.21400
C  -15.44900 41.49200 44.74700
C  -16.92600 38.54800 42.75300
C  -18.13200 37.90200 43.40300
N  -12.20800 36.70800 42.70700
C  -13.38100 36.15100 43.08900
C  -13.21700 34.67900 43.09700
C  -11.95700 34.45400 42.52100
C  -11.42300 35.69800 42.22500
C  -14.14100 33.58900 43.59300
C  -11.15200 33.45300 42.00200
O  -11.33000 32.23700 42.02300
C  -9.78400 34.18700 41.48600
C  -8.61000 33.78400 42.37700
O  -7.63300 33.13100 42.01800
O  -8.76200 34.45600 43.60500
C  -7.49100 34.32300 44.45600
H  -8.06100 40.52700 40.22600
H  -13.84500 42.51500 42.68600
H  -15.39700 36.45400 43.67200
H  -7.39200 35.97100 40.83500
H  -7.28200 38.31900 39.36800
H  -5.68400 38.94500 40.68100
H  -5.87900 37.20800 41.38300
H  -6.66900 38.61300 42.11200
H  -8.15500 36.71900 38.18900
H  -9.47600 35.75700 38.83900
H  -8.34700 34.07200 38.29100
H  -7.13300 34.36100 39.44000
H  -9.04800 43.00500 39.11200
H  -7.94600 42.72900 40.40900
H  -8.80700 44.29400 40.37000
H  -13.78100 44.58600 41.54300
H  -13.01400 46.00400 42.29000
H  -13.03200 44.56300 43.16900
H  -15.87000 41.08700 42.74600
H  -15.88800 38.90100 44.69500
H  -14.54600 42.09300 44.85400
H  -15.77100 41.11000 45.71600
H  -16.24900 42.13800 44.38500
H  -16.43500 37.93000 42.00100
H  -17.30600 39.37500 42.15400
H  -18.16100 37.85400 44.49200
H  -18.26900 36.88900 43.02700
H  -19.04400 38.45000 43.16600
H  -14.52700 33.12800 42.68400
H  -14.91700 34.08600 44.17600
H  -13.63300 32.83300 44.19100
H  -9.54100 34.03800 40.43400
H  -7.63100 33.40500 45.02600
H  -7.36800 35.06100 45.24900
H  -6.57100 34.28400 43.87200

