158

Mg 42.10800 41.29000 26.58700
C  41.54800 43.51700 29.12400
C  42.98600 38.99600 29.09500
C  42.35800 38.99100 24.27600
C  41.28200 43.68800 24.25500
N  42.37200 41.35300 28.90100
C  41.91900 42.31700 29.69500
C  42.02300 41.88900 31.12500
C  42.91600 40.59400 31.09900
C  42.73300 40.23500 29.58000
C  44.41300 40.76400 31.47700
C  40.57000 41.70100 31.81900
C  40.20500 42.64000 32.98300
H  39.82100 41.99800 34.28400
N  42.77100 39.32400 26.67800
C  43.07100 38.55300 27.77300
C  43.51900 37.26000 27.34800
C  43.22000 37.22100 25.90000
C  42.73900 38.54600 25.57600
C  44.03700 36.16200 28.29500
C  43.41400 36.07300 24.93400
O  43.30900 36.13900 23.72500
C  43.81700 34.74400 25.32800
N  42.07900 41.34800 24.45500
C  42.00900 40.26700 23.75100
C  41.67300 40.51900 22.35300
C  41.22500 41.98800 22.38900
C  41.50600 42.36700 23.79600
C  42.91600 40.19800 21.35300
C  39.73100 42.30400 21.88400
C  39.60600 43.07500 20.54400
N  41.72100 43.26800 26.60800
C  41.34500 44.16300 25.62500
C  40.74800 45.29600 26.21600
C  40.90100 45.13600 27.54300
C  41.48200 43.92700 27.77000
C  40.32100 46.54900 25.46200
C  40.65300 45.85100 28.77600
O  40.35600 47.00400 29.01600
C  41.11500 44.80400 29.86200
C  42.19300 45.30700 30.79200
O  43.36800 45.28600 30.56900
O  41.64400 45.70000 31.95100
C  42.47900 46.51900 32.80200
H  43.06900 38.21100 29.84900
H  42.41100 38.26400 23.46200
H  40.83900 44.43600 23.59500
H  42.56300 42.72800 31.56400
H  42.53100 39.85900 31.80500
H  44.76200 41.79600 31.42700
H  44.99600 40.15600 30.78600
H  44.43500 40.43700 32.51700
H  40.44200 40.69400 32.21800
H  39.78900 41.80400 31.06600
H  39.31100 43.19300 32.69600
H  40.99400 43.32200 33.29900
H  45.01500 35.78200 28.00000
H  43.36400 35.30600 28.33000
H  44.07100 36.52800 29.32200
H  44.64600 34.73000 26.03500
H  44.02500 33.94300 24.61900
H  42.91700 34.44200 25.86300
H  40.80500 39.92300 22.07100
H  42.00400 42.59000 21.92100
H  43.81500 40.15600 21.96900
H  43.04200 41.05800 20.69600
H  42.89500 39.26900 20.78300
H  39.21300 42.71200 22.75200
H  39.27100 41.36000 21.59400
H  38.93000 43.90300 20.75700
H  39.08400 42.51000 19.77100
H  40.61300 43.37100 20.25300
H  40.74100 46.60700 24.45800
H  40.65600 47.45900 25.96000
H  39.24200 46.57400 25.30800
H  40.32300 44.44000 30.51700
H  42.86900 47.30600 32.15700
H  43.23100 45.94600 33.34400
H  41.76700 47.00200 33.47200
Mg 35.31800 48.59900 25.50300
C  36.13200 46.78800 28.28800
C  34.13000 51.10100 27.69400
C  34.38700 50.37800 22.81600
C  36.03500 45.81800 23.40300
N  34.96700 48.77100 27.77800
C  35.57400 47.97300 28.68100
C  35.33100 48.47000 30.10800
C  34.50300 49.79800 29.86300
C  34.43600 49.91700 28.33500
C  33.16300 49.97000 30.50800
C  36.63600 48.65500 30.80400
C  36.71000 48.15300 32.24800
H  35.49300 48.21800 33.20600
N  34.46000 50.47900 25.27700
C  34.09700 51.37200 26.28000
C  33.79300 52.69700 25.70800
C  33.85500 52.51100 24.28400
C  34.23600 51.05400 24.06600
C  33.51000 53.96900 26.56100
C  33.59200 53.48700 23.18200
O  33.59600 53.17500 22.02600
C  33.42800 54.94600 23.52100
N  35.25600 48.12600 23.41900
C  34.84400 49.06300 22.51000
C  34.79700 48.52700 21.10700
C  35.47900 47.13000 21.24100
C  35.64400 47.01200 22.80300
C  33.33300 48.42700 20.53700
C  36.71000 46.97000 20.33600
C  37.96600 46.78200 21.14000
N  35.90200 46.71300 25.72300
C  36.20500 45.67600 24.77900
C  36.66700 44.55900 25.49700
C  36.71100 44.93500 26.90200
C  36.16600 46.24800 26.96000
C  37.07700 43.20000 25.10800
C  37.08300 44.55300 28.19200
O  37.52500 43.47300 28.65600
C  36.71900 45.66400 29.10800
C  35.77500 45.09800 30.18000
O  34.59600 44.93400 30.08900
O  36.48900 44.72000 31.24900
C  35.73000 44.52000 32.50000
H  33.94600 51.91500 28.39800
H  34.10100 51.00200 21.96600
H  36.33300 45.01900 22.72100
H  34.76400 47.67400 30.59000
H  35.03600 50.68900 30.19700
H  32.88700 49.00200 30.92600
H  32.47400 50.05100 29.66800
H  33.04200 50.88400 31.09000
H  36.94100 49.70100 30.77700
H  37.40800 48.16800 30.20800
H  37.45600 48.84100 32.64800
H  37.10000 47.14000 32.34300
H  32.71500 54.57900 26.13100
H  34.36700 54.63600 26.46600
H  33.27200 53.84300 27.61700
H  33.36800 55.51500 22.59300
H  34.36300 55.20300 24.01900
H  32.58200 55.25100 24.13600
H  35.35500 49.21400 20.47100
H  34.70900 46.42100 20.93700
H  33.01800 49.28500 19.94200
H  32.68000 48.12000 21.35300
H  33.35900 47.61100 19.81500
H  36.88900 47.80000 19.65300
H  36.63500 45.99600 19.85300
H  38.12700 47.37500 22.04100
H  38.75000 46.90500 20.39300
H  37.95100 45.77100 21.54700
H  36.90300 42.98000 24.05500
H  36.52000 42.47500 25.70200
H  38.12800 43.05800 25.36000
H  37.64700 46.02500 29.55100
H  34.80200 45.09100 32.46900
H  36.16800 44.83400 33.44800
H  35.41700 43.47700 32.53500

