158

Mg 47.75700 15.91700 29.06900
C  45.75800 15.70600 31.93600
C  50.18100 17.36100 31.10800
C  49.48200 16.77900 26.24400
C  45.10800 14.90600 27.11200
N  47.82300 16.78600 31.25500
C  46.99700 16.29700 32.21600
C  47.46200 16.69000 33.64100
C  48.82600 17.46100 33.36000
C  48.98100 17.10100 31.81800
C  48.80000 19.02900 33.54100
C  47.58600 15.49200 34.69400
C  47.28700 15.84600 36.17900
H  47.60500 17.25500 36.76100
N  49.63500 16.85400 28.70500
C  50.50600 17.27100 29.68700
C  51.71200 17.75500 29.08600
C  51.52700 17.57400 27.68600
C  50.12500 17.09500 27.47900
C  52.80000 18.29800 29.80200
C  52.57000 17.78800 26.57500
O  52.29400 17.77700 25.36200
C  54.00900 18.11700 26.89600
N  47.43200 15.77700 27.07200
C  48.26100 16.20600 26.07500
C  47.64500 15.98700 24.63200
C  46.36600 15.20900 24.99600
C  46.28700 15.31600 26.51600
C  47.45300 17.39200 23.91000
C  46.20600 13.79700 24.43000
C  45.22500 13.53600 23.25800
N  45.83400 15.27500 29.45500
C  44.86100 14.84900 28.51400
C  43.70400 14.47700 29.35300
C  44.03100 14.69500 30.69000
C  45.25300 15.31300 30.68100
C  42.37000 14.01200 28.69500
C  43.62000 14.57700 31.94500
O  42.58800 14.15900 32.41100
C  44.70700 15.25600 32.83200
C  44.02300 16.33200 33.65300
O  43.46000 17.35000 33.27200
O  44.01300 15.94100 34.92200
C  43.62200 17.09600 35.79700
H  50.90700 17.79700 31.79900
H  49.97100 17.16800 25.34900
H  44.30300 14.64100 26.42300
H  46.69600 17.39100 33.97300
H  49.64300 16.93200 33.84800
H  47.97100 19.26100 34.20900
H  48.67700 19.68700 32.68100
H  49.69100 19.36300 34.07100
H  48.57100 15.03900 34.59200
H  46.86400 14.74700 34.36100
H  47.87400 15.06800 36.66700
H  46.26100 15.64200 36.48700
H  52.72100 18.19200 30.88400
H  53.04200 19.32100 29.51300
H  53.72000 17.74900 29.60300
H  53.99100 19.04700 27.46400
H  54.42900 18.25800 25.90000
H  54.48500 17.29000 27.42300
H  48.34100 15.37200 24.06200
H  45.51300 15.79300 24.65100
H  47.83800 18.20300 24.52800
H  46.40700 17.56900 23.66100
H  47.95700 17.45000 22.94600
H  45.88100 13.14700 25.24200
H  47.19800 13.52000 24.07300
H  45.79100 12.90100 22.57500
H  45.06400 14.44500 22.67900
H  44.32300 13.06100 23.64500
H  42.37600 12.92200 28.71200
H  42.10600 14.39600 27.71000
H  41.59100 14.34700 29.37900
H  45.10700 14.49300 33.49900
H  44.13500 18.02600 35.55300
H  43.87900 16.76600 36.80300
H  42.54800 17.26800 35.72500
Mg 47.85800 25.25500 28.68800
C  48.58400 27.53100 31.17400
C  47.13800 22.87300 31.27100
C  47.25400 23.08200 26.26000
C  49.00400 27.55400 26.34600
N  47.62700 25.27200 30.99600
C  47.99800 26.39200 31.77200
C  47.68800 26.20900 33.23700
C  47.37100 24.64400 33.26000
C  47.40200 24.17900 31.73400
C  48.25900 23.77700 34.11600
C  46.56800 27.23200 33.87200
C  47.00700 28.12800 35.07200
H  46.06400 28.40300 36.28300
N  47.16200 23.21100 28.75600
C  46.98100 22.44100 29.92400
C  46.60700 21.11100 29.46000
C  46.61000 21.13800 28.02000
C  46.96200 22.51700 27.59200
C  46.29800 19.97700 30.40600
C  46.28600 19.94600 27.08000
O  46.43700 20.02000 25.90400
C  45.97400 18.67100 27.59900
N  48.09400 25.37700 26.58700
C  47.77600 24.33700 25.77900
C  48.07100 24.59400 24.26400
C  48.40700 26.10800 24.27700
C  48.56800 26.40900 25.79900
C  49.12100 23.66300 23.61600
C  47.47200 27.08400 23.57300
C  48.02100 28.01100 22.44300
N  48.79000 27.11600 28.70300
C  49.09600 27.95000 27.70400
C  49.54000 29.25100 28.22600
C  49.37000 29.12600 29.61800
C  48.88800 27.80000 29.82700
C  50.05900 30.40300 27.45400
C  49.49800 29.86400 30.81300
O  49.87100 30.96100 31.13000
C  49.05300 28.80100 31.87100
C  50.19700 28.51300 32.81600
O  51.17800 27.82600 32.51200
O  49.88300 29.10000 34.04400
C  51.04000 29.05800 35.00500
H  47.00600 22.13100 32.06200
H  47.11400 22.27800 25.53500
H  49.26000 28.31900 25.61000
H  48.56200 26.44300 33.84500
H  46.32100 24.66600 33.55100
H  48.78200 23.01200 33.54200
H  47.66400 23.24600 34.85800
H  49.06800 24.41400 34.47500
H  45.73300 26.68700 34.31200
H  46.24700 27.80100 33.00000
H  47.08400 29.10900 34.60400
H  48.05000 27.98300 35.35400
H  47.02200 19.21100 30.12800
H  45.27100 19.64000 30.26400
H  46.53800 20.21900 31.44200
H  46.90000 18.38000 28.09500
H  45.62200 18.08000 26.75400
H  45.11000 18.91300 28.21800
H  47.10100 24.57100 23.76600
H  49.40400 26.12800 23.83700
H  49.62900 24.05300 22.73300
H  48.72900 22.72700 23.21900
H  49.86300 23.35700 24.35300
H  47.08800 27.75100 24.34500
H  46.57400 26.53700 23.28600
H  47.86300 29.08800 22.49600
H  47.57900 27.67000 21.50600
H  49.09700 27.91700 22.30000
H  49.63700 31.30900 27.88700
H  49.73800 30.21000 26.43000
H  51.14700 30.37900 27.50800
H  48.22300 29.08400 32.51900
H  50.84700 28.37300 35.83100
H  51.16300 30.04600 35.45000
H  51.99300 28.97200 34.48300

