158

Mg 40.68700 10.01900 30.24900
C  42.58100 11.39200 32.98500
C  38.68300 8.50600 32.50000
C  39.09400 8.74900 27.65800
C  43.33700 11.03400 28.13700
N  40.56600 10.07400 32.49900
C  41.40000 10.64900 33.39300
C  40.96300 10.37900 34.83900
C  39.76200 9.38500 34.65200
C  39.73600 9.25200 33.13100
C  39.84900 8.03900 35.43200
C  40.62400 11.62100 35.74000
C  41.62200 11.88000 36.88500
H  41.15300 12.34800 38.26400
N  39.13800 8.70200 30.03700
C  38.40600 8.25300 31.10100
C  37.25700 7.51700 30.54500
C  37.36900 7.56400 29.12800
C  38.56700 8.42600 28.88700
C  36.28500 6.68100 31.35700
C  36.39300 7.06900 28.02100
O  36.65400 7.17900 26.78800
C  35.04800 6.29600 28.41200
N  41.21800 9.83300 28.14400
C  40.36100 9.25500 27.31500
C  40.81400 9.33700 25.83300
C  42.26600 9.99700 25.98400
C  42.24900 10.38000 27.49500
C  40.76700 7.95800 25.11200
C  42.46400 11.29700 25.17100
C  43.90100 11.40200 24.62800
N  42.44000 11.22400 30.40500
C  43.43500 11.46700 29.47700
C  44.55800 12.15900 30.15200
C  44.19300 12.23500 31.52200
C  42.94700 11.52900 31.61000
C  45.82800 12.72600 29.57400
C  44.69100 12.66400 32.79900
O  45.73800 13.27700 32.99700
C  43.57800 12.16800 33.81300
C  44.36700 11.25000 34.73300
O  44.68400 10.09400 34.47300
O  44.66700 11.94100 35.94700
C  45.37600 11.15900 36.95300
H  38.04100 7.97900 33.20900
H  38.53000 8.48800 26.76000
H  44.17500 11.27900 27.48100
H  41.79100 9.83700 35.29500
H  38.88500 9.92700 35.00800
H  40.76100 7.94900 36.02200
H  39.62500 7.10700 34.91200
H  39.05300 8.24900 36.14600
H  39.66400 11.45300 36.22900
H  40.71400 12.44800 35.03500
H  42.35800 12.58900 36.50700
H  42.17100 10.94800 37.02300
H  36.46500 6.67300 32.43200
H  36.26400 5.70300 30.87600
H  35.28000 7.07800 31.21800
H  34.57200 6.76600 29.27300
H  35.36600 5.28700 28.67400
H  34.42600 6.11700 27.53400
H  40.05000 9.94200 25.34400
H  43.09300 9.28800 25.97100
H  39.90900 7.86700 24.44600
H  40.49200 7.20100 25.84700
H  41.73600 7.66900 24.70400
H  42.50100 12.19400 25.78900
H  41.81200 11.43700 24.30900
H  44.57000 10.54500 24.54300
H  44.44500 12.07700 25.28800
H  44.00300 11.91700 23.67300
H  46.02700 12.49400 28.52800
H  46.67600 12.45900 30.20400
H  45.78100 13.81500 29.57100
H  43.09800 13.03200 34.27200
H  46.03000 10.41600 36.49600
H  44.72900 10.68700 37.69200
H  46.01200 11.90000 37.43700
Mg 42.70700 42.28300 26.19200
C  41.73100 44.45600 28.75200
C  43.89600 40.21200 28.71800
C  43.83900 40.15600 23.78400
C  42.13000 44.76900 23.86600
N  42.60900 42.22300 28.47800
C  42.19400 43.26200 29.25900
C  42.22600 42.84400 30.75000
C  42.92100 41.46400 30.69800
C  43.12200 41.25400 29.17000
C  44.07900 41.08200 31.75600
C  40.84900 42.87800 31.46900
C  40.89600 43.66800 32.80900
H  40.08600 43.08900 33.92300
N  43.59400 40.43300 26.20800
C  44.13000 39.82600 27.33400
C  44.78600 38.60300 26.87600
C  44.78100 38.53800 25.46100
C  44.05200 39.78200 25.05600
C  45.26300 37.54000 27.90300
C  45.34000 37.47500 24.55600
O  45.24800 37.53400 23.36000
C  46.06700 36.25500 25.18400
N  42.90600 42.41600 24.11400
C  43.27100 41.40700 23.31200
C  43.23000 41.76000 21.85000
C  42.50300 43.18100 21.91600
C  42.49700 43.49300 23.41400
C  44.58100 41.75300 21.13900
C  41.12600 43.11700 21.39100
C  40.23700 41.97100 21.98100
N  42.13100 44.23700 26.26000
C  41.87900 45.07500 25.22200
C  41.45200 46.34100 25.68300
C  41.32200 46.21500 27.12100
C  41.73900 44.86100 27.40300
C  41.33600 47.53300 24.82700
C  41.00900 46.89800 28.42200
O  40.65300 48.05200 28.70300
C  41.38400 45.76500 29.52200
C  42.49900 46.29400 30.31400
O  43.71400 46.10200 30.19600
O  41.95200 47.03600 31.31700
C  42.78100 47.61100 32.30100
H  44.38000 39.63900 29.51100
H  44.14400 39.48000 22.98300
H  41.98800 45.50900 23.07600
H  42.84600 43.64700 31.14700
H  42.17400 40.69500 30.89200
H  43.85100 41.77700 32.56400
H  45.07600 41.14500 31.31800
H  43.97000 40.04700 32.07900
H  40.58000 41.86600 31.77400
H  40.04000 43.25700 30.84400
H  40.52400 44.67400 32.61400
H  41.90600 43.81900 33.19100
H  44.74900 36.63400 27.58100
H  44.94000 37.77600 28.91700
H  46.34600 37.42800 27.96100
H  45.26100 35.77600 25.73900
H  46.79000 36.68600 25.87800
H  46.42900 35.63700 24.36300
H  42.64300 40.95500 21.40800
H  43.05400 43.85800 21.26300
H  45.33900 41.89500 21.90900
H  44.57100 42.54900 20.39500
H  44.77800 40.83400 20.58700
H  41.19800 42.84400 20.33900
H  40.60800 44.07500 21.43100
H  39.96200 41.28600 21.17900
H  39.28000 42.32400 22.36500
H  40.78900 41.37000 22.70300
H  40.43700 47.59500 24.21300
H  42.30100 47.58700 24.32400
H  41.23100 48.40300 25.47500
H  40.50100 45.69000 30.15600
H  43.09400 48.60500 31.98400
H  43.62200 46.97700 32.58000
H  42.19900 47.76200 33.21000

