158

Mg 2.38500 -1.41200 43.81700
C  5.85900 -0.82800 43.27000
C  1.75500 1.06900 41.64000
C  -0.79200 -2.50500 43.74000
C  3.35300 -4.44300 45.52600
N  3.73700 -0.14000 42.52000
C  5.09800 0.02400 42.53500
C  5.53900 1.04300 41.52300
C  4.13500 1.63500 41.08000
C  3.07500 0.86900 41.87400
C  4.01200 3.12600 41.26600
C  6.34200 0.43400 40.36400
C  7.71700 1.17300 40.22900
H  8.16200 1.64000 38.80900
N  0.67700 -0.73800 42.89800
C  0.61000 0.40500 42.07500
C  -0.78600 0.67800 41.80300
C  -1.58400 -0.37500 42.39200
C  -0.57800 -1.29400 43.05000
C  -1.24100 1.82900 41.06400
C  -3.08300 -0.48200 42.35100
O  -3.81800 0.30300 41.78700
C  -3.86300 -1.64500 43.07700
N  1.48600 -3.28100 44.39900
C  0.12700 -3.35200 44.35500
C  -0.34800 -4.59600 45.15300
C  0.90300 -5.40100 45.48800
C  2.00500 -4.31100 45.17000
C  -1.26900 -4.09300 46.38000
C  1.06100 -6.69800 44.70800
C  0.95000 -8.01200 45.46300
N  4.21100 -2.42400 44.35500
C  4.39200 -3.56300 45.06900
C  5.81500 -3.77600 45.36000
C  6.41900 -2.63800 44.66200
C  5.40500 -1.90000 44.05200
C  6.46500 -4.93600 46.09300
C  7.63500 -1.97200 44.49500
O  8.72000 -2.20400 44.98000
C  7.41200 -0.77200 43.52200
C  7.97900 0.40200 44.15100
O  7.63400 0.86700 45.24800
O  8.90100 0.91900 43.33500
C  9.37600 2.27300 43.62700
H  1.47400 1.87700 40.96200
H  -1.84500 -2.78200 43.82000
H  3.62600 -5.37100 46.03100
H  6.14100 1.65000 42.20000
H  4.08300 1.50100 39.99900
H  4.98500 3.61000 41.34900
H  3.56400 3.35600 42.23200
H  3.47300 3.61100 40.45200
H  5.73900 0.42600 39.45600
H  6.69600 -0.57400 40.57800
H  8.54600 0.53000 40.52400
H  7.81400 2.06500 40.84800
H  -2.03800 2.34600 41.59900
H  -1.70300 1.48400 40.13900
H  -0.49500 2.60200 40.88100
H  -4.87000 -1.23300 43.13400
H  -3.51200 -1.63700 44.10900
H  -3.77900 -2.63900 42.63800
H  -1.01000 -5.17100 44.50600
H  1.00900 -5.50100 46.56800
H  -1.73400 -3.14500 46.10800
H  -0.65500 -3.92900 47.26600
H  -2.06300 -4.81700 46.55800
H  1.95600 -6.68200 44.08600
H  0.24000 -6.69500 43.99200
H  1.74900 -8.67700 45.13500
H  -0.02800 -8.43400 45.23200
H  0.92000 -7.79400 46.53000
H  6.36400 -4.68800 47.15000
H  7.46800 -5.04800 45.67900
H  5.93400 -5.88100 45.97900
H  7.93800 -1.05600 42.61100
H  10.19500 2.19400 44.34100
H  8.58400 2.88100 44.06400
H  9.65700 2.77400 42.70100
Mg 0.78300 8.75700 25.52400
C  1.69300 10.55500 28.34800
C  0.80100 5.90300 27.39800
C  0.25600 7.07400 22.66000
C  0.83400 11.62900 23.67700
N  1.17300 8.30100 27.72200
C  1.47500 9.19600 28.63900
C  1.40500 8.51000 30.03400
C  1.34100 6.93200 29.68800
C  1.03800 7.03800 28.20600
C  2.63700 6.10500 30.18600
C  0.21600 9.01600 30.94500
C  0.43700 9.03800 32.45700
H  1.48400 8.17400 33.13200
N  0.47700 6.75200 25.04500
C  0.67900 5.72300 25.95300
C  0.52100 4.48600 25.27300
C  0.27400 4.82000 23.88900
C  0.37700 6.26100 23.81400
C  0.76100 3.12600 26.00300
C  0.10800 3.81900 22.71400
O  0.40700 4.24600 21.58700
C  -0.38400 2.36900 22.91400
N  0.64900 9.21400 23.36700
C  0.35000 8.37400 22.40000
C  0.31600 8.97900 21.00900
C  0.24200 10.47700 21.41600
C  0.57800 10.45000 22.95800
C  1.54500 8.54500 20.15000
C  -1.08900 11.21400 21.15700
C  -0.94600 12.58600 20.42300
N  1.43200 10.68400 25.80900
C  1.41900 11.77500 25.01200
C  1.82200 12.98200 25.75100
C  1.97100 12.58600 27.03200
C  1.63900 11.17300 27.02400
C  1.88100 14.33400 25.14600
C  2.25300 13.01800 28.36200
O  2.51300 14.19600 28.75000
C  1.91600 11.76800 29.20900
C  3.01200 11.64200 30.18900
O  4.03500 11.09400 29.88200
O  2.61700 12.07900 31.45200
C  3.58000 11.82000 32.52300
H  0.92000 4.98000 27.96800
H  -0.03800 6.54000 21.75400
H  0.81200 12.54200 23.07800
H  2.43000 8.71600 30.34500
H  0.47600 6.60200 30.26400
H  3.25100 6.84400 30.70100
H  3.14200 5.69700 29.31100
H  2.37200 5.26400 30.82600
H  -0.57600 8.26900 30.89100
H  -0.31900 9.85300 30.49600
H  -0.47400 8.99300 33.05400
H  0.91900 9.99100 32.67600
H  1.81900 3.11100 26.26600
H  0.60300 2.24300 25.38400
H  0.16600 2.98100 26.90500
H  -1.13100 2.16900 23.68300
H  0.58800 1.93100 23.13900
H  -0.69800 1.87500 21.99500
H  -0.65500 8.72200 20.58600
H  1.08500 10.93600 20.89900
H  1.39800 8.51900 19.07100
H  1.94500 7.55300 20.36000
H  2.39500 9.21600 20.27500
H  -1.60300 11.19000 22.11800
H  -1.59300 10.65100 20.37100
H  -0.02200 13.15900 20.50500
H  -1.73100 13.21200 20.84700
H  -1.21600 12.39300 19.38400
H  1.89200 14.19300 24.06500
H  2.85300 14.77900 25.36000
H  1.09600 15.02900 25.44200
H  1.06100 12.04700 29.82400
H  4.47700 11.26800 32.24300
H  3.22100 11.38900 33.45800
H  3.88700 12.77400 32.95100

