158

Mg 17.67900 -1.74600 28.05500
C  16.34600 0.23600 30.62800
C  19.45100 -3.43300 30.11000
C  19.03000 -3.21100 25.29600
C  15.89400 0.52300 25.77800
N  17.88400 -1.48200 30.17300
C  17.23900 -0.73300 31.13600
C  17.62600 -1.12500 32.51600
C  18.64900 -2.29000 32.31100
C  18.73400 -2.40400 30.79000
C  20.04200 -2.17000 32.97500
C  16.40700 -1.52600 33.40700
C  16.42200 -1.26800 34.92500
H  17.68100 -0.78300 35.62100
N  19.11200 -3.14900 27.81200
C  19.55800 -3.93400 28.79900
C  20.17900 -5.13300 28.30700
C  20.25700 -4.98200 26.89800
C  19.46900 -3.70700 26.56000
C  20.77200 -6.10500 29.13900
C  20.82100 -5.88000 25.87000
O  20.95600 -5.67100 24.67700
C  21.28400 -7.32900 26.19900
N  17.59500 -1.25800 25.88000
C  18.20100 -2.10700 24.96300
C  17.99500 -1.59000 23.51900
C  16.85100 -0.61100 23.74000
C  16.77200 -0.38400 25.21100
C  19.22700 -1.01700 22.80600
C  15.47100 -1.09500 23.27300
C  14.67200 -0.26600 22.23400
N  16.41200 -0.04300 28.13500
C  15.79200 0.75500 27.16500
C  15.00700 1.79000 27.75600
C  15.21100 1.59200 29.13600
C  16.01200 0.47100 29.26800
C  14.21600 2.81500 27.03200
C  14.88200 2.15800 30.49600
O  14.24600 3.17000 30.80800
C  15.52100 1.18000 31.48900
C  16.34700 2.07300 32.39300
O  17.32300 2.73500 32.03800
O  15.78900 2.02400 33.66900
C  16.30000 3.00800 34.63100
H  19.90600 -4.12100 30.82600
H  19.42300 -3.84700 24.50000
H  15.31700 1.12100 25.07000
H  18.02200 -0.22600 32.99000
H  18.24600 -3.17100 32.81000
H  20.08500 -1.17000 33.40500
H  20.80900 -2.30300 32.21200
H  20.32100 -2.88200 33.75100
H  16.06800 -2.54700 33.23100
H  15.53700 -0.96100 33.07200
H  16.15600 -2.21800 35.38800
H  15.66700 -0.48800 35.03200
H  21.83000 -6.22000 28.90200
H  20.11200 -6.92100 28.84500
H  20.69400 -5.84100 30.19300
H  21.46400 -8.05200 25.40300
H  20.55000 -7.77600 26.86900
H  22.25400 -7.24000 26.68700
H  17.60300 -2.38100 22.88100
H  17.06400 0.40800 23.41900
H  19.92600 -0.80800 23.61600
H  18.92000 -0.07900 22.34200
H  19.57400 -1.72900 22.05700
H  14.90000 -1.45600 24.12900
H  15.63500 -1.99700 22.68400
H  13.68500 -0.04900 22.64400
H  14.55600 -0.79000 21.28500
H  15.22200 0.65200 22.03100
H  14.57700 3.10400 26.04500
H  14.08600 3.64800 27.72300
H  13.34100 2.22400 26.76300
H  14.68700 0.64000 31.93900
H  16.52100 3.93700 34.10600
H  17.07000 2.54800 35.25000
H  15.38000 3.27500 35.15000
Mg 47.37100 15.13700 27.74300
C  45.50600 15.38000 30.77000
C  49.58600 17.37600 29.07900
C  49.11200 14.95600 24.81700
C  44.73200 13.55400 26.40300
N  47.38800 16.37500 29.61300
C  46.67300 16.14200 30.72600
C  47.22200 16.86700 31.90400
C  48.31600 17.82400 31.27700
C  48.46700 17.12800 29.89800
C  47.99000 19.32300 31.08900
C  47.87000 15.88700 32.99300
C  47.44200 16.13500 34.50800
H  48.39100 15.84800 35.67900
N  49.21200 16.00900 27.09900
C  49.92200 16.86700 27.80100
C  51.02900 17.26000 26.99300
C  51.01900 16.45700 25.77600
C  49.78500 15.75100 25.84400
C  52.01900 18.34200 27.36900
C  51.81900 16.51300 24.53500
O  51.84800 15.66500 23.67300
C  52.83300 17.64600 24.31100
N  46.99300 14.30500 25.95500
C  47.86200 14.33800 24.86400
C  47.18600 13.83600 23.62500
C  45.82100 13.29000 24.07600
C  45.76700 13.81600 25.54400
C  46.83700 15.00500 22.58600
C  45.74100 11.69500 24.11200
C  46.85000 10.92700 24.74700
N  45.51500 14.49200 28.42800
C  44.57800 13.74200 27.74100
C  43.46900 13.49200 28.60000
C  43.86000 13.93100 29.89200
C  45.01700 14.66900 29.67500
C  42.24800 12.74600 28.17800
C  43.50400 14.12900 31.30900
O  42.52500 13.76100 31.91700
C  44.60000 15.08500 31.90900
C  44.01200 16.32600 32.58400
O  43.69600 17.36100 32.07400
O  43.85100 16.08300 33.83900
C  43.24200 17.10400 34.70200
H  50.43300 17.96300 29.44200
H  49.75100 14.81500 23.94400
H  43.82500 13.06300 26.04600
H  46.47800 17.49600 32.39100
H  49.25700 17.92500 31.81800
H  48.70600 19.87000 31.70200
H  46.95800 19.49200 31.39700
H  48.16600 19.61700 30.05500
H  48.94700 15.87100 32.82700
H  47.48900 14.91600 32.67700
H  46.60800 15.44100 34.61600
H  47.02200 17.13800 34.58500
H  52.43400 18.93900 26.55700
H  52.78700 17.87000 27.98200
H  51.57400 19.04500 28.07300
H  53.41800 17.68300 25.23000
H  52.23100 18.54900 24.21400
H  53.53400 17.59800 23.47800
H  47.73900 13.05400 23.10500
H  44.99600 13.65000 23.46100
H  46.51000 15.89400 23.12500
H  46.23000 14.76400 21.71300
H  47.82500 15.16700 22.15500
H  45.58600 11.50500 23.05000
H  44.79200 11.33800 24.51200
H  47.71600 10.84400 24.09000
H  46.64500 9.91100 25.08400
H  47.17200 11.43500 25.65600
H  41.98000 12.88600 27.13000
H  41.41100 12.87800 28.86400
H  42.48100 11.68500 28.26400
H  45.06100 14.50200 32.70700
H  43.82000 18.02800 34.70400
H  43.08500 16.71300 35.70800
H  42.24900 17.32700 34.31400

