158

Mg 8.65900 3.01300 27.92500
C  10.08700 1.45600 30.85700
C  6.69800 4.85200 30.01900
C  7.02900 4.13000 25.14600
C  10.32300 0.49300 26.01900
N  8.40200 3.08600 30.15700
C  9.15700 2.51400 31.15100
C  8.78700 3.02400 32.61800
C  7.74900 4.14800 32.25100
C  7.59000 4.00400 30.71800
C  6.35400 4.06100 33.01400
C  10.08700 3.61800 33.29800
C  10.64100 2.99400 34.54600
H  10.98000 4.00000 35.65100
N  7.12700 4.37900 27.62600
C  6.40300 4.95300 28.63400
C  5.43300 5.79700 27.96300
C  5.71200 5.80200 26.56300
C  6.66600 4.70800 26.37600
C  4.39800 6.66700 28.72200
C  5.10800 6.75200 25.49400
O  5.47200 6.54000 24.37100
C  4.10500 7.83600 25.78400
N  8.70300 2.45500 25.96000
C  7.98100 3.07800 24.96000
C  8.40800 2.60900 23.58500
C  9.66400 1.70400 23.91700
C  9.56700 1.53300 25.38400
C  7.37400 1.82400 22.73700
C  11.10000 2.17300 23.35300
C  12.08000 3.03200 24.20200
N  10.05000 1.33800 28.29200
C  10.51000 0.40400 27.42300
C  11.20500 -0.53200 28.15000
C  11.07200 -0.12600 29.51500
C  10.38100 1.01800 29.54100
C  11.87600 -1.73600 27.54400
C  11.43400 -0.55000 30.84200
O  12.09100 -1.50000 31.20100
C  10.74500 0.45700 31.81300
C  9.81100 -0.29100 32.77700
O  8.84600 -0.99400 32.43400
O  10.06400 -0.05200 34.06200
C  9.24500 -0.68300 35.11400
H  6.20400 5.55500 30.69300
H  6.47200 4.38000 24.24100
H  10.87600 -0.13700 25.32000
H  8.18000 2.25900 33.10100
H  8.10700 5.15700 32.45900
H  6.60100 3.84700 34.05400
H  5.71900 3.24400 32.67300
H  5.79300 4.98700 32.89000
H  9.78400 4.63700 33.53700
H  10.89000 3.72600 32.56900
H  11.45500 2.34000 34.23400
H  9.93600 2.26700 34.95000
H  4.26900 6.36900 29.76200
H  3.47800 6.58900 28.14200
H  4.65600 7.72600 28.68700
H  3.19700 7.25500 25.94700
H  4.03900 8.57100 24.98200
H  4.28300 8.33100 26.73900
H  8.67100 3.50600 23.02500
H  9.58900 0.67800 23.55700
H  6.53700 1.59700 23.39700
H  7.66700 0.83100 22.39600
H  7.02400 2.42100 21.89400
H  10.92600 2.63600 22.38200
H  11.78100 1.33400 23.20500
H  11.72400 3.03400 25.23300
H  12.24600 4.04800 23.84400
H  13.07100 2.58100 24.16600
H  11.58600 -2.04500 26.54000
H  11.49600 -2.47900 28.24500
H  12.96000 -1.78400 27.64700
H  11.53700 1.02700 32.30000
H  9.22500 -1.77100 35.04900
H  8.18800 -0.43500 35.02100
H  9.51600 -0.39300 36.12900
Mg -5.48600 25.24200 26.44000
C  -4.06300 26.34000 29.39400
C  -7.03300 22.66200 28.29300
C  -6.12600 23.53500 23.55000
C  -3.30900 27.33100 24.61800
N  -5.48000 24.53900 28.62900
C  -5.00200 25.36200 29.64000
C  -5.62000 24.78600 30.98200
C  -6.07500 23.31100 30.67400
C  -6.23000 23.47900 29.09900
C  -5.14000 22.14500 31.07200
C  -6.81400 25.68300 31.45400
C  -6.71400 26.11200 33.02000
H  -5.93800 25.09800 33.95000
N  -6.71800 23.65400 25.97500
C  -7.31500 22.77900 26.87800
C  -8.10400 21.82600 26.11400
C  -7.75900 21.96500 24.79000
C  -6.79900 23.07500 24.69800
C  -9.07000 20.79900 26.77400
C  -8.25700 21.18700 23.55900
O  -7.82700 21.31000 22.42500
C  -9.29100 20.04400 23.72400
N  -4.88600 25.42900 24.35800
C  -5.32000 24.65300 23.34900
C  -4.80000 25.16400 21.98800
C  -3.99000 26.37100 22.37000
C  -4.06500 26.38800 23.93300
C  -4.00100 24.19000 21.11200
C  -4.47500 27.61400 21.63000
C  -3.52800 28.85100 21.42000
N  -3.99500 26.53600 26.90200
C  -3.34600 27.43200 26.06400
C  -2.43600 28.17900 26.93500
C  -2.77600 27.86200 28.21900
C  -3.66300 26.81600 28.13600
C  -1.35000 29.13000 26.47700
C  -2.32500 28.08600 29.63900
O  -1.44600 28.74200 30.17100
C  -3.24200 27.08800 30.46200
C  -2.34900 26.18600 31.23800
O  -1.45900 25.54200 30.68700
O  -2.40700 26.54000 32.50700
C  -1.31800 26.13300 33.36200
H  -7.45000 21.84700 28.88800
H  -6.28500 23.02900 22.59600
H  -2.57200 27.94600 24.09600
H  -4.85500 24.71300 31.75500
H  -7.04900 23.14000 31.13100
H  -5.87400 21.55000 31.61700
H  -4.41600 22.62300 31.73100
H  -4.64500 21.70800 30.20500
H  -7.79900 25.21700 31.41600
H  -6.92700 26.56900 30.82900
H  -7.71500 26.01700 33.44100
H  -6.20700 27.06800 33.14700
H  -8.73700 19.78000 26.57900
H  -10.11800 21.00000 26.55100
H  -9.08900 21.03100 27.83900
H  -9.03500 19.11500 24.23400
H  -9.54100 19.89200 22.67400
H  -10.11600 20.49200 24.28000
H  -5.55000 25.45000 21.25100
H  -2.95800 26.20200 22.06100
H  -4.15700 23.25800 21.65500
H  -2.92100 24.29300 21.21700
H  -4.34900 24.13900 20.08000
H  -5.40300 27.91000 22.11800
H  -4.83000 27.33300 20.63900
H  -3.54000 29.16300 20.37500
H  -2.50600 28.57000 21.67400
H  -3.75700 29.61600 22.16000
H  -1.73000 30.12000 26.22300
H  -0.83300 28.75600 25.59300
H  -0.66500 29.23000 27.31900
H  -3.90900 27.71900 31.04900
H  -0.41700 26.51400 32.88300
H  -1.37300 25.04900 33.45700
H  -1.39100 26.65400 34.31700

