158

Mg 25.55100 -1.42800 29.61500
C  27.77400 -1.59400 32.49400
C  22.97200 -0.93700 31.90100
C  23.47800 -1.37500 26.98300
C  28.20200 -2.35700 27.63100
N  25.44000 -1.32200 31.89300
C  26.48300 -1.32200 32.93100
C  25.96800 -0.86300 34.28900
C  24.38000 -0.74400 33.94600
C  24.23900 -1.08600 32.44400
C  23.51100 -1.63900 34.85700
C  26.59700 0.44700 34.85100
C  27.47400 0.30900 36.14800
H  27.13700 1.26900 37.33000
N  23.49100 -1.17100 29.42300
C  22.64900 -0.96000 30.47200
C  21.30900 -0.90300 29.91400
C  21.40200 -0.94200 28.52800
C  22.80100 -1.08500 28.22900
C  20.10700 -0.68100 30.76100
C  20.22800 -0.83900 27.53900
O  20.33200 -1.08700 26.38100
C  18.80900 -0.46000 28.01900
N  25.75600 -2.07600 27.61900
C  24.76000 -1.81800 26.71800
C  25.30500 -1.67300 25.23500
C  26.81200 -1.93600 25.54000
C  26.96200 -2.11300 27.00300
C  24.62400 -2.54800 24.16400
C  27.86400 -0.94600 24.87600
C  27.88200 0.51000 25.47100
N  27.58600 -1.97800 29.95900
C  28.55200 -2.25400 29.01400
C  29.83700 -2.31900 29.64400
C  29.62600 -2.02200 31.02600
C  28.21000 -1.94600 31.14200
C  31.09200 -2.80700 29.00600
C  30.11600 -1.85200 32.40800
O  31.21700 -1.90300 32.78000
C  28.97100 -1.60600 33.38300
C  28.90400 -2.68100 34.28300
O  28.43800 -3.81700 34.06400
O  29.32800 -2.21700 35.51000
C  29.13200 -3.02500 36.67500
H  22.15900 -0.84300 32.62400
H  22.87100 -1.11300 26.11400
H  29.06900 -2.52100 26.98800
H  26.20200 -1.69100 34.95700
H  24.07800 0.29000 34.11100
H  22.74900 -1.05900 35.37800
H  24.14900 -2.17600 35.55800
H  23.01400 -2.43400 34.30100
H  25.94800 1.32100 34.91500
H  27.41600 0.72000 34.18600
H  28.53100 0.52700 35.99600
H  27.42800 -0.65500 36.65500
H  19.65000 0.25000 30.42500
H  20.20700 -0.64800 31.84600
H  19.58200 -1.63100 30.65500
H  18.44000 -1.05400 28.85600
H  18.05900 -0.27600 27.25000
H  19.12100 0.50100 28.42700
H  25.09400 -0.63100 24.99200
H  27.08700 -2.90600 25.12700
H  25.35600 -2.90700 23.44100
H  24.02000 -1.85900 23.57300
H  24.01000 -3.32300 24.62400
H  27.68600 -1.03300 23.80400
H  28.84400 -1.42000 24.92800
H  27.03400 0.76900 26.10600
H  27.58700 1.20400 24.68400
H  28.86200 0.74600 25.88700
H  31.52700 -2.02900 28.37900
H  30.85500 -3.68800 28.40900
H  31.87500 -3.01700 29.73400
H  29.13600 -0.65600 33.89000
H  28.07800 -3.10200 36.94400
H  29.63000 -2.71500 37.59300
H  29.43700 -4.04200 36.42600
Mg 35.22500 49.17000 25.19800
C  35.31400 47.79500 28.40900
C  33.89800 52.04100 26.63300
C  34.51500 50.21600 22.03600
C  36.29300 46.11500 23.88900
N  34.61500 49.73400 27.27600
C  34.80800 49.09100 28.45500
C  34.29800 49.89700 29.69000
C  33.89600 51.31800 29.09300
C  34.17500 51.04400 27.58300
C  32.51200 51.89100 29.50300
C  35.28300 49.94600 30.85500
C  34.78500 49.67900 32.31000
H  34.88400 50.74000 33.42600
N  34.33600 50.98200 24.45600
C  33.89600 52.05300 25.17200
C  33.41700 53.03600 24.27900
C  33.67400 52.55100 22.91500
C  34.18300 51.18500 23.09000
C  32.90400 54.37100 24.83900
C  33.55700 53.27500 21.61100
O  33.89800 52.78700 20.50500
C  33.01100 54.57000 21.56700
N  35.58400 48.39700 23.28700
C  35.15100 48.99800 22.20100
C  35.60100 48.19100 20.97100
C  36.28300 46.93600 21.51100
C  36.10300 47.15800 22.98100
C  34.43000 47.83900 20.00500
C  37.75000 46.82800 21.14200
C  38.68500 47.93400 21.72500
N  35.81300 47.31000 25.90200
C  36.17100 46.18100 25.30900
C  36.38000 45.11500 26.29000
C  36.20500 45.74800 27.46600
C  35.69600 47.07900 27.24500
C  36.74500 43.62700 26.01400
C  36.31300 45.57100 28.93400
O  36.76100 44.68000 29.65500
C  35.58100 46.83700 29.55200
C  34.34600 46.39500 30.23900
O  33.21700 46.32600 29.78600
O  34.64700 45.95300 31.48900
C  33.57200 45.24600 32.28600
H  33.51000 52.97100 27.05300
H  34.39000 50.45800 20.97800
H  36.61200 45.14800 23.49300
H  33.38200 49.39300 29.99600
H  34.72700 51.96700 29.36800
H  31.97100 51.03100 29.89800
H  32.06300 52.36700 28.63200
H  32.63500 52.62800 30.29700
H  35.80100 50.89200 31.00800
H  36.05600 49.24000 30.54900
H  35.61500 49.05100 32.63400
H  33.83300 49.16700 32.44200
H  32.79300 54.34800 25.92400
H  31.90100 54.51600 24.43800
H  33.50500 55.18000 24.42300
H  33.73800 55.18800 22.09400
H  32.08800 54.52000 22.14400
H  32.73400 54.88500 20.56100
H  36.34400 48.67600 20.33800
H  35.59600 46.11100 21.32200
H  33.47300 48.32500 20.19200
H  34.29600 46.76000 19.91700
H  34.73100 48.30700 19.06800
H  37.98600 46.80600 20.07800
H  38.08000 45.84200 21.47000
H  39.38500 47.62500 22.50100
H  38.26600 48.88300 22.06200
H  39.34800 48.22200 20.90900
H  37.79200 43.46200 26.26700
H  36.58900 43.32600 24.97800
H  36.17700 42.88000 26.56900
H  36.27300 47.19300 30.31600
H  33.28900 44.32500 31.77700
H  32.63100 45.79500 32.25400
H  33.85100 45.17100 33.33700

