158

Mg -2.01700 17.26400 27.44500
C  -2.62300 14.90700 30.10500
C  -2.35100 19.75900 29.86100
C  -1.67300 19.44400 24.99300
C  -1.92400 14.60300 25.23900
N  -2.33200 17.26100 29.80600
C  -2.49100 16.21700 30.62800
C  -2.62700 16.73800 32.01300
C  -2.94600 18.31100 31.84400
C  -2.56100 18.48900 30.39100
C  -4.35500 18.82400 32.28700
C  -1.46500 16.28900 32.97300
C  -1.01200 17.17800 34.11700
H  -0.49600 16.57300 35.40400
N  -1.91500 19.31700 27.43500
C  -2.08000 20.12300 28.54400
C  -2.01300 21.48800 28.05800
C  -1.75700 21.48700 26.64700
C  -1.76300 20.07300 26.30600
C  -2.27400 22.66500 28.97200
C  -1.64700 22.58200 25.68200
O  -1.38500 22.43100 24.52900
C  -1.95900 23.95300 26.18000
N  -1.78000 17.04900 25.34800
C  -1.71700 18.11800 24.57000
C  -1.82900 17.70900 23.11700
C  -1.64100 16.20200 23.19800
C  -1.79800 15.92100 24.65000
C  -3.08100 18.27300 22.41400
C  -0.27000 15.64400 22.72900
C  0.98300 16.34000 23.34400
N  -2.26300 15.20300 27.56700
C  -2.22400 14.24900 26.57000
C  -2.42100 12.95700 27.11400
C  -2.51000 13.15300 28.53100
C  -2.46100 14.53000 28.75600
C  -2.46600 11.68900 26.34900
C  -2.76400 12.53500 29.77200
O  -3.08600 11.35600 29.95200
C  -2.77900 13.62300 30.82600
C  -1.60300 13.26800 31.71900
O  -0.42600 13.54200 31.50400
O  -1.98900 12.68300 32.89500
C  -0.98000 12.40300 33.92600
H  -2.60200 20.43900 30.67800
H  -1.63400 20.11500 24.13200
H  -1.92600 13.72000 24.59600
H  -3.51400 16.30200 32.47300
H  -2.15700 18.82000 32.39600
H  -4.39600 19.79300 32.78300
H  -4.85800 18.09600 32.92400
H  -5.01300 19.01400 31.43800
H  -0.58500 15.90400 32.45700
H  -1.85700 15.44700 33.54400
H  -1.90700 17.63500 34.53900
H  -0.59900 18.15800 33.87700
H  -1.44300 23.36900 28.93500
H  -2.33900 22.40000 30.02800
H  -3.20100 23.22000 28.82100
H  -2.96700 24.10500 26.56400
H  -1.73500 24.59100 25.32500
H  -1.25100 24.25900 26.95000
H  -0.93700 17.93700 22.53300
H  -2.44300 15.79900 22.57900
H  -3.85700 17.53500 22.20800
H  -2.80700 18.68900 21.44400
H  -3.61600 19.03200 22.98400
H  -0.19900 15.68500 21.64200
H  -0.47000 14.60100 22.97200
H  1.55500 16.87800 22.58800
H  1.67700 15.73500 23.92800
H  0.73000 17.17600 23.99600
H  -1.87800 11.66700 25.43100
H  -3.51900 11.44600 26.21000
H  -2.09200 10.92100 27.02600
H  -3.66700 13.54600 31.45300
H  -1.02200 13.18200 34.68700
H  -0.04900 12.19200 33.40000
H  -1.31500 11.45800 34.35500
Mg 17.17800 -1.39900 27.99700
C  15.99200 0.25600 30.82300
C  19.61100 -2.97300 29.95900
C  18.62700 -2.66800 25.22600
C  14.99500 0.49300 26.03700
N  17.75400 -1.28700 30.11700
C  17.01900 -0.66600 31.11800
C  17.51100 -0.95600 32.56400
C  18.66500 -2.02000 32.24100
C  18.75800 -2.12300 30.66300
C  20.02600 -1.69500 32.88100
C  16.34900 -1.46700 33.51900
C  16.50500 -1.35200 35.05400
H  17.69300 -0.61200 35.61200
N  18.71400 -2.79000 27.67700
C  19.63200 -3.25100 28.59600
C  20.41000 -4.28800 27.90900
C  20.10700 -4.25900 26.53000
C  19.12900 -3.20500 26.39500
C  21.29100 -5.15100 28.67200
C  20.58100 -5.13600 25.39400
O  20.06800 -5.07100 24.33400
C  21.71400 -6.08700 25.57400
N  16.78800 -1.19000 25.89100
C  17.51600 -1.80300 24.98200
C  17.17000 -1.33600 23.65500
C  15.92100 -0.49700 23.88000
C  15.79100 -0.45600 25.36100
C  18.39600 -0.63900 22.93300
C  14.62900 -1.05300 23.15100
C  13.95300 -0.15800 22.13900
N  15.95200 0.18700 28.31000
C  15.03900 0.81200 27.40000
C  14.31500 1.82900 28.07400
C  14.65400 1.59900 29.38400
C  15.66600 0.63700 29.53100
C  13.41400 2.74300 27.47300
C  14.30000 2.10100 30.64600
O  13.52700 2.99300 30.96700
C  15.24400 1.26000 31.67900
C  16.12100 2.25000 32.38000
O  17.08600 2.83700 31.85700
O  15.67700 2.41500 33.73100
C  16.38400 3.45800 34.50500
H  20.20700 -3.59800 30.62800
H  19.08500 -3.07100 24.32000
H  14.25700 1.12800 25.54200
H  17.98200 -0.04500 32.93600
H  18.46800 -3.01800 32.63400
H  20.79500 -1.69100 32.10800
H  20.22900 -2.45300 33.63700
H  20.08000 -0.63900 33.14600
H  16.12800 -2.52600 33.38000
H  15.43700 -0.99200 33.15700
H  16.40400 -2.29700 35.58800
H  15.65200 -0.76100 35.38700
H  22.21700 -4.64200 28.93900
H  21.38000 -6.09800 28.14000
H  20.73300 -5.47200 29.55200
H  21.99100 -6.42700 24.57600
H  21.35000 -6.92800 26.16400
H  22.47600 -5.52200 26.11000
H  16.91600 -2.16000 22.98900
H  16.15500 0.50600 23.52300
H  18.19900 0.36900 22.56800
H  18.67700 -1.21400 22.05000
H  19.26200 -0.65400 23.59500
H  13.87600 -1.35300 23.87900
H  14.98500 -1.89500 22.55800
H  14.32400 0.86400 22.22500
H  12.86700 -0.21600 22.21200
H  14.20000 -0.46500 21.12300
H  12.67200 2.07400 27.03800
H  13.92800 3.20700 26.63100
H  12.85300 3.41000 28.12900
H  14.63100 0.71000 32.39300
H  17.36600 3.70200 34.09900
H  16.66500 3.03300 35.46900
H  15.76800 4.34100 34.67300

