158

Mg 46.87600 25.79200 28.55300
C  47.80500 27.82200 31.27000
C  45.62200 23.52300 30.83800
C  46.24500 23.76800 25.95700
C  48.52900 28.00500 26.35700
N  46.75300 25.70600 30.79200
C  47.13300 26.69300 31.71800
C  46.80900 26.18500 33.17300
C  46.13400 24.84100 32.95000
C  46.16800 24.66900 31.41900
C  46.80800 23.65600 33.74500
C  45.97900 27.32100 33.98500
C  46.59200 27.98900 35.13500
H  45.69400 28.52900 36.26100
N  46.08600 23.87200 28.45500
C  45.54600 23.15700 29.45500
C  44.93500 21.92100 28.93500
C  45.11300 21.94600 27.55700
C  45.85700 23.23900 27.21000
C  44.08200 20.93300 29.67900
C  44.52000 21.05900 26.50400
O  44.73400 21.18300 25.33800
C  43.75600 19.86000 26.86400
N  47.39200 25.84800 26.47600
C  46.94700 24.86900 25.64200
C  47.24300 25.20300 24.12900
C  47.74300 26.71800 24.24900
C  48.00000 26.83700 25.76100
C  48.25100 24.24100 23.43500
C  46.62800 27.75000 23.79000
C  47.04600 28.66500 22.60800
N  47.88100 27.56900 28.70800
C  48.53900 28.30500 27.74700
C  49.15600 29.38600 28.35600
C  48.85800 29.29000 29.70300
C  48.14300 28.09200 29.87900
C  50.10200 30.34400 27.69000
C  49.04400 29.91500 30.94800
O  49.51000 31.03400 31.22100
C  48.47900 28.92500 32.12000
C  49.59800 28.44300 32.98900
O  50.52500 27.74500 32.61500
O  49.59400 29.02000 34.23100
C  50.55200 28.54600 35.23700
H  45.20800 22.83900 31.58200
H  46.03500 23.18500 25.05800
H  48.95300 28.75300 25.68400
H  47.78500 25.98900 33.61600
H  45.08800 24.83800 33.25700
H  47.45400 23.94600 34.57300
H  47.29700 22.91200 33.11600
H  46.02000 23.02200 34.15200
H  45.07800 26.83400 34.36000
H  45.73900 28.19200 33.37500
H  47.05100 28.91400 34.78500
H  47.47600 27.49500 35.53800
H  43.07700 21.09600 29.29000
H  44.06200 21.32900 30.69500
H  44.45300 19.91100 29.60400
H  44.39100 19.37800 27.60700
H  43.51500 19.22000 26.01500
H  42.84000 20.22100 27.33300
H  46.25400 25.09900 23.68300
H  48.65600 26.99600 23.72300
H  48.24600 23.31200 24.00500
H  49.22400 24.65600 23.17300
H  47.85900 23.91000 22.47400
H  46.39400 28.44900 24.59300
H  45.66400 27.24900 23.70100
H  46.46800 28.57200 21.68800
H  48.08400 28.52200 22.30800
H  46.92200 29.71400 22.87900
H  50.79800 29.89800 26.98000
H  50.63100 30.83300 28.50800
H  49.51400 31.13500 27.22500
H  47.87000 29.57300 32.75000
H  51.18600 27.71300 34.93300
H  49.97800 28.24700 36.11500
H  51.26000 29.31900 35.53600
Mg 9.60900 47.78200 25.36800
C  7.35500 48.22500 28.10300
C  12.01900 49.24300 27.30200
C  11.70800 47.60200 22.65300
C  6.83400 46.69700 23.34100
N  9.55500 48.75800 27.42000
C  8.66000 48.63200 28.40500
C  9.14800 49.18900 29.74600
C  10.59300 49.75700 29.33700
C  10.77000 49.19900 27.90100
C  10.82800 51.35100 29.32600
C  9.24500 48.18000 30.91600
C  9.74800 48.56200 32.31200
H  8.99500 48.07300 33.51500
N  11.57900 48.33100 25.03100
C  12.39500 48.85900 25.99100
C  13.78000 48.77500 25.50000
C  13.70800 48.19300 24.18400
C  12.29400 48.05500 23.91000
C  14.95500 49.15400 26.32400
C  14.85300 47.83100 23.26500
O  14.74800 47.49500 22.10700
C  16.24900 47.91800 23.79300
N  9.31400 47.38200 23.25700
C  10.39100 47.29100 22.37300
C  9.95200 46.66100 21.04300
C  8.49400 46.21300 21.30100
C  8.18000 46.73900 22.70300
C  10.12300 47.52100 19.77100
C  8.27600 44.72100 20.85600
C  8.30200 43.76900 22.04800
N  7.53900 47.60300 25.62800
C  6.51300 47.03600 24.68200
C  5.22300 47.07200 25.39800
C  5.60100 47.39100 26.77100
C  6.97100 47.73000 26.85300
C  3.91200 46.80500 24.83300
C  5.07700 47.37600 28.09500
O  4.01900 46.95500 28.54300
C  6.17700 47.83600 29.06200
C  6.45500 46.54800 29.79100
O  7.19800 45.71600 29.32200
O  5.84200 46.53500 31.00900
C  6.16700 45.46600 31.96600
H  12.74900 49.75700 27.93200
H  12.41900 47.32900 21.87100
H  6.02700 46.31700 22.71100
H  8.45900 49.99000 30.01300
H  11.33900 49.29800 29.98600
H  10.93400 51.72200 28.30700
H  11.75300 51.54500 29.87000
H  9.99900 51.90700 29.76300
H  9.81700 47.34500 30.51200
H  8.21100 47.84700 31.00000
H  9.70600 49.64700 32.21500
H  10.76700 48.33900 32.62700
H  14.71300 49.56700 27.30400
H  15.53700 49.90800 25.79300
H  15.52900 48.25400 26.54700
H  16.96000 47.57400 23.04200
H  16.35300 47.28100 24.67200
H  16.38700 48.92800 24.17900
H  10.62400 45.83700 20.80400
H  7.74600 46.73300 20.70200
H  9.24800 48.10000 19.47600
H  10.44900 46.85200 18.97400
H  10.98400 48.17200 19.92200
H  9.00600 44.34200 20.14200
H  7.28000 44.69000 20.41300
H  7.30200 43.39500 22.27100
H  8.53000 44.26300 22.99200
H  8.80900 42.83700 21.79800
H  3.53100 47.66300 24.27900
H  3.21100 46.51800 25.61600
H  3.91900 45.86500 24.28100
H  5.81100 48.63200 29.71100
H  5.74000 45.92400 32.85800
H  7.25300 45.41100 31.89400
H  5.70300 44.49800 31.77800

