158

Mg 46.85700 25.74900 28.28000
C  47.71500 27.97200 30.80000
C  46.09500 23.40500 30.73700
C  46.30200 23.63100 25.86000
C  48.23400 28.04700 25.96400
N  46.85100 25.76600 30.50600
C  47.24600 26.79300 31.34000
C  47.14500 26.37700 32.86000
C  46.64600 24.85900 32.79600
C  46.54000 24.66600 31.21200
C  47.50600 23.79200 33.57000
C  46.14900 27.29600 33.73000
C  45.68400 26.62800 35.06900
H  45.64600 27.58900 36.25300
N  46.27300 23.77300 28.25700
C  46.01200 22.96800 29.41000
C  45.59400 21.68400 28.92700
C  45.52700 21.76000 27.51600
C  46.06700 23.08900 27.13000
C  45.53800 20.46300 29.78200
C  45.14100 20.74700 26.49900
O  45.17100 20.93200 25.27800
C  44.57900 19.42900 26.90000
N  47.45800 25.73000 26.20500
C  46.94700 24.78800 25.41000
C  46.89300 25.16500 23.94300
C  47.44500 26.60300 23.96700
C  47.77200 26.83000 25.42000
C  47.70100 24.13000 22.96900
C  46.45600 27.62500 23.35800
C  46.99500 28.94900 22.70500
N  47.77000 27.64000 28.36400
C  48.26000 28.41600 27.31400
C  48.72200 29.64700 27.87200
C  48.56800 29.47800 29.25500
C  47.90600 28.28200 29.52000
C  49.22300 30.82500 27.07300
C  48.66900 30.24700 30.50200
O  49.13900 31.34900 30.62300
C  48.04800 29.22600 31.59200
C  49.09600 29.01600 32.54600
O  50.06300 28.27300 32.40600
O  48.97000 29.77000 33.70100
C  49.90500 29.65900 34.83100
H  45.69500 22.78400 31.54100
H  46.01700 23.03900 24.98700
H  48.50000 28.74600 25.16800
H  48.13900 26.39200 33.30700
H  45.66300 24.65000 33.21800
H  48.22800 23.23600 32.97200
H  46.79000 23.12000 34.04300
H  48.19800 24.25000 34.27600
H  45.20500 27.67400 33.33600
H  46.66500 28.21300 34.01500
H  46.40000 25.82800 35.25800
H  44.65200 26.29000 34.96800
H  46.21600 19.67800 29.44600
H  44.51700 20.08600 29.71800
H  45.69100 20.71600 30.83000
H  45.18900 18.90600 27.63700
H  44.42100 18.61700 26.19000
H  43.65100 19.76500 27.36100
H  45.85600 25.09100 23.61400
H  48.41600 26.62700 23.47200
H  46.94900 23.92900 22.20700
H  48.01100 23.21600 23.47600
H  48.52600 24.60100 22.43400
H  45.71400 27.91900 24.10000
H  45.86200 27.17300 22.56300
H  46.77900 29.77400 23.38500
H  46.55200 29.16000 21.73200
H  48.07800 28.87000 22.61400
H  48.90000 31.78200 27.48400
H  48.88900 30.82700 26.03500
H  50.31000 30.90000 27.08600
H  47.26000 29.66800 32.20300
H  50.57200 30.51600 34.73400
H  50.55300 28.78500 34.89400
H  49.35000 29.76000 35.76300
Mg 6.32400 53.83100 40.83600
C  6.23200 50.29300 40.57700
C  9.52800 53.79600 39.48900
C  6.30500 57.16100 40.87100
C  2.91200 53.68000 41.71900
N  7.60500 52.14500 39.97000
C  7.41800 50.83000 40.02900
C  8.67700 50.08200 39.63600
C  9.76500 51.20400 39.65700
C  8.88800 52.52200 39.65400
C  10.74800 51.18100 40.87500
C  8.52600 49.23500 38.32700
C  7.64900 49.80800 37.21000
H  8.23000 50.81800 36.19900
N  7.76700 55.25000 40.37400
C  8.98900 55.11800 39.80900
C  9.67900 56.37000 39.66600
C  8.79500 57.37100 40.12800
C  7.56100 56.59400 40.53300
C  11.08200 56.50200 39.21500
C  9.10100 58.83500 40.24900
O  10.15800 59.25800 39.85100
C  8.14100 59.86800 40.93500
N  4.80900 55.23900 41.19100
C  5.00800 56.59500 41.01300
C  3.70500 57.39400 41.29000
C  2.60500 56.21300 41.36600
C  3.45000 54.95600 41.51800
C  3.67700 58.35700 42.43000
C  1.63900 55.98300 40.15100
C  2.23700 55.45400 38.79800
N  4.79800 52.38800 41.16600
C  3.54500 52.44800 41.63800
C  3.01100 51.14000 41.82600
C  4.10100 50.26300 41.58800
C  5.10900 51.06100 40.98700
C  1.64200 50.81800 42.43600
C  4.62900 48.90800 41.70500
O  4.24900 47.96300 42.38700
C  5.96400 48.85100 40.84800
C  5.57700 47.93100 39.69600
O  4.87500 48.20200 38.71800
O  6.13400 46.70600 39.91500
C  5.73000 45.74300 38.92300
H  10.57900 53.71000 39.20500
H  6.37100 58.22100 41.12500
H  1.88900 53.45900 42.03100
H  8.90500 49.29900 40.35800
H  10.28400 51.08500 38.70600
H  10.67800 50.22700 41.39700
H  10.57100 52.05500 41.50100
H  11.74600 51.17400 40.43600
H  8.18000 48.23000 38.56800
H  9.53200 48.99400 37.98300
H  6.79700 50.32600 37.65000
H  7.26400 48.96000 36.64400
H  11.63700 55.60700 39.49300
H  11.67200 57.22900 39.77300
H  11.11900 56.82200 38.17300
H  7.25800 59.87200 40.29600
H  8.53400 60.88300 40.87900
H  7.76300 59.58900 41.91900
H  3.46000 57.96800 40.39600
H  2.09700 56.32200 42.32400
H  3.12000 59.20700 42.03700
H  4.64900 58.69000 42.79400
H  3.06800 57.98700 43.25500
H  1.28100 56.97700 39.88200
H  0.75900 55.36600 40.33200
H  1.81000 54.50600 38.47100
H  3.32500 55.49100 38.73200
H  2.02600 56.19000 38.02300
H  1.68300 51.24200 43.44000
H  1.74500 49.75600 42.65800
H  0.80000 51.21500 41.86900
H  6.65200 48.35200 41.53100
H  6.29300 46.01500 38.03000
H  4.64600 45.79500 38.81700
H  5.96000 44.69100 39.09500

