158

Mg 41.62100 41.31100 27.41900
C  40.95300 43.77400 29.75800
C  41.98700 39.00500 29.89500
C  42.52800 39.11400 25.02200
C  41.69500 43.93100 24.99800
N  41.40100 41.34700 29.57800
C  40.99000 42.47400 30.34500
C  40.83400 42.14700 31.77900
C  41.22900 40.64700 31.86500
C  41.51100 40.25900 30.37400
C  42.34300 40.23800 32.83300
C  39.47900 42.58900 32.51000
C  38.90900 41.81700 33.73500
H  38.18900 42.65700 34.80500
N  42.14300 39.34400 27.47100
C  42.18000 38.50400 28.57000
C  42.45300 37.12000 28.16100
C  42.63600 37.18400 26.75600
C  42.41800 38.56100 26.37300
C  42.57300 35.88300 29.06100
C  42.99400 36.03500 25.71900
O  43.26900 36.17500 24.51400
C  43.14600 34.62800 26.28200
N  42.13900 41.49900 25.42100
C  42.43800 40.44400 24.59000
C  42.60200 40.84000 23.13800
C  42.10800 42.31700 23.15600
C  41.99100 42.67100 24.63300
C  44.08600 40.65600 22.57300
C  40.83400 42.77900 22.38600
C  39.50200 42.12600 22.92000
N  41.33600 43.41900 27.35800
C  41.38000 44.33600 26.37600
C  41.10800 45.65700 26.79500
C  40.87500 45.53300 28.19000
C  41.09800 44.12600 28.45900
C  41.02800 46.91800 26.01900
C  40.53100 46.15900 29.35600
O  40.27400 47.34500 29.56100
C  40.57100 45.02400 30.46100
C  41.54700 45.42700 31.59300
O  42.72500 45.12700 31.57900
O  40.77000 45.98500 32.59600
C  41.45600 46.13300 33.86300
H  42.13900 38.23000 30.64900
H  42.84200 38.36500 24.29100
H  41.54000 44.68100 24.22000
H  41.67700 42.74900 32.11900
H  40.30200 40.17900 32.19400
H  42.15400 39.26900 33.29600
H  42.16500 41.03800 33.55100
H  43.36700 40.38300 32.48800
H  38.62300 42.61700 31.83600
H  39.73000 43.62100 32.75500
H  39.73600 41.39500 34.30600
H  38.27300 40.96900 33.48200
H  42.59000 36.35600 30.04300
H  43.50600 35.36200 28.84500
H  41.80400 35.12100 28.93700
H  42.20000 34.35900 26.75100
H  43.90100 34.66000 27.06800
H  43.48000 34.01800 25.44200
H  41.84400 40.19800 22.68900
H  42.91800 42.95600 22.80600
H  44.67600 40.11400 23.31200
H  44.53500 41.57600 22.19900
H  43.97600 39.93300 21.76400
H  40.98900 42.42800 21.36600
H  40.80500 43.86700 22.43400
H  39.64000 41.60600 23.86800
H  39.10100 41.44400 22.17000
H  38.73600 42.87100 23.13900
H  40.18900 46.88800 25.32300
H  41.93400 47.07600 25.43500
H  40.97600 47.70700 26.76900
H  39.54300 44.86600 30.78700
H  42.53000 46.31100 33.81600
H  41.26800 45.33000 34.57600
H  41.09900 47.07000 34.29200
Mg 15.82500 51.09700 26.20400
C  18.04000 50.21500 28.89400
C  13.42900 51.63200 28.49000
C  13.76000 51.41500 23.71100
C  18.56100 50.15300 24.02900
N  15.81200 50.92800 28.32300
C  16.80200 50.64100 29.20900
C  16.36100 51.10700 30.60400
C  14.79700 51.27600 30.57400
C  14.69100 51.43100 29.03100
C  14.13300 49.95000 31.04100
C  17.10300 52.50000 31.02300
C  17.59700 52.86500 32.46800
H  16.96100 52.11400 33.64400
N  13.89700 51.49800 26.14700
C  13.01300 51.71500 27.17000
C  11.68500 51.79600 26.68600
C  11.75000 51.56000 25.25100
C  13.16500 51.50200 24.99100
C  10.40100 51.88100 27.58500
C  10.68900 51.48200 24.18500
O  10.99100 51.09300 23.04600
C  9.22500 51.80400 24.58800
N  16.16800 50.90200 24.19000
C  15.07900 51.15000 23.35300
C  15.57200 51.05700 21.81900
C  17.07100 50.62000 21.96300
C  17.32400 50.58400 23.49700
C  14.69000 50.19300 20.81200
C  18.08100 51.42600 21.13600
C  19.03000 50.70900 20.19100
N  17.85300 50.32700 26.39300
C  18.79500 50.06500 25.40200
C  20.00200 49.63500 26.02700
C  19.83000 49.72900 27.42600
C  18.48200 50.09600 27.56000
C  21.33300 49.21000 25.39100
C  20.41900 49.55400 28.70100
O  21.52100 49.16000 29.06000
C  19.28800 49.83100 29.75200
C  19.11300 48.69400 30.68100
O  18.57600 47.64700 30.45700
O  19.64300 49.03200 31.89200
C  19.30200 48.11000 32.95500
H  12.63200 51.81800 29.21300
H  13.15500 51.64500 22.83200
H  19.40700 49.95000 23.36900
H  16.71100 50.28300 31.22500
H  14.25700 52.03900 31.13500
H  14.92600 49.20300 31.08800
H  13.29800 49.66000 30.40400
H  13.78800 50.20800 32.04200
H  16.52600 53.30300 30.56300
H  18.08400 52.63700 30.56800
H  17.35000 53.89100 32.74000
H  18.68400 52.83200 32.54600
H  9.90100 50.91500 27.64900
H  9.80500 52.63200 27.06700
H  10.66400 52.31800 28.54900
H  8.56900 51.74200 23.72000
H  9.17700 52.83800 24.92900
H  8.95600 51.05500 25.33300
H  15.48300 52.09100 21.48500
H  17.16100 49.57700 21.65800
H  13.73200 49.88900 21.23400
H  15.29600 49.55600 20.16700
H  14.31600 50.85300 20.03000
H  18.68300 52.01700 21.82700
H  17.50400 52.09200 20.49500
H  19.12200 51.45100 19.39700
H  18.48200 49.89900 19.71000
H  19.91900 50.37400 20.72600
H  22.15600 49.61100 25.98200
H  21.27600 49.68800 24.41200
H  21.38200 48.12100 25.36900
H  19.53600 50.71500 30.34000
H  20.00900 47.28900 33.08200
H  18.26900 47.76600 32.91400
H  19.31400 48.73300 33.84900

