158

Mg 47.55800 44.92700 42.59700
C  44.04500 44.29900 42.45300
C  47.99900 41.43000 42.17500
C  50.65100 45.66000 41.79300
C  46.67700 48.42100 42.49900
N  46.16000 43.08000 42.01100
C  44.78100 43.09100 42.13900
C  44.25300 41.69100 42.01300
C  45.52700 40.73200 42.22800
C  46.65400 41.84400 42.22700
C  45.40100 39.80900 43.42500
C  43.46900 41.46100 40.77800
C  43.94300 42.29300 39.53500
H  43.74100 41.59000 38.23600
N  49.09700 43.78400 42.14200
C  49.11800 42.37100 42.11300
C  50.49300 41.92400 41.89100
C  51.30300 43.11700 41.62700
C  50.33800 44.29100 41.80700
C  50.92900 40.47000 41.92600
C  52.78400 43.13200 41.43700
O  53.44200 42.09900 41.23200
C  53.64400 44.45100 41.32900
N  48.49300 46.80300 42.15600
C  49.88700 46.81500 42.00400
C  50.49100 48.25800 42.10100
C  49.17900 49.10600 42.17000
C  48.00300 48.04900 42.22800
C  51.42800 48.41500 43.37600
C  48.91700 50.18700 41.00700
C  48.45300 51.54900 41.29200
N  45.78700 46.12500 42.64700
C  45.57300 47.56000 42.66200
C  44.19800 47.88400 42.90100
C  43.54700 46.55600 42.86200
C  44.53500 45.59800 42.61700
C  43.48100 49.16600 43.10400
C  42.27000 45.88700 42.93100
O  41.10300 46.24600 43.02600
C  42.56800 44.41700 42.64000
C  42.06500 43.63200 43.78200
O  41.28300 42.67100 43.64500
O  42.36200 44.21500 44.97200
C  41.68500 43.62400 46.09600
H  48.20000 40.35700 42.16600
H  51.71200 45.90000 41.69700
H  46.57000 49.50500 42.57000
H  43.63700 41.51500 42.89500
H  45.65900 40.17200 41.30200
H  45.73800 40.27900 44.34800
H  45.91200 38.85600 43.28300
H  44.34200 39.58600 43.55200
H  42.38800 41.54100 40.89000
H  43.71500 40.42400 40.54900
H  44.99300 42.56400 39.65000
H  43.32600 43.18800 39.60400
H  50.73300 39.98500 40.96900
H  50.43800 39.85500 42.68000
H  51.96100 40.40300 42.27000
H  53.35500 45.09900 40.50200
H  54.71200 44.26800 41.20600
H  53.55900 44.90600 42.31600
H  51.04100 48.41500 41.17300
H  49.09700 49.67000 43.09900
H  52.27300 49.00700 43.02500
H  51.77500 47.40800 43.61000
H  50.86300 48.92400 44.15800
H  48.31100 49.70900 40.23800
H  49.85400 50.42700 40.50500
H  48.44700 51.74200 42.36500
H  47.46100 51.52900 40.84100
H  49.14100 52.25500 40.82600
H  43.80800 49.63500 44.03200
H  42.42800 49.05000 43.36000
H  43.61200 49.93100 42.33800
H  42.10200 44.20800 41.67700
H  41.85600 44.30300 46.93200
H  42.09300 42.66000 46.40200
H  40.60800 43.66500 45.93300
Mg 41.97600 40.79500 26.45000
C  41.59400 43.37200 28.80600
C  42.88000 38.70600 28.97300
C  42.82000 38.32200 24.06200
C  41.64800 43.05900 23.86600
N  42.25200 41.06200 28.67700
C  41.93800 42.17300 29.40300
C  41.83500 41.86900 30.91100
C  42.35600 40.38700 30.82900
C  42.60700 39.99600 29.40400
C  43.51300 40.09200 31.83500
C  40.37900 42.19100 31.57200
C  39.93600 41.50900 32.90400
H  39.75900 42.45000 34.12600
N  42.72100 38.83000 26.55700
C  43.06800 38.17500 27.68300
C  43.55400 36.89200 27.40600
C  43.40300 36.73200 26.01300
C  42.95500 37.98400 25.45300
C  44.13500 35.92400 28.45200
C  43.74600 35.49300 25.17500
O  43.59100 35.49800 23.92600
C  43.96500 34.12300 25.77000
N  42.36800 40.77500 24.27400
C  42.54800 39.59300 23.58200
C  42.46100 39.85700 22.02600
C  42.08600 41.36100 22.00100
C  42.06800 41.83000 23.42300
C  43.62100 39.47300 21.05700
C  40.72900 41.71400 21.32000
C  39.38800 41.63800 22.06100
N  41.64800 42.77700 26.34000
C  41.53300 43.59800 25.22000
C  41.22600 44.97300 25.65100
C  41.27600 44.94200 27.03700
C  41.49000 43.58700 27.45600
C  41.09500 46.13500 24.78300
C  41.19600 45.81100 28.18900
O  40.86500 46.97800 28.31400
C  41.20200 44.75300 29.45200
C  42.25000 45.16400 30.37700
O  43.40200 44.75100 30.46000
O  41.69400 45.97800 31.35800
C  42.51300 46.36200 32.51700
H  43.15600 38.03100 29.78500
H  42.93100 37.63100 23.22400
H  41.41300 43.75900 23.06100
H  42.57800 42.48700 31.41400
H  41.53100 39.77700 31.19700
H  43.20900 39.33000 32.55300
H  43.74500 40.87000 32.56100
H  44.46900 39.90700 31.34400
H  39.65700 41.82800 30.84000
H  40.28200 43.25000 31.81300
H  40.61700 40.69200 33.14100
H  38.95100 41.08700 32.70400
H  43.58200 34.99500 28.58900
H  44.29800 36.39800 29.42000
H  45.14700 35.70300 28.11200
H  44.94100 34.16300 26.25300
H  44.10000 33.40100 24.96400
H  43.15100 33.86800 26.44800
H  41.61900 39.21800 21.75900
H  42.81700 41.95600 21.45400
H  43.22000 39.04900 20.13700
H  44.18200 38.69800 21.58000
H  44.25200 40.31700 20.78000
H  40.76700 41.22600 20.34700
H  40.87500 42.77900 21.13700
H  39.44800 41.27700 23.08800
H  38.71700 41.04800 21.43700
H  39.00200 42.65600 22.10200
H  40.51500 45.88400 23.89500
H  42.12700 46.41100 24.56200
H  40.67500 47.02100 25.26000
H  40.19100 44.79700 29.85800
H  42.52000 45.66500 33.35500
H  42.05500 47.26300 32.92400
H  43.44700 46.77100 32.13300

