158

Mg 8.60300 3.47300 27.73700
C  10.19900 1.96900 30.50100
C  6.44800 5.17400 29.87500
C  6.93400 4.79700 25.05800
C  10.27900 1.33000 25.57400
N  8.20500 3.31900 30.00800
C  9.12400 2.86700 30.94900
C  8.72700 3.44300 32.39300
C  7.51600 4.40800 32.08100
C  7.33200 4.29900 30.56200
C  6.20100 4.22000 32.82300
C  9.81000 4.03700 33.30400
C  9.44700 5.24000 34.29100
H  10.23900 5.13100 35.60700
N  6.86500 4.82900 27.52400
C  6.15900 5.38100 28.49600
C  5.15800 6.32400 27.93700
C  5.32100 6.27200 26.56000
C  6.45600 5.30400 26.29600
C  4.26000 7.14700 28.78700
C  4.65500 6.95000 25.41900
O  4.92600 6.76400 24.26400
C  3.69800 8.08300 25.73900
N  8.64800 3.16400 25.75900
C  7.88300 3.79900 24.78700
C  8.37000 3.62400 23.40500
C  9.46200 2.60100 23.58500
C  9.46700 2.31300 25.09800
C  7.21800 3.29000 22.32500
C  10.86800 3.06000 22.91600
C  11.24600 2.51200 21.53600
N  9.96300 1.92000 27.91100
C  10.59400 1.15600 26.96500
C  11.43700 0.23500 27.65800
C  11.38200 0.62900 28.97300
C  10.43000 1.65000 29.08200
C  12.24600 -0.80900 27.00000
C  11.94300 0.31800 30.27300
O  12.82000 -0.46000 30.53100
C  11.24600 1.26000 31.39400
C  10.60900 0.41300 32.39300
O  9.69200 -0.34500 32.20800
O  11.22200 0.64800 33.57200
C  10.57900 0.18900 34.76900
H  5.86500 5.74500 30.60100
H  6.41200 5.06400 24.13700
H  10.84300 0.80000 24.80300
H  8.19200 2.69500 32.97900
H  7.80500 5.45600 32.15800
H  5.83200 5.21500 33.07600
H  6.44200 3.71200 33.75700
H  5.51500 3.60500 32.24100
H  10.69400 4.23500 32.69700
H  10.13000 3.14000 33.83400
H  8.39600 5.15400 34.56600
H  9.69400 6.16800 33.77600
H  4.44100 8.19200 28.53600
H  4.29400 7.03700 29.87100
H  3.22900 6.98700 28.46900
H  3.27800 8.42900 24.79400
H  4.25300 8.87100 26.24700
H  2.93800 7.58200 26.33800
H  8.82000 4.55300 23.05200
H  9.22900 1.63200 23.14300
H  7.70100 2.87000 21.44200
H  6.68100 4.14500 21.91400
H  6.58100 2.50300 22.72800
H  11.69000 2.65900 23.50800
H  10.90900 4.13500 23.09300
H  11.40000 3.27200 20.77000
H  10.38600 1.90400 21.25600
H  12.18700 1.97500 21.42100
H  13.11000 -1.06500 27.61200
H  12.61100 -0.39800 26.05900
H  11.73000 -1.76400 26.89700
H  12.02600 1.84900 31.87700
H  11.36400 0.34600 35.50900
H  10.31600 -0.85700 34.61300
H  9.72700 0.72700 35.18400
Mg 48.44700 16.13100 28.53900
C  46.31800 16.06900 31.32700
C  50.70400 17.92000 30.46800
C  50.50500 16.03200 25.99100
C  45.88500 14.79800 26.65600
N  48.41600 16.97300 30.61800
C  47.49700 16.74400 31.60500
C  48.02600 17.20800 32.96600
C  49.20200 18.12800 32.57200
C  49.43200 17.65700 31.14600
C  48.93100 19.68500 32.77500
C  48.27900 15.99600 33.90200
C  48.37900 16.39800 35.38800
H  48.01400 17.76900 35.94400
N  50.33500 16.78000 28.25000
C  51.13500 17.52300 29.17600
C  52.41700 17.78800 28.52000
C  52.33600 17.23500 27.29000
C  51.05400 16.63500 27.12500
C  53.49100 18.62400 29.20200
C  53.40200 17.33300 26.22600
O  53.19000 16.89100 25.12100
C  54.86100 17.70700 26.59900
N  48.26400 15.28500 26.64100
C  49.27000 15.48000 25.68800
C  48.84700 15.05800 24.26500
C  47.41800 14.44900 24.53900
C  47.12800 14.83600 26.04300
C  48.90300 16.15400 23.20300
C  47.25300 12.95100 24.47400
C  47.24800 12.32600 23.05200
N  46.47600 15.68100 28.83200
C  45.58900 15.14000 27.96100
C  44.31000 15.03900 28.62100
C  44.55300 15.30600 30.01600
C  45.94100 15.68700 30.07000
C  42.98700 14.48600 28.09200
C  43.99900 15.31900 31.35400
O  42.93800 14.97700 31.80800
C  45.24200 15.75000 32.32600
C  44.74300 16.87100 33.18900
O  44.21200 17.91300 32.78000
O  44.69200 16.39700 34.49200
C  43.87600 17.21100 35.31700
H  51.44600 18.38200 31.12300
H  51.10700 16.02100 25.08000
H  45.09000 14.37300 26.04000
H  47.25300 17.79100 33.46700
H  50.08800 17.79700 33.11400
H  49.78200 20.13500 33.28700
H  48.08000 19.91400 33.41600
H  48.77200 20.14300 31.79900
H  49.19500 15.53500 33.53200
H  47.44600 15.29400 33.91900
H  49.40900 16.27400 35.72400
H  47.86000 15.60400 35.92600
H  54.28900 17.94400 29.49800
H  53.14900 19.06800 30.13700
H  53.75700 19.41200 28.49700
H  54.98100 18.78700 26.68200
H  55.45200 17.55900 25.69500
H  55.14400 16.98500 27.36500
H  49.56500 14.31900 23.91000
H  46.60800 14.95600 24.01500
H  49.39400 17.06800 23.53600
H  47.89100 16.34700 22.84600
H  49.54700 15.76800 22.41300
H  46.23900 12.79800 24.84300
H  47.87600 12.39200 25.17300
H  47.87000 11.46200 22.81600
H  47.51900 13.09000 22.32400
H  46.29800 11.89100 22.74100
H  42.89100 13.40600 28.19800
H  42.87500 14.69100 27.02700
H  42.26400 14.99900 28.72800
H  45.53700 14.86900 32.89600
H  44.17100 18.25500 35.42700
H  43.77500 16.78700 36.31600
H  42.89400 17.24600 34.84600

