158

Mg 55.30600 23.76000 44.67200
C  52.81900 26.13300 43.52100
C  53.17300 21.28000 43.76000
C  57.91100 21.67200 44.82900
C  57.40600 26.55300 45.28000
N  53.28400 23.75200 43.77300
C  52.38100 24.85000 43.52100
C  51.02000 24.26900 43.08200
C  51.07200 22.82900 43.56500
C  52.60000 22.56900 43.69200
C  50.22100 22.54500 44.83900
C  50.83000 24.43200 41.50900
C  49.41000 24.72100 41.01700
H  48.89900 24.03400 39.75300
N  55.56700 21.67600 44.32200
C  54.54400 20.80700 43.98600
C  55.06900 19.44500 43.86100
C  56.47400 19.56400 44.22100
C  56.69500 20.96500 44.53900
C  54.35300 18.15600 43.52400
C  57.51500 18.52000 44.10000
O  57.12400 17.45200 43.71800
C  58.98100 18.67700 44.61500
N  57.29300 24.07800 44.91200
C  58.22200 23.00100 45.03600
C  59.66800 23.57600 45.21600
C  59.52300 25.05500 45.25300
C  57.92600 25.26900 45.13600
C  60.37300 22.95300 46.38400
C  60.27800 25.84100 44.07700
C  61.66700 26.45400 44.49500
N  55.17600 25.91500 44.52100
C  56.07900 26.94100 44.91500
C  55.39000 28.20900 44.89400
C  54.18300 27.91200 44.22900
C  54.10800 26.52500 44.02600
C  55.84700 29.54100 45.36200
C  52.98600 28.50700 43.60900
O  52.77500 29.70000 43.58300
C  52.07200 27.42700 43.12000
C  51.95900 27.55200 41.64000
O  52.84900 27.50600 40.78800
O  50.58900 27.81200 41.40800
C  50.26000 28.10600 39.97100
H  52.54900 20.39000 43.65300
H  58.79500 21.07300 45.05800
H  58.08400 27.32700 45.64700
H  50.25300 24.86700 43.57400
H  50.60100 22.21900 42.79400
H  50.81900 22.16400 45.66700
H  49.46900 21.76500 44.71300
H  49.65600 23.42500 45.14800
H  51.06300 23.49900 40.99600
H  51.50000 25.20400 41.13100
H  49.33400 25.80200 40.90400
H  48.71500 24.60800 41.84900
H  53.29400 18.39200 43.42200
H  54.54500 17.50000 44.37300
H  54.64600 17.68200 42.58700
H  59.45700 19.24900 43.81800
H  59.43600 17.68700 44.58400
H  58.92000 19.01500 45.64900
H  60.24200 23.32900 44.32300
H  59.76900 25.52600 46.20400
H  60.33700 23.62800 47.23900
H  61.38200 22.92500 45.97300
H  59.96200 21.98400 46.66600
H  59.66500 26.66700 43.71800
H  60.56600 25.29000 43.18200
H  62.40300 25.71000 44.19000
H  61.73300 26.68800 45.55800
H  61.93600 27.34200 43.92400
H  55.20600 29.74000 46.22100
H  55.69200 30.28400 44.58000
H  56.89900 29.44400 45.62900
H  51.13800 27.56200 43.66400
H  49.45500 28.83800 39.91100
H  49.82200 27.23800 39.47900
H  51.12400 28.44100 39.39600
Mg 48.31600 34.82100 26.28800
C  46.21100 33.36000 28.85400
C  48.59500 37.52000 28.31200
C  49.47800 36.40500 23.72300
C  47.40700 32.02100 24.34600
N  47.47700 35.26900 28.36100
C  46.83600 34.52000 29.23700
C  46.90900 35.02200 30.70600
C  47.33600 36.51700 30.39900
C  47.90400 36.39700 28.95400
C  46.34100 37.73300 30.61300
C  48.05100 34.24700 31.47200
C  47.80300 33.99200 32.99000
H  46.89000 34.89500 33.70000
N  49.14800 36.66000 26.13400
C  49.16400 37.63500 27.03400
C  49.93100 38.75800 26.49300
C  50.24200 38.45600 25.18100
C  49.59900 37.17300 24.97000
C  50.26200 39.92800 27.36200
C  51.02100 39.29600 24.14800
O  51.04100 39.04900 22.95400
C  51.74100 40.57400 24.56100
N  48.21800 34.41500 24.15100
C  48.85400 35.21100 23.32600
C  49.39000 34.34200 22.13500
C  48.87800 32.85500 22.46000
C  48.13700 33.10300 23.74800
C  49.02000 34.89500 20.75600
C  49.98200 31.82000 22.61900
C  50.04500 30.60700 21.60600
N  47.15700 32.96500 26.50500
C  46.81500 32.02600 25.67200
C  46.00900 31.01000 26.25800
C  45.75000 31.51400 27.48000
C  46.37800 32.78400 27.59800
C  45.52400 29.70500 25.72200
C  45.11200 31.22700 28.73200
O  44.60400 30.18800 29.13500
C  45.29300 32.42400 29.62600
C  45.74500 31.84200 30.94800
O  46.80300 31.20400 31.15200
O  44.73300 32.06500 31.82700
C  44.81200 31.46300 33.18600
H  48.91300 38.30900 28.99600
H  50.07400 36.91500 22.96300
H  47.31300 31.12100 23.73400
H  46.05200 34.89500 31.36700
H  48.18900 36.85100 30.99000
H  46.81500 38.65900 30.94000
H  45.57600 37.57400 31.37400
H  45.91400 37.90900 29.62600
H  48.99900 34.78500 31.42900
H  48.23800 33.31900 30.93200
H  48.77100 34.29200 33.39100
H  47.61100 32.94800 33.23700
H  51.30000 40.20400 27.18000
H  50.15500 39.76500 28.43400
H  49.52300 40.68900 27.11300
H  52.39700 41.06200 23.84000
H  52.40700 40.19000 25.33400
H  51.06500 41.37100 24.87200
H  50.47800 34.36600 22.19100
H  48.28200 32.46000 21.63800
H  48.77800 35.94900 20.89300
H  48.11400 34.50400 20.29400
H  49.82000 34.82200 20.02000
H  49.99200 31.50500 23.66300
H  50.94300 32.32900 22.55200
H  50.95200 30.71300 21.01100
H  49.20900 30.59000 20.90600
H  50.04800 29.72300 22.24300
H  46.01700 29.53900 24.76400
H  44.46400 29.63700 25.47500
H  45.63200 28.95700 26.50700
H  44.29800 32.84900 29.76000
H  45.76200 30.97900 33.41000
H  43.94800 30.82400 33.37000
H  44.65000 32.25000 33.92300

