158

Mg 26.10000 -0.48100 29.00700
C  28.16200 -0.79300 31.77000
C  23.26900 -0.50100 31.02600
C  24.28900 -0.57900 26.15700
C  29.02600 -1.39800 26.98800
N  25.83700 -0.85700 31.14700
C  26.83800 -0.77000 32.05300
C  26.22600 -0.67800 33.47300
C  24.69500 -0.59300 33.20300
C  24.53700 -0.69500 31.71400
C  23.81000 -1.56200 33.97400
C  26.71000 0.50600 34.24200
C  25.96000 0.96100 35.56400
H  26.71300 1.11700 36.85400
N  24.12200 -0.39300 28.66400
C  23.08700 -0.33100 29.61600
C  21.81300 -0.15900 28.95800
C  22.04400 -0.18000 27.54800
C  23.54500 -0.38500 27.37900
C  20.60700 0.01100 29.79800
C  20.99300 -0.16600 26.39200
O  21.29900 -0.19800 25.19300
C  19.48500 -0.11100 26.68800
N  26.60900 -0.85600 26.86700
C  25.66000 -0.74700 25.88100
C  26.30500 -0.88900 24.51100
C  27.84500 -1.03900 24.83600
C  27.85000 -1.11900 26.34000
C  25.74700 -1.98100 23.55700
C  28.81800 0.02400 24.27300
C  30.14900 -0.34400 23.56500
N  28.21700 -1.02800 29.29400
C  29.28700 -1.36200 28.41600
C  30.51000 -1.53100 29.16400
C  30.13500 -1.29200 30.54400
C  28.77000 -1.02500 30.55000
C  31.87000 -1.92900 28.60000
C  30.58000 -1.08800 31.87400
O  31.71200 -1.18500 32.33000
C  29.30400 -0.92400 32.70300
C  29.05400 -2.03200 33.70400
O  28.62300 -3.18200 33.44100
O  29.33900 -1.56600 34.95600
C  29.26700 -2.65800 35.97700
H  22.46400 -0.40200 31.75800
H  23.59400 -0.49500 25.31900
H  29.84000 -1.64100 26.30200
H  26.42200 -1.59700 34.02700
H  24.37800 0.43900 33.35400
H  24.16500 -1.97100 34.92000
H  23.76300 -2.46700 33.36900
H  22.86800 -1.01500 33.92900
H  26.72800 1.40200 33.62100
H  27.74700 0.37200 34.54700
H  25.05300 0.45400 35.89300
H  25.75200 1.99400 35.28400
H  20.15000 0.95400 29.49600
H  20.61400 0.05100 30.88700
H  19.93100 -0.79800 29.52000
H  19.25100 0.86700 27.10800
H  19.24700 -0.83500 27.46700
H  18.77600 -0.23500 25.86900
H  26.22000 0.10400 24.06900
H  28.19100 -2.02600 24.52800
H  25.78200 -2.92700 24.09800
H  26.42900 -2.00300 22.70700
H  24.70500 -1.83100 23.27600
H  29.09300 0.62300 25.14200
H  28.20100 0.55700 23.55000
H  30.23900 0.46000 22.83500
H  30.12600 -1.32500 23.09000
H  31.00500 -0.23200 24.23000
H  32.50600 -1.04400 28.61400
H  31.86000 -2.22400 27.55100
H  32.34700 -2.68500 29.22400
H  29.38400 -0.01300 33.29500
H  29.24100 -3.68800 35.62200
H  28.39800 -2.51600 36.61900
H  30.15100 -2.59800 36.61300
Mg -8.63800 40.59300 42.52300
C  -7.65700 37.20000 41.82300
C  -5.83300 41.60900 40.66500
C  -9.85100 43.75500 42.70800
C  -11.77600 39.34900 43.53800
N  -7.03200 39.49400 41.40100
C  -6.73100 38.12800 41.32500
C  -5.36000 37.86800 40.67000
C  -4.73400 39.29400 40.60200
C  -5.91400 40.21200 40.89500
C  -3.59100 39.48700 41.58200
C  -5.45200 37.21700 39.29700
C  -4.69700 35.89000 38.93900
H  -4.05800 35.95500 37.56900
N  -7.92100 42.51400 41.83400
C  -6.74600 42.68200 41.14000
C  -6.53100 44.14800 41.11600
C  -7.64100 44.74400 41.76000
C  -8.51800 43.72000 42.07500
C  -5.31500 44.75300 40.50000
C  -7.76000 46.28700 41.95900
O  -6.93100 47.01800 41.48800
C  -8.89000 46.90500 42.77700
N  -10.54300 41.46100 43.09900
C  -10.76400 42.80100 43.13800
C  -12.22500 43.10100 43.50800
C  -12.81000 41.71400 43.77500
C  -11.65500 40.76800 43.41400
C  -12.37900 44.13000 44.67600
C  -14.08900 41.36300 42.85800
C  -15.24400 40.64600 43.65700
N  -9.50200 38.72700 42.88100
C  -10.78900 38.34900 43.21100
C  -10.82900 36.95200 43.28600
C  -9.64400 36.46000 42.71500
C  -8.82100 37.56900 42.51600
C  -11.93900 36.14700 43.82400
C  -8.98800 35.22300 42.46000
O  -9.38600 34.10200 42.67400
C  -7.64300 35.69300 41.77700
C  -6.43400 35.19800 42.47300
O  -6.05300 35.51000 43.60200
O  -5.80400 34.23000 41.68600
C  -4.55100 33.59700 42.20800
H  -4.93200 41.84300 40.09400
H  -10.19300 44.78000 42.86700
H  -12.75800 38.96300 43.81800
H  -4.91900 37.19300 41.40400
H  -4.25300 39.60200 39.67400
H  -3.69300 40.34000 42.25300
H  -2.72500 39.82700 41.01300
H  -3.22000 38.56600 42.03100
H  -5.21600 38.03700 38.61900
H  -6.49900 36.92900 39.19400
H  -5.50000 35.15700 39.02400
H  -3.90100 35.69700 39.65800
H  -5.52100 45.08800 39.48300
H  -4.55700 43.97200 40.45300
H  -4.97400 45.58800 41.11200
H  -8.89500 47.98600 42.92100
H  -8.90200 46.38800 43.73700
H  -9.81600 46.55700 42.32000
H  -12.81800 43.54000 42.70500
H  -12.98200 41.58800 44.84400
H  -12.89000 45.00700 44.27900
H  -11.40100 44.52600 44.94700
H  -13.05200 43.64000 45.38000
H  -13.88000 40.66300 42.04900
H  -14.48500 42.29100 42.44500
H  -15.41800 39.61800 43.33900
H  -16.20300 41.16200 43.62400
H  -14.82500 40.63600 44.66300
H  -11.54800 35.21400 44.22800
H  -12.67000 35.94300 43.04200
H  -12.61300 36.65500 44.51500
H  -7.60500 35.35600 40.74100
H  -4.00600 33.13200 41.38600
H  -4.90300 32.94400 43.00700
H  -3.91500 34.35200 42.67000

