158

Mg 30.76200 58.94700 40.55800
C  27.68900 57.41400 39.67400
C  32.45100 56.26100 39.40200
C  33.54600 60.98900 40.42800
C  28.87600 61.98900 41.15900
N  30.09200 57.02400 39.74600
C  28.85600 56.63500 39.38300
C  28.95200 55.22400 38.75100
C  30.37700 54.71900 39.08100
C  31.05000 56.03800 39.47000
C  30.39600 53.75900 40.28100
C  28.69900 55.37600 37.21600
C  27.59500 54.56900 36.63900
H  26.80200 55.25500 35.57900
N  32.77400 58.60800 40.09300
C  33.25700 57.38100 39.71300
C  34.67300 57.47500 39.62700
C  35.08800 58.84500 39.97400
C  33.74900 59.55400 40.13900
C  35.55900 56.32000 39.22100
C  36.47200 59.35800 39.94300
O  37.42000 58.54200 39.79900
C  36.74800 60.78500 40.15000
N  31.12600 61.18100 40.71800
C  32.42400 61.71100 40.76600
C  32.43200 63.19000 40.91800
C  30.97300 63.42700 41.34400
C  30.22400 62.12500 41.04400
C  33.58800 63.68100 41.81100
C  30.27000 64.72300 40.84800
C  29.51700 65.53300 41.87200
N  28.77700 59.57100 40.52400
C  28.13900 60.76000 40.88400
C  26.72200 60.65200 40.68300
C  26.50900 59.36300 40.22400
C  27.78300 58.76800 40.12900
C  25.59700 61.73600 40.92500
C  25.48700 58.48900 39.83800
O  24.26500 58.65000 39.77000
C  26.21400 57.05400 39.49600
C  25.67000 55.92600 40.27200
O  25.44400 55.86900 41.46300
O  25.22000 54.87500 39.41500
C  25.16700 53.57900 40.09200
H  33.02700 55.39800 39.06000
H  34.46600 61.57800 40.42800
H  28.28700 62.87300 41.41200
H  28.11800 54.69700 39.21400
H  31.01700 54.32600 38.29100
H  29.41200 53.29700 40.36500
H  30.68600 54.25700 41.20600
H  31.16400 53.00000 40.12900
H  29.64200 55.13800 36.72300
H  28.64600 56.40800 36.86900
H  26.89800 54.47900 37.47200
H  27.95400 53.62700 36.22500
H  36.28300 56.17400 40.02200
H  36.12100 56.54200 38.31400
H  35.02500 55.37800 39.10000
H  36.27400 60.95600 41.11700
H  36.43500 61.42500 39.32500
H  37.83000 60.88500 40.22800
H  32.56400 63.63200 39.93000
H  30.82400 63.32600 42.41900
H  33.23500 64.08700 42.75900
H  33.87800 64.52500 41.18600
H  34.45000 63.06500 42.06900
H  29.43200 64.50400 40.18600
H  30.99900 65.42200 40.43900
H  28.90300 66.25600 41.33500
H  30.37500 65.97200 42.38300
H  28.93400 64.93800 42.57400
H  25.65500 62.52600 40.17700
H  25.77800 62.17200 41.90800
H  24.60800 61.27600 40.94900
H  26.08800 56.85700 38.43100
H  24.20700 53.72600 40.58600
H  25.94200 53.49700 40.85400
H  25.20500 52.71000 39.43500
Mg -12.65400 38.89800 42.87600
C  -10.87400 35.92100 41.87600
C  -10.32800 40.72300 41.05800
C  -14.49800 41.56900 43.51600
C  -15.33100 36.76200 43.77500
N  -10.67200 38.33800 41.66000
C  -10.19400 37.07500 41.42400
C  -8.95600 37.20800 40.54300
C  -8.73800 38.72700 40.39400
C  -9.97400 39.31500 41.09700
C  -7.40900 39.21500 41.04400
C  -9.07500 36.64000 39.12800
C  -7.75000 36.15500 38.56100
H  -7.00300 36.95700 37.49000
N  -12.42100 40.83900 42.46500
C  -11.40300 41.40000 41.74500
C  -11.60400 42.81600 41.58900
C  -12.77000 43.12500 42.32200
C  -13.30400 41.85600 42.79500
C  -10.60400 43.66300 40.83800
C  -13.27300 44.52700 42.53500
O  -12.73600 45.49500 41.97200
C  -14.43000 44.67000 43.47500
N  -14.65700 39.09500 43.54300
C  -15.12800 40.34000 43.79000
C  -16.57800 40.23100 44.24100
C  -16.99100 38.72400 44.15100
C  -15.53000 38.14200 43.86300
C  -16.82100 40.79500 45.71100
C  -17.95900 38.33900 43.01300
C  -19.38300 38.68500 43.31300
N  -13.02100 36.70600 42.97900
C  -14.15900 36.11400 43.35400
C  -13.87600 34.63900 43.28900
C  -12.61300 34.54200 42.69200
C  -12.14600 35.87200 42.46600
C  -14.67000 33.39100 43.74100
C  -11.61700 33.63300 42.19200
O  -11.61800 32.41400 42.05800
C  -10.42300 34.49600 41.64900
C  -9.14200 34.13500 42.36400
O  -9.00900 34.25200 43.57800
O  -8.21500 33.74300 41.50000
C  -6.89000 33.72300 42.11500
H  -9.69200 41.29000 40.37400
H  -15.04200 42.45500 43.84800
H  -16.23000 36.14900 43.86300
H  -8.07400 36.77600 41.01500
H  -8.65300 39.06800 39.36200
H  -6.94800 38.50600 41.73100
H  -7.64300 40.07900 41.66600
H  -6.61900 39.49600 40.34800
H  -9.08900 37.38300 38.33100
H  -9.86000 35.89100 39.02300
H  -7.87300 35.11600 38.25400
H  -6.99300 36.13500 39.34400
H  -10.71400 44.73000 41.03000
H  -10.65100 43.49300 39.76200
H  -9.59600 43.49800 41.22000
H  -14.19000 44.38100 44.49800
H  -15.35600 44.26000 43.07300
H  -14.42800 45.76000 43.44500
H  -17.08900 40.82000 43.48000
H  -17.26900 38.30000 45.11600
H  -17.61500 41.53900 45.64500
H  -15.91700 41.23100 46.13600
H  -17.26400 40.06000 46.38300
H  -17.86100 37.26200 42.87300
H  -17.64600 38.89800 42.13100
H  -19.93500 37.75500 43.44400
H  -19.82200 39.30200 42.52900
H  -19.53500 39.34500 44.16700
H  -15.12400 32.90400 42.87800
H  -15.46700 33.71000 44.41200
H  -13.95100 32.72700 44.22100
H  -10.28600 34.36700 40.57500
H  -6.78200 32.99900 42.92300
H  -6.75300 34.71500 42.54600
H  -6.18000 33.51200 41.31500

