158

Mg 24.77000 -5.06700 45.66500
C  26.87800 -2.42200 44.35300
C  22.33900 -3.90400 43.51100
C  23.14900 -7.89800 46.03700
C  27.59800 -6.41800 47.20500
N  24.68100 -3.38600 44.04500
C  25.58100 -2.40200 43.88900
C  24.99000 -1.28100 42.94300
C  23.52800 -1.78900 42.62500
C  23.46800 -3.07500 43.44400
C  22.33100 -0.72700 42.80100
C  25.83700 -1.03000 41.62900
C  26.41300 -2.20400 40.84400
H  26.06200 -2.44900 39.38300
N  22.96300 -5.74200 44.96600
C  22.07400 -5.12300 44.17700
C  20.89200 -5.91700 44.12400
C  21.09700 -7.11000 44.89700
C  22.45300 -6.96200 45.36500
C  19.72100 -5.41100 43.40300
C  20.07200 -8.25300 45.14000
O  19.04200 -8.28800 44.49500
C  20.35400 -9.41400 46.09800
N  25.30200 -6.89700 46.45300
C  24.43100 -7.91600 46.63800
C  24.99600 -9.18600 47.32200
C  26.36800 -8.55000 47.93100
C  26.45400 -7.23300 47.16600
C  24.09000 -9.83800 48.43100
C  27.58800 -9.54300 47.88400
C  28.13900 -10.11300 49.16200
N  26.77300 -4.56100 45.84800
C  27.80400 -5.17500 46.55400
C  29.02500 -4.40200 46.45900
C  28.60600 -3.28700 45.68900
C  27.27600 -3.45400 45.27300
C  30.39300 -4.91400 46.90800
C  29.12100 -2.03600 45.11000
O  30.13900 -1.48300 45.39400
C  28.03000 -1.49100 44.15100
C  27.67100 -0.07000 44.51300
O  26.97200 0.31600 45.45700
O  28.11400 0.80200 43.56900
C  27.81200 2.25400 43.70000
H  21.42900 -3.59800 42.99000
H  22.70700 -8.86500 46.28500
H  28.46200 -6.86100 47.70500
H  24.89800 -0.45200 43.64500
H  23.50500 -2.21700 41.62300
H  22.09100 -0.53700 43.84800
H  21.39300 -1.11900 42.40700
H  22.44700 0.24100 42.31400
H  26.61900 -0.30400 41.85200
H  25.18000 -0.52900 40.91800
H  26.31300 -3.20200 41.27100
H  27.46400 -1.91700 40.88300
H  19.97900 -5.02600 42.41600
H  19.17100 -4.72500 44.04700
H  18.97900 -6.20100 43.28900
H  19.51800 -10.11100 46.16200
H  20.55100 -8.94300 47.06100
H  21.19300 -9.96500 45.67400
H  25.17000 -9.83400 46.46400
H  26.12000 -8.31100 48.96600
H  23.64400 -10.77400 48.09600
H  23.15800 -9.29900 48.59900
H  24.66200 -9.84800 49.35900
H  28.35000 -9.00800 47.31700
H  27.36500 -10.42400 47.28100
H  28.06500 -11.19500 49.27200
H  27.65600 -9.52600 49.94300
H  29.19100 -9.85100 49.27400
H  30.76300 -5.45400 46.03700
H  30.52400 -5.56700 47.77100
H  30.96500 -4.00600 47.09900
H  28.33800 -1.53000 43.10600
H  27.59300 2.48700 44.74300
H  26.98200 2.59800 43.08200
H  28.58100 2.95700 43.38100
Mg 46.98100 25.69100 28.85000
C  47.94300 27.82500 31.60500
C  45.66500 23.51800 31.12300
C  46.64700 23.42900 26.33100
C  48.64200 27.75600 26.74200
N  46.78600 25.74600 31.10200
C  47.23100 26.69300 32.03200
C  46.88400 26.25200 33.44700
C  46.17400 24.89700 33.30400
C  46.21600 24.69400 31.75700
C  46.82600 23.76500 34.13300
C  46.01900 27.32700 34.19100
C  46.51900 27.76800 35.58100
H  45.48000 27.58300 36.69600
N  46.18800 23.78000 28.76600
C  45.70200 23.05400 29.80700
C  45.15800 21.81800 29.27600
C  45.44400 21.75800 27.87700
C  46.20300 22.99900 27.59300
C  44.37600 20.70100 30.11300
C  44.83500 20.72300 26.87000
O  45.20800 20.67900 25.67200
C  43.78900 19.70300 27.27400
N  47.38700 25.64700 26.80100
C  47.23500 24.61100 25.93700
C  47.78300 24.91800 24.53800
C  48.11000 26.38000 24.62000
C  48.10500 26.59500 26.16000
C  49.01500 23.97300 24.31700
C  47.10600 27.32500 23.82500
C  47.61300 28.02600 22.55600
N  48.01200 27.52500 29.05500
C  48.70200 28.15700 28.08500
C  49.44100 29.30200 28.70800
C  49.08700 29.26600 30.07400
C  48.29400 28.10100 30.25800
C  50.20600 30.37000 28.01200
C  49.26700 29.94400 31.36900
O  49.86000 30.96600 31.61700
C  48.48900 29.00300 32.45000
C  49.57800 28.64200 33.49300
O  50.58400 28.04200 33.24400
O  49.20600 29.11100 34.72300
C  50.11100 29.04800 35.84500
H  45.12600 22.79000 31.73300
H  46.65900 22.58400 25.63900
H  49.11500 28.40100 25.99900
H  47.88200 26.14600 33.87200
H  45.15600 24.98000 33.68700
H  46.05200 23.32000 34.75900
H  47.55000 24.08400 34.88400
H  47.27600 23.04400 33.45200
H  44.96800 27.03700 34.21100
H  46.04000 28.16800 33.49900
H  46.74400 28.82900 35.46900
H  47.44400 27.28100 35.89000
H  43.31800 20.64400 29.85400
H  44.37300 20.93600 31.17700
H  44.87400 19.75400 29.90400
H  44.29900 18.85500 27.73100
H  43.36200 19.30500 26.35300
H  42.90600 20.09100 27.78200
H  47.10900 24.68200 23.71400
H  49.10500 26.60900 24.23600
H  48.83400 22.97100 24.70700
H  49.86600 24.32700 24.89800
H  49.31100 23.90400 23.27000
H  46.92300 28.06800 24.60100
H  46.22000 26.71700 23.64400
H  48.69200 27.96000 22.41500
H  47.46100 29.08700 22.75400
H  47.14500 27.71600 21.62200
H  49.61200 30.64400 27.14000
H  51.17600 29.97200 27.71300
H  50.37400 31.14200 28.76300
H  47.64400 29.58000 32.82600
H  49.93600 29.95000 36.43100
H  51.16000 29.15500 35.57000
H  50.02300 28.10700 36.38900

