158

Mg 36.80400 49.82600 25.54000
C  36.98100 47.90200 28.44400
C  35.41500 52.46400 27.38200
C  36.20100 51.61000 22.67900
C  37.57000 47.03200 23.69200
N  36.27800 50.08000 27.63000
C  36.52100 49.22200 28.68400
C  36.22300 49.88000 30.03200
C  35.63000 51.30800 29.62200
C  35.78300 51.28200 28.07600
C  34.22000 51.71300 30.12200
C  37.43700 49.92900 31.03200
C  37.16000 49.67900 32.48600
H  35.81400 49.92600 33.20900
N  35.94300 51.74600 25.11600
C  35.46600 52.63400 26.01200
C  35.11100 53.89800 25.39400
C  35.41000 53.67100 23.99600
C  35.90500 52.30600 23.89400
C  34.61700 55.16300 26.05700
C  35.27300 54.76400 22.90700
O  35.63400 54.57000 21.79400
C  34.82500 56.12100 23.20000
N  36.68300 49.33900 23.49300
C  36.59600 50.24900 22.49100
C  37.02300 49.65100 21.15700
C  37.48100 48.21400 21.48700
C  37.15900 48.18700 22.94400
C  35.93200 49.87000 20.10000
C  39.00000 47.84500 21.15200
C  39.13000 47.23000 19.72100
N  37.20500 47.86700 25.90600
C  37.49200 46.82400 25.03900
C  37.86700 45.68400 25.80200
C  37.62000 46.02700 27.15200
C  37.20900 47.34600 27.12400
C  38.17100 44.28200 25.37500
C  37.65000 45.49400 28.58000
O  37.91600 44.37800 28.99600
C  37.29600 46.79700 29.44700
C  36.12300 46.44200 30.24300
O  34.97400 46.66900 29.88500
O  36.51100 45.80600 31.36500
C  35.47800 45.48600 32.33500
H  35.00800 53.23000 28.04600
H  36.21200 52.26100 21.80200
H  37.84600 46.11200 23.17200
H  35.39000 49.29800 30.42700
H  36.30700 52.12500 29.87100
H  34.09900 51.10200 31.01700
H  33.49200 51.37500 29.38400
H  34.09700 52.75600 30.41300
H  37.96200 50.88400 31.00500
H  38.17300 49.20700 30.67800
H  37.68200 50.40700 33.10800
H  37.59800 48.68600 32.59100
H  33.60100 55.32300 25.69800
H  35.10300 56.11100 25.82600
H  34.73000 55.19200 27.14000
H  34.01600 56.28500 23.91300
H  34.45100 56.63100 22.31200
H  35.75000 56.65400 23.41800
H  37.82300 50.24600 20.71500
H  36.78600 47.46900 21.09900
H  35.36700 48.94000 20.04900
H  36.39900 50.15500 19.15700
H  35.39400 50.71800 20.52500
H  39.43600 47.10100 21.81900
H  39.59400 48.73200 21.37100
H  39.47100 48.01400 19.04500
H  38.12400 46.91500 19.44600
H  39.83500 46.40200 19.65200
H  39.22400 44.03700 25.24100
H  37.58300 44.26500 24.45700
H  37.68400 43.51300 25.97400
H  38.08800 46.98900 30.17000
H  35.45300 44.40600 32.18800
H  34.49900 45.90600 32.10600
H  35.75800 45.88100 33.31100
Mg -11.41500 37.47700 43.09000
C  -9.09400 35.04100 42.20300
C  -9.58800 39.78700 41.41100
C  -14.15800 39.52600 43.11800
C  -13.60900 34.77600 44.10400
N  -9.57800 37.37100 41.85000
C  -8.84100 36.26700 41.52800
C  -7.60700 36.51500 40.78500
C  -7.62700 38.10200 40.69400
C  -9.02100 38.48000 41.41200
C  -6.39400 38.78400 41.30400
C  -7.55400 35.83400 39.34300
C  -6.65200 34.70000 39.08400
H  -5.49000 34.94400 38.12600
N  -11.79200 39.40000 42.38900
C  -10.85000 40.24400 41.73800
C  -11.39000 41.59000 41.60300
C  -12.75700 41.49400 42.05800
C  -12.99000 40.13100 42.54900
C  -10.60900 42.76900 40.99900
C  -13.74100 42.63100 42.06300
O  -13.33300 43.69600 41.74100
C  -15.25100 42.47500 42.31900
N  -13.57100 37.11200 43.51500
C  -14.37800 38.22000 43.64800
C  -15.80700 37.86000 44.11100
C  -15.71800 36.29500 44.24200
C  -14.23400 35.98100 43.92300
C  -16.28800 38.61100 45.37400
C  -16.66000 35.43700 43.34900
C  -17.48700 34.38200 44.07900
N  -11.36000 35.41200 43.37800
C  -12.26500 34.42800 43.83900
C  -11.57100 33.13600 43.95900
C  -10.36700 33.34100 43.21600
C  -10.29400 34.69500 42.88800
C  -12.11200 31.80200 44.53100
C  -9.17000 32.69400 42.86800
O  -8.63800 31.62100 43.04700
C  -8.27700 33.76600 42.28900
C  -7.19100 33.97700 43.32600
O  -7.32900 34.38300 44.47100
O  -5.91600 33.84300 42.76900
C  -4.76100 34.33800 43.57200
H  -8.98000 40.59100 40.99000
H  -14.93300 40.22800 43.43500
H  -14.29600 33.95500 44.32400
H  -6.84400 36.29800 41.53300
H  -7.67200 38.46300 39.66700
H  -5.89300 39.30400 40.48800
H  -5.64200 38.09300 41.68400
H  -6.72100 39.59100 41.96000
H  -7.36100 36.66000 38.65900
H  -8.58300 35.58500 39.08700
H  -7.16400 33.77500 38.81800
H  -6.20900 34.46200 40.05100
H  -11.15200 43.20000 40.15800
H  -9.65300 42.47300 40.56800
H  -10.34000 43.46900 41.79000
H  -15.74000 43.41000 42.04400
H  -15.48200 42.18800 43.34500
H  -15.61000 41.74300 41.59600
H  -16.40400 38.21300 43.27000
H  -15.84000 36.02500 45.29100
H  -15.57600 39.34300 45.75600
H  -16.60900 38.18700 46.32500
H  -17.16400 39.22500 45.16500
H  -16.08700 34.79000 42.68500
H  -17.32200 36.05400 42.74200
H  -17.44300 33.40700 43.59400
H  -18.54300 34.64900 44.03800
H  -17.19500 34.34000 45.12800
H  -12.54000 31.13600 43.78100
H  -12.93100 32.01400 45.21900
H  -11.32000 31.21700 44.99900
H  -7.84800 33.40600 41.35300
H  -3.82500 34.46600 43.02900
H  -4.53600 33.53300 44.27200
H  -4.95300 35.28000 44.08500

