158

Mg 9.12700 47.55600 25.50800
C  6.88700 47.87600 28.26500
C  11.57000 48.68200 27.62300
C  11.00500 48.00300 22.83900
C  6.36900 47.43300 23.40900
N  9.27400 48.15900 27.75400
C  8.21100 48.05500 28.68200
C  8.78100 48.31000 30.12300
C  10.19600 48.90100 29.84400
C  10.40000 48.57200 28.35900
C  10.28400 50.40800 29.92000
C  8.74300 47.07900 31.14800
C  8.46100 47.54500 32.55300
H  8.08100 46.42300 33.55000
N  11.00300 48.16100 25.26400
C  11.89600 48.50300 26.28500
C  13.22100 48.65800 25.74800
C  13.07100 48.37200 24.33400
C  11.64600 48.13600 24.09000
C  14.43900 49.02100 26.61000
C  14.10900 48.26500 23.28300
O  13.90300 47.86200 22.16100
C  15.52900 48.51600 23.67800
N  8.73700 47.65000 23.40000
C  9.66500 47.92000 22.52100
C  9.17000 47.86600 20.97000
C  7.74200 47.32000 21.21400
C  7.57100 47.48700 22.74200
C  9.22600 49.35800 20.38600
C  7.40800 45.91400 20.63600
C  6.25100 45.88900 19.68900
N  7.09200 47.59000 25.72000
C  6.07500 47.59300 24.75500
C  4.75700 47.66400 25.39400
C  5.07100 47.65300 26.71000
C  6.43200 47.70100 26.90700
C  3.42100 47.63200 24.76900
C  4.52300 47.69200 28.06400
O  3.33400 47.75500 28.30700
C  5.62600 47.74900 29.12100
C  5.53600 46.52500 29.89100
O  5.74100 45.43500 29.39900
O  5.17800 46.80200 31.19800
C  4.80800 45.66000 31.99300
H  12.39800 48.95800 28.27800
H  11.63800 48.01300 21.95000
H  5.48500 47.37600 22.77100
H  8.21600 49.15300 30.52100
H  10.89700 48.49200 30.57100
H  11.18300 50.81600 29.45800
H  10.38200 50.74000 30.95300
H  9.50700 50.93700 29.36900
H  9.73000 46.61900 31.09800
H  8.08000 46.25500 30.88500
H  7.73700 48.35900 32.53600
H  9.41200 47.88000 32.96600
H  15.18600 48.23300 26.52100
H  14.30000 49.20500 27.67600
H  14.92800 49.96100 26.35500
H  16.05300 48.61400 22.72700
H  15.81300 47.60600 24.20500
H  15.81600 49.34800 24.32100
H  9.87400 47.19700 20.47500
H  7.09500 48.02900 20.69700
H  8.29500 49.90700 20.52600
H  9.49200 49.29200 19.33100
H  10.10400 49.76000 20.89300
H  7.07000 45.28600 21.46000
H  8.19500 45.34400 20.14300
H  6.55800 45.39100 18.76900
H  5.86000 46.86100 19.38900
H  5.33200 45.37800 19.97800
H  2.85400 46.88700 25.32800
H  3.58300 47.46300 23.70500
H  3.04600 48.63200 24.98700
H  5.51400 48.64500 29.73100
H  3.73000 45.58200 31.85200
H  5.05800 45.72800 33.05200
H  5.18000 44.66100 31.76300
Mg -0.35700 43.10900 25.77000
C  2.22300 42.52500 28.27000
C  -2.63800 41.96000 28.11000
C  -2.66500 43.45800 23.41300
C  2.25000 43.66200 23.51700
N  -0.15100 42.34400 27.93400
C  0.94400 42.29200 28.74600
C  0.58000 41.95200 30.20500
C  -0.89200 41.47900 29.97500
C  -1.27300 41.91400 28.55600
C  -1.23500 39.93600 30.16200
C  0.77100 43.14700 31.17300
C  1.18700 42.72300 32.59100
H  0.57600 41.44500 33.13900
N  -2.42000 42.85200 25.80400
C  -3.23000 42.35700 26.84700
C  -4.62600 42.60700 26.49800
C  -4.65100 43.00600 25.11300
C  -3.20900 43.12100 24.68400
C  -5.73200 42.56600 27.55200
C  -5.79400 43.43400 24.29800
O  -5.63000 43.86700 23.17400
C  -7.18900 43.36300 24.79800
N  -0.22900 43.53000 23.83800
C  -1.30100 43.50000 22.99300
C  -0.93100 43.97400 21.52100
C  0.59100 44.36800 21.71700
C  0.90500 43.86700 23.09000
C  -1.33400 42.99800 20.39100
C  1.06800 45.83500 21.53500
C  2.30800 46.09200 20.63500
N  1.78900 43.24000 25.83100
C  2.67100 43.44900 24.81700
C  4.09800 43.44500 25.32300
C  3.92400 43.10700 26.69900
C  2.57800 42.90800 26.94500
C  5.33100 43.64300 24.64100
C  4.57400 42.92000 27.91700
O  5.78900 42.92600 28.22400
C  3.50600 42.55000 28.97700
C  3.84000 41.36400 29.77200
O  3.77000 40.18700 29.40500
O  4.37800 41.69300 31.00300
C  4.58900 40.57400 31.92900
H  -3.31400 41.56200 28.87000
H  -3.42000 43.63300 22.64300
H  3.01100 43.83900 22.75400
H  1.22100 41.12900 30.51900
H  -1.57000 41.95600 30.68300
H  -0.35100 39.40300 30.51500
H  -1.40200 39.57100 29.14900
H  -2.05100 39.74000 30.85700
H  -0.23700 43.53200 31.32500
H  1.38200 43.95600 30.77100
H  0.95400 43.58000 33.22300
H  2.25700 42.54200 32.48200
H  -6.70800 42.20200 27.23000
H  -5.91000 43.54600 27.99500
H  -5.48900 41.85600 28.34200
H  -7.43500 43.62600 25.82700
H  -7.52300 42.33500 24.65600
H  -7.86200 43.85400 24.09500
H  -1.45900 44.90800 21.32700
H  1.15800 43.82700 20.95900
H  -2.14100 42.30800 20.63600
H  -0.51700 42.28600 20.27400
H  -1.68800 43.46100 19.47000
H  1.24400 46.22600 22.53700
H  0.21300 46.43900 21.23300
H  3.19700 45.79000 21.18900
H  2.43200 47.11800 20.28800
H  2.19200 45.37800 19.82000
H  5.33200 44.39500 23.85100
H  5.57500 42.66600 24.22400
H  6.10100 43.89100 25.37200
H  3.46100 43.32100 29.74600
H  5.18100 39.77500 31.48500
H  3.57800 40.38000 32.28800
H  5.05200 40.92400 32.85300

