158

Mg 35.76800 0.49500 29.33200
C  33.53400 1.22500 31.80400
C  38.18300 0.25400 31.65800
C  37.96700 -0.27000 26.90300
C  33.25000 0.74400 26.81200
N  35.85700 0.76700 31.34500
C  34.85000 1.01000 32.24700
C  35.35700 1.19200 33.73000
C  36.87800 1.17300 33.55900
C  37.00400 0.69500 32.07600
C  37.69100 2.53000 33.81500
C  34.88000 -0.06200 34.60400
C  34.74500 0.17600 36.17600
H  35.38300 1.41700 36.67400
N  37.81000 0.02300 29.29600
C  38.61800 -0.07200 30.34400
C  39.93900 -0.56400 29.93100
C  39.85300 -0.64500 28.47100
C  38.53000 -0.28600 28.14200
C  41.00700 -0.97100 30.85400
C  40.86900 -1.20700 27.48500
O  40.62800 -1.42600 26.32300
C  42.27700 -1.82700 28.01700
N  35.56600 0.26800 27.17800
C  36.71100 0.01600 26.40700
C  36.32600 -0.11200 24.92900
C  34.85400 0.37400 24.92200
C  34.44200 0.32500 26.36500
C  37.17100 0.79100 24.02100
C  34.00600 -0.59800 24.12400
C  32.96500 -1.50000 24.72400
N  33.79200 0.96400 29.28600
C  32.91800 1.04100 28.21400
C  31.61000 1.40800 28.75400
C  31.79800 1.45700 30.18700
C  33.15200 1.21300 30.44900
C  30.40200 1.40100 27.96900
C  31.09800 1.54500 31.47700
O  29.95200 1.54300 31.78800
C  32.27900 1.60700 32.56500
C  32.23600 2.98100 33.23500
O  32.43300 4.01200 32.58400
O  32.13700 2.87800 34.55600
C  32.14000 4.06900 35.43200
H  38.90300 0.15300 32.47200
H  38.65800 -0.50000 26.09000
H  32.52000 0.86000 26.00800
H  34.98600 2.13600 34.13000
H  37.34600 0.53100 34.30600
H  37.13700 3.15700 34.51300
H  37.69400 2.93300 32.80300
H  38.67000 2.26100 34.21200
H  35.50900 -0.94400 34.48600
H  33.93500 -0.31300 34.12300
H  35.26900 -0.69500 36.57200
H  33.70000 0.23900 36.47900
H  41.99400 -0.59800 30.57900
H  41.00400 -2.05700 30.76400
H  40.81500 -0.45200 31.79300
H  42.80800 -1.09100 28.62100
H  42.79800 -1.93300 27.06500
H  42.01600 -2.73500 28.56000
H  36.44900 -1.19100 24.84400
H  34.61800 1.33400 24.46400
H  36.48200 1.50600 23.57000
H  37.48100 0.27400 23.11300
H  38.08000 1.14400 24.50800
H  34.72200 -1.04300 23.43400
H  33.37500 -0.08800 23.39600
H  31.92800 -1.22600 24.52800
H  33.18800 -1.76300 25.75800
H  33.05100 -2.41700 24.14100
H  30.26300 0.52400 27.33600
H  30.27600 2.15800 27.19600
H  29.51900 1.52600 28.59600
H  32.09200 0.91500 33.38600
H  32.81700 4.88200 35.16900
H  32.38200 3.77600 36.45300
H  31.12500 4.46500 35.45900
Mg -10.41300 15.96800 42.80400
C  -7.01200 16.91800 43.02900
C  -11.14800 19.30500 42.32500
C  -13.59900 15.06100 42.16100
C  -9.30900 12.60900 42.47300
N  -9.17700 17.86600 42.61100
C  -7.85900 18.01500 42.78900
C  -7.47100 19.53400 42.56400
C  -8.79100 20.27400 42.42900
C  -9.79800 19.10500 42.49600
C  -9.11800 21.45100 43.49300
C  -6.53200 19.55600 41.28600
C  -5.46100 20.62500 41.26400
H  -5.31200 21.34000 39.96200
N  -12.14100 17.03300 42.27600
C  -12.20600 18.40400 42.12400
C  -13.55500 18.72000 41.77000
C  -14.30200 17.48000 41.58800
C  -13.37300 16.44600 42.01400
C  -13.99500 20.14500 41.37200
C  -15.65800 17.35200 41.09000
O  -16.29900 18.36500 40.89000
C  -16.35000 16.01200 40.84000
N  -11.33400 14.09700 42.31100
C  -12.67000 14.02300 42.37000
C  -13.16900 12.55500 42.43800
C  -11.73800 11.79300 42.30400
C  -10.65600 12.86100 42.37300
C  -13.89300 12.20800 43.78600
C  -11.65500 10.69700 41.23300
C  -11.07800 11.16800 39.81900
N  -8.60200 14.90800 42.93300
C  -8.32900 13.57100 42.73900
C  -6.91200 13.36700 42.83000
C  -6.38900 14.64700 43.00700
C  -7.43300 15.58200 43.01900
C  -6.19300 12.06300 42.70200
C  -5.11600 15.32900 43.18800
O  -3.97300 14.85300 43.22100
C  -5.50000 16.89500 43.19200
C  -5.19100 17.39300 44.54700
O  -5.53800 16.86800 45.62800
O  -4.56300 18.61600 44.48300
C  -4.30600 19.47400 45.67200
H  -11.39900 20.36800 42.32500
H  -14.57700 14.59800 42.01300
H  -8.91500 11.59100 42.52000
H  -6.94800 19.99500 43.40200
H  -8.83100 20.72000 41.43500
H  -8.25400 22.07700 43.71700
H  -9.38200 20.95700 44.42800
H  -9.92200 22.03900 43.05300
H  -7.18000 19.65600 40.41500
H  -6.07500 18.58200 41.11200
H  -4.50900 20.12200 41.44000
H  -5.78200 21.42200 41.93500
H  -14.08800 20.14700 40.28600
H  -13.31600 20.89400 41.77900
H  -14.93600 20.20900 41.91900
H  -15.74700 15.30500 40.26900
H  -17.28000 16.11300 40.28000
H  -16.70100 15.61900 41.79400
H  -13.86400 12.41900 41.61000
H  -11.44500 11.17900 43.15600
H  -14.86500 11.89400 43.40500
H  -14.09500 13.06900 44.42300
H  -13.51900 11.31300 44.28500
H  -12.68700 10.39200 41.06200
H  -11.12300 9.80400 41.56000
H  -10.30600 11.93700 39.83600
H  -11.90600 11.43900 39.16400
H  -10.61800 10.27300 39.40100
H  -6.11700 11.56000 43.66600
H  -5.15300 12.21500 42.41400
H  -6.68700 11.25900 42.15700
H  -4.88800 17.51200 42.53400
H  -4.38600 20.54900 45.51300
H  -3.41000 19.12600 46.18600
H  -5.13500 19.29700 46.35700

