158

Mg 2.15500 -1.73600 44.81500
C  5.50600 -1.01200 44.26900
C  1.44700 1.00300 42.72900
C  -1.16300 -2.55000 44.88100
C  3.02200 -4.89900 45.88700
N  3.36700 -0.13800 43.67100
C  4.69400 -0.24300 43.46400
C  5.17600 0.74000 42.36400
C  3.90800 1.63700 42.18800
C  2.79300 0.73300 42.83100
C  4.06800 3.14600 42.70500
C  5.60400 -0.16600 41.16600
C  7.16800 -0.14600 40.94100
H  7.71200 0.41700 39.63600
N  0.37400 -0.77600 44.05500
C  0.30100 0.30400 43.23900
C  -1.10300 0.61400 43.01100
C  -1.85000 -0.46300 43.54100
C  -0.88500 -1.27600 44.27100
C  -1.62100 1.80700 42.23800
C  -3.40600 -0.72000 43.26000
O  -4.03700 0.07500 42.62700
C  -4.18600 -1.86500 43.82000
N  1.11300 -3.47400 45.12700
C  -0.30000 -3.54600 45.29400
C  -0.68900 -4.82700 45.94400
C  0.63500 -5.68000 45.95000
C  1.68900 -4.62300 45.61900
C  -1.38100 -4.62300 47.34600
C  0.75800 -7.04400 45.16400
C  0.00800 -7.14100 43.76400
N  3.86200 -2.73000 45.18800
C  4.15800 -4.00500 45.70400
C  5.60500 -4.14900 45.85900
C  6.14600 -2.95100 45.39100
C  5.07000 -2.12100 44.95900
C  6.17300 -5.47200 46.28300
C  7.40000 -2.21000 45.19100
O  8.62700 -2.42700 45.37400
C  7.02800 -0.82800 44.51400
C  7.21500 0.30500 45.39300
O  7.02000 0.33600 46.61600
O  7.85300 1.37300 44.71000
C  8.23200 2.46200 45.57700
H  1.20100 1.97600 42.29700
H  -2.13800 -3.04000 44.92200
H  3.22100 -5.92600 46.20000
H  5.97300 1.39600 42.71600
H  3.65600 1.82800 41.14400
H  4.18500 3.90800 41.93400
H  5.00100 3.25000 43.25700
H  3.24200 3.27500 43.40500
H  5.05100 0.13800 40.27700
H  5.22700 -1.18100 41.29200
H  7.50600 -1.18200 40.95300
H  7.76900 0.29800 41.73400
H  -2.12200 1.47400 41.32900
H  -0.84900 2.51100 41.92500
H  -2.37800 2.24600 42.88800
H  -5.18800 -1.88700 43.39000
H  -4.24200 -1.82800 44.90800
H  -3.67900 -2.74000 43.41300
H  -1.54900 -5.20500 45.39000
H  0.84000 -5.91100 46.99500
H  -1.36900 -3.57800 47.65400
H  -0.90800 -5.29000 48.06700
H  -2.41900 -4.85600 47.10800
H  0.18200 -7.69000 45.82600
H  1.75400 -7.42300 44.93300
H  0.66400 -7.36100 42.92100
H  -0.53100 -6.21200 43.57700
H  -0.74800 -7.92600 43.78100
H  6.12900 -6.10400 45.39600
H  5.51100 -5.86000 47.05800
H  7.16900 -5.54700 46.72000
H  7.66100 -0.71700 43.63400
H  8.64200 3.33200 45.06600
H  8.96900 2.07700 46.28200
H  7.33200 2.78100 46.10400
Mg 26.20400 0.71000 29.37200
C  28.11500 0.19500 32.02200
C  23.27400 0.56700 31.33800
C  24.24100 0.95200 26.57900
C  28.91200 0.04900 27.36600
N  25.79800 0.27800 31.45400
C  26.77000 0.31500 32.36300
C  26.21500 0.59900 33.76800
C  24.65700 0.71700 33.51900
C  24.51200 0.42900 32.01400
C  23.70400 -0.07800 34.48200
C  26.77200 1.83800 34.48400
C  26.09200 2.23100 35.83100
H  26.71400 2.85500 37.05200
N  24.02100 0.70100 29.04400
C  23.03900 0.67000 29.97100
C  21.73300 0.81700 29.31800
C  21.92100 0.86900 27.93600
C  23.42800 0.83000 27.78200
C  20.53100 0.91400 30.14700
C  20.94700 1.14400 26.81600
O  21.27200 1.17800 25.63500
C  19.47200 1.38000 27.20300
N  26.53300 0.46700 27.25100
C  25.59200 0.73300 26.33800
C  26.15800 0.66100 24.91300
C  27.65200 0.39200 25.20300
C  27.69300 0.19600 26.69500
C  25.57800 -0.40900 23.92700
C  28.52100 1.65000 24.71100
C  28.62900 2.87000 25.63800
N  28.12000 0.23900 29.58000
C  29.16200 0.02300 28.68700
C  30.39800 -0.24900 29.41000
C  30.05700 -0.15300 30.77800
C  28.69300 0.09600 30.80800
C  31.79300 -0.43100 28.89200
C  30.44500 -0.25900 32.16400
O  31.54400 -0.55300 32.60900
C  29.26400 0.11400 33.03500
C  29.12300 -0.90400 34.14500
O  28.80500 -2.03700 34.01200
O  29.31900 -0.23400 35.35500
C  29.46700 -0.98100 36.60400
H  22.38900 0.73600 31.95400
H  23.60700 1.24400 25.73900
H  29.64700 -0.11100 26.57400
H  26.41600 -0.29400 34.35900
H  24.48900 1.79000 33.61400
H  23.16900 -0.82900 33.90100
H  23.02100 0.55300 35.05100
H  24.30600 -0.53500 35.26800
H  26.69400 2.62100 33.73000
H  27.85400 1.73000 34.57100
H  25.93400 1.21000 36.17700
H  25.13100 2.69700 35.61500
H  19.75100 0.37800 29.60600
H  20.18300 1.94100 30.25300
H  20.59600 0.34600 31.07500
H  18.90000 1.67700 26.32400
H  19.62900 2.20500 27.89800
H  19.00400 0.52000 27.68100
H  25.94800 1.65900 24.52800
H  28.02000 -0.56500 24.83500
H  25.44400 -0.06600 22.90200
H  24.68700 -0.82000 24.40100
H  26.32300 -1.17900 23.72400
H  28.23100 2.06400 23.74600
H  29.51000 1.22500 24.54000
H  28.34200 2.63300 26.66200
H  28.03100 3.67500 25.21200
H  29.64400 3.26000 25.72100
H  32.16300 0.43400 28.34200
H  31.65900 -1.32600 28.28400
H  32.49200 -0.58700 29.71300
H  29.53400 1.10400 33.40200
H  28.92200 -0.43000 37.37100
H  30.51700 -1.11100 36.86600
H  28.99300 -1.96100 36.65500

