158

Mg -2.14300 17.19200 27.55400
C  -2.22900 15.15000 30.26500
C  -2.60500 19.94800 29.52400
C  -2.41200 19.21800 24.71000
C  -2.12100 14.42900 25.41400
N  -2.40500 17.47400 29.63300
C  -2.29300 16.50300 30.60200
C  -2.36300 17.21000 32.00200
C  -2.72500 18.68900 31.73100
C  -2.57700 18.71000 30.22100
C  -3.86900 19.26400 32.46800
C  -0.91400 17.09100 32.78500
C  -0.58200 18.03000 34.02000
H  0.32400 17.52000 35.11300
N  -2.29700 19.33500 27.19700
C  -2.48100 20.26400 28.13500
C  -2.40400 21.60000 27.53200
C  -2.32800 21.38300 26.12300
C  -2.35600 19.95100 25.94500
C  -2.40200 22.88600 28.28600
C  -2.21800 22.49100 25.00000
O  -2.34200 22.20800 23.81300
C  -2.14900 23.99300 25.40600
N  -2.38400 16.82200 25.49900
C  -2.51700 17.79300 24.51200
C  -2.58800 17.20500 23.03400
C  -1.95400 15.81000 23.30900
C  -2.12300 15.66800 24.84800
C  -3.92800 17.23200 22.24800
C  -0.49500 15.76700 22.81100
C  0.59500 16.67200 23.33600
N  -2.14900 15.18500 27.74000
C  -2.17600 14.15700 26.81800
C  -2.35100 12.88100 27.47700
C  -2.32100 13.19000 28.85900
C  -2.19300 14.57500 28.92500
C  -2.40500 11.51000 26.79700
C  -2.31600 12.69400 30.19800
O  -2.39000 11.53500 30.56900
C  -2.23700 13.89600 31.11000
C  -1.13200 13.79600 32.09700
O  0.06700 14.04500 31.94300
O  -1.57500 13.32600 33.28000
C  -0.67200 13.27600 34.45400
H  -2.58900 20.86300 30.12000
H  -2.41600 19.83300 23.80700
H  -2.21500 13.57100 24.74400
H  -3.19700 16.84800 32.60200
H  -1.94200 19.39600 32.00300
H  -3.55800 20.09800 33.09800
H  -4.23100 18.50500 33.16100
H  -4.59000 19.61700 31.73100
H  -0.18500 17.32700 32.01000
H  -0.69100 16.07900 33.12300
H  -1.51100 18.33300 34.50300
H  -0.06900 18.93100 33.68100
H  -2.42600 22.74200 29.36600
H  -3.33800 23.32900 27.94600
H  -1.53100 23.50600 28.07200
H  -2.25000 24.57800 24.49200
H  -1.20100 24.17800 25.91000
H  -3.03900 24.31600 25.94600
H  -1.83700 17.72900 22.44400
H  -2.49000 15.00400 22.80900
H  -4.64900 17.91600 22.69600
H  -4.34200 16.22700 22.16000
H  -3.76000 17.73100 21.29400
H  -0.67300 15.93700 21.74900
H  -0.21800 14.74300 23.06000
H  1.19800 16.10200 24.04200
H  0.18400 17.56000 23.81500
H  1.26900 17.09800 22.59300
H  -1.54400 11.44200 26.13300
H  -3.33700 11.45500 26.23400
H  -2.52800 10.84100 27.64900
H  -3.11000 13.94600 31.76100
H  -0.42700 14.26100 34.85100
H  0.24900 12.83400 34.07400
H  -1.11100 12.65900 35.23800
Mg -8.81100 18.18200 43.35600
C  -5.35300 17.65100 43.30800
C  -8.28100 21.43100 42.54200
C  -12.03600 18.43200 42.63300
C  -9.17400 14.53000 43.70000
N  -7.01200 19.28400 42.71700
C  -5.69900 18.87000 42.79200
C  -4.72500 20.09400 42.68200
C  -5.72900 21.25800 42.83300
C  -7.09200 20.64500 42.58500
C  -5.68100 22.01000 44.22300
C  -3.94300 20.08600 41.38000
C  -4.31700 19.12500 40.16400
H  -3.79000 19.47600 38.71500
N  -10.02400 19.71400 42.83200
C  -9.62300 20.97600 42.57500
C  -10.77500 21.80900 42.28200
C  -11.84700 20.99900 42.08200
C  -11.37300 19.66100 42.51900
C  -10.66700 23.30700 42.11600
C  -13.18800 21.34900 41.63800
O  -13.41100 22.54700 41.46800
C  -14.33700 20.40900 41.46900
N  -10.44500 16.63100 43.18300
C  -11.69500 17.08400 42.96000
C  -12.60700 15.86900 43.14700
C  -11.74800 14.55400 43.34900
C  -10.36800 15.30200 43.41600
C  -13.64000 16.10400 44.23900
C  -11.72700 13.48000 42.15900
C  -11.85600 12.04900 42.66900
N  -7.54200 16.48300 43.49200
C  -7.84900 15.07700 43.77400
C  -6.59700 14.39800 44.03100
C  -5.57000 15.36700 43.77800
C  -6.20300 16.62800 43.55200
C  -6.48800 12.91700 44.32800
C  -4.16700 15.59300 43.78200
O  -3.24100 14.85400 43.96000
C  -3.94800 17.15900 43.57700
C  -3.20200 17.89100 44.64100
O  -2.02700 18.28500 44.54500
O  -4.00300 18.09100 45.77700
C  -3.65400 19.23600 46.59900
H  -7.96000 22.46600 42.40700
H  -13.08400 18.60700 42.37800
H  -9.25700 13.49300 44.03100
H  -4.02100 20.13600 43.51200
H  -5.63400 21.98200 42.02300
H  -6.53000 22.64400 44.47800
H  -4.82900 22.68600 44.16500
H  -5.56300 21.29200 45.03500
H  -2.92400 19.82700 41.66800
H  -3.74000 21.08200 40.98800
H  -5.39900 19.00200 40.12400
H  -3.88400 18.13700 40.31800
H  -11.12500 23.57300 41.16400
H  -9.61500 23.59400 42.13700
H  -11.32900 23.75300 42.85800
H  -14.65100 20.04600 42.44800
H  -14.17200 19.54800 40.82100
H  -15.19000 20.99900 41.13600
H  -13.16600 15.71900 42.22300
H  -11.89100 14.15900 44.35500
H  -13.16300 16.09400 45.21900
H  -14.34300 15.27200 44.23400
H  -14.34300 16.92100 44.07500
H  -10.82700 13.54300 41.54800
H  -12.56100 13.68100 41.48600
H  -12.84200 11.67800 42.39200
H  -11.84500 11.89000 43.74700
H  -11.10700 11.43300 42.17100
H  -5.58100 12.77200 44.91600
H  -6.28700 12.40500 43.38700
H  -7.35400 12.51500 44.85400
H  -3.41600 17.24100 42.63000
H  -3.35200 20.13700 46.06400
H  -2.78000 18.99000 47.20100
H  -4.52000 19.46700 47.21800

