158

Mg -1.37200 17.67400 27.23700
C  -2.00100 15.31100 29.79700
C  -1.31000 20.13800 29.57800
C  -1.16700 19.73300 24.72900
C  -2.35300 15.10100 25.06200
N  -1.61600 17.71600 29.43800
C  -1.86900 16.64700 30.27000
C  -1.89200 17.10500 31.75200
C  -1.95800 18.66200 31.58500
C  -1.55200 18.90000 30.10500
C  -3.32800 19.42100 31.79600
C  -0.69200 16.53600 32.53700
C  -0.20000 17.24400 33.81800
H  -0.09200 16.42700 35.12900
N  -1.18900 19.70700 27.11400
C  -1.14800 20.52400 28.18600
C  -0.94000 21.90800 27.68900
C  -0.86800 21.89600 26.28700
C  -1.16200 20.40600 25.94800
C  -0.85600 23.05900 28.71300
C  -0.85800 22.97200 25.31700
O  -0.87300 22.79200 24.10400
C  -0.81800 24.44100 25.77400
N  -1.64400 17.46600 25.22200
C  -1.47700 18.42800 24.34700
C  -1.68100 18.01600 22.87000
C  -1.84400 16.45500 22.97600
C  -1.97200 16.32200 24.49600
C  -2.81100 18.68400 22.10600
C  -0.63300 15.64400 22.45600
C  0.86000 15.91400 22.88200
N  -1.91600 15.62400 27.31400
C  -2.25000 14.72700 26.33200
C  -2.37600 13.39400 26.83100
C  -2.28400 13.59600 28.21100
C  -2.05000 14.94100 28.47600
C  -2.79300 12.25900 25.96100
C  -2.33500 12.90400 29.43700
O  -2.33200 11.69000 29.65300
C  -2.25300 13.98400 30.55600
C  -1.15400 13.51300 31.38100
O  0.04600 13.72300 31.22900
O  -1.68100 12.89200 32.44600
C  -0.67000 12.28300 33.38100
H  -1.21500 20.96400 30.28500
H  -1.03600 20.28400 23.79500
H  -2.48500 14.39300 24.24200
H  -2.87500 16.84800 32.14500
H  -1.14700 19.19600 32.08100
H  -3.99200 19.29700 30.94000
H  -3.08200 20.43700 32.10400
H  -3.86500 18.86700 32.56700
H  0.19000 16.28700 31.94500
H  -1.23500 15.65800 32.88600
H  -0.98000 17.97900 34.01400
H  0.64100 17.93000 33.72400
H  -1.33300 23.90500 28.21900
H  0.15300 23.33500 29.02000
H  -1.36100 22.85000 29.65600
H  -1.73500 24.78700 26.25000
H  -0.69200 25.25100 25.05500
H  0.07100 24.33700 26.39600
H  -0.78000 18.20900 22.28700
H  -2.77700 16.15100 22.50200
H  -2.37400 19.28700 21.31100
H  -3.40300 19.25500 22.82100
H  -3.50000 17.95600 21.67600
H  -0.69100 15.62800 21.36700
H  -0.74400 14.63900 22.86300
H  1.38500 15.00300 23.17000
H  0.96500 16.74000 23.58600
H  1.33000 16.18000 21.93500
H  -2.07500 12.27300 25.14100
H  -3.78600 12.27500 25.51100
H  -2.66500 11.30300 26.46900
H  -3.22600 13.83500 31.02300
H  0.28900 12.06200 32.91300
H  -1.00700 11.30900 33.73600
H  -0.60100 12.85700 34.30500
Mg 40.35700 9.78000 29.35500
C  42.13300 10.52700 32.32900
C  38.06300 8.03300 31.26900
C  38.87100 8.72500 26.51700
C  43.01100 10.96200 27.46800
N  40.28700 9.22300 31.56900
C  41.09500 9.60600 32.57500
C  40.50200 9.25600 33.93800
C  39.39200 8.21100 33.53600
C  39.18300 8.53700 32.05000
C  39.62000 6.69200 33.85200
C  39.92100 10.48700 34.66500
C  40.30600 10.61200 36.17400
H  40.53800 11.98000 36.76200
N  38.67400 8.65100 28.90000
C  37.89900 8.01300 29.83200
C  36.82100 7.25800 29.15400
C  36.97700 7.54300 27.77600
C  38.17700 8.36100 27.65500
C  35.89000 6.36500 29.81500
C  36.15900 7.02900 26.60500
O  36.38500 7.37900 25.45100
C  35.07200 6.10800 26.93700
N  40.94700 9.77100 27.27200
C  40.17100 9.23100 26.34900
C  40.80000 9.39300 24.93900
C  42.04000 10.21400 25.22900
C  41.99300 10.34900 26.77200
C  40.99600 8.03200 24.21300
C  41.88700 11.63600 24.55200
C  40.60200 12.40200 24.78800
N  42.23700 10.56100 29.76600
C  43.17900 11.07900 28.89500
C  44.20400 11.69500 29.65400
C  43.82400 11.60600 30.97700
C  42.61100 10.88900 31.01700
C  45.38700 12.39700 29.23700
C  44.14100 11.86100 32.44700
O  45.13400 12.43500 32.90100
C  43.03100 11.18100 33.36700
C  43.77500 10.23900 34.26800
O  44.47100 9.33000 33.89700
O  43.50500 10.59500 35.53400
C  44.36000 9.93900 36.54500
H  37.34900 7.46300 31.86600
H  38.43200 8.44600 25.55700
H  43.90000 11.37900 26.98900
H  41.09300 8.69000 34.65700
H  38.45200 8.41200 34.05100
H  40.06500 6.21600 32.97800
H  38.69800 6.14300 34.04600
H  40.35800 6.46100 34.62000
H  38.83700 10.42800 34.56500
H  40.24700 11.39300 34.15400
H  41.18900 10.07800 36.52600
H  39.48700 10.16400 36.73700
H  34.84700 6.55900 29.56500
H  35.76000 6.68700 30.84800
H  36.19500 5.32300 29.71000
H  35.37000 5.10500 27.24200
H  34.50100 5.95800 26.02100
H  34.42700 6.76300 27.52300
H  40.03300 9.94800 24.39900
H  42.98200 9.75700 24.92700
H  42.07100 8.01700 24.03700
H  40.62400 7.97300 23.19000
H  40.66100 7.19100 24.81900
H  41.96600 11.53800 23.46900
H  42.80700 12.16300 24.80600
H  40.77700 13.37800 25.24000
H  39.85200 11.92000 25.41500
H  40.09700 12.77200 23.89600
H  45.39100 13.27700 29.88100
H  45.32600 12.75400 28.20900
H  46.31400 11.83400 29.34400
H  42.42600 11.88700 33.93600
H  45.42100 9.92100 36.29400
H  43.86300 8.98300 36.71100
H  44.18700 10.41900 37.50900

