158

Mg 30.36300 57.80300 39.98900
C  27.55200 56.04600 38.98600
C  32.39200 55.36600 38.70800
C  32.90500 59.99300 40.04600
C  28.18700 60.55100 40.58500
N  30.01900 55.90400 39.01300
C  28.75500 55.37800 38.76700
C  28.89400 54.11700 37.88000
C  30.42300 53.72500 38.05700
C  31.01900 55.09800 38.61800
C  30.60400 52.61400 39.04600
C  28.54000 54.45400 36.34400
C  27.37000 53.78800 35.65900
H  26.66700 54.71100 34.62200
N  32.40300 57.67500 39.56800
C  33.06500 56.59000 39.03600
C  34.47600 56.90500 39.12400
C  34.64800 58.20600 39.63800
C  33.27100 58.66400 39.81000
C  35.43500 55.89500 38.66600
C  36.00400 58.86000 39.80200
O  37.05000 58.25300 39.60300
C  36.10800 60.31200 40.36100
N  30.48600 60.03600 40.17600
C  31.71900 60.67300 40.16900
C  31.52200 62.12700 40.61000
C  29.93300 62.28200 40.83300
C  29.52600 60.90400 40.53200
C  32.26300 62.70200 41.87400
C  29.22000 63.44200 40.01800
C  28.27100 64.39000 40.76300
N  28.20800 58.21300 40.01900
C  27.49500 59.28300 40.29900
C  26.08300 58.98200 40.26300
C  26.05300 57.66100 39.76100
C  27.44500 57.31300 39.52000
C  24.96300 59.85000 40.58100
C  25.19000 56.55000 39.22400
O  23.97500 56.56500 39.01000
C  26.15100 55.41600 38.72800
C  25.96100 54.22200 39.57900
O  26.54800 54.04000 40.65400
O  25.23900 53.27900 38.84100
C  24.51400 52.33600 39.65100
H  33.00800 54.49000 38.49800
H  33.69600 60.74500 40.08600
H  27.51000 61.39200 40.74600
H  28.17000 53.35400 38.16600
H  30.91700 53.51900 37.10700
H  29.72400 52.40700 39.65500
H  31.44200 52.89100 39.68600
H  30.98100 51.73100 38.53100
H  29.48600 54.41200 35.80300
H  28.28600 55.51300 36.33300
H  26.63800 53.42700 36.38200
H  27.71100 52.93500 35.07300
H  35.91500 56.10500 37.71000
H  35.00500 54.91000 38.48400
H  36.19700 55.91700 39.44500
H  35.62500 60.95800 39.62800
H  37.17700 60.47900 40.49600
H  35.65900 60.40900 41.34900
H  31.75100 62.70100 39.71200
H  29.75700 62.31500 41.90800
H  33.04100 62.06000 42.28900
H  31.60400 63.06600 42.66200
H  32.86700 63.54800 41.54700
H  28.70300 63.20100 39.09000
H  30.05200 64.09000 39.74300
H  27.34200 64.22800 40.21700
H  28.43800 65.46600 40.71200
H  28.13300 64.15500 41.81800
H  24.06200 59.24900 40.70300
H  24.76100 60.52100 39.74600
H  25.09200 60.44800 41.48300
H  26.09800 55.08400 37.69100
H  24.46100 52.69800 40.67800
H  25.00000 51.36000 39.66700
H  23.48300 52.14800 39.34900
Mg 34.92100 49.12700 25.92400
C  35.90300 47.14300 28.59600
C  34.05000 51.60200 28.19500
C  33.92700 50.88900 23.35900
C  35.92200 46.59100 23.84000
N  35.13100 49.37400 28.12600
C  35.50200 48.42600 29.02000
C  35.41900 48.95000 30.44100
C  34.38500 50.14800 30.29400
C  34.63700 50.49100 28.77400
C  32.84000 49.82300 30.60100
C  36.85400 49.50500 30.83300
C  37.24400 49.27900 32.30800
H  36.12200 49.11500 33.45900
N  33.97900 50.92800 25.78000
C  33.71300 51.84700 26.83000
C  33.26100 53.09800 26.23500
C  33.31700 53.01000 24.79100
C  33.74600 51.57200 24.59400
C  33.02500 54.32200 27.09700
C  32.96500 54.01900 23.72300
O  33.16500 53.75200 22.54900
C  32.49200 55.33000 24.12400
N  34.83800 48.76500 23.81300
C  34.34000 49.59000 22.94300
C  34.42600 49.10600 21.44900
C  35.32300 47.79400 21.69100
C  35.39700 47.74800 23.20300
C  33.08400 48.66800 20.75300
C  36.66200 47.74600 20.91300
C  37.85100 48.25700 21.69300
N  35.77100 47.24700 26.13100
C  36.08900 46.34600 25.17000
C  36.69400 45.16800 25.73700
C  36.56100 45.36000 27.12700
C  36.03300 46.65300 27.29200
C  37.11800 43.92600 24.93200
C  36.81900 44.80100 28.46500
O  37.30600 43.74100 28.75600
C  36.37700 45.95600 29.48100
C  35.39700 45.46200 30.47600
O  34.16100 45.37900 30.32800
O  36.05800 45.17100 31.67800
C  35.30100 44.71100 32.80800
H  33.79200 52.34700 28.95100
H  33.70400 51.48500 22.47100
H  36.28300 45.82600 23.15000
H  34.96000 48.21000 31.09700
H  34.71300 50.97100 30.92900
H  32.65800 48.75600 30.73400
H  32.22800 50.20200 29.78300
H  32.56800 50.33800 31.52200
H  37.04200 50.54400 30.56500
H  37.49600 48.82200 30.27600
H  37.91000 50.08300 32.62100
H  37.83700 48.36400 32.33900
H  32.25900 54.95000 26.64300
H  33.92000 54.93600 27.20000
H  32.62100 53.97000 28.04600
H  32.32400 55.94200 23.23800
H  33.17900 55.81300 24.81900
H  31.45900 55.29400 24.46900
H  34.98000 49.88300 20.92200
H  34.77500 46.86900 21.51300
H  32.84700 47.60500 20.72600
H  33.08800 49.06400 19.73800
H  32.23800 49.09500 21.29100
H  36.46700 48.35200 20.02800
H  36.94500 46.74300 20.59400
H  37.69200 48.61400 22.71000
H  38.29200 49.12000 21.19400
H  38.51100 47.39000 21.73900
H  37.37300 44.19900 23.90800
H  36.34400 43.16000 24.87400
H  37.91000 43.49200 25.54300
H  37.22700 46.42900 29.97100
H  35.37700 43.63500 32.96300
H  34.27900 45.09000 32.81300
H  35.73200 45.17600 33.69500

