158

Mg 1.39800 -0.71300 43.04800
C  4.92400 0.09500 42.69800
C  0.79300 2.14500 41.33000
C  -1.75300 -1.89500 42.62000
C  2.44400 -3.88300 44.24600
N  2.74200 0.83100 42.03500
C  4.05900 1.05600 42.14500
C  4.45500 2.33200 41.40800
C  3.11500 3.11300 41.15000
C  2.15700 1.96000 41.51700
C  2.90900 4.36600 41.99400
C  5.25600 1.98100 40.08200
C  6.70200 2.55500 39.85000
H  6.91000 3.19500 38.42000
N  -0.32200 0.09600 42.21100
C  -0.29600 1.23900 41.46500
C  -1.64600 1.49700 41.10500
C  -2.44000 0.34100 41.49900
C  -1.52900 -0.55600 42.12500
C  -2.02200 2.85000 40.51900
C  -3.88200 0.12200 41.20700
O  -4.63800 0.90800 40.57300
C  -4.72000 -1.03000 41.65000
N  0.45000 -2.63000 43.46900
C  -0.88800 -2.84400 43.23700
C  -1.35900 -4.20300 43.83800
C  0.07300 -4.96300 44.12600
C  1.06900 -3.77800 43.95600
C  -2.13600 -4.03100 45.19000
C  0.50900 -6.15300 43.13800
C  0.85800 -7.47400 43.85700
N  3.24900 -1.71600 43.48000
C  3.49700 -2.95200 44.02100
C  4.92100 -3.18800 44.11400
C  5.51700 -1.98600 43.65800
C  4.45300 -1.12000 43.27400
C  5.57400 -4.42300 44.66400
C  6.76300 -1.25700 43.51100
O  7.90800 -1.58500 43.81100
C  6.39400 0.12100 42.84000
C  6.97300 1.20300 43.71200
O  6.49000 1.49500 44.80700
O  8.08200 1.88400 43.15200
C  8.67700 2.99700 43.93200
H  0.48300 3.14500 41.02000
H  -2.79200 -2.23300 42.64600
H  2.69100 -4.91100 44.52100
H  5.13200 2.90400 42.04200
H  2.87100 3.49500 40.15900
H  3.88600 4.61200 42.41200
H  2.06600 4.23200 42.67200
H  2.60400 5.17800 41.33500
H  4.58600 2.25700 39.26800
H  5.36000 0.89600 40.04900
H  7.47600 1.79500 39.95400
H  6.76400 3.35700 40.58500
H  -2.31400 3.56400 41.28800
H  -2.90100 2.80500 39.87600
H  -1.23700 3.31900 39.92600
H  -5.76500 -0.72600 41.70800
H  -4.46100 -1.11900 42.70500
H  -4.53900 -1.98700 41.15900
H  -1.85600 -4.82300 43.09200
H  0.20900 -5.31000 45.15000
H  -3.01200 -4.67600 45.13100
H  -2.35500 -2.96400 45.22800
H  -1.49000 -4.41000 45.98200
H  1.31500 -5.81100 42.48900
H  -0.35500 -6.26900 42.48300
H  -0.00400 -8.12900 43.72600
H  1.06100 -7.19200 44.89000
H  1.75900 -7.83300 43.35900
H  5.44500 -5.33900 44.08700
H  5.11300 -4.55000 45.64300
H  6.63000 -4.25500 44.87500
H  6.92800 0.33100 41.91400
H  8.79700 2.71800 44.97900
H  8.02300 3.86800 43.90500
H  9.72000 3.18300 43.67500
Mg 47.83200 15.29900 27.61100
C  45.68500 15.20200 30.28600
C  49.81400 17.53600 29.21100
C  49.64100 15.37500 24.85500
C  45.24800 13.40900 25.86600
N  47.73000 16.31500 29.38300
C  46.86500 15.92100 30.47300
C  47.29300 16.57000 31.84300
C  48.46700 17.54300 31.31700
C  48.66300 17.21400 29.87500
C  48.17700 19.05700 31.61700
C  47.80000 15.41900 32.83400
C  47.50200 15.67100 34.34200
H  48.82900 16.07000 35.08000
N  49.50800 16.26800 27.12900
C  50.23400 17.08000 27.95700
C  51.49600 17.24300 27.31300
C  51.51900 16.55200 26.08600
C  50.20100 16.02800 25.97700
C  52.68800 18.09800 27.95100
C  52.54700 16.39100 25.06200
O  52.41400 15.76000 24.02900
C  53.91400 17.02900 25.30400
N  47.47900 14.58500 25.66700
C  48.39100 14.76100 24.69800
C  47.85000 14.41900 23.34800
C  46.71200 13.39300 23.74400
C  46.40400 13.76500 25.23100
C  47.34900 15.59400 22.56100
C  47.05000 11.89800 23.48100
C  47.35000 11.10100 24.70400
N  45.79700 14.43800 27.93000
C  44.92000 13.69800 27.18000
C  43.85200 13.28600 27.98100
C  44.06000 13.82100 29.30400
C  45.27300 14.53200 29.15000
C  42.67400 12.46700 27.50500
C  43.62300 13.99500 30.66700
O  42.63200 13.52300 31.18600
C  44.61100 14.92900 31.37800
C  43.80000 16.05900 31.94600
O  43.72500 17.20200 31.41900
O  43.21400 15.69000 33.17800
C  42.71600 16.83600 33.99700
H  50.54300 18.12500 29.77100
H  50.18900 15.38700 23.91100
H  44.58400 12.73200 25.32400
H  46.45200 17.07900 32.31500
H  49.34600 17.26100 31.89600
H  48.34700 19.73100 30.77800
H  48.80700 19.33600 32.46100
H  47.17100 19.30200 31.95800
H  48.88300 15.29800 32.84600
H  47.42200 14.44800 32.51400
H  47.14600 14.76500 34.83400
H  46.80800 16.50700 34.42500
H  53.63600 17.58700 27.78200
H  52.62600 18.28100 29.02400
H  52.75800 19.10800 27.54800
H  53.81600 18.08400 25.56300
H  54.62700 16.90800 24.48900
H  54.27500 16.41600 26.12900
H  48.54700 13.82000 22.76400
H  45.87200 13.66400 23.10500
H  46.29200 15.75100 22.77200
H  47.40600 15.51700 21.47600
H  47.86700 16.51100 22.84400
H  47.77800 11.77700 22.67900
H  46.17400 11.41400 23.04800
H  47.71000 10.10900 24.43200
H  46.48500 11.08000 25.36700
H  48.12600 11.67600 25.20800
H  42.12100 12.01700 28.33000
H  42.91200 11.73300 26.73600
H  42.11800 13.28100 27.04000
H  45.00300 14.32500 32.19700
H  41.62800 16.78000 34.02900
H  43.00700 17.83900 33.68500
H  43.09500 16.66500 35.00500

