158

Mg 17.38400 -0.77900 28.61400
C  15.80800 0.90200 31.35700
C  19.22300 -2.54100 30.88300
C  18.78300 -2.27600 26.06700
C  15.42800 1.14700 26.47500
N  17.53400 -0.84500 30.88800
C  16.82900 0.02300 31.76600
C  17.15400 -0.27800 33.25300
C  18.30500 -1.39800 32.99200
C  18.42800 -1.60400 31.49300
C  19.53100 -1.01000 33.80400
C  15.93200 -0.83600 34.01400
C  15.59100 -0.27600 35.40000
H  16.73800 0.22400 36.26600
N  18.78000 -2.28500 28.45700
C  19.40100 -2.88000 29.57400
C  20.25000 -3.97400 29.07800
C  20.15200 -3.94100 27.65300
C  19.26700 -2.78500 27.31100
C  21.08200 -4.91000 30.01100
C  20.68200 -4.84800 26.60500
O  20.33600 -4.71600 25.44900
C  21.60700 -6.00500 27.12500
N  17.08800 -0.69200 26.58300
C  17.85300 -1.33500 25.73500
C  17.53000 -0.92800 24.24600
C  16.34100 0.06900 24.39300
C  16.31000 0.20200 25.90100
C  18.80900 -0.47600 23.49900
C  15.04000 -0.34200 23.67500
C  13.93100 -1.06900 24.44000
N  15.99200 0.80600 28.84400
C  15.23700 1.39500 27.85500
C  14.31700 2.36900 28.54200
C  14.49200 2.10700 29.90800
C  15.51200 1.15300 30.02500
C  13.23800 3.20900 27.87700
C  14.06500 2.59200 31.16900
O  13.22200 3.31800 31.53500
C  15.00200 1.89200 32.21100
C  15.90300 2.86500 32.87100
O  16.99700 3.29200 32.46900
O  15.19400 3.33100 33.97600
C  15.82600 4.44700 34.63700
H  19.75300 -3.05500 31.68700
H  19.19600 -2.83300 25.22400
H  14.77900 1.72900 25.81700
H  17.61800 0.61100 33.67900
H  17.98500 -2.31100 33.49600
H  19.91600 -1.75500 34.49900
H  19.40500 -0.04500 34.29600
H  20.39100 -0.78200 33.17400
H  15.91800 -1.89100 34.28900
H  15.03600 -0.60000 33.44000
H  15.00700 -1.03100 35.92600
H  14.94600 0.60000 35.33300
H  20.84600 -5.97400 30.04600
H  21.05500 -4.62300 31.06200
H  22.06800 -4.83600 29.55300
H  21.13100 -6.54400 27.94400
H  22.47800 -5.55500 27.60100
H  22.02000 -6.67900 26.37500
H  17.19200 -1.87500 23.82500
H  16.60000 1.03100 23.94900
H  18.73900 0.46800 22.95700
H  19.11500 -1.29200 22.84500
H  19.56200 -0.28500 24.26300
H  15.29200 -0.88600 22.76500
H  14.63000 0.58700 23.27800
H  13.12600 -1.51500 23.85600
H  13.41600 -0.44900 25.17400
H  14.44600 -1.89300 24.93400
H  12.88500 2.56000 27.07600
H  13.57700 4.19700 27.56600
H  12.46300 3.11300 28.63800
H  14.36700 1.29700 32.86900
H  15.84600 5.34700 34.02300
H  16.84000 4.19300 34.94500
H  15.26500 4.81800 35.49500
Mg 30.51100 57.98700 40.45500
C  27.65700 55.99900 39.46400
C  32.51000 55.60000 39.12500
C  33.01000 60.04400 40.72500
C  28.19500 60.46300 41.30400
N  30.13700 56.03700 39.48800
C  28.94800 55.44500 39.19700
C  29.13600 54.03600 38.56500
C  30.70900 53.92400 38.49400
C  31.18400 55.25100 39.15400
C  31.35200 52.66700 39.20300
C  28.52300 53.79000 37.19400
C  28.68100 54.89500 36.12300
H  27.43000 55.38000 35.33000
N  32.53000 57.82100 40.04400
C  33.16700 56.76800 39.49300
C  34.59000 57.05100 39.36900
C  34.81900 58.30200 39.97700
C  33.43500 58.82600 40.26600
C  35.52600 56.07600 38.77500
C  36.14600 58.99700 40.10300
O  37.20500 58.42000 39.81700
C  36.15100 60.43100 40.63000
N  30.60000 59.97000 40.80200
C  31.74600 60.60700 41.01900
C  31.41800 62.06400 41.44500
C  29.92200 62.06500 41.88600
C  29.54100 60.71200 41.28800
C  32.38800 62.59100 42.43000
C  29.07800 63.21900 41.18900
C  27.98500 63.89200 42.12900
N  28.33900 58.28200 40.44000
C  27.55700 59.29100 40.82300
C  26.14700 59.05100 40.60600
C  26.15800 57.69100 40.12500
C  27.49300 57.32300 39.98700
C  25.07600 60.05600 40.85000
C  25.23300 56.59900 39.66300
O  24.05600 56.41700 39.51600
C  26.23500 55.45200 39.19800
C  25.95200 54.16200 39.90100
O  26.50000 53.74900 40.89300
O  24.84200 53.58600 39.38700
C  24.36600 52.37100 40.09300
H  33.22500 54.87600 38.72800
H  33.84800 60.68400 41.01000
H  27.46600 61.24300 41.53200
H  28.66800 53.29300 39.21000
H  31.00600 54.05800 37.45300
H  32.08700 52.96600 39.95100
H  31.74100 51.97000 38.46200
H  30.59200 52.10400 39.74400
H  27.51000 53.42600 37.36600
H  29.11300 52.94600 36.83800
H  29.52300 54.60400 35.49500
H  29.02100 55.84700 36.53000
H  36.35400 56.56300 38.25900
H  35.10600 55.50800 37.94500
H  36.01600 55.37600 39.45200
H  35.64100 61.10800 39.94400
H  37.20000 60.71800 40.70100
H  35.83600 60.46200 41.67300
H  31.58400 62.50700 40.46300
H  29.75000 62.24400 42.94700
H  33.07300 61.82300 42.78900
H  31.91100 62.98300 43.32800
H  32.98800 63.40400 42.02200
H  28.51200 62.97400 40.29000
H  29.76300 63.98900 40.83400
H  27.22800 64.42500 41.55400
H  28.41700 64.64400 42.79000
H  27.61400 63.14800 42.83300
H  25.26400 60.80600 41.61800
H  24.11900 59.54400 40.95700
H  24.90000 60.50800 39.87400
H  26.09600 55.12300 38.16800
H  24.39000 51.43200 39.53900
H  23.30800 52.59900 40.22300
H  24.57600 52.14400 41.13900

