158

Mg 25.03600 -7.14600 47.82800
C  27.55200 -5.01300 46.72400
C  23.01200 -6.19200 45.29400
C  23.25500 -9.93700 48.37300
C  27.73600 -8.85000 49.63100
N  25.39400 -5.84000 46.10400
C  26.45700 -5.05700 45.90900
C  26.20300 -4.10600 44.68400
C  24.64800 -4.41600 44.37900
C  24.30100 -5.60200 45.27700
C  23.61600 -3.31000 44.56600
C  27.26800 -4.40200 43.63700
C  27.96300 -3.20600 43.06500
H  27.60500 -2.86300 41.64200
N  23.21300 -7.83200 47.08500
C  22.56800 -7.31000 45.97200
C  21.32200 -7.97600 45.87000
C  21.29700 -9.10800 46.77300
C  22.64600 -9.04800 47.44300
C  20.37100 -7.58900 44.81500
C  20.18900 -10.15800 46.85700
O  19.27600 -10.09900 46.04500
C  20.13600 -11.17400 47.97400
N  25.43800 -9.13600 48.83600
C  24.45200 -10.09100 49.02500
C  24.87700 -11.31600 49.83100
C  26.44900 -10.96200 50.03100
C  26.53000 -9.57500 49.48500
C  24.17700 -11.55300 51.18200
C  27.44300 -11.89600 49.28900
C  27.82500 -11.76300 47.75900
N  27.11700 -6.90500 48.31700
C  28.02800 -7.61300 49.06300
C  29.35100 -6.84800 49.12500
C  29.14900 -5.77900 48.32200
C  27.86500 -5.96800 47.72100
C  30.58300 -7.21700 49.94800
C  29.75100 -4.62300 47.85200
O  30.76600 -4.02900 48.06700
C  28.71700 -4.01100 46.75200
C  28.36500 -2.62900 47.09500
O  28.20600 -2.19300 48.20400
O  28.34300 -1.84300 45.98700
C  27.93400 -0.44000 46.36400
H  22.23000 -5.88800 44.59600
H  22.72700 -10.86000 48.62100
H  28.54400 -9.38600 50.13200
H  26.22700 -3.13300 45.17500
H  24.56300 -4.94600 43.43100
H  24.18300 -2.38600 44.67600
H  23.04100 -3.47500 45.47700
H  22.97100 -3.22300 43.69100
H  26.73200 -4.99200 42.89300
H  28.05900 -5.02200 44.05800
H  29.03700 -3.31300 43.21800
H  27.70200 -2.29400 43.60200
H  19.82900 -6.64700 44.90500
H  19.59100 -8.30800 44.56800
H  20.93700 -7.54900 43.88300
H  20.52800 -10.82700 48.93000
H  20.61800 -12.11100 47.69500
H  19.10100 -11.44600 48.18100
H  24.76600 -12.26100 49.29900
H  26.64600 -10.84400 51.09700
H  24.79900 -11.45400 52.07100
H  23.76200 -12.56100 51.17000
H  23.35500 -10.83900 51.23800
H  27.16400 -12.94800 49.34500
H  28.31800 -11.89200 49.93900
H  27.73900 -12.75700 47.32000
H  28.78400 -11.24600 47.71900
H  27.13800 -11.07100 47.27200
H  30.73200 -8.28500 50.11000
H  30.58000 -6.78100 50.94700
H  31.55400 -7.01800 49.49400
H  29.24300 -4.00700 45.79800
H  26.96300 -0.39000 46.85800
H  27.77500 0.01800 45.38800
H  28.76900 -0.00200 46.91100
Mg 41.51300 8.15800 29.43700
C  43.16200 9.78500 31.95900
C  39.15700 6.91800 31.75000
C  40.21100 6.17900 27.10500
C  44.25000 8.89800 27.35900
N  41.17100 8.36200 31.50400
C  42.03100 9.05500 32.39100
C  41.58300 8.89000 33.92000
C  40.37200 8.00700 33.82500
C  40.21100 7.69700 32.27100
C  40.10400 6.74600 34.68900
C  41.15800 10.31500 34.54000
C  40.25600 10.36800 35.77500
H  40.79500 11.02000 37.04800
N  39.75700 6.99900 29.37300
C  38.86200 6.69800 30.38200
C  37.70400 6.00500 29.77800
C  38.03200 5.83500 28.44100
C  39.39800 6.30500 28.26500
C  36.55700 5.54100 30.65900
C  37.16700 5.32600 27.28500
O  37.55000 5.15500 26.11800
C  35.68800 5.23800 27.59700
N  42.23800 7.45300 27.55700
C  41.48900 6.75000 26.74800
C  42.06600 6.64400 25.29200
C  43.24800 7.59100 25.36500
C  43.27900 8.01900 26.84700
C  42.30300 5.13500 24.91500
C  43.02000 8.89900 24.46700
C  41.97900 9.96600 24.96600
N  43.32600 9.17500 29.55400
C  44.30700 9.41600 28.65800
C  45.33200 10.28100 29.25100
C  44.90900 10.54200 30.55600
C  43.69100 9.82800 30.70700
C  46.54300 10.77400 28.49200
C  45.24800 11.18100 31.77400
O  46.17200 11.93000 32.14200
C  44.03900 10.68300 32.72400
C  44.65100 10.04600 33.89300
O  45.37800 9.07100 33.73200
O  44.32900 10.52900 35.11600
C  44.54100 9.70400 36.35200
H  38.46300 6.59300 32.52800
H  39.85500 5.39400 26.43500
H  45.06700 9.25300 26.72800
H  42.33900 8.36800 34.50700
H  39.46400 8.60900 33.86400
H  39.78300 5.88200 34.10700
H  39.30600 6.92100 35.41000
H  40.98900 6.53800 35.29000
H  40.52500 10.80100 33.79800
H  42.06300 10.90200 34.69500
H  40.13500 9.30100 35.95900
H  39.26100 10.74900 35.54600
H  35.67900 6.18200 30.73700
H  36.80200 5.39100 31.71100
H  36.21500 4.62300 30.18100
H  35.12100 5.01200 26.69400
H  35.40600 6.22300 27.96900
H  35.56900 4.35500 28.22500
H  41.30900 7.09900 24.65300
H  44.21600 7.10600 25.24000
H  43.04200 5.12200 24.11500
H  41.35200 4.67100 24.65300
H  42.69900 4.60700 25.78300
H  42.71700 8.57000 23.47200
H  43.98200 9.36300 24.25100
H  41.65600 10.58700 24.13100
H  42.53900 10.52300 25.71700
H  41.10200 9.54200 25.45500
H  47.30900 10.77400 29.26700
H  46.31800 11.79100 28.17100
H  46.78800 10.17200 27.61700
H  43.57600 11.56500 33.16600
H  44.84300 8.70300 36.04100
H  43.59100 9.66700 36.88500
H  45.27100 10.14600 37.03000

