158

Mg 40.99500 9.13400 29.44000
C  42.45400 10.28600 32.53900
C  38.53600 7.72700 31.28200
C  39.96400 7.64300 26.76800
C  43.99800 10.01400 28.00900
N  40.60300 8.98500 31.64600
C  41.21500 9.64500 32.73300
C  40.38500 9.62000 34.03900
C  39.15600 8.74500 33.63400
C  39.39700 8.49500 32.08500
C  39.08500 7.45700 34.41900
C  40.04900 11.08200 34.45600
C  39.03300 11.24700 35.65400
H  39.58300 11.42800 37.07300
N  39.40100 7.92300 29.05400
C  38.48400 7.47700 29.92900
C  37.40900 6.72400 29.18400
C  37.74700 6.79600 27.82300
C  39.04800 7.49300 27.86200
C  36.33200 5.93000 29.92200
C  37.03200 6.27500 26.62800
O  37.46100 6.24800 25.46200
C  35.64100 5.64800 26.82900
N  41.97400 8.64600 27.67800
C  41.24200 8.20500 26.62600
C  41.79500 8.39500 25.24100
C  43.07200 9.21800 25.65900
C  43.00900 9.38500 27.19200
C  42.26400 7.16400 24.44800
C  43.23700 10.56000 24.93300
C  42.03100 11.49200 25.02600
N  42.70900 10.10000 30.00800
C  43.86900 10.33400 29.33100
C  44.82000 11.10200 30.04700
C  44.23400 11.23300 31.30600
C  43.02700 10.49300 31.27800
C  46.08800 11.57300 29.61900
C  44.43400 11.78400 32.65200
O  45.22100 12.64300 33.08900
C  43.33000 11.11800 33.49000
C  43.86500 10.15200 34.55700
O  44.81400 9.38200 34.47500
O  43.00700 10.12000 35.65100
C  43.45000 9.23100 36.77200
H  37.65700 7.37500 31.82700
H  39.53600 7.22500 25.85500
H  44.83600 10.50000 27.50600
H  41.00400 9.14100 34.79800
H  38.15900 9.18300 33.59500
H  39.09700 6.57500 33.77900
H  38.17200 7.40000 35.01100
H  39.91400 7.51200 35.12500
H  39.60300 11.62200 33.62100
H  40.95700 11.53200 34.85600
H  38.40600 10.36500 35.78700
H  38.31400 12.04300 35.46400
H  36.45100 5.97600 31.00400
H  36.28200 4.85500 29.74600
H  35.40100 6.41600 29.63000
H  35.74800 4.87400 27.58800
H  35.30700 5.31300 25.84600
H  34.83200 6.31100 27.13600
H  41.20900 8.95500 24.51300
H  44.02300 8.74300 25.41600
H  43.20700 6.77600 24.83300
H  42.46300 7.48200 23.42500
H  41.62600 6.29300 24.59500
H  43.38300 10.33000 23.87800
H  44.03100 11.13300 25.41400
H  42.19100 12.48300 25.45100
H  41.30400 11.11000 25.74200
H  41.43000 11.66600 24.13300
H  46.08000 12.38700 28.89500
H  46.46700 10.71800 29.06000
H  46.82500 11.72800 30.40700
H  42.74100 11.93000 33.91600
H  44.38200 9.59100 37.20700
H  43.56600 8.18300 36.49500
H  42.76800 9.21900 37.62300
Mg -11.58900 16.17500 41.48100
C  -8.45300 14.66400 41.18500
C  -10.09400 19.05600 40.45200
C  -14.65100 17.42200 40.87800
C  -13.02300 13.06700 42.16900
N  -9.55600 16.70400 40.60700
C  -8.38600 15.94600 40.71000
C  -7.14800 16.72300 40.32100
C  -7.63700 18.17200 40.46000
C  -9.18900 17.98900 40.50600
C  -7.09700 18.94000 41.74100
C  -6.58100 16.42400 38.88400
C  -5.05600 16.43400 38.76200
H  -4.64500 16.93500 37.40300
N  -12.33800 17.91600 40.86700
C  -11.54700 19.02200 40.58300
C  -12.41400 20.14400 40.25500
C  -13.78500 19.76500 40.33800
C  -13.60800 18.31100 40.71800
C  -11.89700 21.46900 39.94500
C  -15.02500 20.49600 39.91600
O  -14.89900 21.62600 39.49200
C  -16.43000 19.96700 40.06300
N  -13.63100 15.32100 41.46100
C  -14.67700 16.03700 41.26400
C  -15.97200 15.22800 41.48300
C  -15.44300 13.82300 41.94200
C  -13.93700 14.10900 41.96900
C  -16.94900 15.92800 42.51800
C  -15.72700 12.70800 40.96600
C  -16.18500 11.36200 41.63100
N  -10.90500 14.24500 41.82900
C  -11.55700 13.09400 42.19500
C  -10.57800 12.05600 42.48900
C  -9.33200 12.62800 42.13400
C  -9.60800 13.90900 41.63600
C  -10.90700 10.63000 42.96400
C  -7.87400 12.43800 42.10500
O  -7.08600 11.62400 42.60700
C  -7.29300 13.71600 41.40200
C  -6.29300 14.28300 42.39300
O  -6.57700 14.84200 43.45000
O  -5.02500 14.01300 41.98800
C  -3.98600 14.55800 42.82300
H  -9.66800 20.03900 40.24100
H  -15.63900 17.87400 40.77500
H  -13.51700 12.10600 42.32800
H  -6.32500 16.50800 41.00400
H  -7.49000 18.73500 39.53800
H  -7.95300 19.09200 42.39900
H  -6.87000 19.99100 41.56200
H  -6.35200 18.31700 42.23500
H  -6.87100 17.03800 38.03200
H  -6.80500 15.38300 38.65200
H  -4.66200 15.42200 38.85800
H  -4.56700 17.03400 39.53000
H  -12.14800 21.66000 38.90200
H  -10.84700 21.70200 40.11800
H  -12.33900 22.25200 40.56100
H  -17.24700 20.68100 39.96400
H  -16.47700 19.65600 41.10700
H  -16.59500 19.08400 39.44500
H  -16.42500 15.20100 40.49100
H  -15.86300 13.52200 42.90100
H  -17.89100 16.16200 42.02100
H  -16.45700 16.85400 42.81700
H  -17.16300 15.25200 43.34600
H  -14.99700 12.42200 40.20900
H  -16.63900 12.94700 40.41900
H  -16.21400 11.47000 42.71500
H  -15.47700 10.61600 41.27200
H  -17.22700 11.06700 41.50600
H  -11.84500 10.68300 43.51600
H  -10.10400 10.12800 43.50400
H  -11.07100 10.15500 41.99700
H  -6.83200 13.40800 40.46300
H  -4.17100 15.63200 42.83400
H  -3.00800 14.19500 42.50600
H  -4.18100 14.24200 43.84800

