158

Mg 29.92900 57.74100 41.07500
C  27.09500 55.77300 40.14300
C  31.89000 55.26600 39.55200
C  32.46100 59.84700 41.38000
C  27.66300 60.34500 41.93100
N  29.57000 55.69400 40.05500
C  28.31200 55.09100 39.81400
C  28.45500 53.71400 39.21300
C  29.96800 53.63100 38.93300
C  30.52700 54.87200 39.60300
C  30.60400 52.21900 39.23200
C  27.53200 53.52900 37.90100
C  27.40900 54.79200 36.95200
H  27.73700 54.68300 35.47600
N  31.88300 57.52500 40.70200
C  32.50500 56.47600 40.07100
C  33.97300 56.75600 40.03300
C  34.14700 58.01000 40.59800
C  32.76500 58.55200 40.87900
C  34.91700 55.68800 39.60300
C  35.48700 58.68700 40.83100
O  36.51900 58.06800 40.57600
C  35.68800 60.13700 41.23800
N  30.03900 59.81800 41.56800
C  31.20600 60.40100 41.70700
C  31.04000 61.89700 41.82900
C  29.57300 62.05500 42.26100
C  29.02100 60.64300 41.87400
C  32.02100 62.70200 42.69800
C  28.88000 63.36700 41.63600
C  27.97600 64.22100 42.58800
N  27.82700 58.01600 41.07700
C  27.06100 59.12200 41.49900
C  25.66600 58.80900 41.25400
C  25.66500 57.45900 40.89000
C  26.98800 57.06000 40.72700
C  24.47900 59.71200 41.36700
C  24.76200 56.46600 40.46100
O  23.52100 56.45000 40.44400
C  25.64900 55.25900 39.94400
C  25.38200 54.15700 40.84600
O  25.73000 54.15500 42.03900
O  24.82000 53.08800 40.23300
C  24.57900 51.88100 41.07800
H  32.59800 54.57700 39.08600
H  33.30800 60.53600 41.34900
H  27.00700 61.20200 42.09700
H  28.19200 53.02000 40.01100
H  30.07000 53.71200 37.85100
H  30.19800 51.56600 38.45900
H  30.22800 51.80400 40.16800
H  31.68900 52.30100 39.18000
H  26.52000 53.29200 38.22700
H  27.87000 52.72400 37.24900
H  28.22300 55.42500 37.30400
H  26.49200 55.38200 36.93700
H  35.96900 55.97500 39.58500
H  34.66800 55.25800 38.63200
H  34.81800 54.87600 40.32300
H  35.36700 60.73600 40.38600
H  36.75200 60.37000 41.27800
H  35.17200 60.35600 42.17200
H  31.21600 62.31000 40.83600
H  29.67600 62.07800 43.34600
H  32.29100 63.65800 42.24900
H  32.97100 62.18100 42.81400
H  31.72600 62.86000 43.73500
H  28.21500 63.12200 40.80800
H  29.69200 63.97300 41.23400
H  27.02100 64.42800 42.10400
H  28.51200 65.14300 42.81000
H  27.70900 63.69500 43.50400
H  24.23500 60.13300 40.39200
H  24.66100 60.48300 42.11600
H  23.65700 59.05100 41.64200
H  25.46400 55.07700 38.88500
H  25.29200 51.07100 40.92300
H  23.58800 51.47000 40.88500
H  24.61900 52.01600 42.15900
Mg 27.12500 50.33100 27.29300
C  25.11100 51.58400 29.91300
C  29.60100 49.64300 29.61300
C  29.13000 49.73700 24.77800
C  24.63200 51.95000 25.02600
N  27.30200 50.65400 29.44200
C  26.28200 50.96200 30.29600
C  26.65400 50.68100 31.79000
C  28.16800 50.46400 31.58500
C  28.39800 50.13400 30.15400
C  29.00500 51.62900 32.09000
C  25.84700 49.48900 32.47500
C  25.15300 49.83100 33.80400
H  25.87200 50.41400 35.02800
N  28.94400 49.52800 27.19500
C  29.82800 49.33100 28.26900
C  31.04400 48.76900 27.65800
C  30.95000 48.84600 26.26600
C  29.59400 49.42900 25.98600
C  32.28400 48.33500 28.48300
C  32.03700 48.34500 25.25500
O  31.90100 48.45900 23.99300
C  33.29800 47.81600 25.70100
N  26.85200 50.82400 25.18100
C  27.86900 50.32100 24.33800
C  27.46200 50.50900 22.85200
C  26.01000 51.04600 22.94700
C  25.76600 51.26900 24.46700
C  28.38800 51.49300 22.04400
C  24.88300 50.14700 22.36800
C  24.69300 48.73000 22.94000
N  25.29200 51.56900 27.34300
C  24.48700 52.08500 26.39100
C  23.27400 52.65600 27.03200
C  23.49200 52.51200 28.42100
C  24.69000 51.83600 28.55600
C  22.04400 53.23600 26.41100
C  22.97300 52.76400 29.72400
O  21.94400 53.31700 29.99700
C  23.92600 52.18400 30.77000
C  24.41200 53.28900 31.63500
O  25.24000 54.16900 31.31600
O  23.79200 53.28400 32.87100
C  24.22600 54.29700 33.85300
H  30.36700 49.34100 30.33000
H  29.87100 49.55600 23.99700
H  23.86700 52.38100 24.37700
H  26.34700 51.58600 32.31600
H  28.51900 49.63200 32.19500
H  29.97100 51.75500 31.60100
H  29.21500 51.52800 33.15500
H  28.43800 52.55900 32.12900
H  26.57300 48.71700 32.73200
H  25.08100 49.01300 31.86300
H  24.58200 48.97600 34.16700
H  24.51200 50.68700 33.59600
H  32.49800 47.26700 28.43800
H  32.17800 48.72100 29.49600
H  33.24300 48.74600 28.16700
H  33.77200 47.45700 24.78800
H  33.30800 47.03100 26.45700
H  33.85100 48.71600 25.96800
H  27.43800 49.61100 22.23400
H  25.88900 52.01900 22.47000
H  29.26200 51.58500 22.68800
H  27.95300 52.49200 22.00500
H  28.68000 51.08200 21.07800
H  24.86400 50.10900 21.27800
H  23.93000 50.65600 22.51700
H  23.67200 48.50400 23.24600
H  25.45700 48.56400 23.70000
H  25.03900 48.04400 22.16700
H  21.78400 52.67300 25.51500
H  22.22300 54.24900 26.05000
H  21.20200 53.09700 27.08900
H  23.32700 51.54500 31.41800
H  24.22900 53.75700 34.80000
H  23.51900 55.12600 33.90400
H  25.17800 54.81600 33.73200

