158

Mg 47.37400 25.58900 28.21900
C  48.02900 27.82900 30.69900
C  46.79800 23.11900 30.63500
C  46.60700 23.53300 25.70400
C  48.55400 27.87500 25.87800
N  47.31500 25.52900 30.37900
C  47.62100 26.56200 31.16700
C  47.49700 26.25000 32.68000
C  47.12200 24.73000 32.62500
C  47.21500 24.39200 31.10400
C  48.00000 23.73200 33.47100
C  46.55100 27.21800 33.47100
C  45.80600 26.72800 34.77600
H  46.13100 27.44000 36.11000
N  46.60100 23.62200 28.21000
C  46.49400 22.74700 29.25100
C  46.08800 21.42200 28.71800
C  45.95400 21.55600 27.30100
C  46.41800 22.95900 26.99400
C  45.83700 20.20800 29.53200
C  45.50000 20.47900 26.30900
O  45.56200 20.66800 25.12500
C  45.10200 19.13500 26.72300
N  47.59900 25.65800 26.09400
C  47.25700 24.63700 25.28600
C  47.65900 24.98200 23.89700
C  47.96000 26.51100 23.92600
C  48.00800 26.72200 25.43300
C  48.79600 24.04200 23.28800
C  46.82900 27.32100 23.30800
C  47.04300 27.73400 21.87000
N  48.32800 27.44200 28.28900
C  48.68300 28.27800 27.29000
C  49.23100 29.54500 27.82500
C  48.91800 29.38700 29.21700
C  48.47100 28.09800 29.44000
C  49.72700 30.76900 27.14100
C  48.91300 30.12200 30.50500
O  49.25100 31.24400 30.82200
C  48.34700 29.12700 31.53300
C  49.40000 28.95200 32.58100
O  50.32600 28.21500 32.49400
O  49.01300 29.59700 33.70800
C  49.86300 29.34600 34.88500
H  46.47900 22.38800 31.38100
H  46.51100 22.77200 24.92700
H  48.88600 28.56300 25.09800
H  48.49400 26.43100 33.08200
H  46.08800 24.42900 32.79300
H  47.39100 23.12100 34.13700
H  48.75000 24.33000 33.98900
H  48.59300 23.08800 32.82300
H  45.68000 27.33800 32.82600
H  46.83800 28.26100 33.60100
H  45.97000 25.66900 34.97600
H  44.72000 26.78000 34.71300
H  46.03500 20.39400 30.58700
H  46.45100 19.35500 29.24300
H  44.78300 19.96200 29.39700
H  44.34700 19.14700 27.50900
H  46.01600 18.63700 27.04600
H  44.67200 18.67300 25.83400
H  46.77800 24.91000 23.25800
H  48.94800 26.83900 23.60400
H  48.52900 23.71300 22.28400
H  48.97800 23.19100 23.94400
H  49.73500 24.59600 23.26000
H  46.65300 28.25400 23.84500
H  45.85500 26.83200 23.30000
H  46.55400 27.10600 21.12500
H  48.08400 27.51100 21.63300
H  46.87900 28.80000 21.71600
H  49.66200 30.81100 26.05400
H  50.74300 30.91400 27.50800
H  49.30200 31.70500 27.50400
H  47.43700 29.57800 31.92800
H  49.56000 30.05200 35.65900
H  50.91700 29.43300 34.62200
H  49.66200 28.30300 35.12600
Mg 0.87500 42.10600 26.28700
C  2.96900 42.13700 29.15200
C  -1.84400 41.65300 28.41100
C  -1.04200 41.88400 23.57800
C  3.74500 41.94500 24.25200
N  0.58400 42.01800 28.58900
C  1.62200 41.92100 29.53200
C  1.00900 41.93400 30.88800
C  -0.54500 41.73100 30.68600
C  -0.65200 41.77600 29.09200
C  -1.19100 40.51200 31.45700
C  1.38100 43.29200 31.65400
C  1.83300 43.14800 33.13700
H  1.37700 42.00800 34.03100
N  -1.18900 41.94600 25.99300
C  -2.11700 41.71200 26.99300
C  -3.41600 41.52900 26.40000
C  -3.22300 41.53300 24.94700
C  -1.78700 41.76300 24.75400
C  -4.71100 41.44800 27.16300
C  -4.28100 41.31500 23.89100
O  -3.99800 41.40300 22.68800
C  -5.66100 40.89400 24.29600
N  1.28400 41.87300 24.24400
C  0.30100 41.93300 23.27600
C  0.84100 41.85700 21.86900
C  2.36200 41.89000 22.08500
C  2.49300 41.89600 23.62800
C  0.40000 40.56300 21.04200
C  3.00800 43.07600 21.45300
C  2.41600 44.47300 21.62500
N  2.91500 42.18900 26.55900
C  3.99200 42.10700 25.64700
C  5.23800 42.32500 26.41500
C  4.87000 42.32500 27.72900
C  3.45100 42.25200 27.81100
C  6.69100 42.51300 25.88000
C  5.45300 42.55000 29.06600
O  6.64000 42.79600 29.47700
C  4.22900 42.29200 30.02100
C  4.61600 41.20400 30.88200
O  4.74100 40.02100 30.54400
O  4.89300 41.69300 32.22800
C  5.25500 40.68200 33.20500
H  -2.67700 41.40200 29.07100
H  -1.53600 41.92700 22.60500
H  4.63400 41.91700 23.61800
H  1.43700 41.07200 31.39900
H  -1.06500 42.62000 31.04100
H  -1.68800 39.74900 30.85800
H  -1.95400 41.02800 32.04000
H  -0.48000 40.07400 32.15800
H  0.57200 44.02000 31.72100
H  2.18300 43.86800 31.19300
H  1.50200 44.03800 33.67300
H  2.91800 43.21600 33.20900
H  -4.67500 41.59200 28.24300
H  -5.14900 40.46300 27.00200
H  -5.40500 42.15600 26.71100
H  -6.20600 41.70400 24.77900
H  -5.49200 40.04700 24.96000
H  -6.25400 40.62000 23.42300
H  0.37800 42.70600 21.36700
H  2.88600 41.04000 21.65000
H  -0.00300 39.74400 21.63800
H  1.25500 40.21700 20.46300
H  -0.42200 40.85800 20.39000
H  3.12500 42.79900 20.40600
H  4.02800 43.13200 21.83400
H  2.23100 44.89100 20.63600
H  3.23100 45.12800 21.93300
H  1.55000 44.49700 22.28600
H  6.76000 43.46400 25.35300
H  6.82100 41.71000 25.15400
H  7.38400 42.40800 26.71500
H  4.15200 43.14300 30.69800
H  6.17200 40.15500 32.93900
H  4.55400 39.84800 33.22400
H  5.31500 41.13900 34.19300

