158

Mg 54.32300 24.15900 43.62500
C  51.72500 26.44000 43.12200
C  52.20100 21.67600 42.33900
C  57.05900 22.20500 43.28900
C  56.38900 26.86500 44.30900
N  52.24000 24.06400 42.91300
C  51.40300 25.14600 42.74900
C  49.91200 24.66600 42.33300
C  50.05300 23.11500 42.29800
C  51.60600 22.97900 42.51400
C  49.35500 22.31100 43.35000
C  49.31200 25.26600 41.01800
C  50.17300 25.46500 39.68800
H  49.91200 24.40700 38.61500
N  54.61300 22.13500 43.06200
C  53.61200 21.33400 42.52900
C  54.18200 20.00900 42.20500
C  55.62500 20.11400 42.49400
C  55.85600 21.49800 42.98000
C  53.41300 18.82400 41.67400
C  56.61600 18.98900 42.21200
O  56.26500 17.97000 41.72000
C  58.08800 19.04100 42.64600
N  56.47700 24.47800 43.62400
C  57.36000 23.52800 43.58900
C  58.83200 23.95100 43.85600
C  58.54600 25.48800 44.29200
C  57.07400 25.68400 44.09200
C  59.40000 23.03100 44.91000
C  59.37700 26.47300 43.37400
C  60.84900 26.43500 43.87400
N  54.20400 26.22200 43.75000
C  55.05800 27.17300 44.16400
C  54.35700 28.42300 44.30500
C  53.07000 28.16000 43.90400
C  53.02700 26.82100 43.56500
C  54.98300 29.75100 44.56800
C  51.79800 28.87400 43.68800
O  51.47900 30.03800 43.87100
C  50.85400 27.74900 43.10900
C  50.33200 28.32100 41.86800
O  51.00500 28.45300 40.82000
O  48.98900 28.60200 41.98900
C  48.22300 29.08700 40.83100
H  51.44100 20.92200 42.11900
H  57.90400 21.53900 43.10100
H  56.99700 27.72800 44.58700
H  49.26400 24.93300 43.16700
H  49.91900 22.73500 41.28500
H  49.95000 22.41500 44.25700
H  49.18200 21.27800 43.05000
H  48.40100 22.84000 43.36800
H  48.83900 26.23000 41.20600
H  48.54100 24.53800 40.76700
H  51.21300 25.39300 40.00700
H  49.90900 26.51000 39.52300
H  53.46000 18.84900 40.58500
H  52.40600 18.96100 42.06800
H  53.81900 17.86800 42.00400
H  58.37000 18.00300 42.82400
H  58.31400 19.66300 43.51200
H  58.57600 19.52100 41.79800
H  59.35200 23.98700 42.89800
H  58.70500 25.66700 45.35500
H  59.56200 23.50700 45.87700
H  60.36400 22.76100 44.47700
H  58.87200 22.08800 45.05000
H  59.10300 27.52600 43.43200
H  59.24300 26.12700 42.34900
H  61.56900 26.14000 43.11000
H  60.88000 25.74100 44.71400
H  61.22200 27.43100 44.11400
H  54.56000 30.01500 45.53700
H  54.75700 30.52700 43.83700
H  56.07200 29.70700 44.57100
H  49.96300 27.63300 43.72600
H  48.40100 28.56200 39.89200
H  48.04900 30.15000 40.66000
H  47.20200 28.83500 41.11800
Mg 28.33300 58.21700 43.07800
C  25.84000 56.40200 41.36300
C  30.70400 56.42600 41.19900
C  30.55700 60.71900 43.65700
C  25.82600 60.19300 44.51200
N  28.26300 56.68000 41.51000
C  27.16200 56.01300 41.04400
C  27.59400 54.91400 39.96100
C  29.07700 54.72400 40.22800
C  29.34300 56.05000 40.98700
C  29.50200 53.45500 41.03300
C  27.31100 55.39900 38.54000
C  26.83400 54.26600 37.53900
H  27.59300 54.15100 36.13800
N  30.40900 58.46800 42.54200
C  31.18900 57.58600 41.93300
C  32.52600 58.11000 41.93600
C  32.54400 59.30400 42.66100
C  31.11900 59.57200 42.96700
C  33.65200 57.41700 41.15700
C  33.78800 60.22700 42.83000
O  34.96200 59.95300 42.77600
C  33.59200 61.70000 43.19900
N  28.28300 60.25000 43.76000
C  29.26400 61.03200 44.09000
C  28.86800 62.26200 44.97300
C  27.36900 62.00600 45.15800
C  27.11300 60.72000 44.41100
C  29.68600 62.38600 46.33900
C  26.43100 63.22900 44.83600
C  25.80000 63.21200 43.51700
N  26.24800 58.14800 43.12200
C  25.38900 59.08800 43.69400
C  24.02000 58.65500 43.47200
C  24.22200 57.54900 42.55600
C  25.55700 57.33200 42.30500
C  22.78300 59.24000 44.02800
C  23.38900 56.57600 41.78300
O  22.18700 56.42900 41.75200
C  24.47500 55.79800 40.88800
C  24.33000 54.31300 41.05200
O  24.85600 53.68500 41.95500
O  23.55200 53.71800 39.99500
C  23.60000 52.25100 39.94900
H  31.44100 55.80200 40.68800
H  31.30600 61.36900 44.11600
H  25.09800 60.78300 45.07300
H  26.98700 54.05300 40.24200
H  29.60200 54.58600 39.28300
H  30.06700 53.70900 41.93000
H  30.02500 52.73800 40.40000
H  28.73800 52.79300 41.44100
H  28.18700 55.84800 38.07300
H  26.65100 56.26700 38.53500
H  25.85900 54.66500 37.26100
H  26.70100 53.28900 38.00300
H  33.55000 56.33500 41.24800
H  34.58400 57.73200 41.62400
H  33.67900 57.77900 40.12900
H  32.69300 62.11700 42.74600
H  34.44500 62.32100 42.92500
H  33.41400 61.67600 44.27400
H  29.06700 63.12100 44.33200
H  27.16500 61.83100 46.21400
H  30.50700 63.08800 46.19100
H  30.12400 61.40600 46.52600
H  28.96100 62.63600 47.11300
H  27.04800 64.12800 44.84700
H  25.63800 63.42600 45.55800
H  25.82000 64.20600 43.06900
H  24.72100 63.08400 43.60100
H  26.23200 62.40800 42.92100
H  22.26200 59.80600 43.25600
H  22.89200 59.81600 44.94700
H  22.19900 58.34000 44.22300
H  24.28500 56.07100 39.84900
H  24.67100 52.09800 39.81800
H  23.04800 51.78100 39.13500
H  23.29400 51.80000 40.89200

