158

Mg 48.93500 35.15700 27.07800
C  47.07800 33.62300 29.76700
C  49.30300 37.85700 29.32000
C  50.40200 36.62200 24.73900
C  48.01900 32.52200 24.98700
N  48.24200 35.61800 29.21600
C  47.63100 34.84100 30.16300
C  47.66000 35.46900 31.53200
C  47.91700 36.96300 31.18000
C  48.49000 36.84600 29.76200
C  46.66900 37.87800 31.17000
C  48.85900 34.84600 32.34500
C  48.65300 34.62000 33.84800
H  47.59300 35.38400 34.69400
N  49.87100 36.91400 27.03700
C  49.97800 37.88400 28.02000
C  50.94100 38.84300 27.56400
C  51.24700 38.54400 26.17300
C  50.46300 37.30600 25.92200
C  51.33600 40.00100 28.39800
C  52.08800 39.34500 25.19100
O  52.27100 39.08200 23.99900
C  52.79200 40.60800 25.71700
N  48.97000 34.70100 24.95100
C  49.82600 35.43400 24.26500
C  50.18700 34.75500 22.94300
C  49.45700 33.37500 23.05200
C  48.74600 33.55200 24.36500
C  49.92900 35.74400 21.77500
C  50.35100 32.11400 23.12000
C  51.48000 32.06400 22.09100
N  47.79000 33.36300 27.26200
C  47.54400 32.41500 26.32900
C  46.76100 31.41000 26.87500
C  46.51700 31.80200 28.26200
C  47.14700 33.07500 28.39800
C  46.06800 30.23800 26.13800
C  45.80700 31.50600 29.50600
O  45.13200 30.56800 29.92300
C  46.05400 32.73300 30.49700
C  46.53600 32.26200 31.80600
O  47.67400 31.91700 32.18400
O  45.50600 32.30400 32.66900
C  45.71400 31.90600 34.01200
H  49.38200 38.78000 29.89900
H  51.16700 36.99900 24.05600
H  47.79400 31.64300 24.38000
H  46.67900 35.30500 31.97600
H  48.68000 37.38700 31.83300
H  46.07000 37.79300 30.26400
H  47.03900 38.90400 31.16900
H  46.08800 37.64300 32.06200
H  49.74700 35.46500 32.21100
H  49.12400 33.88200 31.91200
H  49.65200 34.84800 34.22000
H  48.53700 33.54800 34.01000
H  52.32200 40.40400 28.16900
H  51.41600 39.67300 29.43500
H  50.58500 40.78900 28.45900
H  52.99300 41.15300 24.79500
H  53.65500 40.43000 26.35800
H  52.16100 41.28100 26.29800
H  51.27500 34.69700 22.89100
H  48.72900 33.17800 22.26500
H  48.84300 35.75800 21.87000
H  50.15500 35.34100 20.78700
H  50.34500 36.72900 21.98600
H  49.66200 31.27200 23.05800
H  50.84600 32.11400 24.09100
H  51.39800 31.12200 21.54900
H  52.43400 31.99500 22.61300
H  51.44400 32.94200 21.44600
H  45.25700 30.64900 25.53700
H  45.84300 29.39900 26.79600
H  46.89500 29.87000 25.53200
H  45.09800 33.23800 30.63800
H  44.78600 31.36800 34.20500
H  45.65900 32.85800 34.54100
H  46.61600 31.39300 34.34400
Mg 6.28400 53.28700 40.63800
C  6.05900 49.71400 40.42600
C  9.66100 53.05900 40.10300
C  6.18700 56.62500 40.30100
C  2.72100 53.33000 40.93800
N  7.67300 51.48400 40.23700
C  7.38200 50.16600 40.21200
C  8.69400 49.43600 39.96500
C  9.79700 50.47500 40.33200
C  9.01300 51.79600 40.25200
C  10.44100 50.31800 41.70500
C  8.95400 48.77000 38.52500
C  8.35900 49.53500 37.25200
H  7.26800 48.90800 36.19400
N  7.75200 54.62400 40.24200
C  9.01300 54.32800 40.00800
C  9.71400 55.63100 39.84400
C  8.75000 56.67300 39.92600
C  7.46000 55.97800 40.17500
C  11.26800 55.67100 39.54500
C  9.13700 58.16000 39.85300
O  10.33000 58.49500 39.56600
C  8.14900 59.36800 39.85000
N  4.65500 54.73900 40.74300
C  4.92300 56.08300 40.54900
C  3.67400 56.97100 40.62400
C  2.60000 55.88800 40.63700
C  3.34000 54.54800 40.76200
C  3.67100 57.85300 41.87600
C  1.66100 55.85600 39.38700
C  0.15800 55.67600 39.63000
N  4.69300 51.90300 40.80500
C  3.31600 52.06100 40.94800
C  2.64900 50.79300 40.94900
C  3.63200 49.82400 40.82400
C  4.90100 50.51300 40.71200
C  1.10400 50.64400 41.12900
C  3.90900 48.44100 40.75400
O  3.20900 47.49600 40.81100
C  5.45900 48.32500 40.45900
C  5.61000 47.52800 39.15800
O  5.25600 47.83600 38.04300
O  6.06300 46.29000 39.48200
C  5.90400 45.26700 38.45200
H  10.74000 52.98900 39.95500
H  6.29000 57.70500 40.17000
H  1.63000 53.34100 40.96900
H  8.71300 48.65300 40.72300
H  10.59100 50.46900 39.58500
H  9.79400 49.63900 42.26100
H  10.42700 51.27800 42.22200
H  11.50200 50.11000 41.84200
H  8.49100 47.78600 38.60200
H  10.00600 48.67800 38.25300
H  9.14300 49.79500 36.54100
H  8.02300 50.51100 37.60200
H  11.37100 56.37500 38.71900
H  11.78200 54.71800 39.41900
H  11.74300 56.06700 40.44300
H  8.70500 60.24700 39.52400
H  7.69500 59.53500 40.82700
H  7.33400 59.18100 39.15100
H  3.69800 57.52700 39.68600
H  1.94800 56.00500 41.50200
H  3.95400 58.88200 41.65500
H  4.45900 57.45000 42.51200
H  2.70200 57.83600 42.37400
H  2.01800 55.10500 38.68200
H  1.81200 56.83700 38.93700
H  -0.46000 56.45400 39.18200
H  -0.08800 55.72900 40.69000
H  -0.20800 54.69800 39.31800
H  0.83400 49.68700 41.57500
H  0.56100 50.79700 40.19700
H  0.82400 51.31700 41.94000
H  5.90200 47.83900 41.32900
H  6.90900 45.05400 38.09000
H  5.37200 45.51900 37.53500
H  5.54800 44.38300 38.98200

