158

Mg 48.98600 35.18800 26.91500
C  46.85200 33.83900 29.52800
C  49.08500 38.10200 28.51100
C  50.34900 36.49100 24.10800
C  47.95600 32.34400 25.00500
N  48.23600 35.76400 28.85600
C  47.48900 35.13700 29.83900
C  47.65400 35.85900 31.18700
C  47.96000 37.29600 30.71800
C  48.41800 37.07100 29.28400
C  46.64900 38.23100 30.73200
C  48.84300 35.26900 32.08000
C  48.57700 35.26800 33.59100
H  47.61000 36.22300 34.18300
N  49.88100 36.98800 26.46500
C  49.73100 38.08200 27.24700
C  50.43500 39.17600 26.51900
C  50.77600 38.71500 25.18800
C  50.27900 37.33100 25.20200
C  50.71300 40.49800 27.19400
C  51.47700 39.38100 24.09200
O  51.57000 38.88500 22.96400
C  52.09800 40.77900 24.36200
N  49.16800 34.49100 24.82100
C  49.85800 35.17800 23.86000
C  49.76800 34.47800 22.50000
C  49.24800 33.08700 22.88400
C  48.81700 33.30800 24.35300
C  48.84900 35.14300 21.45200
C  50.23800 31.82600 22.73600
C  49.50000 30.59900 22.12800
N  47.72800 33.51800 27.15700
C  47.45800 32.44800 26.28900
C  46.55100 31.57200 26.92100
C  46.35700 32.04100 28.22600
C  46.99400 33.25900 28.27600
C  46.11200 30.23700 26.37200
C  45.67000 31.74100 29.50300
O  45.01000 30.80300 29.84900
C  45.91200 32.96900 30.31800
C  46.32700 32.62200 31.63900
O  47.42400 32.19300 31.98300
O  45.20500 32.64300 32.46300
C  45.58900 32.26000 33.86200
H  49.20300 39.03800 29.06100
H  50.68600 36.81100 23.12000
H  47.62900 31.52100 24.36600
H  46.67000 35.76700 31.64700
H  48.69300 37.75200 31.38400
H  45.71900 37.70100 30.93600
H  46.52800 38.68100 29.74700
H  46.71200 39.08300 31.40900
H  49.68200 35.96400 32.03800
H  49.17000 34.30700 31.68800
H  49.47000 35.50900 34.16600
H  48.25000 34.24000 33.74400
H  51.64700 40.37400 27.74300
H  50.07400 40.64000 28.06500
H  50.55200 41.42400 26.64300
H  51.23600 41.40600 24.58600
H  52.63700 41.12600 23.48000
H  52.76000 40.85000 25.22500
H  50.72900 34.35100 22.00300
H  48.27300 32.92400 22.42600
H  48.69900 36.20100 21.66800
H  47.84800 34.72300 21.35300
H  49.42600 35.06800 20.53100
H  50.69700 31.52400 23.67800
H  50.96900 32.17700 22.00800
H  50.08700 30.21500 21.29400
H  48.46400 30.79000 21.84700
H  49.51000 29.85900 22.92900
H  46.95400 29.76100 25.87000
H  45.30200 30.49300 25.68900
H  45.73200 29.58800 27.16100
H  44.98800 33.54100 30.39200
H  45.81700 31.19500 33.89700
H  44.78300 32.46700 34.56700
H  46.43000 32.83400 34.25300
Mg -12.74500 14.56300 42.50100
C  -9.43900 13.70100 41.65400
C  -12.22800 17.58500 40.89700
C  -15.99600 15.26200 43.00600
C  -13.42700 11.23700 43.32100
N  -11.04600 15.40700 41.30900
C  -9.71100 14.93500 41.24200
C  -8.76100 15.93000 40.54100
C  -9.67000 17.14300 40.35100
C  -11.09800 16.73900 40.84500
C  -9.05300 18.45700 40.86900
C  -8.02900 15.38800 39.25000
C  -6.52900 15.27600 39.27400
H  -5.72600 15.90300 38.21500
N  -14.00400 16.18500 41.95800
C  -13.56600 17.37600 41.33400
C  -14.79100 18.19000 41.34800
C  -15.83700 17.51000 41.92700
C  -15.31500 16.23900 42.27500
C  -14.67800 19.55100 40.74900
C  -17.29100 18.10200 42.10500
O  -17.52200 19.28200 41.82400
C  -18.48900 17.19300 42.57700
N  -14.53100 13.35600 43.05300
C  -15.68900 13.93800 43.41100
C  -16.57700 12.98600 44.17800
C  -15.88400 11.62000 44.06000
C  -14.54900 12.05300 43.44800
C  -16.82700 13.34600 45.61900
C  -16.66000 10.45300 43.32500
C  -16.84400 9.21900 44.23600
N  -11.71400 12.89900 42.62800
C  -12.14700 11.61500 42.84500
C  -10.94900 10.76200 42.77900
C  -9.93200 11.51800 42.22800
C  -10.40200 12.85700 42.22000
C  -10.92000 9.31100 43.27300
C  -8.58100 11.46700 41.70100
O  -7.80500 10.54800 41.63100
C  -8.17300 12.93800 41.45000
C  -7.07500 13.45400 42.32500
O  -7.29200 14.13100 43.31400
O  -5.87400 13.23300 41.76000
C  -4.64200 13.77100 42.41700
H  -12.03400 18.59400 40.52700
H  -17.00500 15.40500 43.40000
H  -13.61500 10.17100 43.46200
H  -7.97800 16.27100 41.21900
H  -9.85200 17.25000 39.28200
H  -9.50100 19.27700 40.30700
H  -7.99400 18.43500 40.61500
H  -9.16500 18.45500 41.95300
H  -8.28800 16.10800 38.47300
H  -8.49100 14.40700 39.14100
H  -6.14400 14.27100 39.44100
H  -6.25100 15.76000 40.21000
H  -14.93500 19.57500 39.69000
H  -13.64800 19.90700 40.76700
H  -15.27400 20.28400 41.29300
H  -18.54500 16.28900 41.97000
H  -19.38000 17.77200 42.33200
H  -18.46900 17.05000 43.65700
H  -17.50600 13.09300 43.61800
H  -15.63300 11.36100 45.08900
H  -17.09500 12.46700 46.20400
H  -17.64700 14.05200 45.74700
H  -15.97100 13.82500 46.09400
H  -16.20800 10.13500 42.38500
H  -17.65100 10.87900 43.16000
H  -17.35700 8.45700 43.64800
H  -17.59300 9.58300 44.94000
H  -15.97900 8.71400 44.66500
H  -11.05900 9.30200 44.35400
H  -9.91400 8.92800 43.10500
H  -11.56900 8.71200 42.63400
H  -7.88600 12.95600 40.39800
H  -3.78400 13.28800 41.94900
H  -4.75100 13.35400 43.41800
H  -4.73700 14.85500 42.35600

