158

Mg 52.83400 23.97000 45.01300
C  50.18500 25.96400 43.85000
C  50.89300 21.28100 43.86500
C  55.62500 22.12400 45.03000
C  54.48900 26.72200 45.92400
N  50.88100 23.72600 43.68300
C  49.95800 24.69000 43.35600
C  48.77000 24.09200 42.67300
C  48.95200 22.58900 42.84500
C  50.33600 22.48500 43.44400
C  47.81000 21.80700 43.56500
C  48.76600 24.46200 41.13600
C  50.10200 24.69000 40.34100
H  50.17600 25.31400 38.90600
N  53.19300 21.90800 44.64100
C  52.24100 20.96000 44.27600
C  52.88900 19.66300 44.22800
C  54.28000 19.84900 44.58000
C  54.45500 21.34800 44.79700
C  52.21500 18.34100 43.96800
C  55.29700 18.76600 44.73000
O  54.89200 17.58000 44.54900
C  56.71700 19.08400 45.08700
N  54.81600 24.40700 45.25300
C  55.75900 23.48700 45.31100
C  57.16500 24.08200 45.48900
C  56.83700 25.58400 45.91800
C  55.32300 25.62800 45.66900
C  58.04200 23.44700 46.61600
C  57.61000 26.71500 45.18600
C  58.90000 27.25600 45.80100
N  52.45100 26.04300 44.88500
C  53.16300 26.99000 45.51100
C  52.40500 28.24600 45.57800
C  51.18200 27.85100 44.90500
C  51.26900 26.52700 44.54000
C  52.69900 29.38600 46.34300
C  49.80000 28.26900 44.51200
O  49.18200 29.31500 44.56200
C  49.12000 27.00900 43.79700
C  48.90400 27.51100 42.38800
O  49.80600 27.77300 41.65600
O  47.58100 27.69800 42.07500
C  47.42900 28.50300 40.88200
H  50.27500 20.39200 43.72300
H  56.56300 21.58900 45.18900
H  55.11800 27.51500 46.33300
H  47.88800 24.42400 43.22000
H  48.99000 22.06500 41.89000
H  48.33000 21.29500 44.37400
H  47.32600 21.05400 42.94200
H  47.04400 22.43100 44.02600
H  48.12000 25.33700 41.06700
H  48.18800 23.72600 40.57700
H  50.51500 23.68200 40.29200
H  50.83200 25.26900 40.90700
H  52.59500 17.89100 43.05100
H  51.14400 18.41300 43.78100
H  52.37200 17.69200 44.83000
H  57.27000 18.14900 45.17700
H  56.81100 19.60800 46.03700
H  57.06500 19.64100 44.21700
H  57.74500 23.98500 44.57100
H  56.92600 25.68000 47.00000
H  57.45300 22.93000 47.37400
H  58.55100 24.17800 47.24500
H  58.79700 22.79700 46.17300
H  57.08800 27.65600 45.01000
H  57.84500 26.27700 44.21600
H  59.76100 26.93300 45.21600
H  59.16100 26.94500 46.81300
H  58.83800 28.33000 45.97500
H  53.42800 29.18200 47.12700
H  51.72700 29.55100 46.80800
H  52.96900 30.24000 45.72100
H  48.14600 26.73900 44.20500
H  46.35400 28.54100 40.70800
H  47.72500 27.97100 39.97800
H  47.78100 29.53200 40.95900
Mg -11.72900 38.74900 42.87600
C  -9.50100 36.42500 41.56100
C  -9.79400 41.27800 41.15200
C  -14.01400 41.10600 43.82700
C  -13.75400 36.19000 43.94700
N  -10.03200 38.84400 41.37100
C  -9.19700 37.73200 41.10100
C  -8.01700 38.10400 40.18200
C  -8.04700 39.66100 40.26600
C  -9.35400 39.95300 40.89900
C  -6.77900 40.23500 40.87300
C  -8.23600 37.35500 38.78900
C  -7.09300 36.51600 38.38000
H  -6.15500 37.23900 37.40000
N  -11.89300 40.94200 42.54100
C  -11.00000 41.75600 41.86500
C  -11.45000 43.08800 41.96700
C  -12.62000 43.08900 42.79100
C  -12.91300 41.67500 43.11600
C  -10.78300 44.24300 41.23400
C  -13.48700 44.32200 43.21500
O  -13.24500 45.41900 42.71500
C  -14.61400 44.27800 44.13600
N  -13.80300 38.63300 43.46600
C  -14.34000 39.74900 44.02700
C  -15.58900 39.19400 44.66400
C  -15.50000 37.69200 44.91900
C  -14.29600 37.48000 44.00800
C  -16.25700 39.96500 45.84900
C  -16.78000 36.90500 44.51900
C  -17.14600 35.67300 45.25000
N  -11.63400 36.68700 42.91800
C  -12.46700 35.79100 43.47400
C  -11.92300 34.41900 43.31000
C  -10.70400 34.61400 42.69300
C  -10.60500 36.01000 42.36000
C  -12.47200 33.08800 43.73700
C  -9.50900 34.01700 42.17100
O  -9.09300 32.86800 42.25800
C  -8.74300 35.13400 41.36900
C  -7.36700 35.05400 42.02100
O  -7.06900 35.50200 43.10800
O  -6.63100 34.25300 41.21700
C  -5.27700 34.07500 41.74200
H  -9.24600 42.06200 40.62400
H  -14.76800 41.80400 44.19800
H  -14.18100 35.35700 44.50900
H  -7.08700 37.77000 40.64300
H  -8.05700 40.10900 39.27200
H  -6.99700 40.96900 41.64900
H  -6.30100 40.79600 40.07000
H  -6.00900 39.54800 41.22300
H  -8.43900 38.06400 37.98600
H  -9.17900 36.80800 38.81100
H  -7.56000 35.66400 37.88600
H  -6.50000 36.14300 39.21500
H  -10.51800 43.82000 40.26500
H  -9.87600 44.52800 41.76700
H  -11.37300 45.14800 41.08700
H  -15.52100 44.00000 43.60000
H  -14.70300 45.25800 44.60600
H  -14.40700 43.66000 45.00900
H  -16.25200 39.20900 43.80000
H  -15.24600 37.51900 45.96500
H  -15.73100 40.79100 46.32700
H  -16.38700 39.29100 46.69500
H  -17.21900 40.31000 45.47100
H  -16.65700 36.53600 43.50100
H  -17.69000 37.50000 44.58700
H  -18.00400 35.92700 45.87200
H  -16.39100 35.33100 45.95800
H  -17.40400 34.91100 44.51400
H  -12.49000 32.36100 42.92500
H  -13.44000 33.18600 44.22900
H  -11.81500 32.55400 44.42300
H  -8.71600 34.79900 40.33200
H  -4.92200 35.08000 41.97100
H  -4.78400 33.70200 40.84400
H  -5.21400 33.29000 42.49600

