158

Mg 30.70800 57.94300 39.47000
C  28.05000 56.02900 38.45000
C  32.81200 55.24900 38.52600
C  33.34000 59.82100 40.01400
C  28.42400 60.61300 39.73600
N  30.44400 55.97100 38.36300
C  29.22600 55.34300 38.18300
C  29.36700 53.85400 37.77400
C  30.88000 53.61300 38.11100
C  31.42000 55.07200 38.34700
C  31.16200 52.70100 39.35000
C  28.98200 53.49800 36.32000
C  29.35700 54.51900 35.17400
H  28.21700 55.08300 34.34300
N  32.73900 57.61400 39.37200
C  33.42800 56.45100 38.90600
C  34.80900 56.69400 39.04200
C  35.00900 57.94300 39.64800
C  33.66600 58.52200 39.75700
C  35.73100 55.54400 38.82300
C  36.37900 58.49900 40.07100
O  37.41300 57.86600 39.88800
C  36.56100 59.85300 40.73800
N  30.79300 59.97800 39.89500
C  32.05700 60.52400 40.05000
C  31.94000 62.12000 40.11300
C  30.38100 62.26900 40.14500
C  29.79300 60.87900 39.85600
C  32.75300 62.81800 41.32400
C  29.89100 63.31500 39.10200
C  29.91000 62.84100 37.55900
N  28.61400 58.27500 39.31200
C  27.83700 59.38400 39.55300
C  26.47600 58.99700 39.47200
C  26.46100 57.69500 39.05000
C  27.83700 57.30600 38.93400
C  25.27100 59.77700 39.80100
C  25.62700 56.57200 38.63900
O  24.43800 56.49300 38.55400
C  26.64200 55.41100 38.20200
C  26.19700 54.29500 39.16000
O  26.82600 53.92700 40.13200
O  25.00100 53.81000 38.66900
C  24.37000 52.82800 39.51800
H  33.38600 54.32300 38.45700
H  34.11500 60.58200 40.12100
H  27.73300 61.45800 39.72900
H  28.65800 53.35400 38.43400
H  31.40600 53.14000 37.28200
H  30.22000 52.32600 39.75100
H  31.77400 53.18700 40.11000
H  31.69000 51.77800 39.10900
H  27.91500 53.28100 36.26700
H  29.53500 52.58200 36.11300
H  30.04000 53.98200 34.51500
H  30.00200 55.25600 35.65100
H  36.78300 55.79500 38.96000
H  35.62900 55.15100 37.81100
H  35.48600 54.84200 39.62000
H  35.74000 60.04400 41.42900
H  36.52300 60.62000 39.96500
H  37.55300 59.75100 41.17900
H  32.29400 62.60000 39.20000
H  30.04600 62.43200 41.16900
H  33.50000 62.19300 41.81300
H  32.06000 63.03700 42.13700
H  33.20700 63.72900 40.93600
H  30.48000 64.23200 39.12100
H  28.89400 63.50500 39.49900
H  30.12200 63.72400 36.95500
H  28.91700 62.41100 37.43400
H  30.69400 62.12000 37.32700
H  25.16200 60.68800 39.21300
H  25.19900 59.95900 40.87400
H  24.46200 59.11000 39.50500
H  26.47900 55.08400 37.17500
H  24.01200 52.05000 38.84400
H  23.62300 53.37200 40.09600
H  25.01200 52.34600 40.25500
Mg 6.80400 53.92800 39.52200
C  5.95100 50.51900 39.87100
C  9.89800 53.12600 38.69700
C  7.11100 57.07700 38.23700
C  3.37700 54.48700 39.91200
N  7.73200 52.01400 39.03400
C  7.23700 50.76900 39.30600
C  8.31300 49.73400 39.23800
C  9.71000 50.53800 39.13600
C  9.13100 51.98900 39.01500
C  10.60200 50.36800 40.44800
C  8.14600 48.93400 37.89200
C  7.87400 49.70200 36.60000
H  6.45600 49.71500 36.11300
N  8.29800 54.99300 38.68300
C  9.56400 54.48800 38.51100
C  10.46200 55.56800 38.23200
C  9.71200 56.72500 37.87000
C  8.29500 56.27600 38.22100
C  11.87600 55.28600 37.97500
C  10.22200 58.09800 37.34400
O  11.40100 58.39100 37.31200
C  9.33800 59.19500 37.11700
N  5.41200 55.46300 38.95000
C  5.81700 56.75300 38.66700
C  4.72200 57.79300 38.73000
C  3.50800 56.98300 39.23700
C  4.08900 55.53000 39.31800
C  5.11300 59.15000 39.53500
C  2.31200 57.09700 38.25900
C  1.12100 57.91200 38.79600
N  5.01400 52.77400 39.96900
C  3.72900 53.21100 40.22600
C  2.94600 52.16200 40.67500
C  3.82000 51.04200 40.73300
C  5.02200 51.49000 40.14400
C  1.48600 52.36700 41.05000
C  3.88500 49.59600 40.96100
O  3.05800 48.78200 41.40100
C  5.32300 49.21300 40.38100
C  5.00900 48.24900 39.26800
O  4.19700 48.34500 38.34100
O  5.70300 47.12400 39.56600
C  5.38300 45.96000 38.73700
H  10.89500 52.71000 38.53600
H  7.23900 58.12800 37.97100
H  2.33100 54.71900 40.12400
H  8.34500 49.15500 40.16100
H  10.21800 50.24100 38.21800
H  10.43100 49.36500 40.83800
H  10.37700 51.07100 41.24900
H  11.64000 50.54000 40.16400
H  7.46600 48.09000 38.01300
H  9.09200 48.40700 37.76900
H  8.55200 49.22100 35.89400
H  8.20100 50.73900 36.68100
H  12.26500 54.67800 38.79300
H  12.46900 56.19300 38.09300
H  12.11000 54.82400 37.01600
H  8.74600 58.91400 36.24600
H  9.95800 60.07400 36.94200
H  8.68300 59.41200 37.96100
H  4.49400 58.13800 37.72200
H  3.16600 57.20700 40.24700
H  5.23600 59.99900 38.86300
H  5.96600 58.79600 40.11400
H  4.29800 59.41800 40.20800
H  1.79500 56.17600 37.98700
H  2.60700 57.51500 37.29600
H  1.19100 57.98000 39.88200
H  0.15600 57.47700 38.53400
H  1.15900 58.95400 38.47700
H  1.22700 51.58100 41.76000
H  0.83000 52.25600 40.18600
H  1.24700 53.38100 41.36900
H  6.00200 48.71200 41.07100
H  4.31500 45.91300 38.52300
H  5.64500 45.05300 39.28200
H  5.91700 45.95400 37.78700

