158

Mg 43.99800 3.36200 48.26200
C  42.04300 6.27500 47.75300
C  41.07300 1.49500 47.70300
C  45.89000 0.79900 48.08600
C  46.81500 5.47300 48.21600
N  41.77300 3.88400 47.94000
C  41.20500 5.13700 47.69500
C  39.75600 4.97700 47.21700
C  39.42900 3.47800 47.53200
C  40.85200 2.90200 47.77400
C  38.38600 3.17100 48.70000
C  39.50100 5.29300 45.78000
C  38.23500 6.12600 45.44500
H  38.12400 6.78600 44.13400
N  43.58200 1.37000 48.02200
C  42.33700 0.78500 47.71400
C  42.56700 -0.61300 47.64900
C  43.94700 -0.84300 47.72400
C  44.54000 0.44700 48.05700
C  41.41300 -1.55700 47.38600
C  44.62600 -2.18600 47.46300
O  43.93400 -3.18800 47.20400
C  46.06400 -2.36200 47.52800
N  46.09800 3.15000 47.89000
C  46.64100 1.90200 48.07700
C  48.24900 1.95600 48.06200
C  48.47000 3.46100 48.22400
C  47.05100 4.10200 48.06000
C  48.92200 1.05700 49.19400
C  49.48900 4.15600 47.21800
C  50.76200 4.75900 47.83300
N  44.38800 5.38900 48.18900
C  45.58600 6.13800 48.16500
C  45.29000 7.55800 48.12400
C  43.94300 7.58400 47.87900
C  43.44300 6.27000 47.95500
C  46.25500 8.69700 48.17100
C  42.83900 8.54000 47.73100
O  42.86500 9.78200 47.66800
C  41.54700 7.67900 47.60800
C  40.60300 8.02700 48.70600
O  40.89300 8.08700 49.91800
O  39.31800 8.15900 48.16100
C  38.24000 8.49600 49.16100
H  40.18300 0.93600 47.40600
H  46.64100 0.01400 47.97500
H  47.71900 6.08500 48.24500
H  39.19700 5.56400 47.94700
H  39.03700 3.09000 46.59200
H  38.03600 4.12500 49.09400
H  38.83000 2.55200 49.47900
H  37.56800 2.72100 48.13700
H  39.57000 4.40800 45.14600
H  40.35200 5.81400 45.34200
H  38.04200 6.88900 46.19900
H  37.43500 5.38600 45.45300
H  41.55000 -2.15700 46.48700
H  40.47900 -1.02200 47.21700
H  41.30200 -2.30000 48.17700
H  46.65900 -1.83900 46.77900
H  46.34800 -3.40900 47.42700
H  46.36000 -2.04900 48.52900
H  48.70200 1.68600 47.10800
H  48.70100 3.77300 49.24300
H  49.52600 0.24200 48.79600
H  48.15500 0.64600 49.85000
H  49.52000 1.70700 49.83300
H  48.93900 4.85500 46.58800
H  49.86400 3.46600 46.46200
H  51.57700 4.10500 47.52300
H  50.74200 4.74600 48.92300
H  50.94900 5.80200 47.57600
H  47.06700 8.32500 48.79500
H  45.84100 9.56500 48.68600
H  46.68700 8.86900 47.18600
H  40.99100 7.80600 46.67900
H  38.52500 8.17600 50.16400
H  37.27000 8.10600 48.85100
H  38.15700 9.58000 49.22700
Mg 40.98500 41.35000 25.90900
C  40.39400 43.41900 28.55000
C  42.23900 38.98700 28.48400
C  42.46500 39.49100 23.49100
C  40.08500 43.73300 23.68000
N  41.27000 41.15000 28.24800
C  40.91900 42.23100 29.04000
C  41.08700 41.83900 30.52200
C  41.82000 40.45400 30.49200
C  41.83400 40.17900 29.00400
C  43.19500 40.51100 31.15300
C  39.71900 41.89000 31.26600
C  39.66300 42.80200 32.46300
H  39.03600 42.31400 33.85700
N  42.08900 39.47700 25.92600
C  42.34300 38.66700 27.07600
C  43.01300 37.48600 26.54900
C  43.21300 37.57500 25.17800
C  42.56600 38.87300 24.80700
C  43.23900 36.22000 27.36800
C  43.79300 36.58100 24.06800
O  43.91600 36.81400 22.88700
C  44.16600 35.20100 24.54900
N  41.23400 41.51000 23.96000
C  41.87400 40.69300 23.14900
C  41.68500 41.07400 21.62400
C  40.65600 42.17100 21.75600
C  40.66200 42.55200 23.22300
C  42.91100 41.36400 20.78300
C  39.22600 41.84500 21.23400
C  38.32400 40.77500 21.99700
N  40.30400 43.24500 26.05600
C  39.94700 44.12200 25.04200
C  39.69100 45.39000 25.61100
C  39.83900 45.17900 27.00900
C  40.20700 43.82400 27.22600
C  39.39000 46.68100 24.89400
C  39.68300 45.80300 28.28200
O  39.36100 46.93900 28.66600
C  39.97100 44.69900 29.35500
C  41.03300 45.28000 30.27700
O  42.24200 44.95300 30.24500
O  40.39600 46.06400 31.24100
C  41.31500 46.85700 32.03000
H  42.56200 38.24300 29.21500
H  42.97400 39.06900 22.62200
H  39.79500 44.39400 22.86000
H  41.73200 42.58700 30.98400
H  41.19800 39.74400 31.03800
H  43.94600 40.59700 30.36800
H  43.48400 39.63700 31.73700
H  43.40900 41.35300 31.81100
H  39.23600 40.96300 31.57400
H  39.02800 42.36100 30.56600
H  38.94000 43.57900 32.21300
H  40.62200 43.31500 32.51600
H  44.25700 35.84000 27.28100
H  42.52200 35.46600 27.04300
H  43.17000 36.45000 28.43100
H  45.09500 35.32700 25.10400
H  44.27900 34.42500 23.79100
H  43.47400 34.75300 25.26200
H  41.20900 40.20000 21.17900
H  41.04600 43.06800 21.27500
H  43.83600 41.64300 21.28800
H  42.72400 42.06500 19.96900
H  43.00500 40.47400 20.16100
H  39.25000 41.65000 20.16200
H  38.73600 42.78200 21.49800
H  37.89300 41.28700 22.85700
H  38.82800 39.83100 22.20900
H  37.53000 40.59100 21.27400
H  38.92100 46.42500 23.94500
H  40.34300 47.16100 24.67000
H  38.68400 47.27100 25.47900
H  39.06200 44.53900 29.93400
H  42.22800 47.08300 31.47900
H  41.57500 46.39100 32.98000
H  40.80800 47.79600 32.25600

