158

Mg 41.36700 9.45700 29.76700
C  43.18100 10.61900 32.43500
C  39.17800 7.81400 32.08300
C  39.56500 8.27500 27.30900
C  43.86300 10.32000 27.62500
N  41.27600 9.15900 32.04500
C  42.03100 9.89000 32.88000
C  41.50000 9.90900 34.29500
C  40.56000 8.64000 34.14500
C  40.30100 8.50300 32.63500
C  40.85300 7.23800 34.78000
C  40.82600 11.32000 34.70400
C  40.37300 11.41600 36.20800
H  41.10900 12.41200 37.18700
N  39.57100 8.33400 29.65400
C  38.81800 7.80600 30.69100
C  37.59300 7.24800 30.10600
C  37.58700 7.52200 28.72000
C  38.95700 8.03600 28.51600
C  36.52900 6.59300 30.89100
C  36.52400 7.28000 27.68100
O  36.79700 7.29200 26.47600
C  35.04400 7.10600 28.01900
N  41.72100 9.38000 27.71800
C  40.73200 8.91400 26.89900
C  41.15500 9.00000 25.44200
C  42.58400 9.70500 25.59300
C  42.75900 9.79900 27.03800
C  41.30500 7.50900 24.83800
C  42.62400 10.97900 24.70800
C  43.07400 10.73000 23.29600
N  43.22400 10.28400 29.96000
C  44.13400 10.61700 29.01600
C  45.30400 11.30200 29.65700
C  45.01200 11.35200 31.03500
C  43.72000 10.78700 31.13000
C  46.46600 11.86300 28.90200
C  45.40200 11.77600 32.30000
O  46.42900 12.37000 32.60000
C  44.23600 11.29600 33.31900
C  44.79300 10.34900 34.39900
O  44.97000 9.17000 34.23700
O  45.01600 10.96700 35.60500
C  45.22700 10.08400 36.76600
H  38.31300 7.55400 32.69600
H  38.98900 7.91300 26.45500
H  44.68700 10.64300 26.98500
H  42.27200 9.72400 35.04200
H  39.67000 8.96900 34.68200
H  41.82900 7.27700 35.26300
H  40.94200 6.46600 34.01600
H  40.03500 7.04600 35.47600
H  39.94000 11.32500 34.07000
H  41.52400 12.10600 34.41300
H  40.37200 10.44200 36.69700
H  39.34100 11.76800 36.20300
H  36.80200 6.35800 31.91900
H  36.26000 5.62300 30.47200
H  35.58500 7.13300 30.96300
H  34.91500 6.44500 28.87600
H  34.57000 6.62300 27.16500
H  34.56400 8.07100 28.17900
H  40.46000 9.58200 24.83700
H  43.39500 9.07000 25.23800
H  40.53200 7.21300 24.13000
H  41.25500 6.70400 25.57100
H  42.25200 7.39900 24.30900
H  43.29900 11.78000 25.00800
H  41.61700 11.34200 24.50400
H  42.38700 9.98800 22.88800
H  44.07700 10.30300 23.28100
H  43.03500 11.60500 22.64800
H  46.23600 11.75000 27.84300
H  47.37000 11.35700 29.24200
H  46.57500 12.93900 29.04000
H  43.65800 12.07100 33.82200
H  45.63000 9.09600 36.54600
H  44.24500 9.93800 37.21700
H  46.00200 10.60000 37.33300
Mg 48.03700 16.41100 28.68200
C  46.09400 16.16900 31.64100
C  50.33500 18.17300 30.39600
C  49.54800 16.70600 25.74200
C  45.18400 14.83700 27.06500
N  48.14300 17.11300 30.73500
C  47.31900 16.83700 31.78800
C  47.82400 17.32500 33.16300
C  49.04100 18.22000 32.70000
C  49.20900 17.82900 31.16300
C  48.98600 19.73000 33.03600
C  48.11000 16.03400 34.06800
C  47.94200 16.14700 35.61600
H  47.49400 17.50000 36.22900
N  49.76700 17.20900 28.13200
C  50.62200 17.90800 29.00200
C  51.90100 18.15300 28.32900
C  51.72900 17.70500 26.95700
C  50.37200 17.19600 26.91400
C  53.18400 18.74000 29.06300
C  52.69200 17.72700 25.87800
O  52.38100 17.26400 24.78400
C  54.06700 18.19600 26.07400
N  47.45000 15.75900 26.75600
C  48.30000 16.12200 25.69100
C  47.64200 15.71600 24.33900
C  46.34500 14.96800 24.75400
C  46.31400 15.19000 26.26600
C  47.52200 16.82600 23.35800
C  46.25700 13.41600 24.50500
C  46.04600 12.95600 23.06400
N  46.14900 15.53300 29.29100
C  45.12000 14.98200 28.45000
C  43.94600 14.78300 29.25800
C  44.30100 15.18000 30.53000
C  45.59500 15.67300 30.47500
C  42.57700 14.25700 28.69000
C  43.75600 15.28900 31.83000
O  42.66500 14.99800 32.38400
C  45.01900 15.77800 32.64600
C  44.57700 16.96100 33.36900
O  44.13800 18.00700 32.87600
O  44.45100 16.60700 34.70700
C  43.50300 17.24100 35.66300
H  51.07600 18.75000 30.95400
H  50.03200 16.71100 24.76300
H  44.34000 14.51200 26.45300
H  46.96800 17.86600 33.56700
H  49.94000 17.78200 33.13400
H  48.86700 20.44100 32.21800
H  49.86200 19.96600 33.64000
H  48.08400 19.89000 33.62600
H  49.13100 15.73500 33.83100
H  47.48500 15.23200 33.67500
H  48.91400 15.91600 36.05300
H  47.17400 15.38000 35.71100
H  53.93800 17.95900 29.15300
H  53.05400 19.05700 30.09700
H  53.47100 19.61900 28.48700
H  54.61500 18.04400 25.14400
H  54.38500 17.56100 26.90200
H  54.01700 19.25700 26.32000
H  48.33700 15.04000 23.84100
H  45.49100 15.51700 24.35800
H  48.21200 16.62800 22.53800
H  47.89800 17.71900 23.85800
H  46.48900 17.00200 23.06000
H  45.77000 12.85400 25.30200
H  47.26700 13.07200 24.72700
H  46.49000 11.96900 22.93000
H  46.47100 13.66400 22.35300
H  44.96200 12.93300 22.95200
H  42.20000 14.77100 27.80600
H  41.87000 14.45100 29.49800
H  42.68400 13.19100 28.48900
H  45.25500 14.99700 33.36700
H  42.80500 16.43800 35.89800
H  42.88800 17.98100 35.15000
H  43.90800 17.60100 36.60900

