158

Mg 35.69700 0.92700 29.80100
C  33.29700 1.65800 32.31400
C  38.13500 1.52000 32.19000
C  37.92000 0.42500 27.45500
C  33.07300 1.13100 27.38300
N  35.57600 1.31700 32.04100
C  34.58500 1.45400 32.82500
C  34.99200 1.83600 34.22000
C  36.51400 2.19700 34.00000
C  36.80700 1.65900 32.61900
C  36.97200 3.64700 34.07900
C  34.67400 0.78500 35.26100
C  34.16100 1.40200 36.55100
H  35.03400 2.39000 37.28400
N  37.77300 0.79300 29.85200
C  38.62500 1.07900 30.85600
C  39.97900 1.02900 30.45200
C  39.89700 0.56900 29.09100
C  38.52100 0.61400 28.75800
C  41.11600 1.36800 31.43700
C  41.03400 0.36000 28.05900
O  40.83000 0.02800 26.89500
C  42.38700 0.32200 28.48600
N  35.51700 0.80400 27.80600
C  36.60400 0.49000 27.03900
C  36.19300 0.34700 25.57300
C  34.67700 0.50000 25.62600
C  34.37700 0.78700 27.04900
C  36.97500 1.21000 24.56300
C  33.87100 -0.65400 25.04100
C  33.76100 -1.96600 25.88900
N  33.61600 1.42700 29.78800
C  32.77400 1.45600 28.74800
C  31.49100 1.94200 29.24700
C  31.63200 1.98700 30.66300
C  32.94200 1.63300 30.92900
C  30.30800 2.37600 28.45800
C  30.98600 2.31000 31.86500
O  29.92600 2.85400 32.04100
C  32.05700 2.11800 33.01500
C  32.31300 3.38400 33.73000
O  33.09400 4.26100 33.33500
O  31.64200 3.42300 34.98900
C  31.85900 4.63700 35.83500
H  38.90600 1.86300 32.88200
H  38.51600 0.08700 26.60400
H  32.34700 1.28600 26.58300
H  34.56200 2.79400 34.51200
H  37.14300 1.65800 34.70800
H  36.15900 4.29300 34.41100
H  37.27900 4.05100 33.11400
H  37.77300 3.77000 34.80800
H  35.52000 0.14900 35.52200
H  33.85000 0.14800 34.94000
H  33.99700 0.60400 37.27500
H  33.23000 1.91600 36.31100
H  41.17000 2.45300 31.53200
H  42.10900 1.05100 31.11800
H  40.87900 0.91700 32.40000
H  42.94300 -0.15400 27.67800
H  42.40000 -0.34500 29.34800
H  42.71500 1.32500 28.75800
H  36.37500 -0.68800 25.28400
H  34.40800 1.41700 25.10200
H  36.37900 2.10200 24.36800
H  37.30600 0.71800 23.64800
H  37.92600 1.50000 25.00800
H  34.11100 -0.87500 24.00100
H  32.82200 -0.35800 25.05300
H  34.57200 -1.91400 26.61600
H  33.92700 -2.83700 25.25500
H  32.79600 -2.06200 26.38600
H  30.55500 3.18700 27.77300
H  29.44100 2.62900 29.06800
H  30.05400 1.49600 27.86800
H  31.58400 1.41900 33.70400
H  32.21000 5.47900 35.23900
H  32.64200 4.33700 36.53100
H  30.94000 4.90200 36.35800
Mg 36.67700 49.82300 25.89100
C  35.92700 47.96700 28.82500
C  35.63700 52.67000 27.50600
C  36.41600 51.48400 22.92200
C  37.41200 47.00100 24.16100
N  36.02800 50.17500 28.00300
C  35.85900 49.34500 29.03200
C  35.59600 50.05900 30.36800
C  35.47900 51.49900 29.91000
C  35.74200 51.51600 28.34100
C  34.22000 52.25500 30.31100
C  36.83300 49.71900 31.32000
C  36.47100 49.29300 32.77700
H  35.07500 49.43600 33.23800
N  36.21700 51.83400 25.32200
C  35.85900 52.84400 26.19600
C  35.70800 54.06500 25.44600
C  35.87400 53.78900 24.05200
C  36.08400 52.33000 24.04700
C  35.48700 55.34200 26.13700
C  35.71100 54.60200 22.77900
O  35.81100 54.17200 21.62800
C  35.14400 56.02100 22.78400
N  36.98800 49.30100 23.82400
C  36.84200 50.15400 22.82100
C  37.16300 49.51700 21.47500
C  37.57500 48.12900 21.94500
C  37.34400 48.10600 23.39600
C  36.09000 49.54600 20.33100
C  39.05300 47.80100 21.59300
C  40.18600 48.22400 22.49000
N  36.73300 47.83700 26.31600
C  37.08300 46.80300 25.51300
C  36.91200 45.55500 26.28400
C  36.55500 45.95200 27.58800
C  36.36500 47.37100 27.58800
C  37.30800 44.22100 25.74600
C  36.23900 45.52400 28.89100
O  36.19800 44.38500 29.33900
C  35.75900 46.76300 29.69900
C  34.59200 46.43200 30.46000
O  33.43600 46.85200 30.27400
O  34.98300 45.60400 31.51900
C  33.89500 45.18700 32.35200
H  35.30800 53.58300 28.00700
H  36.32500 52.01800 21.97500
H  37.60600 46.06400 23.63400
H  34.70400 49.66600 30.85600
H  36.34000 52.02300 30.32300
H  34.39600 53.19000 30.84200
H  33.66600 51.61400 30.99700
H  33.54900 52.37900 29.46200
H  37.50500 50.57100 31.42500
H  37.36200 48.93200 30.78200
H  37.15200 49.85700 33.41600
H  36.68100 48.22800 32.87100
H  35.27700 56.11400 25.39700
H  36.37500 55.51000 26.74600
H  34.72100 55.28200 26.91000
H  35.15800 56.31900 21.73600
H  35.87300 56.59100 23.36100
H  34.15600 56.14600 23.22800
H  38.05200 49.96200 21.02800
H  37.10100 47.34400 21.35700
H  35.27500 50.19500 20.65200
H  35.63600 48.59900 20.03800
H  36.64200 49.93000 19.47300
H  39.19100 48.11600 20.55900
H  39.14600 46.71500 21.60300
H  40.94000 48.78600 21.94000
H  40.53600 47.37200 23.07300
H  39.83200 49.03800 23.12200
H  36.97200 44.10600 24.71500
H  36.80500 43.46500 26.34900
H  38.35700 44.18100 26.04100
H  36.55700 46.83700 30.43800
H  33.15400 44.57900 31.83400
H  33.37300 46.01500 32.82900
H  34.32100 44.54400 33.12200

