158

Mg 26.50900 51.98800 26.74200
C  24.25200 52.90800 29.31100
C  28.77800 51.24500 29.14800
C  28.71200 51.74300 24.33500
C  24.10500 53.14400 24.46200
N  26.48600 52.17700 29.02500
C  25.46200 52.39200 29.85700
C  25.90000 52.16200 31.35500
C  27.35900 51.72800 31.19100
C  27.56300 51.69400 29.66200
C  28.39400 52.66200 31.93900
C  25.00200 51.11400 32.15000
C  25.42200 50.86100 33.59600
H  24.56300 51.26600 34.76300
N  28.52500 51.46900 26.80900
C  29.23100 51.17500 27.85400
C  30.54000 50.79900 27.34900
C  30.51800 50.97200 25.94300
C  29.20900 51.41300 25.61800
C  31.66600 50.22900 28.23400
C  31.75600 50.83500 25.05500
O  31.63300 51.14200 23.89300
C  33.08200 50.43700 25.52000
N  26.37900 52.32700 24.71100
C  27.39000 52.02600 23.93300
C  27.05100 52.27500 22.38400
C  25.57500 52.54900 22.45500
C  25.31600 52.83400 23.92100
C  27.89000 53.32300 21.73500
C  24.63600 51.43200 21.80000
C  23.75200 51.96700 20.64700
N  24.58300 52.95700 26.83800
C  23.75100 53.23300 25.83400
C  22.51400 53.75300 26.32900
C  22.65700 53.57500 27.71500
C  23.93500 53.13900 27.99800
C  21.36900 54.37900 25.63400
C  21.97500 53.70800 29.05500
O  20.88700 54.15000 29.41500
C  23.00200 53.33200 30.07400
C  23.20700 54.51700 30.96500
O  23.68900 55.60000 30.63100
O  22.79100 54.17300 32.22800
C  22.56400 55.26500 33.17400
H  29.43800 50.90700 29.95000
H  29.37600 51.74800 23.46900
H  23.27600 53.58400 23.90500
H  25.77900 53.11100 31.87700
H  27.47200 50.74100 31.64100
H  29.23000 52.88800 31.27700
H  28.82100 52.07500 32.75200
H  28.08100 53.63400 32.32000
H  25.14600 50.22200 31.54000
H  23.95200 51.38500 32.03900
H  26.40400 51.32900 33.66500
H  25.49900 49.77800 33.70000
H  31.93800 49.20300 27.98600
H  31.40600 50.27500 29.29200
H  32.50000 50.92700 28.15500
H  33.31000 51.16500 26.29900
H  33.85100 50.51900 24.75300
H  33.07100 49.41700 25.90300
H  27.33200 51.29200 22.00700
H  25.42800 53.55400 22.05900
H  27.27900 54.09700 21.27100
H  28.46600 52.85400 20.93700
H  28.52100 53.70300 22.53800
H  23.93900 51.03700 22.54000
H  25.24300 50.58300 21.48700
H  23.85500 51.30700 19.78600
H  24.01500 52.99200 20.38500
H  22.70000 51.88400 20.91900
H  21.80800 55.16200 25.01500
H  20.80900 54.72100 26.50500
H  20.87100 53.60600 25.05000
H  22.64600 52.48100 30.65600
H  23.51100 55.79500 33.26900
H  22.33400 54.82700 34.14500
H  21.73800 55.90400 32.86200
Mg 0.45200 43.16900 25.25700
C  2.88000 42.29500 27.65500
C  -1.86400 43.27600 27.81300
C  -1.90500 43.38800 22.97900
C  2.79900 42.48600 22.70100
N  0.53500 42.70600 27.43300
C  1.62700 42.40900 28.23700
C  1.19800 42.30800 29.70800
C  -0.37800 42.29000 29.59700
C  -0.65900 42.76000 28.19400
C  -0.97900 40.89900 29.72600
C  1.63400 43.54400 30.57800
C  1.41300 43.44900 32.06300
H  1.18800 42.12600 32.66700
N  -1.60300 43.52600 25.37300
C  -2.35900 43.56700 26.49400
C  -3.76100 43.99900 26.15300
C  -3.82300 43.92700 24.73400
C  -2.47100 43.56800 24.26100
C  -4.73500 44.49600 27.18300
C  -5.00700 44.09100 23.89200
O  -4.93800 43.75000 22.71500
C  -6.26100 44.31900 24.50000
N  0.49500 43.01800 23.10600
C  -0.64100 43.22400 22.43800
C  -0.37200 43.11100 20.93700
C  1.19300 42.94700 20.80300
C  1.59100 42.94600 22.26000
C  -1.12500 41.95100 20.23000
C  1.86200 44.13200 20.03300
C  2.18000 45.45400 20.76600
N  2.40500 42.62900 25.15200
C  3.23000 42.42600 24.04000
C  4.56200 42.33400 24.49500
C  4.48300 42.20700 25.89500
C  3.11200 42.40800 26.23100
C  5.80300 42.23500 23.76600
C  5.28100 42.01200 27.12000
O  6.45500 41.89000 27.29300
C  4.25000 42.09200 28.29300
C  4.41200 40.95400 29.23700
O  4.06100 39.82200 28.94100
O  5.01500 41.23500 30.37000
C  5.02900 40.14800 31.47100
H  -2.60800 43.51200 28.57600
H  -2.60600 43.37000 22.14100
H  3.54300 42.20400 21.95300
H  1.63600 41.42500 30.17400
H  -0.84700 42.97400 30.30400
H  -0.22900 40.15700 29.99800
H  -1.48500 40.59800 28.80900
H  -1.67900 40.88900 30.56200
H  0.97900 44.36700 30.29000
H  2.66600 43.81700 30.35800
H  0.53000 44.02500 32.34000
H  2.23500 43.89600 32.62300
H  -4.27900 44.47000 28.17200
H  -5.62400 43.87300 27.28300
H  -5.17000 45.45400 26.89900
H  -7.04800 44.32300 23.74500
H  -6.23200 45.18100 25.16700
H  -6.36000 43.44500 25.14400
H  -0.65800 44.04900 20.46000
H  1.49700 42.08700 20.20500
H  -0.49700 41.13000 19.88500
H  -1.64800 42.21900 19.31100
H  -1.74100 41.52200 21.02000
H  1.19100 44.34600 19.20100
H  2.71600 43.73900 19.48100
H  2.15700 45.34400 21.85000
H  1.46900 46.24900 20.54100
H  3.14800 45.82900 20.43400
H  5.82300 42.74600 22.80300
H  5.93600 41.16700 23.59300
H  6.63200 42.58200 24.38200
H  4.43700 43.03800 28.80100
H  4.11500 39.55400 31.48400
H  5.17500 40.63400 32.43600
H  5.89900 39.52200 31.27300

