158

Mg 15.91600 -2.53700 28.25500
C  15.05600 -0.43700 30.99000
C  17.88400 -4.30500 30.27500
C  17.42500 -3.96200 25.52800
C  14.34400 -0.26500 26.17300
N  16.39800 -2.31000 30.42500
C  15.93500 -1.46300 31.33700
C  16.38500 -1.83100 32.76400
C  17.34900 -3.06800 32.53400
C  17.17400 -3.23500 31.00200
C  18.90400 -2.86000 32.82200
C  15.32000 -2.11000 33.86700
C  15.29700 -1.38700 35.19900
H  16.64800 -0.75500 35.69200
N  17.40300 -4.01100 27.96200
C  18.04500 -4.56000 28.93500
C  18.87300 -5.59300 28.43200
C  18.77300 -5.55900 26.99400
C  17.84700 -4.51000 26.73500
C  19.65300 -6.57700 29.32700
C  19.47100 -6.37700 25.83800
O  19.17600 -6.25100 24.62800
C  20.45000 -7.48200 26.14400
N  15.98600 -2.11000 26.04500
C  16.56500 -2.92100 25.16700
C  16.22200 -2.49500 23.73600
C  15.03100 -1.46900 23.92600
C  15.16600 -1.19300 25.46300
C  17.53000 -1.97400 23.00800
C  13.58400 -1.98100 23.71700
C  12.55000 -0.93800 23.18000
N  14.80500 -0.77900 28.45600
C  14.12700 -0.06000 27.50200
C  13.37200 1.06200 28.20800
C  13.71500 0.96200 29.56000
C  14.62200 -0.16100 29.67500
C  12.59100 2.15100 27.44300
C  13.62900 1.60500 30.81700
O  13.18800 2.69900 31.07400
C  14.34000 0.63700 31.92500
C  15.17700 1.43400 32.90600
O  16.36500 1.74100 32.77500
O  14.30900 1.94500 33.88900
C  14.86600 3.04800 34.68100
H  18.39700 -5.04700 30.89100
H  17.89400 -4.41400 24.65100
H  13.74900 0.42800 25.57500
H  16.88600 -0.93500 33.12900
H  16.97100 -3.96200 33.03000
H  19.47700 -2.71500 31.90600
H  19.24500 -3.75600 33.34100
H  19.31900 -2.04500 33.41500
H  15.24400 -3.16700 34.12200
H  14.37200 -1.77900 33.44300
H  14.90000 -1.97400 36.02700
H  14.63400 -0.52600 35.10700
H  19.68100 -7.44800 28.67300
H  19.13700 -6.87600 30.23900
H  20.67700 -6.20800 29.39100
H  19.91100 -8.34000 26.54600
H  21.14900 -7.07400 26.87500
H  20.84300 -7.85300 25.19800
H  15.92200 -3.35500 23.13700
H  15.20800 -0.66200 23.21500
H  17.49400 -0.88500 22.98600
H  17.63500 -2.43800 22.02700
H  18.45300 -2.21600 23.53600
H  13.16400 -2.37100 24.64400
H  13.68800 -2.82500 23.03600
H  12.01300 -0.67100 24.09000
H  11.88900 -1.42400 22.46200
H  13.15000 -0.11100 22.80100
H  11.62500 2.22900 27.94100
H  12.50700 1.85800 26.39700
H  13.07900 3.11600 27.58200
H  13.55700 0.15000 32.50700
H  15.77100 2.71200 35.18700
H  14.17400 3.25500 35.49700
H  14.95500 3.85000 33.94800
Mg 6.81500 54.55500 40.87500
C  6.03300 51.18700 40.28500
C  10.01000 53.99200 40.12800
C  7.32300 57.88800 41.16200
C  3.33900 55.22100 41.28000
N  7.90400 52.78500 40.27000
C  7.39800 51.48300 40.02000
C  8.52200 50.56200 39.54200
C  9.77900 51.42300 39.98200
C  9.20400 52.84600 40.16100
C  10.61000 50.84700 41.22200
C  8.47500 50.44100 37.93500
C  8.74600 49.06700 37.23600
H  7.71800 48.47800 36.26600
N  8.39700 55.79700 40.61900
C  9.68500 55.34000 40.25800
C  10.54800 56.41600 40.07100
C  9.87300 57.56300 40.55800
C  8.47100 57.15500 40.83300
C  11.94100 56.37800 39.53300
C  10.50700 58.96400 40.63800
O  11.68800 59.09900 40.21600
C  9.75700 60.19100 41.09500
N  5.56700 56.26800 41.05300
C  6.02400 57.48700 41.37100
C  4.89600 58.48800 41.68600
C  3.63000 57.64000 41.52900
C  4.22300 56.25600 41.32500
C  5.08600 58.98900 43.13100
C  2.72100 58.08800 40.29400
C  1.56700 59.06200 40.60600
N  5.02600 53.42900 40.83200
C  3.70700 53.85600 41.07800
C  2.86200 52.59900 41.06200
C  3.78000 51.55400 40.93700
C  5.02500 52.14100 40.70500
C  1.33300 52.53900 41.27000
C  3.93200 50.08100 40.83800
O  3.04600 49.22800 40.96600
C  5.44000 49.76400 40.54300
C  5.51700 48.81300 39.35500
O  5.26400 49.13900 38.18900
O  5.97900 47.60800 39.75000
C  6.30700 46.55500 38.79200
H  11.07800 53.82900 39.96900
H  7.46600 58.97100 41.17700
H  2.27500 55.31100 41.50800
H  8.65700 49.65100 40.12600
H  10.40100 51.39800 39.08700
H  10.92600 51.70100 41.82100
H  11.43300 50.25200 40.82700
H  9.90400 50.30700 41.85200
H  9.25800 51.13800 37.63500
H  7.47300 50.76300 37.65300
H  8.90300 48.26100 37.95300
H  9.68100 49.18700 36.68900
H  11.98900 57.14800 38.76300
H  12.15600 55.40400 39.09300
H  12.63600 56.54700 40.35500
H  9.00900 60.35400 40.31900
H  10.57400 60.90900 41.02400
H  9.34500 59.92300 42.06800
H  4.92400 59.29400 40.95300
H  3.08000 57.61900 42.47000
H  5.29500 60.05500 43.21600
H  5.89800 58.44100 43.60900
H  4.25300 58.84300 43.81900
H  2.20000 57.22100 39.88700
H  3.39600 58.42800 39.50900
H  0.55700 58.71300 40.39300
H  1.69000 59.96700 40.01000
H  1.61700 59.42100 41.63400
H  0.89900 51.67800 40.76300
H  0.99600 53.39900 40.69200
H  1.01500 52.61400 42.31000
H  5.83500 49.19400 41.38400
H  5.94900 45.58400 39.13500
H  7.37900 46.42300 38.64700
H  5.79200 46.66400 37.83700

