158

Mg 17.19800 -2.42900 28.14300
C  16.39300 -0.19400 30.80600
C  19.16800 -4.08900 30.29000
C  18.59000 -3.86000 25.59900
C  15.69200 0.04400 26.02100
N  17.87900 -1.98600 30.28300
C  17.21400 -1.25300 31.24700
C  17.52500 -1.70500 32.64900
C  18.64400 -2.76300 32.36700
C  18.52100 -3.00600 30.85400
C  20.04800 -2.32900 32.81900
C  16.30300 -2.22000 33.48400
C  16.24200 -1.67200 34.92200
H  17.49200 -1.03900 35.58200
N  18.56800 -3.97500 27.97000
C  19.18100 -4.54500 28.96700
C  19.82600 -5.77200 28.48700
C  19.75700 -5.69000 27.06600
C  18.94600 -4.48000 26.83800
C  20.42300 -6.87000 29.35600
C  20.19800 -6.64000 25.98200
O  19.87700 -6.46600 24.81000
C  20.85600 -8.03400 26.33000
N  17.10800 -1.98500 26.14600
C  17.83400 -2.70400 25.26000
C  17.64200 -2.23800 23.74200
C  16.68100 -1.08400 23.96000
C  16.39800 -1.00600 25.44100
C  19.04700 -1.69300 23.13100
C  15.39200 -1.05200 23.08100
C  14.12500 -1.56900 23.63300
N  16.11700 -0.51400 28.31800
C  15.46000 0.29400 27.38400
C  14.85100 1.36200 28.03100
C  15.19700 1.23000 29.36500
C  15.99600 0.09500 29.48300
C  13.95000 2.52100 27.45500
C  15.05400 1.84000 30.63400
O  14.44800 2.90200 31.01100
C  15.67300 0.85000 31.65800
C  16.59500 1.69100 32.53700
O  17.69000 2.22900 32.31800
O  15.88100 1.98500 33.63600
C  16.30300 3.08600 34.44800
H  19.76200 -4.70100 30.97200
H  19.00300 -4.29100 24.68400
H  15.23600 0.76900 25.34400
H  17.78900 -0.79800 33.19300
H  18.43300 -3.69600 32.88900
H  20.20000 -1.30000 33.14400
H  20.70400 -2.57600 31.98400
H  20.40300 -3.01100 33.59200
H  16.27400 -3.30300 33.60600
H  15.44000 -2.03500 32.84400
H  16.00800 -2.44100 35.65800
H  15.43100 -0.94900 34.84800
H  20.56700 -6.59000 30.39900
H  21.40100 -7.06400 28.91300
H  19.71000 -7.69200 29.28500
H  20.17000 -8.62300 26.93900
H  21.84800 -7.86000 26.74800
H  20.98200 -8.61100 25.41400
H  17.15700 -3.03800 23.18300
H  17.19400 -0.13800 23.78400
H  18.92100 -0.76700 22.57100
H  19.36400 -2.35100 22.32200
H  19.93300 -1.62800 23.76200
H  15.54300 -1.72500 22.23700
H  15.18600 -0.07600 22.64100
H  14.34900 -2.45800 24.22300
H  13.39200 -1.81800 22.86600
H  13.70300 -0.91600 24.39800
H  12.93200 2.28400 27.14500
H  14.53300 3.02400 26.68400
H  13.86100 3.32200 28.18900
H  14.90700 0.40600 32.29400
H  15.99200 4.03500 34.01200
H  17.39300 3.09200 34.43800
H  15.80500 2.95300 35.40800
Mg 40.95000 7.82700 29.50800
C  42.68500 9.28200 32.20100
C  38.72000 6.56600 31.70000
C  39.66700 6.20900 26.98000
C  43.62000 8.84200 27.49400
N  40.70900 7.99800 31.71100
C  41.54900 8.60900 32.59600
C  41.05000 8.49800 33.99800
C  39.99300 7.36300 33.87300
C  39.74300 7.36900 32.28600
C  40.35900 5.91800 34.33300
C  40.45700 9.84900 34.54100
C  40.00200 9.92700 36.03700
H  40.80000 10.50600 37.15500
N  39.45900 6.56100 29.38200
C  38.54600 6.26900 30.36500
C  37.38300 5.57800 29.90500
C  37.58200 5.49700 28.47800
C  39.00200 6.09600 28.21600
C  36.25900 4.91000 30.72800
C  36.58200 5.00400 27.35200
O  36.88300 4.93500 26.21800
C  35.21000 4.62000 27.77400
N  41.63900 7.34700 27.58500
C  40.76500 6.86500 26.68700
C  41.30900 6.92900 25.30900
C  42.39000 8.07100 25.45300
C  42.58700 8.07800 26.90700
C  41.86700 5.55300 24.79500
C  41.89700 9.39000 24.69200
C  40.83800 10.25500 25.37200
N  42.73100 8.89400 29.69700
C  43.77100 9.22200 28.79700
C  44.83000 9.99200 29.42600
C  44.39400 10.12600 30.77200
C  43.20700 9.38300 30.89200
C  46.10000 10.51900 28.80000
C  44.76800 10.62600 32.03100
O  45.85200 11.19100 32.36900
C  43.66400 10.20500 33.04200
C  44.38100 9.41000 34.07600
O  45.18600 8.53600 33.93600
O  44.01300 9.87200 35.31900
C  44.55600 9.11800 36.44600
H  37.96500 6.19800 32.39800
H  39.12600 5.76900 26.14000
H  44.42100 9.07600 26.79000
H  41.91600 8.15500 34.56500
H  39.01100 7.59400 34.28600
H  40.26500 5.28000 33.45400
H  39.69600 5.57300 35.12700
H  41.39700 5.92900 34.66500
H  39.50600 10.04100 34.04500
H  41.03500 10.76100 34.38800
H  39.69000 8.94400 36.38900
H  39.12800 10.56200 36.18700
H  35.34400 5.45500 30.49500
H  36.44300 4.84100 31.80000
H  36.10700 3.88600 30.38600
H  35.14000 3.57100 28.05900
H  34.64400 4.63500 26.84200
H  34.68500 5.33300 28.40900
H  40.50200 7.33200 24.69700
H  43.30400 7.88600 24.89000
H  42.95500 5.56900 24.73400
H  41.28000 5.40800 23.88800
H  41.52200 4.83500 25.54000
H  41.39900 9.02700 23.79300
H  42.74900 10.03300 24.47000
H  40.19900 9.70400 26.06200
H  40.12800 10.49700 24.58200
H  41.27600 11.14500 25.82500
H  46.83300 9.72200 28.92600
H  46.55900 11.24300 29.47400
H  45.87800 10.79400 27.76900
H  43.23700 11.08400 33.52600
H  43.99100 8.19600 36.31100
H  44.47100 9.60000 37.42000
H  45.63000 8.93000 36.42900

