158

Mg 48.93500 35.30100 27.21500
C  47.01500 33.87400 29.94600
C  49.20800 38.10000 29.23800
C  49.87300 37.07600 24.50000
C  48.13800 32.51500 25.27700
N  48.23700 35.86100 29.39800
C  47.59600 35.06500 30.27800
C  47.86100 35.63300 31.64800
C  48.14700 37.14900 31.35700
C  48.60100 37.03000 29.89100
C  46.98300 38.08300 31.58100
C  49.11300 34.93600 32.35500
C  48.93200 34.68500 33.86000
H  49.75200 35.48700 34.81000
N  49.61900 37.23400 26.94300
C  49.64400 38.26700 27.94700
C  50.25200 39.45100 27.35300
C  50.56600 39.17300 25.91600
C  50.03300 37.78000 25.77000
C  50.57900 40.75600 28.17300
C  51.19200 40.03200 24.93600
O  51.31300 39.64000 23.79900
C  51.76400 41.47600 25.25600
N  49.00900 34.82100 25.24400
C  49.46300 35.79100 24.30000
C  49.65100 35.06800 22.89600
C  49.25200 33.57500 23.28800
C  48.71300 33.65700 24.71800
C  48.95500 35.61900 21.65100
C  50.57300 32.67300 23.27000
C  50.37400 31.30500 22.54900
N  47.86900 33.44200 27.55700
C  47.62900 32.41700 26.64400
C  46.99700 31.34500 27.38400
C  46.60100 31.88100 28.59500
C  47.25100 33.17100 28.69800
C  46.70100 29.91800 26.88400
C  45.87200 31.63200 29.79000
O  45.11600 30.71300 30.11300
C  45.98000 32.99700 30.68500
C  46.43900 32.53000 32.02300
O  47.46800 31.86500 32.23900
O  45.51500 32.89900 32.98500
C  45.89800 32.51300 34.39600
H  49.37500 38.95900 29.89100
H  50.39100 37.42400 23.60300
H  48.03200 31.58400 24.71500
H  46.91100 35.49600 32.16400
H  49.01900 37.45500 31.93500
H  47.18700 39.12800 31.81300
H  46.45100 37.66600 32.43700
H  46.37400 38.08100 30.67700
H  50.02000 35.52400 32.21800
H  49.33100 34.00800 31.82700
H  49.02900 33.61600 34.05200
H  47.90600 34.99300 34.06100
H  50.15400 41.62900 27.67800
H  51.63100 41.00300 28.31600
H  50.03100 40.90500 29.10400
H  52.12100 41.95000 24.34200
H  52.52400 41.46500 26.03800
H  50.90300 42.12600 25.41200
H  50.72800 35.18700 22.77300
H  48.47300 33.15000 22.65500
H  49.53200 36.41400 21.17900
H  48.07400 36.13900 22.02900
H  48.66300 34.95900 20.83400
H  50.96700 32.39600 24.24800
H  51.36200 33.15200 22.69000
H  50.93700 31.30400 21.61600
H  49.32500 31.07300 22.36300
H  50.72100 30.42300 23.08600
H  45.85100 29.93900 26.20100
H  46.45700 29.31200 27.75600
H  47.59800 29.60000 26.35200
H  44.99700 33.42300 30.88500
H  46.35800 33.36400 34.89800
H  46.60200 31.68200 34.44100
H  44.98600 32.26400 34.93700
Mg 30.97600 57.60100 39.01800
C  28.37600 55.59900 38.12600
C  33.21300 55.12900 38.25100
C  33.69100 59.80800 39.59500
C  28.83800 60.14300 39.98000
N  30.80200 55.71400 38.01700
C  29.59100 54.99600 37.92900
C  29.80900 53.52400 37.55600
C  31.38800 53.34100 37.78200
C  31.83800 54.83400 38.02400
C  31.94500 52.21700 38.73400
C  29.30800 52.99000 36.18400
C  29.67200 53.73100 34.87300
H  28.60600 54.35600 34.09100
N  33.18100 57.45600 38.89200
C  33.86300 56.36500 38.52900
C  35.25800 56.61900 38.60900
C  35.43500 57.94900 38.97900
C  34.08600 58.48800 39.14200
C  36.29600 55.67500 38.14000
C  36.78700 58.63500 39.06300
O  37.81900 58.04000 38.73200
C  36.85400 60.09600 39.42300
N  31.25900 59.67300 39.53300
C  32.38900 60.37400 39.74400
C  32.20600 61.81700 40.18900
C  30.62400 61.81000 40.54400
C  30.17000 60.49800 39.97100
C  33.09100 62.24200 41.41600
C  29.88300 63.16400 40.11300
C  29.14900 63.83300 41.26200
N  29.05700 57.89900 39.04800
C  28.24700 58.93400 39.53300
C  26.85200 58.51000 39.44800
C  26.83600 57.29700 38.85100
C  28.18800 56.87900 38.65500
C  25.65500 59.31500 39.72800
C  26.00700 56.26500 38.23700
O  24.80000 56.27000 38.08800
C  27.00000 55.10600 37.85500
C  26.68600 54.01500 38.78100
O  27.16300 53.82500 39.90800
O  25.55800 53.37000 38.25400
C  24.76100 52.46600 39.13400
H  33.93100 54.30800 38.18700
H  34.50300 60.46500 39.91500
H  28.11100 60.82300 40.43000
H  29.31400 52.97100 38.35500
H  31.83900 52.95600 36.86800
H  31.15000 51.47300 38.78700
H  32.37200 52.59600 39.66200
H  32.74000 51.67400 38.22400
H  28.22500 53.03200 36.30100
H  29.54600 51.93200 36.06700
H  30.09800 52.99300 34.19400
H  30.44300 54.46100 35.11900
H  36.62800 56.03300 37.16600
H  35.96000 54.64200 38.04600
H  37.09900 55.75800 38.87300
H  37.83200 60.48700 39.14400
H  36.61500 60.18700 40.48300
H  36.16400 60.65200 38.78800
H  32.33200 62.47300 39.32800
H  30.63100 61.63900 41.62000
H  32.58100 62.97800 42.03800
H  33.97300 62.79900 41.10000
H  33.21900 61.35600 42.03800
H  29.12400 63.02900 39.34300
H  30.60200 63.78700 39.58100
H  29.95900 64.10600 41.93800
H  28.40700 63.11400 41.60700
H  28.73000 64.79300 40.95800
H  24.76100 58.94500 39.22600
H  25.86800 60.31100 39.34000
H  25.48200 59.28900 40.80400
H  26.80300 54.89000 36.80500
H  24.68300 51.56000 38.53400
H  23.78400 52.90100 39.34400
H  25.40400 52.18800 39.96900

