158

Mg 46.35800 17.09400 27.94100
C  44.96800 16.24000 30.97000
C  48.99500 18.59500 29.77500
C  47.99500 17.84900 25.00500
C  43.91100 15.49900 26.29300
N  46.91600 17.30900 30.16800
C  46.11000 16.97300 31.22000
C  46.68200 17.37300 32.56800
C  47.88100 18.32600 32.15600
C  47.99100 18.10400 30.61100
C  47.58100 19.79300 32.46500
C  47.11600 16.17400 33.41100
C  46.67300 16.22400 34.88800
H  46.60600 17.63800 35.43200
N  48.12500 18.13100 27.47300
C  49.09600 18.63500 28.35800
C  50.22400 19.12400 27.57700
C  49.84700 19.14800 26.20300
C  48.61400 18.37000 26.17700
C  51.42100 19.84300 28.28000
C  50.53000 19.68200 24.84900
O  50.11800 19.45900 23.69300
C  51.84300 20.45500 24.88000
N  45.99100 16.68400 25.83900
C  46.80000 17.02700 24.85100
C  46.15100 16.66100 23.47300
C  45.05400 15.66600 24.01800
C  45.00600 15.89100 25.47800
C  45.67300 17.91400 22.61400
C  45.27400 14.17700 23.59700
C  45.94800 13.09100 24.53500
N  44.67700 16.22300 28.43400
C  43.77300 15.55500 27.66300
C  42.68200 14.98900 28.48100
C  43.18800 15.20200 29.78200
C  44.37100 15.98300 29.73200
C  41.52800 14.23600 28.06600
C  42.82700 15.09100 31.16700
O  41.70900 14.66000 31.52000
C  43.92500 15.69800 32.00200
C  43.31200 16.81000 32.75500
O  43.08500 17.92700 32.26000
O  42.91200 16.38800 34.07800
C  42.32100 17.36600 35.01400
H  49.82400 19.06500 30.30800
H  48.28900 18.07400 23.97700
H  43.17800 14.89600 25.75300
H  45.95600 17.95200 33.13800
H  48.79900 17.97500 32.62800
H  48.42900 20.16700 33.04000
H  46.68500 20.01600 33.04500
H  47.47900 20.20600 31.46200
H  48.20200 16.11400 33.48300
H  46.73200 15.25400 32.97000
H  47.48200 15.77800 35.46600
H  45.72300 15.70500 35.01700
H  51.03100 20.77700 28.68300
H  52.24600 19.96100 27.57900
H  51.90500 19.25600 29.06100
H  51.61200 21.43100 25.30800
H  52.25700 20.62700 23.88700
H  52.59600 19.97600 25.50600
H  46.87500 16.18600 22.81100
H  44.11600 15.94100 23.53500
H  44.58900 17.83400 22.53900
H  46.15200 17.83100 21.63900
H  46.04600 18.81900 23.09400
H  45.88600 14.17200 22.69500
H  44.33500 13.66500 23.38700
H  47.02700 13.24400 24.58000
H  45.62800 12.08400 24.27000
H  45.57300 13.20700 25.55200
H  40.60200 14.79900 27.94500
H  41.41400 13.45600 28.81800
H  41.66200 13.66200 27.14900
H  44.23000 14.95400 32.73800
H  41.25000 17.40100 34.81300
H  42.73000 18.36800 34.88400
H  42.65000 16.94600 35.96400
Mg 42.16500 41.43500 27.03700
C  41.44600 43.73800 29.53200
C  43.01600 39.14200 29.54000
C  43.42800 39.42100 24.59800
C  41.92500 44.08200 24.66800
N  42.16200 41.43800 29.21200
C  41.68600 42.40200 29.96600
C  41.54600 41.96700 31.49400
C  42.23800 40.59300 31.46400
C  42.51200 40.34300 29.99500
C  43.52300 40.40500 32.35000
C  40.07700 41.99200 32.02100
C  39.72100 43.15300 32.98100
H  38.90200 42.75400 34.26100
N  42.95100 39.43800 27.05300
C  43.18100 38.63900 28.16300
C  43.51900 37.28100 27.69900
C  43.49500 37.34300 26.26400
C  43.25600 38.76500 25.93900
C  43.76600 36.16700 28.65100
C  43.67300 36.21900 25.24500
O  43.70000 36.35200 24.01900
C  43.73600 34.70500 25.72000
N  42.76100 41.72900 25.02900
C  43.20300 40.76400 24.21500
C  43.56800 41.29200 22.82800
C  42.57200 42.49100 22.84100
C  42.39800 42.83200 24.27000
C  45.03300 41.63200 22.49400
C  41.22000 42.18600 22.13900
C  40.36200 40.95000 22.54400
N  41.81900 43.52800 27.05200
C  41.68100 44.42100 26.02000
C  41.41800 45.68600 26.60600
C  41.36700 45.50900 27.98600
C  41.57600 44.15900 28.20400
C  41.18400 46.93100 25.89700
C  41.17300 46.15500 29.23900
O  40.97700 47.31900 29.60700
C  41.11500 45.00200 30.25500
C  42.05000 45.47700 31.30100
O  43.25600 45.54400 31.07500
O  41.48500 45.90100 32.47300
C  42.47800 46.45500 33.45200
H  43.27400 38.45600 30.34800
H  43.88200 38.78900 23.83200
H  41.72500 44.86400 23.93100
H  42.24400 42.66900 31.95100
H  41.52600 39.83500 31.79000
H  44.10900 39.60000 31.90500
H  43.16800 40.22300 33.36400
H  44.14100 41.29800 32.44800
H  39.83100 41.11100 32.61400
H  39.34800 42.00500 31.21100
H  39.01900 43.94400 32.71700
H  40.64000 43.58900 33.37300
H  44.58800 35.56100 28.27000
H  42.87500 35.54100 28.64400
H  44.01000 36.52400 29.65200
H  44.67600 34.59800 26.26100
H  43.71800 34.04000 24.85600
H  42.91600 34.46900 26.39800
H  43.14400 40.63900 22.06500
H  43.03800 43.34100 22.34300
H  45.31700 42.64400 22.78300
H  45.12100 41.48700 21.41700
H  45.78400 40.95700 22.90400
H  41.54100 42.08800 21.10200
H  40.59200 43.07400 22.21300
H  40.29900 40.29100 21.67800
H  39.45700 41.44800 22.88900
H  40.87700 40.47200 23.37800
H  40.14600 47.26300 25.92800
H  41.54000 46.81100 24.87300
H  41.74700 47.77100 26.30200
H  40.12700 44.92500 30.71000
H  43.37800 46.88000 33.00800
H  42.69300 45.65400 34.16000
H  42.08700 47.29800 34.02100

