158

Mg -1.83200 17.33400 26.12500
C  -2.44800 15.18400 28.88100
C  -3.12700 19.84700 27.99800
C  -1.61100 19.28700 23.56000
C  -1.31300 14.48200 24.12500
N  -2.71900 17.46600 28.22900
C  -2.80900 16.52300 29.17400
C  -3.33500 17.05200 30.53400
C  -3.99300 18.35300 30.03800
C  -3.26600 18.58800 28.66200
C  -5.54400 18.27600 29.93500
C  -2.18200 17.27600 31.52100
C  -2.49900 16.89400 33.00100
H  -1.22900 16.48400 33.87100
N  -1.99900 19.36200 25.95700
C  -2.56700 20.24500 26.80900
C  -2.40600 21.57200 26.29600
C  -1.88800 21.43300 25.00400
C  -1.86300 20.05400 24.74000
C  -2.74700 22.78100 27.13500
C  -1.41500 22.52600 24.10600
O  -0.80600 22.24800 23.07700
C  -1.47700 23.88300 24.55500
N  -1.71900 16.90300 24.18300
C  -1.55400 17.90600 23.26400
C  -1.53100 17.42900 21.85000
C  -1.11900 15.91800 22.03300
C  -1.39100 15.75700 23.54300
C  -2.93000 17.70400 21.26400
C  0.41500 15.58900 21.79900
C  1.46300 16.01500 22.79900
N  -1.86200 15.21600 26.41800
C  -1.60700 14.19300 25.54600
C  -1.67600 12.88600 26.20300
C  -2.01100 13.22300 27.56300
C  -2.11500 14.62800 27.62800
C  -1.52100 11.51200 25.62100
C  -2.23700 12.64300 28.86000
O  -2.24700 11.48800 29.28700
C  -2.55100 13.91500 29.76600
C  -1.57900 13.91600 30.95900
O  -0.37000 13.97200 30.92200
O  -2.31000 13.57000 32.04400
C  -1.53600 13.14900 33.18300
H  -3.55600 20.54400 28.72200
H  -1.57700 19.97000 22.70900
H  -1.02400 13.72700 23.39100
H  -4.02600 16.29300 30.89900
H  -3.74400 19.16100 30.72600
H  -6.08700 19.09100 30.41500
H  -5.84900 17.28800 30.27900
H  -5.81300 18.27000 28.87900
H  -1.85000 18.31300 31.56700
H  -1.42600 16.56000 31.19700
H  -3.25500 16.12400 33.14800
H  -2.86600 17.82400 33.43700
H  -3.12200 22.59600 28.14200
H  -3.48700 23.41000 26.64000
H  -1.81500 23.34700 27.15500
H  -2.47100 24.15000 24.91400
H  -1.23600 24.53600 23.71700
H  -0.68500 24.06100 25.28200
H  -0.74100 17.93400 21.29200
H  -1.75900 15.34200 21.36400
H  -3.40700 16.72500 21.23000
H  -2.82400 18.00300 20.22100
H  -3.54100 18.26900 21.96700
H  0.82500 16.06600 20.90900
H  0.48900 14.54200 21.50600
H  1.90100 15.12100 23.24300
H  1.02200 16.71200 23.51100
H  2.36700 16.40800 22.33400
H  -1.47700 11.49300 24.53300
H  -2.44900 10.99200 25.86100
H  -0.68000 11.00400 26.09200
H  -3.55900 13.73900 30.14200
H  -2.02700 13.66100 34.01100
H  -0.51100 13.51400 33.23700
H  -1.54400 12.06000 33.21900
Mg 6.25900 54.42900 40.79100
C  5.79800 51.15000 40.99200
C  9.41900 53.72100 39.15200
C  6.53100 57.68000 39.79700
C  2.92200 55.00100 41.68800
N  7.42400 52.55300 39.91000
C  6.99700 51.37000 40.25600
C  8.08900 50.35300 39.93200
C  9.41900 51.18300 39.84800
C  8.72000 52.56400 39.63100
C  10.45800 51.30300 41.01900
C  7.70700 49.45200 38.63100
C  6.95800 50.12600 37.49400
H  6.21900 49.13200 36.52700
N  7.85300 55.56800 39.77500
C  8.96000 55.09600 39.14900
C  9.71500 56.28900 38.66600
C  8.95400 57.43300 38.98100
C  7.69800 56.88700 39.47800
C  11.04300 56.29000 37.95400
C  9.39100 58.92300 38.67100
O  10.39300 59.11900 37.93700
C  8.64900 60.12700 39.22800
N  4.71500 56.04400 40.42700
C  5.25400 57.32100 40.29400
C  4.07300 58.29500 40.62800
C  2.79900 57.37300 40.88300
C  3.56000 56.04400 41.07100
C  4.44600 59.13100 41.90800
C  1.77400 57.36500 39.67300
C  2.30200 57.21600 38.29800
N  4.62800 53.34200 41.23000
C  3.36900 53.67200 41.70400
C  2.74400 52.45700 42.17400
C  3.66500 51.50300 41.96200
C  4.74600 52.06500 41.34000
C  1.43800 52.38200 42.86200
C  3.91700 50.12500 42.15400
O  3.21400 49.26100 42.68300
C  5.28300 49.85400 41.50700
C  4.96600 48.90800 40.40500
O  4.61200 49.29600 39.33200
O  5.32800 47.61900 40.82000
C  5.20700 46.48400 39.84200
H  10.43800 53.58400 38.78200
H  6.62700 58.75700 39.64200
H  1.89600 55.16600 42.02400
H  8.07700 49.55700 40.67600
H  10.01300 51.05800 38.94300
H  11.46900 51.06300 40.69000
H  10.17800 50.79400 41.94200
H  10.51100 52.36200 41.26900
H  7.14000 48.59100 38.98500
H  8.61500 49.05300 38.17900
H  7.72100 50.67500 36.94300
H  6.05400 50.62500 37.84300
H  11.00900 56.83500 37.01000
H  11.49000 55.31900 37.74200
H  11.77300 56.79300 38.58800
H  8.20500 59.84600 40.18300
H  7.91200 60.45800 38.49700
H  9.31400 60.98900 39.27000
H  3.97600 58.96000 39.77000
H  2.33300 57.70900 41.80900
H  4.13500 58.74500 42.87800
H  3.97200 60.11000 41.84400
H  5.51300 59.34300 41.98300
H  1.21100 58.29400 39.75800
H  1.09000 56.53300 39.84000
H  1.60800 56.59000 37.73800
H  3.25800 56.70100 38.21100
H  2.34800 58.21000 37.85300
H  1.05300 51.37700 42.69300
H  0.66500 53.06800 42.51600
H  1.67200 52.36100 43.92600
H  6.01000 49.34000 42.13600
H  6.21000 46.27700 39.46900
H  4.44700 46.80700 39.13100
H  4.98600 45.60000 40.43900

