158

Mg 17.21000 -1.83600 28.33400
C  16.19800 0.38600 30.80700
C  19.28700 -3.38700 30.58900
C  18.44600 -3.59100 25.79600
C  15.47600 0.32400 26.00400
N  17.62300 -1.55200 30.43900
C  17.03500 -0.58500 31.24600
C  17.48800 -0.83500 32.66800
C  18.60600 -1.96900 32.61500
C  18.45000 -2.38000 31.13800
C  20.07400 -1.72500 32.97700
C  16.24900 -1.28300 33.61000
C  16.20500 -0.47000 34.88600
H  17.52100 -0.08300 35.55000
N  18.74800 -3.24400 28.23200
C  19.40400 -3.83300 29.24400
C  20.05500 -5.01600 28.83400
C  19.77400 -5.20900 27.39300
C  18.90300 -4.00500 27.06600
C  20.87700 -5.94600 29.75900
C  20.28100 -6.17800 26.41000
O  20.07500 -6.23400 25.16000
C  21.25100 -7.21400 26.89200
N  16.93400 -1.74300 26.24000
C  17.67900 -2.50400 25.39500
C  17.29400 -2.18700 23.92100
C  16.34900 -0.92800 23.98900
C  16.25000 -0.71900 25.51900
C  18.52300 -1.95800 23.01200
C  14.97100 -1.16100 23.28000
C  13.99500 -2.03500 24.03100
N  15.92800 -0.07500 28.38100
C  15.34700 0.67600 27.39000
C  14.46000 1.69600 27.97300
C  14.79900 1.67300 29.33300
C  15.72400 0.64400 29.48400
C  13.47700 2.65800 27.33500
C  14.62600 2.37100 30.65100
O  13.92600 3.32800 30.94900
C  15.49000 1.50400 31.63400
C  16.35800 2.30900 32.35200
O  17.42400 2.70700 32.01200
O  15.83300 2.71600 33.52500
C  16.47400 3.73600 34.34000
H  19.96600 -3.85700 31.30400
H  18.82700 -4.12400 24.92400
H  14.98400 0.99900 25.30100
H  18.04800 0.04500 32.98300
H  18.29800 -2.83900 33.19600
H  20.05000 -0.87500 33.65800
H  20.59000 -1.55300 32.03200
H  20.42000 -2.60400 33.52000
H  16.39500 -2.31200 33.93900
H  15.34200 -1.16600 33.01600
H  15.52900 -1.04200 35.52100
H  15.66600 0.42100 34.56200
H  20.46800 -6.94300 29.59800
H  20.83300 -5.70500 30.82100
H  21.92000 -5.84600 29.45700
H  20.73800 -7.82100 27.63900
H  22.20400 -6.80000 27.22000
H  21.58200 -7.88100 26.09600
H  16.78100 -3.08400 23.57500
H  16.71700 -0.02300 23.50700
H  18.34100 -1.31600 22.15100
H  18.75800 -2.97000 22.68200
H  19.30100 -1.45900 23.59100
H  15.08100 -1.64500 22.30900
H  14.41000 -0.22900 23.20700
H  13.08800 -1.45100 24.18900
H  14.39300 -2.40200 24.97700
H  13.67600 -2.89700 23.44500
H  13.10400 2.16000 26.44000
H  14.04800 3.51600 26.97900
H  12.61600 2.97500 27.92300
H  14.73500 1.04800 32.27400
H  17.23100 4.28500 33.78000
H  17.00500 3.37100 35.22000
H  15.62100 4.34100 34.64600
Mg 53.92200 24.98600 44.55600
C  51.27700 27.02000 43.39800
C  52.21800 22.26000 42.96200
C  56.71000 23.17500 44.83500
C  55.37000 27.69800 45.88800
N  52.11000 24.72200 43.21000
C  51.21100 25.71600 42.88700
C  49.93100 25.17100 42.10600
C  50.09500 23.61200 42.43000
C  51.60600 23.52500 42.87900
C  49.10200 22.95500 43.50100
C  49.86100 25.33400 40.61000
C  51.21300 25.40900 39.80800
H  51.25000 26.37300 38.65600
N  54.44600 23.01900 43.88800
C  53.56300 22.07900 43.33900
C  54.34600 20.87800 43.13400
C  55.60800 21.06900 43.73900
C  55.66600 22.44800 44.21200
C  53.81000 19.71600 42.35400
C  56.64000 19.99000 43.83200
O  56.31300 18.90000 43.41100
C  58.02800 20.18800 44.35100
N  55.98000 25.48600 44.87600
C  56.95300 24.56800 45.09000
C  58.18400 25.18800 45.63200
C  57.73800 26.57700 46.11600
C  56.25100 26.57200 45.67600
C  58.84900 24.45800 46.86100
C  58.44600 27.86200 45.53800
C  59.91100 28.05300 46.00800
N  53.41800 26.91600 44.83300
C  54.07500 27.91600 45.43100
C  53.24200 29.08900 45.55900
C  52.13100 28.79600 44.77400
C  52.30900 27.45700 44.27000
C  53.37600 30.24900 46.50000
C  50.82100 29.27100 44.29000
O  50.20500 30.29900 44.46900
C  50.18000 28.10400 43.45900
C  49.76300 28.60500 42.14600
O  50.50100 29.29400 41.46600
O  48.39700 28.52800 42.00300
C  47.90100 29.42800 41.01300
H  51.63600 21.39300 42.63800
H  57.55800 22.49800 44.96200
H  55.67300 28.54300 46.50800
H  49.04700 25.51500 42.64100
H  49.95200 22.98800 41.54800
H  48.48600 23.78000 43.86100
H  49.57900 22.53100 44.38400
H  48.45400 22.28300 42.93800
H  49.23800 26.19200 40.35900
H  49.46300 24.48500 40.05500
H  51.46000 24.40900 39.45100
H  52.00400 25.63700 40.52300
H  53.56400 18.88200 43.01100
H  54.33700 19.47400 41.43100
H  52.82000 19.93100 41.95200
H  58.56500 19.24800 44.21800
H  58.13100 20.44000 45.40600
H  58.39300 21.01700 43.74500
H  58.86400 25.31900 44.79000
H  57.72000 26.65700 47.20300
H  58.07200 23.72600 47.07900
H  59.00100 25.04500 47.76700
H  59.68500 23.80000 46.62200
H  57.94400 28.75200 45.91700
H  58.40900 27.86700 44.44900
H  60.52400 27.58800 45.23700
H  60.10500 27.40200 46.86000
H  60.26400 29.07800 46.11700
H  53.77300 31.17700 46.08700
H  53.91900 29.90800 47.38100
H  52.34900 30.45600 46.80000
H  49.30300 27.76400 44.00900
H  48.16600 29.12100 40.00100
H  48.26600 30.44600 41.15000
H  46.81300 29.41500 40.95000

