158

Mg -1.67000 17.04900 26.33300
C  -2.03500 14.90600 29.05500
C  -2.11000 19.64200 28.42800
C  -1.92000 19.08100 23.53700
C  -1.68800 14.34300 24.12400
N  -2.35100 17.23800 28.52900
C  -2.22000 16.24000 29.48400
C  -2.35900 16.67300 30.87600
C  -2.47300 18.23700 30.63800
C  -2.32100 18.42400 29.11000
C  -3.72000 18.90900 31.25300
C  -1.09600 16.38700 31.79900
C  -0.80500 17.15500 33.07300
H  -0.93100 16.40700 34.29500
N  -1.79200 19.02700 26.03300
C  -1.99300 19.96400 27.04500
C  -2.02800 21.24900 26.46300
C  -1.82700 21.11900 25.10000
C  -1.94900 19.69600 24.82700
C  -2.27500 22.59400 27.24100
C  -1.54700 22.21200 24.06000
O  -1.70000 22.07400 22.81400
C  -0.98500 23.53100 24.45700
N  -1.75300 16.72800 24.04400
C  -1.78700 17.71300 23.18600
C  -1.85800 17.14600 21.79100
C  -1.38700 15.67300 21.91900
C  -1.49900 15.51000 23.47000
C  -3.27700 17.32300 21.18200
C  -0.07200 15.31300 21.16600
C  1.14600 15.60600 21.91500
N  -1.92000 15.07500 26.50800
C  -1.79800 14.06300 25.56200
C  -1.75500 12.75800 26.22300
C  -1.83000 13.08600 27.60300
C  -1.92900 14.49700 27.71100
C  -1.71900 11.41800 25.53300
C  -1.93100 12.53200 28.94800
O  -1.85600 11.36800 29.27300
C  -1.96900 13.66700 29.94500
C  -0.67100 13.55200 30.70200
O  0.36900 13.93000 30.28900
O  -0.84700 12.99000 31.98700
C  0.31100 12.97500 32.83200
H  -2.07200 20.49200 29.11400
H  -1.98700 19.74100 22.67000
H  -1.56800 13.52200 23.41400
H  -3.32800 16.30900 31.21800
H  -1.65700 18.69900 31.19400
H  -4.08000 19.56200 30.45800
H  -3.48700 19.40800 32.19400
H  -4.61000 18.30600 31.43400
H  -0.14000 16.34600 31.27700
H  -1.29100 15.36100 32.11100
H  -1.41900 18.05200 33.15600
H  0.24000 17.46200 33.02100
H  -2.83000 22.28200 28.12500
H  -2.87200 23.20900 26.56900
H  -1.36300 23.08400 27.58200
H  -0.25600 23.49900 25.26700
H  -1.82600 24.17500 24.71300
H  -0.47100 24.05000 23.64800
H  -1.14800 17.60100 21.10000
H  -2.15800 14.98600 21.57300
H  -3.25000 17.63900 20.13900
H  -3.82300 18.11600 21.69200
H  -3.71500 16.32500 21.18800
H  0.00700 15.86300 20.22900
H  -0.12400 14.25600 20.90600
H  0.89600 16.31600 22.70400
H  1.92000 16.18000 21.40400
H  1.51600 14.68000 22.35500
H  -1.31400 11.42400 24.52100
H  -2.71000 10.97200 25.44600
H  -1.13100 10.76200 26.17400
H  -2.78800 13.51000 30.64600
H  0.92000 12.14800 32.46700
H  -0.09000 12.79100 33.82800
H  0.80200 13.94700 32.80500
Mg 8.98900 48.15800 28.46800
C  7.06800 47.79200 31.48400
C  11.76400 48.48900 30.38500
C  10.60600 49.42100 25.76600
C  5.89500 48.35400 26.80000
N  9.26200 48.45100 30.68000
C  8.38800 48.10300 31.65800
C  9.22300 48.03100 33.04900
C  10.66000 48.41000 32.62700
C  10.58600 48.48600 31.07800
C  11.30100 49.72200 33.26800
C  9.08500 46.72900 33.96000
C  10.15500 46.63300 35.06000
H  9.83200 45.64400 36.15600
N  10.94000 48.77500 28.12500
C  11.98000 48.59700 29.02400
C  13.22500 48.63700 28.28000
C  12.88100 49.05700 26.92300
C  11.43200 49.12400 26.88100
C  14.64400 48.55500 28.86200
C  13.78700 49.24900 25.68300
O  13.28200 49.53100 24.62500
C  15.26300 48.92100 25.80700
N  8.32700 48.95600 26.58200
C  9.21600 49.40300 25.58300
C  8.39600 49.75000 24.33700
C  6.99900 49.35500 24.69500
C  7.04600 48.78500 26.11300
C  8.65400 51.27400 23.86900
C  6.33000 48.46600 23.68300
C  5.98400 49.05400 22.28000
N  6.85900 47.97000 28.95600
C  5.75800 48.04200 28.20200
C  4.54700 47.82300 28.98900
C  5.01300 47.54000 30.29100
C  6.41300 47.76000 30.23400
C  3.20800 47.89800 28.40700
C  4.71400 47.15200 31.65400
O  3.60800 46.74500 32.08000
C  6.04100 47.25900 32.47700
C  6.35500 45.88800 32.93500
O  6.86400 45.00100 32.16200
O  5.84100 45.72100 34.23300
C  6.18200 44.37700 34.76600
H  12.61700 48.52700 31.06600
H  10.94400 49.66500 24.75700
H  4.93200 48.41200 26.28800
H  8.85400 48.86700 33.64400
H  11.36400 47.58900 32.76200
H  12.27300 50.08400 32.93400
H  11.41400 49.60500 34.34600
H  10.60400 50.54400 33.10500
H  9.10600 45.86400 33.29700
H  8.13000 46.84900 34.47100
H  10.39900 47.61700 35.46200
H  11.05500 46.23800 34.58900
H  15.17200 47.74100 28.36700
H  14.54300 48.31100 29.91900
H  15.11700 49.53000 28.74400
H  15.38700 47.91300 26.20100
H  15.69400 49.73700 26.38800
H  15.76900 48.95800 24.84200
H  8.76500 49.12700 23.52300
H  6.52400 50.33600 24.71600
H  7.75100 51.88400 23.85600
H  9.15500 51.33100 22.90300
H  9.30500 51.83200 24.54200
H  5.38700 48.13500 24.11700
H  6.90300 47.55600 23.50800
H  6.58800 48.55000 21.52500
H  6.16200 50.12900 22.32000
H  4.96800 48.89000 21.92100
H  3.07600 48.86700 27.92700
H  2.47000 47.95700 29.20600
H  2.99400 47.11700 27.67700
H  6.11500 47.96900 33.30100
H  5.32900 44.06400 35.36800
H  7.12200 44.49300 35.30500
H  6.16000 43.67400 33.93300

