158

Mg 26.72700 50.31600 26.42400
C  24.85200 51.69100 29.06800
C  29.19800 49.41500 28.79000
C  28.53300 49.01800 23.96700
C  24.43000 51.69300 24.29500
N  26.99400 50.57000 28.64600
C  26.04700 51.04500 29.51400
C  26.54700 50.90300 31.02500
C  27.97600 50.29500 30.86400
C  28.07700 50.07900 29.33100
C  29.14600 50.97900 31.54100
C  25.51900 50.19100 31.78800
C  25.62100 50.09700 33.28600
H  26.47100 51.06700 34.12600
N  28.63100 49.42700 26.37400
C  29.39700 49.13100 27.41000
C  30.57500 48.34600 26.99600
C  30.44400 48.16900 25.56300
C  29.15900 48.81400 25.25400
C  31.83900 48.01600 27.87000
C  31.31900 47.54300 24.53100
O  31.10700 47.57800 23.35900
C  32.53600 46.85900 24.92700
N  26.55200 50.39200 24.44200
C  27.36000 49.68100 23.59100
C  26.77700 49.76200 22.13700
C  25.32100 50.32100 22.28600
C  25.42700 50.86500 23.74600
C  27.73400 50.61000 21.24100
C  24.22300 49.31200 22.21200
C  22.90200 49.75200 21.78900
N  24.92100 51.46700 26.56500
C  24.15200 52.01400 25.62200
C  23.10600 52.82200 26.15800
C  23.35000 52.77300 27.56300
C  24.46400 51.88300 27.73100
C  22.21500 53.68600 25.37000
C  22.83200 53.18500 28.83700
O  21.87800 53.93100 29.04500
C  23.80100 52.48900 29.90000
C  24.42600 53.55600 30.72500
O  25.51900 54.05100 30.49700
O  23.63400 53.78600 31.82800
C  24.30100 54.52100 32.92000
H  29.88800 49.10000 29.57600
H  29.03700 48.47900 23.16300
H  23.64700 51.98300 23.59000
H  26.59200 51.92500 31.40200
H  27.90400 49.28900 31.27700
H  28.76400 51.84500 32.08300
H  29.79500 51.26200 30.71200
H  29.55700 50.16700 32.14100
H  25.45400 49.22600 31.28600
H  24.66500 50.85300 31.64500
H  26.08200 49.18400 33.66400
H  24.61200 50.15900 33.69500
H  31.92200 46.97500 28.18100
H  31.91400 48.65900 28.74700
H  32.66700 48.33800 27.23900
H  32.48700 46.30300 25.86400
H  33.27800 47.64700 24.80800
H  32.60200 46.15600 24.09700
H  26.72900 48.73800 21.76800
H  25.22200 51.17100 21.61100
H  28.07300 50.09900 20.34000
H  28.70000 50.80800 21.70500
H  27.22400 51.53000 20.95600
H  24.00300 48.85200 23.17500
H  24.55300 48.46500 21.61200
H  22.69900 50.81500 21.66000
H  22.25800 49.43800 22.61000
H  22.54300 49.42200 20.81400
H  22.65400 54.09100 24.45900
H  21.88900 54.43200 26.09500
H  21.35000 53.06600 25.13600
H  23.18100 51.96200 30.62600
H  23.56500 55.05900 33.51700
H  25.11600 55.20300 32.68000
H  24.64200 53.68400 33.52900
Mg 1.15300 42.69100 25.84500
C  2.47200 42.86900 29.12200
C  -1.99300 42.02100 27.21900
C  -0.11200 42.32800 22.72300
C  4.23700 43.36100 24.56300
N  0.39400 42.47000 27.96200
C  1.02200 42.66800 29.11000
C  0.11800 42.50800 30.33300
C  -1.22600 42.12100 29.71500
C  -0.94100 42.18400 28.17700
C  -1.80000 40.79000 30.28400
C  0.11900 43.94600 31.10000
C  0.35100 43.91000 32.66000
H  0.28300 42.63000 33.40800
N  -0.85200 42.24300 25.08700
C  -2.00600 42.15200 25.77600
C  -3.11600 42.18500 24.84500
C  -2.60300 42.11000 23.51800
C  -1.16200 42.21700 23.73100
C  -4.51500 42.17400 25.28700
C  -3.32500 41.89000 22.19800
O  -2.73400 41.85800 21.13200
C  -4.85300 41.62200 22.12700
N  1.89800 42.84400 24.00300
C  1.21900 42.59500 22.80900
C  1.98200 43.00700 21.55100
C  3.29300 43.59700 22.12900
C  3.16000 43.29000 23.66300
C  2.19400 41.91700 20.48900
C  3.43400 45.07300 21.78000
C  4.14400 45.33100 20.52200
N  3.01600 42.81400 26.61800
C  4.21100 43.12400 25.95900
C  5.28500 43.27400 26.92200
C  4.62600 43.18100 28.15400
C  3.24100 42.85500 27.95500
C  6.76700 43.65900 26.62200
C  4.85700 43.32300 29.54100
O  5.91600 43.40500 30.16500
C  3.45500 43.11300 30.24300
C  3.62400 41.96200 31.14200
O  3.56000 40.77900 30.70700
O  4.13400 42.36500 32.37200
C  4.87100 41.23200 33.00700
H  -2.97800 41.80700 27.63900
H  -0.61900 42.29900 21.75700
H  5.12100 43.86000 24.16100
H  0.56300 41.76200 30.99100
H  -1.97600 42.88200 29.93000
H  -2.58500 40.41800 29.62500
H  -2.09000 41.01900 31.30900
H  -1.02300 40.02600 30.24900
H  -0.81800 44.47900 30.93600
H  0.88800 44.63000 30.74000
H  -0.21500 44.71000 33.13800
H  1.36800 44.24900 32.85700
H  -4.96600 41.18400 25.22300
H  -5.08200 42.83400 24.63100
H  -4.64200 42.67600 26.24700
H  -5.13200 40.86400 22.85900
H  -4.98900 41.14700 21.15600
H  -5.55000 42.46000 22.09700
H  1.49100 43.82700 21.02600
H  4.11500 43.02800 21.69400
H  1.63600 42.30500 19.63600
H  1.77200 40.96200 20.80400
H  3.24300 41.77900 20.22800
H  3.86100 45.55500 22.66000
H  2.47400 45.57700 21.66800
H  4.90600 46.09300 20.69000
H  3.44100 45.83600 19.86000
H  4.59000 44.42200 20.11800
H  7.36900 44.19900 27.35300
H  6.80200 44.43000 25.85200
H  7.20800 42.74600 26.22300
H  3.06700 43.95900 30.81000
H  5.68600 41.00000 32.32200
H  4.14300 40.43200 33.14300
H  5.24700 41.63800 33.94600

