158

Mg 15.97300 -2.04700 27.87500
C  15.10800 0.01600 30.56300
C  17.83600 -4.02000 30.13800
C  17.01400 -3.86600 25.22900
C  14.54700 0.30100 25.62500
N  16.27900 -2.14500 30.13100
C  15.89300 -1.09000 30.98900
C  16.40100 -1.34600 32.36800
C  17.43800 -2.44900 32.18300
C  17.16600 -2.90900 30.72000
C  18.90500 -1.96400 32.37400
C  15.32100 -1.74100 33.41200
C  15.42400 -1.25800 34.88100
H  16.68500 -0.57000 35.34100
N  17.13500 -3.76700 27.71800
C  17.79300 -4.42200 28.77000
C  18.35300 -5.60700 28.19400
C  18.13800 -5.59300 26.81700
C  17.41400 -4.41400 26.54600
C  19.12000 -6.67200 28.95700
C  18.46300 -6.70600 25.74800
O  17.95300 -6.78800 24.60800
C  19.51800 -7.72200 26.11800
N  15.81600 -1.85800 25.78100
C  16.30000 -2.72100 24.85100
C  15.75300 -2.44100 23.47900
C  15.03200 -1.04600 23.54700
C  15.13100 -0.85800 25.10600
C  16.75700 -2.57900 22.24800
C  13.58600 -1.21100 22.87700
C  12.59100 -2.10500 23.53900
N  14.99400 -0.20600 28.01700
C  14.45400 0.57500 27.00600
C  13.79700 1.66900 27.66000
C  14.02000 1.51100 29.02900
C  14.74600 0.33500 29.20200
C  12.93300 2.76800 27.11600
C  13.68400 2.04300 30.34400
O  13.03200 2.97600 30.75800
C  14.45100 1.16300 31.37400
C  15.34400 2.14800 32.16200
O  16.47400 2.42900 31.86700
O  14.61200 2.78800 33.14300
C  15.29700 3.92400 33.78000
H  18.49200 -4.48400 30.87700
H  17.37300 -4.50000 24.41600
H  14.01800 1.00800 24.98100
H  16.77500 -0.36500 32.66200
H  17.18500 -3.29700 32.81900
H  19.40400 -2.49400 33.18500
H  18.96200 -0.90100 32.60900
H  19.57700 -2.14200 31.53400
H  15.23600 -2.82600 33.47800
H  14.31900 -1.60600 33.00400
H  15.31500 -2.14300 35.50700
H  14.50100 -0.69500 35.01800
H  20.18400 -6.48700 28.81400
H  18.85000 -7.67800 28.63400
H  18.90900 -6.54800 30.01900
H  20.03000 -8.12700 25.24500
H  19.08800 -8.50000 26.74800
H  20.31800 -7.21300 26.65600
H  15.05600 -3.27500 23.38400
H  15.57200 -0.28500 22.98400
H  17.76500 -2.76100 22.62100
H  16.68400 -1.73000 21.56800
H  16.54700 -3.44300 21.61800
H  13.61800 -1.43400 21.81000
H  13.16600 -0.20600 22.86500
H  11.64000 -1.60500 23.72100
H  12.89600 -2.51300 24.50300
H  12.34500 -3.01100 22.98500
H  11.91700 2.61300 27.47800
H  12.90800 2.88500 26.03300
H  13.29900 3.71600 27.51100
H  13.69900 0.81000 32.07900
H  16.13900 3.65600 34.42000
H  14.56500 4.48200 34.36400
H  15.74600 4.52100 32.98700
Mg -12.35900 16.01500 41.87000
C  -9.44600 14.10500 41.40500
C  -11.11200 18.65900 40.27900
C  -15.60100 17.18700 41.72600
C  -14.00600 12.75200 42.50400
N  -10.49000 16.32100 40.95100
C  -9.33900 15.50500 40.92600
C  -8.13400 16.25200 40.30900
C  -8.73800 17.64600 40.03400
C  -10.16800 17.61000 40.54000
C  -7.93100 18.93100 40.43700
C  -7.39300 15.62200 39.12000
C  -5.85900 15.54300 39.07000
H  -5.18500 16.36300 37.93700
N  -13.19500 17.76300 41.22600
C  -12.50500 18.73200 40.57100
C  -13.29900 19.88200 40.34300
C  -14.66200 19.43200 40.63600
C  -14.53900 18.07800 41.23000
C  -12.79900 21.31200 39.89300
C  -15.93800 20.17200 40.39800
O  -15.89700 21.25200 39.87500
C  -17.27500 19.65300 40.79800
N  -14.47700 15.06400 42.04400
C  -15.54500 15.88300 42.13800
C  -16.84800 15.12500 42.49800
C  -16.32900 13.61500 42.76200
C  -14.86100 13.80200 42.29200
C  -17.63000 15.65700 43.70400
C  -17.04000 12.42700 41.97600
C  -17.10000 12.45900 40.41500
N  -11.83200 13.87600 42.16300
C  -12.62000 12.75500 42.41900
C  -11.69400 11.57900 42.57700
C  -10.43000 12.10500 42.15300
C  -10.59800 13.46400 41.91400
C  -12.02100 10.18800 42.84700
C  -9.02800 11.74700 41.87000
O  -8.41100 10.75300 42.16000
C  -8.36100 13.03300 41.27500
C  -7.14500 13.28600 42.09400
O  -7.18400 13.55400 43.30000
O  -5.98400 13.17800 41.31700
C  -4.90000 13.66600 42.15400
H  -10.68100 19.56900 39.85700
H  -16.65500 17.45900 41.64400
H  -14.54800 11.81200 42.62500
H  -7.47800 16.37300 41.17100
H  -8.98100 17.80300 38.98300
H  -6.95000 18.49500 40.62700
H  -8.28000 19.27300 41.41100
H  -7.86000 19.79800 39.77900
H  -7.63700 16.09400 38.16900
H  -7.73200 14.58800 39.06300
H  -5.64400 14.48900 38.88900
H  -5.27300 15.68800 39.97800
H  -12.70700 21.35800 38.80700
H  -11.78300 21.42000 40.27300
H  -13.41600 22.10600 40.31300
H  -17.51100 18.76100 40.21700
H  -17.99900 20.41500 40.50800
H  -17.25500 19.47100 41.87200
H  -17.55400 15.08700 41.66900
H  -16.40700 13.31700 43.80800
H  -18.68400 15.58100 43.43800
H  -17.32100 16.68300 43.90700
H  -17.49700 15.05200 44.60000
H  -18.04000 12.32000 42.39700
H  -16.73900 11.39100 42.12800
H  -16.48300 13.31800 40.15000
H  -18.06000 12.68700 39.95100
H  -16.65700 11.53900 40.03200
H  -12.55300 9.75300 42.00100
H  -12.61100 10.29700 43.75800
H  -11.09400 9.61700 42.88300
H  -8.23500 12.90400 40.20000
H  -4.89400 14.70400 42.48900
H  -4.04200 13.59800 41.48500
H  -4.74400 13.08900 43.06500

