158

Mg 47.18700 25.90800 29.16800
C  48.12700 27.95400 31.83400
C  45.87100 23.62600 31.52800
C  46.64000 23.60400 26.80800
C  48.71400 28.02100 26.99300
N  46.90500 25.85800 31.51100
C  47.34000 26.90600 32.34000
C  46.79400 26.62200 33.75000
C  46.28700 25.09100 33.73100
C  46.30700 24.84400 32.20400
C  47.07000 24.03300 34.64700
C  45.60800 27.62700 34.14300
C  45.75100 28.44800 35.49600
H  46.33200 27.65100 36.70500
N  46.36000 23.85800 29.18900
C  45.91400 23.14800 30.23300
C  45.33600 21.91800 29.74200
C  45.43000 21.85900 28.33900
C  46.15500 23.12900 28.03800
C  44.63600 20.89500 30.59300
C  44.96500 20.84000 27.26400
O  45.12200 21.02400 26.06100
C  44.24900 19.49700 27.65200
N  47.74400 25.80500 27.18800
C  47.35700 24.74500 26.37400
C  47.55900 25.11800 24.90900
C  48.16800 26.57400 24.89300
C  48.19900 26.89400 26.40400
C  48.41800 24.16700 24.07300
C  47.32000 27.57100 24.05300
C  48.08800 28.21000 22.87500
N  48.26200 27.54400 29.35700
C  48.78900 28.36600 28.38100
C  49.35200 29.53300 28.98500
C  49.13500 29.41200 30.34500
C  48.42900 28.18300 30.52200
C  50.20000 30.50600 28.14200
C  49.36600 30.08000 31.62000
O  50.02900 31.07100 31.85400
C  48.69200 29.12100 32.67500
C  49.74300 28.75600 33.67200
O  50.30500 27.66500 33.85200
O  49.70900 29.81800 34.60500
C  50.42300 29.53600 35.91800
H  45.34400 22.94100 32.19600
H  46.43100 23.02100 25.90900
H  48.99900 28.86300 26.35900
H  47.68600 26.67200 34.37500
H  45.25100 25.01400 34.05800
H  46.45300 23.51000 35.37900
H  47.93900 24.41500 35.18200
H  47.61400 23.33100 34.01400
H  44.62500 27.17300 34.01800
H  45.66400 28.34000 33.32100
H  44.77300 28.74400 35.87700
H  46.29500 29.37000 35.29300
H  43.58300 20.89200 30.31100
H  44.74600 21.18400 31.63800
H  45.04500 19.89100 30.48000
H  43.31600 19.83500 28.10400
H  44.91100 19.07200 28.40600
H  44.01100 18.85600 26.80300
H  46.54500 25.12800 24.50900
H  49.18200 26.50600 24.50000
H  48.08100 23.13300 24.14200
H  49.45700 24.27100 24.38800
H  48.31200 24.46400 23.03000
H  46.94200 28.33800 24.72900
H  46.44300 27.11900 23.58800
H  47.41100 28.40100 22.04200
H  48.79100 27.47900 22.47400
H  48.65900 29.11600 23.07900
H  49.64900 31.21500 27.52500
H  50.96800 29.92200 27.63500
H  50.71100 31.25100 28.75100
H  47.91300 29.71400 33.15500
H  50.66400 30.44700 36.46500
H  51.38200 29.02800 35.81400
H  49.75900 28.87900 36.47900
Mg 30.16100 57.98300 40.62000
C  27.31600 56.17800 39.75500
C  32.05600 55.17600 39.98600
C  33.02400 59.98500 40.73900
C  28.20800 60.83800 40.86000
N  29.77600 55.98300 39.85900
C  28.48700 55.46600 39.73800
C  28.55300 53.97800 39.36200
C  30.00400 53.59800 39.82600
C  30.70100 55.02400 39.90300
C  30.10000 52.72500 41.09500
C  28.17100 53.65000 37.88800
C  28.51300 54.73300 36.79400
H  28.39400 54.46100 35.20900
N  32.33700 57.60500 40.38500
C  32.88500 56.36000 40.07500
C  34.30000 56.52800 39.88400
C  34.59400 57.90800 40.17900
C  33.29200 58.58100 40.46800
C  35.19700 55.37600 39.60100
C  35.94700 58.59900 40.09400
O  36.83700 57.89800 39.62900
C  36.18100 60.08300 40.28700
N  30.60000 60.16600 40.69800
C  31.84400 60.72000 40.91800
C  31.73300 62.16600 41.33500
C  30.19900 62.33200 41.48000
C  29.56300 61.09800 40.90200
C  32.58600 62.72300 42.47900
C  29.54400 63.59500 40.79200
C  28.77500 64.62100 41.62400
N  28.18100 58.52100 40.39600
C  27.46100 59.68200 40.60900
C  26.07000 59.39800 40.39900
C  25.97800 58.03200 40.04400
C  27.25600 57.59400 40.07500
C  24.88500 60.28000 40.52500
C  25.04500 56.94100 39.64300
O  23.82500 57.00300 39.48300
C  25.91000 55.63200 39.46500
C  25.25600 54.61300 40.42500
O  25.09200 54.77500 41.63800
O  24.96500 53.52100 39.76300
C  24.72400 52.35900 40.60600
H  32.54800 54.20300 40.04000
H  33.93900 60.50200 41.03600
H  27.55000 61.68000 41.08700
H  27.82200 53.43100 39.95700
H  30.40600 52.84900 39.14300
H  30.78600 51.89300 40.93700
H  29.12400 52.44300 41.48800
H  30.46600 53.38400 41.88200
H  27.10600 53.46900 37.74700
H  28.64500 52.70100 37.63700
H  29.54300 55.02300 37.00000
H  27.95600 55.64100 37.02200
H  35.78700 55.35400 38.68500
H  34.55600 54.49900 39.50700
H  35.81400 55.09700 40.45500
H  36.07700 60.34700 41.33900
H  35.39200 60.52200 39.67700
H  37.12900 60.44500 39.88800
H  32.01700 62.67700 40.41500
H  29.97700 62.30200 42.54700
H  33.52100 62.17900 42.61900
H  31.98300 62.54300 43.36800
H  32.91900 63.73100 42.23300
H  28.84300 63.25200 40.03100
H  30.28600 64.02700 40.12100
H  27.88500 64.92500 41.07200
H  29.44900 65.44000 41.87600
H  28.45800 64.08000 42.51500
H  25.20600 61.31000 40.36900
H  24.54400 60.20500 41.55800
H  24.09700 59.96900 39.84000
H  25.74800 55.32000 38.43300
H  25.11500 51.47400 40.10400
H  23.64000 52.30600 40.50900
H  25.11600 52.35800 41.62300

