158

Mg 25.03600 0.48400 29.64100
C  27.34800 0.83000 32.18800
C  22.46700 0.56800 31.77100
C  23.08300 0.25100 26.95700
C  27.93800 0.01100 27.48000
N  24.95800 0.60800 31.71000
C  26.02200 0.84400 32.61900
C  25.44800 0.97400 33.99900
C  23.84300 0.61300 33.86100
C  23.75800 0.61300 32.32000
C  23.36900 -0.72000 34.51300
C  25.79400 2.35100 34.67700
C  26.13100 2.10800 36.19600
H  25.48100 2.93700 37.27400
N  23.10500 0.56600 29.41200
C  22.14900 0.60200 30.41200
C  20.80300 0.43200 29.90800
C  20.94400 0.29600 28.53000
C  22.43700 0.39400 28.24800
C  19.57500 0.22600 30.77100
C  19.89700 0.18500 27.52900
O  20.14100 0.01000 26.34400
C  18.43700 0.34000 27.88100
N  25.53000 0.26900 27.55800
C  24.44300 0.10100 26.63800
C  24.98900 -0.17800 25.19200
C  26.51000 -0.15200 25.31300
C  26.73400 0.06600 26.88900
C  24.36100 -1.38400 24.39300
C  27.24900 0.83800 24.38200
C  27.71300 0.22600 22.94400
N  27.29000 0.40800 29.72700
C  28.28100 0.12600 28.85800
C  29.59400 0.13300 29.53900
C  29.27700 0.37300 30.84900
C  27.87800 0.55100 30.87200
C  30.89200 -0.17800 28.90300
C  29.77900 0.48200 32.19600
O  30.90900 0.24300 32.65500
C  28.54300 0.84500 33.12000
C  28.36300 -0.16000 34.27400
O  27.83100 -1.25100 34.14400
O  28.89600 0.22200 35.45700
C  28.56600 -0.61800 36.67100
H  21.65600 0.40100 32.48200
H  22.41900 -0.05200 26.14500
H  28.77700 -0.07900 26.78700
H  25.89500 0.22900 34.65800
H  23.26300 1.42200 34.30500
H  22.90500 -0.64300 35.49600
H  24.20600 -1.40700 34.63300
H  22.68100 -1.17300 33.79900
H  24.99700 3.08900 34.59600
H  26.69400 2.76600 34.22400
H  27.20200 2.27000 36.32600
H  25.82800 1.12200 36.54800
H  18.75600 0.92000 30.58100
H  19.80300 0.47700 31.80700
H  19.17700 -0.78600 30.69300
H  17.82800 0.35100 26.97700
H  18.25900 1.28000 28.40400
H  18.08000 -0.40500 28.59300
H  24.60300 0.65100 24.59900
H  26.85100 -1.18000 25.18800
H  25.14000 -2.06000 24.04200
H  23.92300 -0.88800 23.52700
H  23.66400 -2.06200 24.88500
H  28.12600 1.39500 24.71100
H  26.50700 1.61300 24.18900
H  27.22100 0.68600 22.08700
H  27.45500 -0.82800 22.84700
H  28.78800 0.32300 22.79100
H  31.66600 -0.05600 29.66100
H  30.99400 0.57800 28.12500
H  30.86100 -1.16200 28.43500
H  28.74800 1.85200 33.48400
H  27.48800 -0.77700 36.63100
H  29.00200 -0.20400 37.58000
H  28.98300 -1.61500 36.52600
Mg -10.47000 39.00500 40.21800
C  -8.98200 35.81800 40.32600
C  -7.65200 40.28500 38.79700
C  -12.27900 41.94900 39.63400
C  -13.43200 37.57800 41.51600
N  -8.54600 38.12800 39.62300
C  -8.11400 36.81100 39.73000
C  -6.81200 36.56900 38.98000
C  -6.33200 38.08300 38.93600
C  -7.61500 38.87500 39.05200
C  -5.30300 38.38400 40.08400
C  -7.09800 35.88500 37.60800
C  -6.11100 34.88000 37.00900
H  -5.29800 35.40800 35.82200
N  -10.04700 40.89600 39.30000
C  -8.72700 41.24100 38.97400
C  -8.77200 42.65000 38.69300
C  -10.09500 43.16800 38.84700
C  -10.92900 41.98500 39.21300
C  -7.51500 43.37200 38.40900
C  -10.45200 44.66200 38.58200
O  -9.61900 45.41500 38.19100
C  -11.84800 45.11000 38.70200
N  -12.66700 39.55800 40.23200
C  -13.03800 40.87300 40.16400
C  -14.51100 41.07200 40.50100
C  -14.89400 39.65800 41.04600
C  -13.60300 38.87600 40.92500
C  -14.59700 42.17900 41.59700
C  -16.25000 38.92800 40.49100
C  -17.51800 39.73200 40.45800
N  -11.11300 37.11200 40.95800
C  -12.29700 36.63400 41.48500
C  -12.13000 35.28100 41.93400
C  -10.86900 34.87100 41.43000
C  -10.25000 36.02500 40.82400
C  -13.11500 34.43700 42.76200
C  -9.99300 33.69500 41.30200
O  -10.05400 32.53300 41.69800
C  -8.83700 34.28000 40.37200
C  -7.47200 33.84000 40.86800
O  -6.83000 32.96100 40.28100
O  -7.20000 34.37900 42.16000
C  -5.90600 33.92500 42.80300
H  -6.66700 40.74400 38.68400
H  -12.86400 42.85300 39.45300
H  -14.31600 37.10000 41.94300
H  -6.14400 35.98100 39.61000
H  -5.88100 38.13300 37.94400
H  -5.79500 39.25400 40.51900
H  -4.27400 38.60900 39.80700
H  -5.26300 37.62500 40.86600
H  -7.31100 36.72100 36.94200
H  -8.04700 35.35000 37.64800
H  -6.59800 33.93000 36.78700
H  -5.40300 34.68600 37.81500
H  -7.54700 43.83000 37.42100
H  -6.62100 42.75000 38.46800
H  -7.38700 44.21800 39.08400
H  -12.44000 44.93800 39.60100
H  -12.35500 44.63300 37.86300
H  -11.85500 46.16200 38.41700
H  -15.14000 41.26700 39.63200
H  -15.10200 39.68800 42.11600
H  -15.24200 42.93200 41.14600
H  -13.62300 42.62200 41.80200
H  -15.11900 41.85300 42.49700
H  -16.31400 38.00700 41.07100
H  -16.05500 38.63100 39.46100
H  -17.39100 40.74000 40.85500
H  -18.25400 39.22500 41.08100
H  -17.82000 39.79200 39.41300
H  -12.78700 33.39800 42.80600
H  -14.09500 34.39300 42.28800
H  -13.26000 34.90100 43.73800
H  -8.98600 33.78100 39.41500
H  -5.13400 34.32900 42.14800
H  -5.81900 32.84200 42.88300
H  -5.87400 34.27600 43.83500

