158

Mg 29.97600 58.47300 40.13900
C  27.21500 56.65300 39.06300
C  31.98300 55.92300 39.30100
C  32.52000 60.54900 40.27400
C  27.73500 61.38300 40.54400
N  29.58700 56.49300 39.31100
C  28.46100 55.94800 39.02700
C  28.59800 54.47600 38.59000
C  30.04400 54.22700 39.13300
C  30.61000 55.65800 39.33300
C  30.11800 53.40100 40.49200
C  28.46600 54.17300 37.03400
C  27.34500 53.26100 36.49800
H  26.61300 53.81200 35.30000
N  32.03800 58.25100 39.85200
C  32.69800 57.11900 39.52200
C  34.12200 57.27600 39.59700
C  34.32600 58.64100 39.87100
C  32.92100 59.21200 40.08400
C  35.11900 56.14600 39.34400
C  35.72000 59.31000 39.88600
O  36.68500 58.74700 39.49900
C  35.87100 60.75800 40.26000
N  30.07400 60.69100 40.53700
C  31.36400 61.26500 40.48900
C  31.22900 62.80200 40.62300
C  29.67300 63.05300 40.85700
C  29.11800 61.66000 40.73900
C  32.13100 63.49300 41.67900
C  29.22500 64.11500 39.82400
C  29.42200 65.57200 40.27200
N  27.85700 58.95600 39.89300
C  27.12000 60.15400 40.04900
C  25.71700 59.91200 39.67900
C  25.65300 58.52000 39.37200
C  26.99200 58.04300 39.39300
C  24.64700 60.94000 39.57300
C  24.86000 57.39100 38.90100
O  23.65400 57.35200 38.58400
C  25.79300 56.16800 38.75400
C  25.43200 54.98400 39.57400
O  25.88500 54.73400 40.70600
O  24.36100 54.30000 39.00300
C  23.80700 53.29400 39.84800
H  32.50600 54.97600 39.14900
H  33.28200 61.32300 40.15900
H  26.99600 62.18000 40.65700
H  27.89300 53.81700 39.09700
H  30.54400 53.58000 38.41300
H  30.38200 54.00200 41.36200
H  30.98500 52.74400 40.42000
H  29.18200 52.84800 40.57300
H  29.39200 53.86200 36.55100
H  28.28500 55.12400 36.53300
H  26.59100 53.07900 37.26300
H  27.73900 52.28600 36.20800
H  35.93800 56.52200 38.73100
H  34.67900 55.28700 38.83800
H  35.53200 55.86500 40.31200
H  36.88200 61.07100 40.52300
H  35.24200 60.99200 41.11900
H  35.56600 61.33900 39.38900
H  31.50400 63.09900 39.61100
H  29.50600 63.47300 41.84900
H  32.69000 62.73900 42.23300
H  31.48700 63.98800 42.40500
H  32.90600 64.18200 41.34300
H  28.15800 64.07700 39.60200
H  29.74700 63.94100 38.88300
H  28.43000 66.02400 40.25800
H  30.00500 66.07100 39.49900
H  29.80700 65.72000 41.28100
H  24.81000 61.53600 38.67600
H  24.86400 61.63600 40.38400
H  23.71200 60.38200 39.62200
H  25.78800 55.77600 37.73700
H  24.64600 52.65700 40.12700
H  23.03500 52.69600 39.36200
H  23.33500 53.76700 40.70900
Mg 35.99200 48.82700 24.95800
C  36.16200 47.26900 28.16200
C  35.03800 51.66600 26.68200
C  35.79200 50.19900 22.03600
C  36.90200 45.78200 23.51300
N  35.64800 49.36800 27.24600
C  35.81000 48.60100 28.34300
C  35.68800 49.44400 29.63200
C  35.14100 50.83800 29.09900
C  35.28800 50.64900 27.60200
C  33.69300 51.28700 29.50600
C  36.94100 49.44400 30.46600
C  36.88700 49.22600 31.91400
H  35.52300 49.33200 32.67000
N  35.41600 50.61500 24.43500
C  35.09000 51.69700 25.26300
C  35.02300 52.86900 24.41900
C  35.17900 52.43200 23.10000
C  35.48300 50.99700 23.17500
C  34.80700 54.30200 24.97800
C  34.99100 53.31300 21.88400
O  35.07900 52.90700 20.71800
C  34.79000 54.82000 22.03800
N  36.20600 48.08200 23.00800
C  36.14700 48.86000 21.94400
C  36.44700 48.09200 20.60300
C  36.95500 46.69100 21.17300
C  36.58900 46.87100 22.65800
C  35.17500 47.84500 19.80700
C  38.51900 46.48300 20.95900
C  38.83000 46.00400 19.51100
N  36.41900 46.90700 25.66700
C  36.83500 45.77700 24.92100
C  37.13400 44.68500 25.81900
C  36.89800 45.22600 27.11300
C  36.39500 46.57400 26.90500
C  37.62400 43.36100 25.43200
C  37.00300 44.97500 28.51900
O  37.52600 43.99200 29.05800
C  36.51100 46.22600 29.31300
C  35.33400 45.86200 30.12500
O  34.25100 45.59400 29.66500
O  35.69500 45.83500 31.44400
C  34.67000 45.15200 32.24700
H  34.77200 52.65100 27.07200
H  35.67700 50.69300 21.06900
H  37.25400 44.87400 23.02000
H  34.84000 49.03300 30.17900
H  35.91200 51.57200 29.33600
H  33.79100 52.19500 30.10200
H  33.20500 50.59500 30.19100
H  33.06100 51.42100 28.62800
H  37.32200 50.45200 30.29800
H  37.72700 48.79100 30.08700
H  37.56400 49.97600 32.32200
H  37.28500 48.25300 32.20100
H  35.27000 55.10500 24.40500
H  35.39300 54.34100 25.89700
H  33.76400 54.49800 25.22700
H  34.52900 55.20800 21.05300
H  35.79100 55.16600 22.29400
H  33.98100 55.14800 22.69000
H  37.29000 48.48100 20.03200
H  36.49700 45.73900 20.90300
H  34.27300 47.77600 20.41400
H  35.36000 46.97200 19.18000
H  35.10400 48.71600 19.15700
H  38.96700 45.91200 21.77300
H  38.97600 47.46500 21.08200
H  39.43800 45.10100 19.56600
H  39.45800 46.79000 19.09300
H  37.91400 45.75600 18.97400
H  36.90200 42.69800 24.95400
H  37.86300 42.91100 26.39600
H  38.50600 43.48300 24.80300
H  37.41100 46.47600 29.87500
H  33.76200 45.74200 32.36700
H  35.12800 45.01000 33.22600
H  34.36800 44.19900 31.81000

