158

Mg 16.78300 -2.13800 27.29900
C  16.09600 -0.38100 30.25400
C  18.79400 -4.28000 29.24800
C  18.04400 -3.60300 24.49500
C  15.21500 0.22100 25.40300
N  17.41600 -2.24000 29.55800
C  16.95200 -1.48000 30.57400
C  17.46000 -1.92900 31.94100
C  18.49800 -3.09700 31.51100
C  18.20700 -3.24700 30.01600
C  20.05200 -2.72800 31.84900
C  16.29800 -2.42200 32.87000
C  16.21600 -1.89100 34.35100
H  17.40300 -1.06400 34.95100
N  18.02600 -3.82300 26.95700
C  18.73500 -4.57700 27.85400
C  19.31700 -5.77100 27.19600
C  19.04400 -5.59900 25.83400
C  18.33000 -4.32400 25.68800
C  20.07700 -6.80600 27.97300
C  19.50300 -6.48800 24.71000
O  19.12600 -6.24900 23.59600
C  20.43400 -7.69700 24.95000
N  16.71700 -1.73300 25.26800
C  17.34500 -2.42000 24.31300
C  17.16400 -1.83700 22.88700
C  16.15700 -0.62600 23.17600
C  15.94100 -0.72200 24.70500
C  18.49800 -1.43200 22.23700
C  14.83300 -0.76700 22.43700
C  14.71300 -0.06400 20.97800
N  15.77500 -0.50300 27.70900
C  15.10400 0.33700 26.82600
C  14.35900 1.27500 27.61800
C  14.68400 1.03700 28.97900
C  15.58900 -0.00900 28.97200
C  13.52100 2.42400 27.12900
C  14.48800 1.52500 30.33000
O  13.72800 2.41400 30.70000
C  15.45500 0.62400 31.30600
C  16.53000 1.57900 31.75600
O  17.66300 1.70200 31.23600
O  16.17400 2.24600 32.89400
C  17.06400 3.28500 33.44400
H  19.48000 -4.93300 29.79200
H  18.24400 -4.13300 23.56100
H  14.66600 1.02800 24.91300
H  17.99400 -1.05500 32.31500
H  18.15900 -4.07300 31.86000
H  20.59600 -2.42300 30.95500
H  20.60300 -3.55000 32.30500
H  20.09500 -1.93200 32.59300
H  16.31700 -3.51200 32.87100
H  15.36300 -2.03000 32.46900
H  16.04000 -2.75800 34.98800
H  15.30200 -1.31200 34.47800
H  19.81900 -7.75500 27.50300
H  19.77700 -6.93000 29.01400
H  21.13800 -6.57500 27.89100
H  21.28800 -7.45600 25.58400
H  20.89200 -8.02000 24.01500
H  19.79300 -8.48400 25.34600
H  16.75900 -2.63600 22.26600
H  16.57700 0.33900 22.88900
H  18.45800 -0.37000 21.99500
H  18.80500 -2.02000 21.37200
H  19.30400 -1.61000 22.94900
H  13.95900 -0.48900 23.02700
H  14.76100 -1.84800 22.32300
H  14.51900 -0.89100 20.29500
H  15.64800 0.32800 20.57900
H  13.99900 0.74600 20.83200
H  12.54000 2.16900 27.53000
H  13.56100 2.26000 26.05300
H  13.95500 3.38800 27.39400
H  14.83600 0.18600 32.08900
H  18.06000 3.13900 33.02600
H  17.03200 3.19200 34.53000
H  16.72800 4.26300 33.09900
Mg 6.09500 57.12200 42.15600
C  5.30700 53.46300 41.92600
C  9.07200 56.21200 40.54000
C  6.46400 60.23800 41.84100
C  2.81000 57.53100 43.29000
N  7.01600 55.03800 41.36300
C  6.53400 53.75400 41.33900
C  7.54400 52.71100 40.72800
C  8.78500 53.65300 40.48400
C  8.30800 55.04200 40.83600
C  10.08100 53.24000 41.25500
C  7.00800 52.09200 39.50000
C  7.53900 50.67000 39.23700
H  7.05400 50.11000 37.87900
N  7.54100 58.10600 41.37600
C  8.71500 57.68900 40.77600
C  9.44500 58.77800 40.37800
C  8.74800 59.95200 40.69700
C  7.54500 59.45400 41.31100
C  10.84900 58.58800 39.70200
C  9.40300 61.36900 40.57600
O  10.43300 61.62400 39.97400
C  8.70800 62.57500 41.30800
N  4.65200 58.67600 42.22200
C  5.26600 59.87200 42.39800
C  4.23900 60.86400 42.91500
C  2.97200 60.05200 43.27300
C  3.51900 58.67600 42.94100
C  4.70500 61.87100 43.97200
C  1.67400 60.45300 42.42700
C  0.28000 60.29700 43.06200
N  4.47100 55.84100 42.72200
C  3.25400 56.22300 43.21000
C  2.54800 54.99500 43.58300
C  3.33400 53.89400 43.15900
C  4.46700 54.43600 42.55400
C  1.26400 54.99900 44.20800
C  3.43700 52.45600 43.16100
O  2.71300 51.59400 43.63900
C  4.74000 52.11900 42.36600
C  4.46200 51.02300 41.33900
O  3.68400 51.02800 40.38900
O  5.22900 49.94600 41.73600
C  4.91200 48.70100 41.04000
H  10.06300 56.07200 40.10300
H  6.75000 61.29200 41.82100
H  1.84800 57.81500 43.72300
H  7.67500 51.95700 41.50400
H  9.08500 53.66700 39.43600
H  9.94400 52.42100 41.96200
H  10.39300 54.08100 41.87400
H  10.95500 52.89700 40.70100
H  7.08400 52.67200 38.58000
H  5.92900 52.00300 39.62400
H  7.27400 49.98700 40.04400
H  8.62000 50.80800 39.22200
H  11.39400 57.80700 40.23100
H  11.44200 59.50200 39.65400
H  10.69900 58.06500 38.75800
H  8.74800 62.48600 42.39300
H  7.78400 62.68600 40.74000
H  9.39200 63.40500 41.13100
H  4.06900 61.45900 42.01800
H  2.67900 60.18000 44.31500
H  5.67300 62.22100 43.61500
H  5.03000 61.41900 44.90900
H  4.11200 62.77800 44.08900
H  1.54000 59.70000 41.65100
H  1.77500 61.43300 41.96200
H  -0.45400 60.69300 42.35900
H  0.25500 60.68200 44.08100
H  0.01200 59.25000 43.20400
H  0.77200 54.03100 44.10900
H  0.67200 55.79900 43.76300
H  1.21900 55.09500 45.29300
H  5.36900 51.71800 43.16000
H  3.84100 48.64400 40.84700
H  5.26100 47.84000 41.61100
H  5.40500 48.56100 40.07800

