158

Mg 36.35100 49.92400 25.19600
C  36.46000 48.21700 28.24900
C  34.64900 52.48500 26.77800
C  35.63300 51.21500 22.08800
C  37.70000 47.08500 23.66300
N  35.67400 50.30000 27.31400
C  35.94000 49.52000 28.37200
C  35.45600 50.11100 29.65800
C  34.71600 51.40700 29.15200
C  35.11100 51.47100 27.67800
C  33.15800 51.23400 29.39900
C  36.54000 50.48200 30.65600
C  36.11000 50.34600 32.09100
H  34.66400 50.25100 32.47400
N  35.34300 51.68900 24.54300
C  34.73700 52.60800 25.32200
C  34.37100 53.69200 24.47000
C  34.47100 53.23900 23.14400
C  35.13600 52.00300 23.20400
C  33.72300 54.92400 24.96700
C  34.17700 54.07600 21.85700
O  34.24800 53.63500 20.66800
C  33.49400 55.42400 21.94100
N  36.45100 49.13900 23.11400
C  36.24400 49.98200 22.04800
C  36.79600 49.26300 20.75200
C  37.75500 48.19700 21.37800
C  37.33400 48.13900 22.83000
C  35.69400 48.61100 19.91300
C  39.24500 48.61600 21.39200
C  40.18000 47.44600 21.16900
N  37.11000 48.05500 25.77700
C  37.44000 46.99500 25.00600
C  37.81200 45.92100 25.99600
C  37.43500 46.38900 27.20900
C  36.98200 47.68200 27.05100
C  38.35500 44.59400 25.68200
C  37.48900 45.96700 28.59100
O  37.96900 45.00600 29.18100
C  36.81600 47.20000 29.33100
C  35.79600 46.66600 30.24800
O  34.62700 46.63800 29.99400
O  36.35800 46.12200 31.33100
C  35.41200 45.61000 32.34700
H  34.10700 53.30700 27.25100
H  35.36900 51.64800 21.12100
H  38.01700 46.15400 23.18700
H  34.67400 49.48700 30.09000
H  35.07800 52.27800 29.69800
H  32.91500 50.48600 30.15300
H  32.70100 51.06500 28.42400
H  32.71700 52.17000 29.74200
H  36.97400 51.47400 30.53500
H  37.42500 49.84800 30.60700
H  36.62300 51.07500 32.71700
H  36.57300 49.39600 32.35600
H  34.24300 55.80800 24.59800
H  33.55900 55.00900 26.04100
H  32.75800 54.99200 24.46400
H  32.53100 55.31800 22.44000
H  33.52200 55.75300 20.90200
H  34.18800 56.17900 22.31100
H  37.36900 50.02300 20.22000
H  37.67600 47.17100 21.01900
H  35.55300 49.33900 19.11400
H  34.82000 48.61900 20.56400
H  35.95700 47.61100 19.56600
H  39.52200 49.04100 22.35700
H  39.46500 49.33100 20.59900
H  40.94900 47.39200 21.93900
H  40.69700 47.67500 20.23700
H  39.62700 46.53800 20.93200
H  38.15800 44.19700 24.68700
H  38.14800 43.88700 26.48500
H  39.43500 44.74200 25.65700
H  37.57700 47.66500 29.95700
H  34.87200 44.77200 31.90600
H  34.66900 46.38000 32.55700
H  36.03900 45.36700 33.20400
Mg -1.90900 33.77700 26.85400
C  -3.87800 31.97400 29.06600
C  -0.80200 35.76900 29.47600
C  -0.17700 35.46300 24.62800
C  -3.43600 32.02600 24.32900
N  -2.26300 33.83100 28.99100
C  -3.07700 32.98900 29.71200
C  -2.95200 33.25400 31.22700
C  -2.17700 34.63400 31.31200
C  -1.69300 34.75300 29.85000
C  -2.90300 35.88100 31.78800
C  -2.20800 31.98900 31.95300
C  -2.82800 31.64200 33.36300
H  -1.88300 31.38000 34.61200
N  -0.59900 35.25500 27.02200
C  -0.24200 35.92900 28.16100
C  0.75900 36.91600 27.90900
C  1.08300 36.76500 26.52300
C  0.09600 35.78900 25.97700
C  1.35000 37.85500 28.99200
C  2.04300 37.51600 25.69900
O  2.20100 37.30800 24.52400
C  2.73800 38.64900 26.23600
N  -1.87100 33.84100 24.82200
C  -1.00000 34.52800 24.12500
C  -1.13600 34.34600 22.60100
C  -2.06600 33.13800 22.55500
C  -2.46900 32.95500 23.98200
C  -1.61800 35.59800 21.87900
C  -1.51600 31.79600 21.95200
C  -2.50800 30.88200 21.17900
N  -3.45500 32.33500 26.60500
C  -3.86500 31.67800 25.54900
C  -4.84000 30.67500 25.93500
C  -4.90900 30.69500 27.32200
C  -3.98500 31.72900 27.65100
C  -5.63200 29.75000 25.05700
C  -5.45300 30.16800 28.52000
O  -6.27000 29.24600 28.70400
C  -4.75800 30.90700 29.69800
C  -5.76800 31.38200 30.60600
O  -6.59000 32.19400 30.23400
O  -5.56300 30.90900 31.88400
C  -6.54800 31.31100 32.85800
H  -0.43300 36.35300 30.32100
H  0.38600 35.97100 23.84300
H  -3.95300 31.50800 23.51800
H  -3.93200 33.30000 31.70200
H  -1.30900 34.57700 31.96800
H  -3.62200 36.06200 30.98900
H  -2.33900 36.81000 31.86600
H  -3.52700 35.72500 32.66800
H  -1.20300 32.27100 32.26800
H  -2.30200 31.14200 31.27300
H  -3.32200 30.71400 33.07700
H  -3.63000 32.33600 33.61500
H  1.07900 38.88800 28.77600
H  2.43700 37.92000 28.94500
H  1.09500 37.64100 30.03000
H  3.16800 38.32200 27.18200
H  1.92100 39.36600 26.32800
H  3.58600 39.02900 25.66600
H  -0.17500 34.09300 22.15300
H  -2.99500 33.41500 22.05500
H  -2.47800 35.51000 21.21600
H  -0.79500 36.00000 21.28800
H  -1.91100 36.39300 22.56300
H  -1.05600 31.23200 22.76300
H  -0.73200 32.09700 21.25600
H  -1.97000 30.49700 20.31300
H  -3.38400 31.34500 20.72500
H  -2.69200 30.04800 21.85600
H  -6.51400 29.52500 25.65600
H  -5.02900 28.91200 24.70800
H  -5.99600 30.15700 24.11400
H  -4.19100 30.14700 30.23700
H  -7.26400 30.55300 33.17700
H  -7.04000 32.26400 32.66600
H  -5.96400 31.34500 33.77800

