158

Mg 49.04800 34.89200 27.22700
C  47.37700 33.24300 29.65600
C  49.26700 37.61800 29.17500
C  50.61300 36.38800 24.72800
C  48.32000 32.19500 25.01000
N  48.39600 35.34900 29.19300
C  47.88700 34.50300 30.12500
C  48.07300 34.94500 31.57300
C  48.19200 36.49600 31.31700
C  48.57800 36.51000 29.80600
C  46.88600 37.28400 31.61200
C  49.32300 34.32200 32.26300
C  49.16000 33.77500 33.74700
H  49.39200 34.89100 34.85000
N  49.86600 36.71500 27.04400
C  49.81100 37.71600 27.92700
C  50.45100 38.90700 27.34000
C  50.97100 38.53000 26.10500
C  50.43800 37.18100 25.84900
C  50.36900 40.27500 27.94900
C  51.86200 39.32300 25.18000
O  52.28200 38.85500 24.14000
C  52.39400 40.67700 25.61600
N  49.44300 34.29800 25.18300
C  50.15300 35.10500 24.39400
C  50.21300 34.61000 22.92900
C  49.82700 33.15600 23.03400
C  49.17900 33.18800 24.47000
C  49.37100 35.42400 21.93100
C  50.97700 32.04600 23.08800
C  51.21900 31.33000 21.72500
N  48.00100 33.06300 27.24000
C  47.75100 32.03800 26.30800
C  47.04800 30.95300 26.90200
C  46.80300 31.39800 28.23200
C  47.45000 32.67200 28.37000
C  46.60800 29.72900 26.23600
C  46.05300 31.17000 29.45400
O  45.35700 30.21300 29.70300
C  46.54600 32.22200 30.41500
C  47.23500 31.48900 31.58500
O  48.41300 31.22400 31.71500
O  46.36300 31.17500 32.52600
C  46.80300 30.36600 33.69100
H  49.52700 38.47200 29.80500
H  51.17800 36.75500 23.86800
H  48.21200 31.38500 24.28600
H  47.21500 34.67700 32.18900
H  48.99800 36.98800 31.86000
H  47.11000 37.79200 32.55000
H  46.07900 36.60500 31.88600
H  46.61500 37.94600 30.78900
H  50.15800 35.01800 32.34600
H  49.87000 33.57900 31.68200
H  49.82000 32.95100 34.01800
H  48.11800 33.45700 33.78600
H  51.36800 40.46600 28.34100
H  49.71900 40.42900 28.81000
H  50.22300 40.96800 27.12000
H  53.30700 40.92400 25.07400
H  52.67100 40.47300 26.65000
H  51.51900 41.30500 25.44500
H  51.24400 34.61800 22.57700
H  49.04100 32.91900 22.31600
H  48.53400 34.84700 21.53800
H  49.86700 35.69500 20.99800
H  49.09800 36.38700 22.36200
H  50.92700 31.30100 23.88200
H  51.86400 32.63900 23.31100
H  50.40500 31.49400 21.02000
H  51.30400 30.25500 21.88200
H  52.18600 31.68700 21.37000
H  46.84600 29.80100 25.17500
H  45.55700 29.44400 26.28300
H  47.24000 28.89300 26.53500
H  45.69100 32.69700 30.89600
H  46.85900 29.34800 33.30500
H  46.12200 30.55300 34.52200
H  47.79500 30.67600 34.01800
Mg -2.01000 34.09400 27.37100
C  -3.70200 32.28500 29.72900
C  -0.69800 36.00700 29.94900
C  -0.76200 36.20700 25.14200
C  -3.81800 32.44300 24.77100
N  -2.32500 34.20500 29.60400
C  -3.00800 33.29600 30.29600
C  -2.89600 33.52500 31.81900
C  -2.07300 34.92400 31.87800
C  -1.60400 35.05500 30.42900
C  -2.83200 36.16100 32.33300
C  -2.24300 32.28700 32.50800
C  -2.82100 32.05000 33.85300
H  -1.91100 31.94000 35.05600
N  -0.82700 35.77700 27.50600
C  -0.26600 36.34900 28.63300
C  0.81000 37.28200 28.23200
C  0.66200 37.49700 26.83200
C  -0.31500 36.48000 26.42800
C  1.72900 37.98100 29.19900
C  1.45100 38.41600 25.90700
O  1.09900 38.58900 24.70400
C  2.70800 38.88200 26.43700
N  -2.36400 34.48400 25.24200
C  -1.60100 35.30700 24.50900
C  -1.81200 35.14600 23.01600
C  -2.78100 33.90600 22.92300
C  -3.03300 33.57800 24.39700
C  -2.13900 36.44000 22.18500
C  -2.22400 32.66000 22.18700
C  -3.11800 32.09700 21.03600
N  -3.45300 32.65200 27.21400
C  -4.07900 32.01500 26.12100
C  -4.96100 30.99800 26.62300
C  -4.84900 31.06200 28.06400
C  -3.99200 32.13300 28.34000
C  -5.69200 30.00900 25.73600
C  -5.29100 30.43400 29.28300
O  -6.08700 29.52900 29.44000
C  -4.73900 31.28200 30.40100
C  -5.98700 31.89000 30.99200
O  -6.90900 32.51200 30.40900
O  -5.97300 31.55200 32.31800
C  -7.26200 31.57400 33.10400
H  -0.28800 36.55600 30.79900
H  -0.22000 36.78600 24.39100
H  -4.28500 31.86600 23.97000
H  -3.91000 33.79300 32.11500
H  -1.22600 34.79700 32.55300
H  -3.72500 35.95800 32.92500
H  -3.27300 36.82000 31.58500
H  -2.17400 36.61400 33.07500
H  -1.21400 32.63300 32.60800
H  -2.28600 31.40700 31.86600
H  -3.47500 31.17900 33.83300
H  -3.47400 32.87700 34.13400
H  1.40900 37.77400 30.22000
H  1.57000 39.05100 29.07200
H  2.75300 37.61300 29.12100
H  2.45200 39.60500 27.21100
H  3.44700 39.20900 25.70600
H  3.25200 38.11500 26.98800
H  -0.90100 34.76600 22.55400
H  -3.70600 34.21600 22.43700
H  -3.21800 36.40900 22.03000
H  -1.62600 36.40300 21.22400
H  -1.83700 37.36600 22.67300
H  -1.96500 31.88900 22.91300
H  -1.24100 32.88700 21.77300
H  -2.65900 32.15700 20.04900
H  -4.13500 32.48900 21.00300
H  -3.15300 31.04300 21.31200
H  -5.26500 29.02400 25.92100
H  -5.56800 30.30000 24.69300
H  -6.74100 30.02200 26.03200
H  -4.28700 30.57600 31.09700
H  -8.09600 32.00500 32.55000
H  -7.13100 32.16300 34.01100
H  -7.59200 30.54700 33.26100

