158

Mg 35.97000 2.34500 30.40100
C  33.55200 3.42700 32.68300
C  38.32100 2.46700 32.94900
C  38.41300 1.83200 28.02400
C  33.75300 2.85500 27.82300
N  35.89500 2.80200 32.56700
C  34.79500 3.15400 33.30300
C  35.12700 3.17000 34.79200
C  36.78900 3.05800 34.73400
C  36.99200 2.70800 33.32400
C  37.48100 4.40000 35.11200
C  34.40700 2.03100 35.49600
C  34.19900 2.13800 36.99000
H  34.87800 3.24000 37.81400
N  38.05300 2.10600 30.46500
C  38.80800 2.16800 31.61300
C  40.13500 1.63200 31.33200
C  40.21800 1.49600 29.89700
C  38.85400 1.80900 29.37700
C  41.28500 1.45300 32.34900
C  41.46200 1.14300 29.03500
O  41.37200 1.00300 27.82300
C  42.86900 1.03900 29.63300
N  36.04800 2.30400 28.24800
C  37.17000 2.15500 27.52300
C  36.86500 2.11400 26.03300
C  35.35000 2.18400 25.95800
C  35.04600 2.41000 27.48600
C  37.61900 3.19800 25.19300
C  34.56000 0.86200 25.47500
C  33.35800 1.05000 24.53300
N  33.97400 2.88300 30.23600
C  33.21700 3.06000 29.09400
C  31.95600 3.53600 29.52800
C  31.99800 3.56600 30.92900
C  33.24200 3.28500 31.29300
C  30.73600 3.61200 28.66600
C  31.26400 3.87300 32.13100
O  30.12800 4.29100 32.31100
C  32.29100 3.77600 33.36600
C  32.24600 5.00800 34.11400
O  32.37900 6.11500 33.64100
O  32.17300 4.77600 35.41900
C  31.96400 6.08900 36.14200
H  39.13900 2.21900 33.62900
H  39.19700 1.70400 27.27600
H  32.97200 2.93500 27.06400
H  34.74300 4.10100 35.20900
H  37.24800 2.20500 35.23300
H  36.72200 5.18300 35.11900
H  38.10900 4.72700 34.28400
H  38.07200 4.24600 36.01600
H  35.00100 1.11700 35.45000
H  33.50600 1.74500 34.95400
H  34.63900 1.30800 37.54300
H  33.13200 2.24700 37.18500
H  41.80400 0.49800 32.26100
H  40.97300 1.73900 33.35300
H  41.99700 2.20600 32.01200
H  42.84600 0.24900 30.38300
H  43.28700 1.94300 30.07600
H  43.58700 0.77900 28.85500
H  37.32300 1.17200 25.73200
H  34.88600 3.07000 25.52500
H  36.91100 3.87300 24.71300
H  38.21200 2.67900 24.44000
H  38.17100 3.90600 25.81100
H  34.08700 0.42500 26.35500
H  35.29900 0.23300 24.97800
H  33.54800 0.93700 23.46600
H  32.99800 2.07600 24.61000
H  32.51600 0.44000 24.86100
H  30.54700 2.66900 28.15200
H  30.86100 4.39900 27.92200
H  29.85500 3.81700 29.27400
H  31.85800 2.91100 33.86800
H  31.01100 6.59300 35.98400
H  32.85500 6.68600 35.94900
H  32.00700 5.90900 37.21600
Mg 47.48800 16.22400 28.05300
C  45.64600 15.76700 30.93000
C  50.01500 17.78400 29.80400
C  49.30000 16.50900 25.10200
C  44.78100 15.00600 26.21000
N  47.74700 16.81000 30.10600
C  46.90900 16.37100 31.11600
C  47.45900 16.80800 32.45500
C  48.64700 17.73900 32.10200
C  48.81800 17.51200 30.56900
C  48.59700 19.29400 32.41900
C  47.91700 15.69100 33.42900
C  48.40600 16.13200 34.83900
H  48.14900 17.59700 35.30200
N  49.37500 16.90700 27.55600
C  50.29400 17.43800 28.44700
C  51.55400 17.67700 27.79000
C  51.32600 17.39600 26.43800
C  49.92700 16.89200 26.27700
C  52.83800 18.11000 28.51500
C  52.30800 17.52600 25.27100
O  52.00900 17.36400 24.14500
C  53.75800 17.97300 25.59600
N  47.08200 15.79400 25.98400
C  47.98400 16.01800 24.93500
C  47.37400 15.68900 23.57200
C  46.03100 14.96300 24.02200
C  45.92900 15.23400 25.47600
C  47.09300 16.94100 22.65900
C  46.07300 13.40600 23.77600
C  44.93700 12.92100 22.88000
N  45.44700 15.81500 28.47500
C  44.51700 15.24100 27.61300
C  43.35300 14.83400 28.44200
C  43.72500 15.14100 29.71700
C  45.05200 15.66600 29.67300
C  42.08800 14.19500 27.93900
C  43.31000 15.02100 31.05500
O  42.29800 14.61600 31.54900
C  44.59300 15.37800 31.92400
C  44.30200 16.46100 32.93300
O  44.09900 17.66100 32.64100
O  44.44400 15.92200 34.20600
C  44.03200 16.74200 35.37300
H  50.79800 18.15400 30.46900
H  49.80800 16.75000 24.16600
H  43.97000 14.51900 25.66500
H  46.70900 17.43900 32.93200
H  49.59100 17.31800 32.44900
H  48.98800 19.82900 31.55300
H  49.15300 19.51900 33.32900
H  47.56800 19.60200 32.60600
H  48.64900 15.02900 32.96600
H  47.08700 14.98700 33.50000
H  49.45600 15.84900 34.90500
H  47.88100 15.54400 35.59200
H  53.53100 17.31200 28.25000
H  52.72800 18.24600 29.59100
H  53.23000 19.04700 28.12000
H  53.92200 19.03000 25.80500
H  54.27900 17.77600 24.65900
H  54.33100 17.28100 26.21400
H  48.04900 15.02900 23.02800
H  45.26600 15.50800 23.47000
H  47.83800 17.73600 22.66700
H  46.14900 17.43000 22.90000
H  46.99300 16.61400 21.62400
H  45.95300 12.92800 24.74800
H  47.01700 13.07100 23.34600
H  44.14400 12.35500 23.37000
H  45.33900 12.22000 22.15000
H  44.43700 13.73500 22.35400
H  42.10700 13.10600 27.98500
H  41.94200 14.55800 26.92200
H  41.21600 14.34200 28.57700
H  44.98200 14.50000 32.43900
H  43.17200 17.37700 35.16300
H  44.84200 17.31600 35.82300
H  43.74000 16.03800 36.15200

