158

Mg 34.48500 3.31700 30.14500
C  32.20900 3.78800 32.69500
C  36.99700 2.97800 32.51000
C  36.70100 2.60100 27.69100
C  31.96300 3.73100 27.66500
N  34.49500 3.28300 32.37400
C  33.44900 3.51900 33.20000
C  33.88900 3.27800 34.62200
C  35.45400 3.52400 34.50800
C  35.74300 3.18400 33.06800
C  36.09800 4.85100 34.88400
C  33.25400 1.98000 35.14800
C  32.86000 1.95300 36.59100
H  33.33400 3.00500 37.57400
N  36.61900 3.00700 30.07300
C  37.47900 2.88000 31.13700
C  38.87100 2.70500 30.68700
C  38.70400 2.39300 29.30500
C  37.25600 2.65900 28.93900
C  40.09800 2.50700 31.68400
C  39.78900 1.90500 28.36600
O  39.60300 1.51200 27.21000
C  41.18900 1.71100 28.91900
N  34.33900 3.32600 27.92900
C  35.43500 2.98200 27.20900
C  35.11800 2.84400 25.66100
C  33.54900 2.98500 25.68300
C  33.23500 3.45600 27.14000
C  35.91200 3.80900 24.74800
C  32.82900 1.72100 25.24700
C  32.24300 1.70800 23.80600
N  32.55600 3.77300 30.07000
C  31.63500 3.88600 29.06400
C  30.27800 4.13100 29.64500
C  30.50700 4.10700 31.06900
C  31.85500 3.90900 31.29100
C  29.07500 4.36000 28.88800
C  29.90100 4.18600 32.27900
O  28.76500 4.36500 32.58300
C  30.98800 4.16100 33.35400
C  31.12000 5.46200 33.97400
O  31.51100 6.48100 33.40800
O  30.82700 5.30900 35.33000
C  30.95000 6.57900 36.10500
H  37.80400 2.92000 33.24300
H  37.37700 2.35300 26.87000
H  31.16500 3.77000 26.92100
H  33.40300 4.06100 35.20300
H  35.85200 2.78700 35.20500
H  36.74900 4.58000 35.71600
H  35.33600 5.55500 35.21900
H  36.75700 5.21800 34.09700
H  34.13100 1.33400 35.11200
H  32.55800 1.52000 34.44700
H  33.28200 1.00500 36.92500
H  31.79300 1.84700 36.78500
H  39.76400 2.62100 32.71500
H  40.87800 3.26600 31.61500
H  40.57000 1.52800 31.60100
H  41.82600 1.68900 28.03600
H  41.26600 0.78700 29.49200
H  41.44700 2.53500 29.58500
H  35.38000 1.80000 25.49100
H  33.33100 3.85700 25.06700
H  35.28500 4.33100 24.02500
H  36.64700 3.28000 24.14000
H  36.40000 4.55500 25.37500
H  31.98500 1.55000 25.91600
H  33.42200 0.80800 25.19300
H  31.26700 1.22300 23.84100
H  32.92200 1.12100 23.18700
H  32.22900 2.66300 23.28100
H  29.10800 3.79200 27.95800
H  28.71800 5.37300 28.70000
H  28.27300 3.87800 29.44600
H  30.85200 3.36300 34.08400
H  30.12200 7.24600 35.86300
H  31.86000 7.12100 35.84800
H  31.03200 6.42000 37.18000
Mg 47.68200 25.68700 28.36600
C  48.65500 27.86500 31.01900
C  46.86700 23.33200 30.76500
C  46.94700 23.73900 25.85600
C  49.26700 27.89800 26.14900
N  47.73800 25.65700 30.67700
C  48.18600 26.59500 31.49400
C  47.66900 26.34100 32.90200
C  47.14200 24.87300 32.84300
C  47.25000 24.60400 31.34400
C  47.86200 23.71300 33.63100
C  46.65900 27.39100 33.56100
C  46.91000 28.03500 34.92500
H  45.68700 28.51600 35.71900
N  47.12500 23.80700 28.26100
C  46.80400 22.98400 29.32400
C  46.36300 21.74000 28.87600
C  46.40700 21.79800 27.37200
C  46.87900 23.19200 27.08100
C  45.96200 20.58300 29.77100
C  46.19800 20.69800 26.37500
O  46.48400 20.82100 25.20600
C  45.64400 19.39400 26.82500
N  48.10400 25.82800 26.34000
C  47.53000 24.94100 25.50000
C  47.69300 25.26600 24.08300
C  48.52300 26.51300 24.05800
C  48.67400 26.76400 25.58300
C  47.92800 24.09300 23.14400
C  47.94900 27.62400 23.24500
C  48.25700 27.49400 21.75500
N  48.53700 27.65900 28.47900
C  49.19800 28.36300 27.48700
C  49.71800 29.54500 28.09100
C  49.51800 29.42100 29.43400
C  48.83500 28.23600 29.62900
C  50.57100 30.59600 27.37900
C  49.69300 30.05500 30.73100
O  50.27300 31.06900 31.07600
C  49.07100 29.04300 31.80300
C  50.10800 28.86000 32.86800
O  50.83300 27.86300 32.86400
O  49.88000 29.80200 33.83800
C  50.60800 29.45400 35.07900
H  46.46000 22.62400 31.49000
H  46.62100 23.08900 25.04200
H  49.68600 28.59900 25.42400
H  48.59700 26.37600 33.47300
H  46.06700 24.93100 33.01500
H  48.17800 22.91200 32.96300
H  47.11100 23.28200 34.29300
H  48.70300 24.09300 34.21100
H  45.71400 26.87400 33.73000
H  46.44700 28.22600 32.89400
H  47.61400 28.86700 34.90900
H  47.35600 27.26400 35.55400
H  46.53000 19.71000 29.45100
H  44.91900 20.27200 29.71300
H  46.26500 20.58900 30.81800
H  45.36700 18.88400 25.90300
H  44.73200 19.48300 27.41500
H  46.39000 18.87900 27.43100
H  46.69400 25.58400 23.78400
H  49.58100 26.35700 23.84500
H  48.13400 23.17100 23.68900
H  48.67800 24.24200 22.36800
H  46.95100 23.98700 22.67200
H  48.34100 28.61300 23.48300
H  46.87100 27.78100 23.25700
H  47.31800 27.63900 21.22200
H  48.60400 26.46400 21.67500
H  48.98500 28.24300 21.44400
H  51.40000 29.89100 27.31700
H  50.76100 31.46000 28.01600
H  50.23900 30.76600 26.35500
H  48.23400 29.47600 32.35000
H  50.07600 28.57700 35.44700
H  50.81500 30.38200 35.61200
H  51.59200 29.14300 34.72700

