158

Mg -1.63300 16.93900 25.81100
C  -2.27800 14.65400 28.44700
C  -2.67600 19.48000 27.78100
C  -1.53100 18.96100 23.04100
C  -1.24300 14.18300 23.69500
N  -2.37800 17.01800 27.81700
C  -2.42600 16.01300 28.81100
C  -2.93200 16.56000 30.13400
C  -3.24900 18.04600 29.85200
C  -2.72900 18.24400 28.39700
C  -4.70700 18.50500 30.19800
C  -2.01300 16.13300 31.33200
C  -1.95600 17.11600 32.52400
H  -1.76000 16.53800 33.87300
N  -1.81200 19.02400 25.55200
C  -2.29000 19.91100 26.46700
C  -2.16600 21.25200 25.95900
C  -1.91700 21.01500 24.50500
C  -1.82000 19.60400 24.29200
C  -2.28700 22.51800 26.73900
C  -1.69600 22.10600 23.39800
O  -1.42100 21.91400 22.24200
C  -1.76700 23.57300 23.74000
N  -1.30700 16.63100 23.60700
C  -1.28600 17.60700 22.73800
C  -1.12900 17.02600 21.31800
C  -0.72400 15.52300 21.57400
C  -1.08900 15.41200 23.02900
C  -2.38900 17.26700 20.40600
C  0.77900 15.16800 21.29400
C  1.73600 15.56900 22.47800
N  -1.78600 14.89000 25.99500
C  -1.54200 13.83600 25.06500
C  -1.58700 12.57800 25.71200
C  -1.95100 12.87400 27.02700
C  -1.94100 14.26400 27.14600
C  -1.41200 11.29200 25.04300
C  -2.27800 12.18600 28.25300
O  -2.33200 11.01100 28.54000
C  -2.57200 13.41400 29.22700
C  -1.62700 13.10900 30.29900
O  -0.38900 13.17300 30.23900
O  -2.34000 12.69300 31.37900
C  -1.69900 12.28700 32.60900
H  -2.91000 20.26400 28.50300
H  -1.68100 19.65700 22.21300
H  -1.04100 13.28200 23.11000
H  -3.89000 16.06300 30.28500
H  -2.64300 18.74800 30.42400
H  -4.60600 19.11700 31.09400
H  -5.35300 17.63800 30.33800
H  -5.07900 19.16500 29.41500
H  -0.98100 16.06400 30.98700
H  -2.44800 15.25500 31.80900
H  -2.94300 17.56600 32.63200
H  -1.20600 17.89200 32.37100
H  -2.37200 22.37600 27.81600
H  -3.23300 23.01100 26.51400
H  -1.46700 23.22000 26.58900
H  -1.14900 23.87400 24.58600
H  -2.78300 23.75000 24.09100
H  -1.66100 24.09700 22.79100
H  -0.30600 17.45900 20.74900
H  -1.34500 14.91400 20.91700
H  -2.04800 17.50900 19.39900
H  -2.92800 18.11400 20.82800
H  -2.87100 16.29800 20.27400
H  1.18200 15.66500 20.41200
H  0.94500 14.09600 21.18600
H  1.37200 16.46600 22.97800
H  2.75300 15.81500 22.17100
H  1.72000 14.75900 23.20700
H  -0.72500 10.69300 25.64100
H  -1.10100 11.41500 24.00600
H  -2.35200 10.75200 24.92600
H  -3.58900 13.48300 29.61400
H  -1.76700 13.03000 33.40300
H  -0.68500 11.92000 32.44500
H  -2.28100 11.45400 33.00300
Mg 43.99100 3.42300 47.47700
C  41.62900 5.93300 46.83200
C  41.53200 1.08200 47.16200
C  46.32600 1.04100 47.17300
C  46.51700 5.87200 47.10500
N  41.85600 3.54900 47.08200
C  41.08000 4.66900 46.91000
C  39.56500 4.25400 46.84500
C  39.58900 2.75100 47.24400
C  41.07700 2.42700 47.07600
C  39.08300 2.43100 48.66000
C  38.96900 4.35800 45.35600
C  37.83100 5.37200 45.22400
H  38.15500 6.59900 44.37100
N  43.96500 1.26200 47.30300
C  42.84300 0.48900 47.25800
C  43.23300 -0.94200 47.23900
C  44.65800 -0.95500 47.37400
C  45.02800 0.47800 47.18700
C  42.25900 -2.11300 47.30200
C  45.58000 -2.18800 47.62600
O  45.05000 -3.29600 47.75800
C  47.04800 -2.05000 47.87400
N  46.08300 3.44200 47.29900
C  46.80800 2.30000 47.11100
C  48.31900 2.55500 47.00400
C  48.39400 4.10000 47.12700
C  46.92100 4.53800 47.25100
C  49.19400 1.60400 47.94500
C  49.30800 4.87000 46.20500
C  50.66700 5.34900 46.82400
N  44.14000 5.54700 47.18200
C  45.20200 6.36000 47.13900
C  44.77600 7.72600 47.09300
C  43.35200 7.58200 46.90900
C  43.02500 6.24100 47.01600
C  45.53400 9.09900 47.11000
C  42.17400 8.35900 46.80400
O  42.01800 9.56500 46.78600
C  40.99100 7.31000 46.69500
C  40.05100 7.58100 47.84600
O  40.23900 7.25000 49.01100
O  38.97800 8.20500 47.41200
C  37.86400 8.40100 48.44300
H  40.72900 0.34200 47.14600
H  47.14600 0.32500 47.09000
H  47.23300 6.69500 47.05500
H  38.87900 4.75000 47.53100
H  39.07400 2.11600 46.52200
H  38.65200 3.31500 49.13000
H  39.97900 2.31200 49.26900
H  38.49900 1.52000 48.52500
H  38.54200 3.46100 44.91000
H  39.75000 4.56200 44.62300
H  37.59300 5.75900 46.21500
H  36.88300 4.88600 44.99400
H  42.58400 -2.84800 46.56600
H  41.28600 -1.76700 46.95200
H  42.22700 -2.62100 48.26600
H  47.50700 -1.77700 46.92400
H  47.44100 -2.98200 48.27900
H  47.19000 -1.30300 48.65500
H  48.66000 2.26100 46.01200
H  48.82200 4.18300 48.12600
H  48.58200 1.09100 48.68700
H  50.02600 2.16900 48.36600
H  49.72000 0.93400 47.26400
H  48.79200 5.66800 45.67100
H  49.59700 4.10600 45.48300
H  51.58600 4.92400 46.41900
H  50.58200 5.05400 47.87000
H  50.72800 6.43100 46.70900
H  46.55800 9.05200 46.73900
H  45.67400 9.47500 48.12300
H  44.90400 9.68800 46.44300
H  40.51200 7.35900 45.71700
H  36.99400 8.98500 48.14500
H  38.31200 8.85500 49.32700
H  37.51900 7.38200 48.61900

