158

Mg 24.93100 1.24200 29.80000
C  27.03500 0.84000 32.68900
C  22.22400 0.97400 31.99200
C  23.00400 1.32900 27.13700
C  27.68000 0.52200 27.88000
N  24.70300 0.83000 32.08400
C  25.70000 0.86400 33.05500
C  25.19700 1.07700 34.43800
C  23.64100 0.97300 34.19400
C  23.47600 0.84200 32.66500
C  22.88500 -0.08600 34.97100
C  25.58700 2.51600 35.01100
C  26.68200 2.67600 36.08200
H  26.50500 3.48400 37.33200
N  22.88500 1.06100 29.60300
C  21.95400 0.98800 30.59900
C  20.63000 0.93300 29.99000
C  20.83600 1.07400 28.56300
C  22.24100 1.14400 28.37000
C  19.31400 0.56700 30.78300
C  19.79100 1.03000 27.49600
O  20.00200 1.02400 26.31000
C  18.33300 0.73200 27.81300
N  25.28300 0.88200 27.83400
C  24.40000 1.21900 26.91300
C  24.98300 1.27200 25.45000
C  26.39900 0.64400 25.70800
C  26.51600 0.78400 27.24000
C  24.20900 0.63000 24.25800
C  27.56000 1.29900 24.90800
C  28.21500 2.47000 25.46000
N  26.97000 0.96200 30.15200
C  27.91100 0.61900 29.23700
C  29.24100 0.43500 29.89500
C  28.95600 0.58600 31.25200
C  27.55700 0.80500 31.35600
C  30.55800 0.08100 29.30900
C  29.42700 0.52700 32.50900
O  30.56900 0.38100 32.86800
C  28.27700 0.82800 33.49600
C  28.34200 -0.05100 34.65800
O  27.78200 -1.15500 34.66600
O  29.11600 0.40300 35.66100
C  29.40200 -0.35900 36.88800
H  21.35800 0.96900 32.65600
H  22.38300 1.47000 26.24900
H  28.61900 0.29900 27.36900
H  25.60800 0.36700 35.15600
H  23.07100 1.88600 34.36900
H  22.34500 -0.79400 34.34200
H  22.14400 0.46400 35.55000
H  23.46800 -0.68400 35.67200
H  24.73000 3.10200 35.34000
H  26.05000 3.07500 34.19700
H  27.60400 3.02600 35.61700
H  27.05100 1.73200 36.48200
H  19.46000 0.10700 31.76100
H  18.86700 -0.17900 30.12600
H  18.73400 1.47400 30.95300
H  17.87100 1.23900 28.66000
H  18.15200 -0.31200 28.06600
H  17.70400 0.87400 26.93500
H  24.98400 2.34200 25.24300
H  26.34600 -0.39900 25.39600
H  23.17800 0.33200 24.44500
H  24.82500 -0.19600 23.90400
H  24.24100 1.31500 23.41100
H  27.15800 1.60500 23.94200
H  28.30400 0.52400 24.72200
H  28.34000 3.21300 24.67300
H  29.21300 2.32300 25.87300
H  27.70300 3.03100 26.24200
H  30.72500 0.26700 28.24900
H  30.60600 -0.98900 29.51500
H  31.28800 0.67600 29.85800
H  28.57300 1.80600 33.87500
H  28.61600 -0.35800 37.64200
H  30.29800 0.05700 37.35000
H  29.40200 -1.44800 36.83100
Mg -11.60200 15.33200 41.32800
C  -8.34300 14.02600 41.23500
C  -10.42600 18.21800 39.84200
C  -14.80900 16.41900 40.87800
C  -12.78200 12.13700 42.32900
N  -9.53100 16.02300 40.65500
C  -8.38600 15.32200 40.74500
C  -7.24400 16.13200 40.07400
C  -7.83100 17.53000 39.92300
C  -9.34500 17.25800 40.10800
C  -7.26300 18.59900 40.97500
C  -6.65400 15.61600 38.72200
C  -5.14600 15.76500 38.56100
H  -4.78800 16.06000 37.12500
N  -12.43800 17.17100 40.65600
C  -11.79300 18.20300 40.13200
C  -12.75100 19.28500 39.89000
C  -13.99800 18.88600 40.33200
C  -13.81700 17.38700 40.59200
C  -12.46500 20.63400 39.39600
C  -15.31000 19.70100 40.39800
O  -15.30300 20.88300 40.04800
C  -16.59100 19.20800 40.92300
N  -13.51300 14.43600 41.67500
C  -14.71200 15.08100 41.44200
C  -15.92700 14.18000 41.69100
C  -15.26200 12.84800 42.12000
C  -13.78500 13.10300 42.02400
C  -16.92800 14.88300 42.65100
C  -15.66200 11.72300 41.10500
C  -16.16200 10.35800 41.71400
N  -10.82800 13.38500 41.69800
C  -11.38500 12.21500 42.10800
C  -10.24700 11.30700 42.43100
C  -9.06300 11.98300 42.02800
C  -9.42400 13.23600 41.59700
C  -10.42000 9.92400 42.99800
C  -7.60300 11.81700 41.98500
O  -6.85400 10.85200 42.23300
C  -7.12500 13.08300 41.31100
C  -6.08800 13.73200 42.19000
O  -6.27300 14.42400 43.21500
O  -4.82100 13.42600 41.70900
C  -3.70700 13.98000 42.39600
H  -10.02000 19.10700 39.35500
H  -15.81800 16.76200 40.63900
H  -13.13400 11.19600 42.75800
H  -6.36000 16.22500 40.70500
H  -7.61900 17.86700 38.90800
H  -8.05500 19.19400 41.42800
H  -6.63500 19.30400 40.43100
H  -6.72300 18.05000 41.74600
H  -7.08700 16.09800 37.84500
H  -6.89200 14.55400 38.67700
H  -4.66800 14.83700 38.87500
H  -4.76200 16.58900 39.16200
H  -11.52700 20.72400 38.84800
H  -12.36300 21.36300 40.20000
H  -13.33100 20.99800 38.84400
H  -16.97000 18.57400 40.12100
H  -17.14900 20.07700 41.27100
H  -16.34500 18.52600 41.73700
H  -16.38800 14.01900 40.71600
H  -15.49900 12.69300 43.17200
H  -16.93700 14.43300 43.64300
H  -17.88700 15.01100 42.14900
H  -16.53100 15.88700 42.79700
H  -14.80300 11.38500 40.52400
H  -16.47100 12.04400 40.44900
H  -17.14100 10.16500 41.27500
H  -16.08000 10.35100 42.80100
H  -15.38800 9.65500 41.40300
H  -10.72100 9.82200 44.04100
H  -9.47100 9.43600 42.77700
H  -11.05100 9.31900 42.34600
H  -6.63700 12.83800 40.36700
H  -3.54300 15.01700 42.10000
H  -2.88700 13.33800 42.07200
H  -3.87200 13.96200 43.47300

