158

Mg 24.51900 -5.28300 45.70600
C  26.59700 -3.29200 43.63700
C  21.86200 -4.64600 43.61300
C  22.99500 -8.26500 46.68600
C  27.42700 -6.37100 47.46100
N  24.34200 -4.34100 43.68400
C  25.28400 -3.42900 43.14000
C  24.64800 -2.63000 42.02000
C  23.11500 -2.80600 42.34500
C  23.07300 -4.03200 43.23000
C  22.42500 -1.57200 42.94200
C  25.33800 -3.18400 40.66100
C  25.79800 -2.04900 39.78300
H  25.63400 -2.37300 38.31600
N  22.63100 -6.23100 45.34700
C  21.69600 -5.73300 44.48800
C  20.48300 -6.46700 44.68800
C  20.79500 -7.61700 45.56300
C  22.17800 -7.41600 45.90600
C  19.19700 -6.02700 44.02700
C  19.79800 -8.66100 45.94200
O  18.70000 -8.62700 45.32600
C  20.03000 -9.78700 46.91700
N  25.16100 -7.03700 46.97400
C  24.28100 -8.15800 47.14800
C  25.04700 -9.28300 47.97800
C  26.22200 -8.45400 48.54100
C  26.35900 -7.28400 47.60400
C  24.22000 -10.14300 49.10400
C  27.54800 -9.23100 48.75900
C  28.55500 -8.82300 49.85000
N  26.55100 -4.86600 45.70500
C  27.59800 -5.31400 46.52700
C  28.82000 -4.67500 46.03700
C  28.46500 -3.90900 44.94500
C  27.09000 -4.09100 44.68600
C  30.18600 -4.94400 46.54100
C  28.95800 -3.04200 43.92100
O  30.10900 -2.75600 43.73900
C  27.80700 -2.63100 42.97500
C  27.89800 -1.15400 43.08900
O  27.67400 -0.51600 44.06100
O  28.39900 -0.59700 41.94700
C  28.75200 0.82000 41.90600
H  20.95800 -4.26100 43.13500
H  22.49300 -9.16700 47.04200
H  28.30200 -6.72200 48.01100
H  24.82800 -1.56300 42.15000
H  22.67800 -3.05000 41.37600
H  21.76000 -1.17400 42.17600
H  23.09000 -0.76000 43.23700
H  21.80200 -1.92400 43.76400
H  24.60100 -3.73600 40.07800
H  26.13600 -3.91300 40.79900
H  26.86800 -1.92200 39.94500
H  25.31200 -1.14300 40.14200
H  18.32100 -6.05600 44.67500
H  19.03500 -6.58900 43.10700
H  19.22200 -4.98100 43.71900
H  20.53100 -9.35800 47.78500
H  20.41300 -10.69700 46.45700
H  19.05800 -10.10500 47.29500
H  25.50300 -9.90500 47.20800
H  25.92200 -8.02000 49.49500
H  24.65200 -10.29200 50.09300
H  24.24800 -11.14500 48.67500
H  23.16400 -9.87200 49.12600
H  28.11200 -9.08200 47.83900
H  27.40800 -10.29500 48.94500
H  28.78800 -9.58200 50.59600
H  28.21700 -7.93800 50.39000
H  29.42500 -8.39900 49.34900
H  30.01000 -5.65400 47.34900
H  30.59500 -4.01200 46.93300
H  30.84100 -5.43700 45.82300
H  27.90300 -3.01200 41.95800
H  28.02100 1.49800 42.34700
H  28.62000 1.20200 40.89400
H  29.71500 1.07700 42.34600
Mg 49.28600 44.79400 42.01000
C  45.84900 45.36600 41.19900
C  48.76600 41.68600 40.69800
C  52.54600 44.45300 41.94400
C  49.59900 48.31500 42.27400
N  47.43100 43.66500 41.16800
C  46.16000 44.05800 40.91400
C  45.31700 43.05000 40.15100
C  46.20200 41.81100 40.27100
C  47.59200 42.42200 40.69300
C  45.78800 40.79500 41.35000
C  45.12900 43.69700 38.75300
C  43.75200 43.68200 38.07600
H  43.52100 42.63100 37.00300
N  50.50300 43.18900 41.63700
C  50.11600 42.00800 41.04900
C  51.26000 41.16900 40.94000
C  52.42700 41.93500 41.35900
C  51.86500 43.23800 41.73200
C  51.13000 39.73900 40.34700
C  53.83300 41.39300 41.58100
O  54.08600 40.24600 41.26200
C  54.98000 42.16300 42.14400
N  50.85900 46.18100 42.04300
C  52.10700 45.75900 42.06800
C  53.15000 46.94500 41.91900
C  52.22600 48.15500 42.21800
C  50.79100 47.52200 42.19600
C  54.33400 46.78700 42.87800
C  52.56100 49.42900 41.40800
C  52.29300 50.75000 42.16900
N  48.04800 46.55200 41.99900
C  48.26600 47.89200 42.21500
C  47.08100 48.61100 42.34200
C  46.12000 47.69800 41.91600
C  46.74600 46.41600 41.70700
C  46.87900 50.04700 42.76400
C  44.62800 47.53100 41.59200
O  43.71800 48.36800 41.50000
C  44.47700 45.99300 41.18300
C  43.63400 45.42500 42.19400
O  44.00500 44.70700 43.13400
O  42.32900 45.69900 41.90400
C  41.36200 45.13900 42.76900
H  48.68600 40.64100 40.39200
H  53.60000 44.35700 41.67500
H  49.70200 49.40300 42.26400
H  44.36500 42.97900 40.67500
H  46.19400 41.35700 39.28000
H  44.79300 41.14000 41.63200
H  46.44600 40.84100 42.21700
H  45.70500 39.80300 40.90600
H  45.84400 43.15500 38.13500
H  45.40500 44.74800 38.67200
H  43.52500 44.70500 37.77500
H  43.09000 43.45300 38.91100
H  50.71800 39.05500 41.08800
H  51.99600 39.17100 40.00700
H  50.35200 39.76300 39.58400
H  54.53100 42.76800 42.93200
H  55.32600 42.77600 41.31200
H  55.75100 41.52400 42.57500
H  53.52800 46.90300 40.89800
H  52.37400 48.51800 43.23500
H  55.29300 46.45800 42.47800
H  54.01700 46.14000 43.69600
H  54.57700 47.73200 43.36400
H  51.98500 49.39800 40.48300
H  53.64500 49.53300 41.35100
H  51.92100 50.52000 43.16800
H  51.51800 51.25200 41.58900
H  53.18000 51.38100 42.22200
H  47.72400 50.33200 43.39200
H  45.94000 50.12000 43.31400
H  46.88400 50.53400 41.78900
H  44.10400 45.84200 40.17100
H  41.72900 44.20700 43.19700
H  40.49900 44.89400 42.15000
H  41.02700 45.81400 43.55600

