158

Mg 17.17200 51.50800 25.95200
C  18.93200 50.16300 28.66400
C  14.70700 52.53600 28.24400
C  15.40100 52.51200 23.38900
C  19.74900 50.38700 23.85000
N  16.82500 51.31500 28.22600
C  17.71100 50.76000 29.09200
C  17.26000 51.05900 30.56200
C  15.82700 51.72300 30.38000
C  15.80300 51.86500 28.85100
C  14.60600 50.96700 30.95800
C  18.28400 51.90600 31.39200
C  18.57600 51.36400 32.78900
H  17.84100 51.98200 33.89500
N  15.41100 52.32800 25.85100
C  14.48700 52.71200 26.84600
C  13.27600 53.23400 26.23000
C  13.46400 53.26600 24.82000
C  14.80400 52.63900 24.65500
C  12.14800 53.88800 26.95200
C  12.51300 53.82900 23.71900
O  12.92500 53.94300 22.56200
C  11.13900 54.33300 23.96900
N  17.45700 51.27700 23.84800
C  16.58500 51.94200 23.03600
C  17.07300 51.83500 21.59000
C  18.48500 51.18900 21.75600
C  18.61800 50.86700 23.19300
C  16.02500 51.13000 20.71900
C  19.50900 52.15800 20.97900
C  20.82500 51.51700 20.47400
N  18.89400 50.45000 26.11700
C  19.86600 50.07300 25.24000
C  21.00400 49.41500 25.87100
C  20.60800 49.48500 27.21500
C  19.40500 50.09600 27.34600
C  22.21100 48.77600 25.17000
C  21.11900 49.20700 28.59200
O  22.14700 48.64900 28.98400
C  20.05800 49.73100 29.52200
C  19.73500 48.60900 30.34300
O  19.10800 47.61000 29.95600
O  20.30300 48.82700 31.58400
C  20.11200 47.67800 32.47800
H  14.00900 53.01500 28.93400
H  14.91900 52.90400 22.49100
H  20.64200 50.13200 23.27400
H  17.17000 50.08600 31.04500
H  15.87000 52.72100 30.81800
H  13.98400 51.66300 31.52100
H  15.05100 50.27200 31.66900
H  14.15900 50.35300 30.17600
H  17.86600 52.89200 31.59400
H  19.21600 52.09300 30.85800
H  19.58600 51.59600 33.12600
H  18.53500 50.27600 32.75500
H  11.20600 53.43200 26.64500
H  12.05600 54.94800 26.71700
H  12.23100 53.80600 28.03600
H  10.74900 54.66300 23.00600
H  11.35800 55.23300 24.54400
H  10.48700 53.60000 24.44400
H  17.15200 52.83400 21.16300
H  18.60200 50.20600 21.30000
H  16.26400 50.15700 20.28900
H  15.66000 51.86200 19.99900
H  15.20700 50.88500 21.39700
H  19.71800 52.98500 21.65800
H  19.05900 52.40800 20.01800
H  20.71000 51.46400 19.39100
H  21.08600 50.57200 20.95100
H  21.57700 52.25600 20.75200
H  22.47600 47.98800 25.87500
H  23.02900 49.49000 25.25500
H  22.22400 48.45100 24.13000
H  20.58700 50.52100 30.05400
H  20.51400 46.72600 32.13100
H  19.04000 47.54900 32.62500
H  20.55900 47.75200 33.46900
Mg 1.39400 41.24600 26.54400
C  3.95900 41.97300 28.77500
C  -0.39900 39.95000 29.23900
C  -0.95300 40.25600 24.37200
C  3.54600 42.18300 23.92900
N  1.68500 41.04500 28.75700
C  2.79700 41.52900 29.45700
C  2.56700 41.55200 31.03600
C  1.28000 40.63500 31.07300
C  0.81300 40.50500 29.56700
C  1.54200 39.40800 31.92300
C  2.29900 42.96000 31.59800
C  2.52300 43.18700 33.09700
H  2.59300 41.95800 34.09500
N  -0.47800 40.36400 26.76300
C  -0.97300 39.83100 27.94200
C  -2.16800 39.20000 27.61600
C  -2.48500 39.41300 26.20000
C  -1.29100 39.99900 25.69300
C  -2.99200 38.57000 28.66900
C  -3.79400 39.11800 25.34200
O  -3.90700 39.38500 24.12800
C  -4.82800 38.10800 25.80500
N  1.38900 41.10400 24.51700
C  0.21400 40.84800 23.81400
C  0.41100 41.04700 22.28800
C  1.70100 41.84500 22.31200
C  2.33400 41.59100 23.64300
C  0.40500 39.83600 21.38600
C  1.49900 43.35400 21.86100
C  2.48400 43.74000 20.69300
N  3.38000 41.97000 26.30200
C  4.15300 42.29000 25.20500
C  5.51400 42.66400 25.56300
C  5.39500 42.56600 26.94600
C  4.11300 42.18200 27.33900
C  6.64200 43.03800 24.73700
C  6.21300 42.78800 28.12500
O  7.37400 43.09100 28.26400
C  5.30500 42.38000 29.35200
C  5.94900 41.26800 30.09300
O  5.95300 40.13600 29.65900
O  6.32900 41.66900 31.32700
C  6.57000 40.51700 32.22900
H  -0.85600 39.54100 30.14200
H  -1.69400 40.07300 23.59200
H  4.16400 42.41800 23.06000
H  3.47300 41.20900 31.53600
H  0.58000 41.22500 31.66500
H  1.01000 39.55100 32.86400
H  2.60500 39.17100 31.96600
H  1.03600 38.51300 31.56300
H  1.33400 43.30800 31.23100
H  3.10200 43.54400 31.14900
H  1.70800 43.81400 33.45800
H  3.44600 43.76300 33.16800
H  -3.99400 38.54400 28.24000
H  -3.00100 39.09600 29.62300
H  -2.72200 37.51700 28.74700
H  -5.38400 38.53500 26.63900
H  -4.29200 37.22300 26.14700
H  -5.51200 37.79100 25.01900
H  -0.40600 41.70400 21.99000
H  2.45600 41.36300 21.69200
H  1.37300 39.58200 20.95300
H  -0.29900 40.00700 20.57100
H  0.10000 38.94500 21.93400
H  1.67700 44.01700 22.70800
H  0.44200 43.52600 21.65800
H  2.00500 44.42400 19.99300
H  2.79100 42.81000 20.21400
H  3.36000 44.25200 21.09200
H  7.33900 43.51200 25.42800
H  6.39800 43.91700 24.14100
H  6.98300 42.17500 24.16400
H  5.17000 43.23200 30.01800
H  7.49400 39.99500 31.98200
H  5.77100 39.77500 32.25100
H  6.61600 41.03600 33.18700

