158

Mg 26.99500 49.35000 26.38800
C  24.67700 50.44500 28.72800
C  29.15000 48.71600 29.09000
C  29.26800 48.35500 24.29000
C  24.91000 50.46500 23.85300
N  26.93600 49.69100 28.67800
C  25.80600 49.93600 29.35200
C  25.98100 49.71600 30.93700
C  27.50400 49.28300 30.96200
C  27.87200 49.18800 29.49700
C  28.38100 50.41000 31.61500
C  24.98800 48.66100 31.52300
C  24.12300 48.93600 32.73200
H  24.76700 49.67800 33.96600
N  28.90900 48.70100 26.66200
C  29.61600 48.46900 27.82500
C  30.87800 47.90700 27.54900
C  31.02800 47.93400 26.19200
C  29.69700 48.31300 25.62800
C  31.94500 47.51800 28.58300
C  32.26400 47.55200 25.28900
O  32.34300 47.66900 24.06300
C  33.60200 47.12800 25.88700
N  27.14400 49.53800 24.33900
C  28.14400 48.87900 23.69000
C  27.86300 48.80000 22.22600
C  26.39100 49.35400 22.02100
C  26.17400 49.87800 23.49500
C  28.90800 49.50400 21.33000
C  25.39100 48.20900 21.54900
C  24.62400 47.36500 22.58800
N  25.13900 50.24700 26.26100
C  24.41300 50.67000 25.10800
C  23.18500 51.29400 25.57500
C  23.19400 51.16000 26.92600
C  24.43100 50.56800 27.37100
C  22.16400 51.99500 24.69300
C  22.40800 51.34800 28.16400
O  21.27400 51.80500 28.30800
C  23.28500 50.83300 29.39700
C  23.41600 51.96700 30.40900
O  24.36500 52.73600 30.46700
O  22.47200 51.80100 31.37900
C  22.49400 52.76300 32.39300
H  29.77900 48.34800 29.90300
H  29.97500 47.89700 23.59600
H  24.20600 50.69800 23.05200
H  25.75900 50.62300 31.49900
H  27.69300 48.35600 31.50300
H  29.32500 50.49900 31.07700
H  28.57000 50.13700 32.65300
H  27.89400 51.38300 31.54300
H  25.65000 47.84100 31.80000
H  24.42000 48.23100 30.69800
H  23.81700 47.92900 33.01500
H  23.28200 49.56500 32.44000
H  32.17600 46.46600 28.41300
H  31.57200 47.53700 29.60700
H  32.90700 48.02700 28.63100
H  34.12300 46.67100 25.04600
H  33.32400 46.38700 26.63700
H  34.11200 47.98400 26.32700
H  27.97500 47.74700 21.96500
H  26.29600 50.27200 21.44200
H  29.45300 48.75800 20.75200
H  29.50500 50.15600 21.96700
H  28.44300 50.21400 20.64500
H  26.01000 47.60400 20.88600
H  24.64300 48.74600 20.96600
H  24.92700 46.39500 22.19400
H  23.53800 47.44100 22.62300
H  25.06600 47.43400 23.58200
H  22.01000 51.49000 23.74000
H  22.50200 53.01200 24.49600
H  21.26000 52.05500 25.29900
H  22.74900 50.01300 29.87600
H  22.58700 53.79000 32.04200
H  23.23900 52.50500 33.14600
H  21.47900 52.70400 32.78500
Mg -5.91300 25.62100 25.65600
C  -4.15500 26.66300 28.51800
C  -7.92300 23.70700 27.66400
C  -7.28300 24.09600 22.84900
C  -3.75100 27.32300 23.62500
N  -5.98800 25.19300 27.86300
C  -5.19800 25.79900 28.79900
C  -5.75500 25.30400 30.16800
C  -6.74400 24.15400 29.85900
C  -6.92600 24.35400 28.37900
C  -6.24000 22.71400 30.10100
C  -6.30900 26.52800 30.99600
C  -5.58100 26.79600 32.38600
H  -4.81700 25.56600 32.96500
N  -7.44500 24.20600 25.29500
C  -8.22600 23.64800 26.30200
C  -9.15700 22.72900 25.74500
C  -9.04200 22.80100 24.32200
C  -7.91200 23.76200 24.07100
C  -10.20000 21.95800 26.58000
C  -9.82400 22.11700 23.27400
O  -9.63900 22.25400 22.05100
C  -10.85700 21.12200 23.64400
N  -5.71400 25.84700 23.56400
C  -6.26800 25.01900 22.56600
C  -5.63400 25.18000 21.23000
C  -4.72400 26.38700 21.40600
C  -4.75100 26.62600 22.97000
C  -4.99600 23.86200 20.61900
C  -5.06200 27.65300 20.53700
C  -4.26700 27.66800 19.17000
N  -4.25400 26.71200 25.94000
C  -3.45400 27.36700 25.01900
C  -2.45100 28.23100 25.71100
C  -2.73500 27.89500 27.08400
C  -3.83200 26.96000 27.18700
C  -1.46100 29.15200 25.10400
C  -2.33500 28.28000 28.46900
O  -1.60100 29.15800 28.81500
C  -3.14800 27.31600 29.48500
C  -2.12500 26.37900 29.95800
O  -1.99500 25.15600 29.58900
O  -1.42200 26.99400 30.98400
C  -0.65500 26.07300 31.79600
H  -8.45700 23.01900 28.32300
H  -7.56500 23.55000 21.94600
H  -3.09500 27.79400 22.89000
H  -4.79900 24.93300 30.53900
H  -7.68200 24.32400 30.38800
H  -5.25600 22.84300 30.55100
H  -6.10900 22.22100 29.13800
H  -6.98000 22.19200 30.70700
H  -7.32100 26.24000 31.28200
H  -6.32200 27.41000 30.35700
H  -6.35200 27.00000 33.12900
H  -4.99200 27.71200 32.37800
H  -11.15000 22.28000 26.15400
H  -10.21100 22.13400 27.65600
H  -9.93800 20.90400 26.48400
H  -10.36300 20.42100 24.31800
H  -10.97200 20.56700 22.71300
H  -11.77500 21.64800 23.90500
H  -6.47100 25.51400 20.61700
H  -3.67700 26.12800 21.24600
H  -3.94300 23.94400 20.35000
H  -5.66200 23.50200 19.83500
H  -5.00500 23.22700 21.50500
H  -4.76200 28.51500 21.13200
H  -6.12600 27.72500 20.31300
H  -4.96200 27.92600 18.37200
H  -3.81400 26.69400 18.98700
H  -3.39500 28.30200 19.33000
H  -1.26400 28.85900 24.07300
H  -0.46800 29.01700 25.53400
H  -1.83500 30.17300 25.03500
H  -3.50100 27.88300 30.34600
H  -1.39200 25.71000 32.51300
H  -0.01800 26.76900 32.34300
H  -0.11000 25.29400 31.26300

