158

Mg 46.85200 44.64300 44.01700
C  43.39400 44.22000 43.52600
C  47.22500 41.20300 43.15900
C  50.13900 45.00900 43.53000
C  46.32900 48.10600 43.99400
N  45.50000 42.98500 43.33000
C  44.11000 43.06800 43.27900
C  43.51500 41.71300 43.02300
C  44.69400 40.74300 42.97400
C  45.89200 41.67600 43.19800
C  44.61000 39.54200 43.93400
C  42.54300 41.53800 41.80300
C  43.13200 42.23300 40.57300
H  42.90300 41.54700 39.21000
N  48.51100 43.29300 43.70700
C  48.44800 41.91200 43.42300
C  49.80900 41.38200 43.22800
C  50.70900 42.51700 43.43500
C  49.79400 43.67000 43.67100
C  50.17300 40.02700 42.88700
C  52.20200 42.44300 43.47100
O  52.83000 41.38900 43.33000
C  53.09600 43.58400 43.85100
N  48.04000 46.37900 43.69200
C  49.39200 46.23300 43.49600
C  50.09200 47.57700 43.17000
C  48.83000 48.53400 43.39800
C  47.65500 47.63700 43.66800
C  51.35400 47.68100 44.17800
C  48.55000 49.64300 42.30900
C  48.12100 51.13000 42.71200
N  45.18900 45.92200 43.86100
C  45.12000 47.26800 44.02300
C  43.79500 47.71600 44.22200
C  42.97700 46.50500 43.99800
C  43.95800 45.48500 43.69600
C  43.39500 49.14000 44.49300
C  41.65100 45.88900 43.91200
O  40.54700 46.38700 43.94400
C  41.89000 44.43100 43.59400
C  41.24800 43.59800 44.65600
O  40.31100 42.78100 44.50800
O  41.80700 43.91300 45.89500
C  41.17100 43.22200 47.06000
H  47.27600 40.18100 42.77800
H  51.14600 45.19600 43.15300
H  46.24000 49.18200 44.15800
H  42.91000 41.45600 43.89200
H  44.90200 40.29400 42.00200
H  44.53300 38.70700 43.23700
H  43.68500 39.54500 44.51000
H  45.46600 39.46000 44.60400
H  41.60100 41.97100 42.13800
H  42.52000 40.46200 41.62800
H  44.21100 42.33400 40.68900
H  42.64900 43.18600 40.79100
H  50.18700 39.33400 43.72800
H  51.18800 39.87800 42.51900
H  49.40900 39.66400 42.19900
H  52.72400 44.21000 44.66300
H  53.08900 44.33700 43.06300
H  54.07900 43.25400 44.18600
H  50.48300 47.57500 42.15300
H  49.18500 49.11800 44.24700
H  52.30500 47.73200 43.64700
H  51.38100 46.86700 44.90100
H  51.33800 48.50300 44.89400
H  47.62300 49.35400 41.81600
H  49.33200 49.55000 41.55500
H  48.50900 51.74300 41.89900
H  48.65500 51.45000 43.60700
H  47.05400 51.22700 42.91300
H  42.31300 49.04100 44.57400
H  43.57500 49.82700 43.66600
H  43.91800 49.37200 45.42100
H  41.33500 44.32600 42.66200
H  40.09900 43.36100 47.20200
H  41.69100 43.41500 47.99900
H  41.19900 42.15800 46.82300
Mg 41.17200 41.73100 27.21800
C  39.85200 43.94600 29.75200
C  42.02700 39.56600 29.71800
C  42.01300 39.70200 24.90300
C  40.18500 44.19600 24.86500
N  41.10300 41.87900 29.48600
C  40.39800 42.75100 30.27100
C  40.33800 42.32300 31.76900
C  41.13400 40.98400 31.67100
C  41.46100 40.80200 30.18300
C  42.40300 40.82900 32.60100
C  38.86900 42.27100 32.21800
C  38.59400 41.55900 33.49600
H  37.96000 42.44700 34.63200
N  42.05600 39.89700 27.32700
C  42.33900 39.16000 28.43400
C  42.91200 37.91700 28.01900
C  42.94300 37.95100 26.55400
C  42.36800 39.23100 26.18100
C  43.42800 36.89300 28.99500
C  43.51600 36.88600 25.65800
O  43.51100 36.98300 24.40000
C  44.07800 35.66200 26.25400
N  41.11000 41.91300 25.16900
C  41.47300 40.87400 24.41500
C  41.11800 41.10600 23.01400
C  40.26700 42.48000 22.99400
C  40.47900 42.88300 24.43800
C  42.32500 40.97400 22.00600
C  38.75900 42.29700 22.60400
C  37.88000 41.47100 23.46400
N  40.32300 43.70700 27.25400
C  40.04200 44.58000 26.23900
C  39.52500 45.86300 26.78200
C  39.39700 45.61100 28.14800
C  39.88900 44.33500 28.40200
C  39.17200 47.01300 25.93800
C  39.02100 46.25800 29.37500
O  38.56500 47.39000 29.57900
C  39.32400 45.14300 30.42400
C  40.34200 45.71800 31.31700
O  41.46800 46.10800 31.05200
O  39.88300 45.90100 32.59100
C  40.84900 46.65400 33.47400
H  42.31200 38.85000 30.49200
H  42.14800 38.98100 24.09400
H  39.82000 44.84500 24.06700
H  40.86400 43.05900 32.37800
H  40.48300 40.14100 31.90000
H  42.81700 41.76800 32.96900
H  43.16300 40.40000 31.94700
H  42.36600 40.11200 33.42100
H  38.36100 41.72800 31.42200
H  38.51200 43.29700 32.31500
H  39.53300 41.33800 34.00300
H  37.93400 40.71500 33.29800
H  42.90800 35.97300 28.72800
H  43.23600 37.13100 30.04100
H  44.49000 36.83800 28.75800
H  44.96400 35.90300 26.84100
H  44.36300 35.06000 25.39100
H  43.28800 35.28000 26.89900
H  40.39100 40.31900 22.81500
H  40.79300 43.17500 22.34000
H  42.19900 40.00700 21.51900
H  43.23200 40.86500 22.60100
H  42.38000 41.83400 21.33900
H  38.85900 41.84900 21.61500
H  38.35800 43.24900 22.25800
H  38.25300 41.02500 24.38600
H  37.59300 40.62000 22.84700
H  37.10600 42.21900 23.63400
H  38.97900 47.91300 26.52100
H  38.31500 46.72400 25.32900
H  39.96500 47.26300 25.23300
H  38.41400 44.93100 30.98500
H  41.82300 46.90200 33.05300
H  40.96100 46.10000 34.40700
H  40.39000 47.63500 33.58900

