158

Mg 46.86400 24.80000 28.53800
C  47.24600 27.03100 31.27900
C  45.32200 22.62100 30.60100
C  47.47200 22.31000 26.29600
C  48.83100 27.03100 26.55400
N  46.40700 24.82700 30.70300
C  46.63900 25.84700 31.58500
C  46.11900 25.53700 33.01700
C  45.46700 24.06600 32.76000
C  45.74400 23.78000 31.32100
C  46.15000 22.92200 33.58300
C  45.24900 26.61300 33.69700
C  45.65600 27.02500 35.06100
H  44.65900 26.80100 36.27400
N  46.30100 22.84500 28.35600
C  45.50600 22.15600 29.25300
C  45.06200 20.88400 28.74500
C  45.80100 20.78600 27.48200
C  46.55500 22.00700 27.31600
C  44.32700 19.82200 29.59500
C  45.75100 19.68200 26.57200
O  46.35500 19.63800 25.52500
C  44.85400 18.45600 26.81800
N  47.96700 24.70600 26.70400
C  48.04600 23.54500 25.97000
C  48.73700 23.81000 24.65400
C  49.21100 25.30800 24.71600
C  48.64300 25.74400 26.03800
C  49.79100 22.73600 24.29100
C  48.59200 26.14900 23.52900
C  47.12700 26.67000 23.58500
N  47.78500 26.69300 28.77700
C  48.48800 27.44000 27.87400
C  48.85800 28.70800 28.47500
C  48.36500 28.61900 29.86100
C  47.73200 27.36100 29.96200
C  49.77100 29.76200 27.88200
C  48.30000 29.22100 31.17400
O  48.66400 30.32400 31.60500
C  47.58900 28.13500 32.12400
C  48.56900 27.70100 33.22000
O  49.46100 26.86300 33.09500
O  48.39900 28.54700 34.23600
C  49.23000 28.41400 35.49900
H  44.68000 22.00200 31.23100
H  47.65000 21.55100 25.53100
H  49.20800 27.81100 25.89000
H  46.91000 25.36600 33.74800
H  44.43300 23.96200 33.09000
H  46.45900 23.27700 34.56600
H  47.04700 22.52400 33.10900
H  45.47100 22.11400 33.85700
H  44.28100 26.16900 33.92900
H  45.02400 27.53300 33.15800
H  45.95100 28.07400 35.02100
H  46.57800 26.56100 35.41400
H  43.52000 19.36300 29.02400
H  43.97300 20.26800 30.52400
H  45.06100 19.09500 29.94000
H  45.07300 18.16000 27.84300
H  45.06500 17.65600 26.10800
H  43.80900 18.71800 26.65100
H  48.08300 23.66500 23.79400
H  50.29900 25.28200 24.78200
H  50.11000 22.29100 25.23400
H  50.60300 23.11300 23.66800
H  49.45100 21.87400 23.71800
H  48.69600 25.46000 22.69200
H  49.16400 27.03400 23.24900
H  46.56000 26.05700 22.88400
H  47.04900 27.74900 23.45500
H  46.77400 26.48700 24.60000
H  50.42600 29.45600 27.06700
H  50.40000 30.22900 28.64000
H  49.10700 30.51600 27.46000
H  46.78500 28.71600 32.57600
H  49.83100 29.32100 35.56400
H  49.82500 27.50200 35.55600
H  48.59300 28.42400 36.38400
Mg 15.78700 51.55900 25.43200
C  17.50500 50.66600 28.34100
C  13.19100 52.74800 27.31600
C  14.32700 52.33500 22.68300
C  18.56000 50.21600 23.61800
N  15.48000 51.68000 27.65700
C  16.35000 51.43100 28.67600
C  15.81600 51.76400 30.09300
C  14.27000 52.25300 29.62600
C  14.30600 52.28800 28.08800
C  13.15000 51.28800 30.21300
C  16.69000 52.91700 30.74200
C  16.30100 53.23100 32.14900
H  15.48600 52.27700 32.92300
N  13.92600 52.33200 25.06100
C  13.00300 52.84600 25.92000
C  11.87300 53.37100 25.24600
C  12.21800 53.32400 23.83200
C  13.51900 52.61600 23.79100
C  10.58100 53.97900 25.88300
C  11.40200 53.70100 22.57600
O  11.81400 53.42100 21.43500
C  10.16700 54.43100 22.84700
N  16.38600 51.36000 23.48700
C  15.53000 51.71700 22.46200
C  16.15300 51.55500 21.04800
C  17.58600 50.90900 21.40000
C  17.54900 50.83800 22.92900
C  15.33600 50.67200 20.01000
C  18.85500 51.72400 20.84000
C  20.14600 50.90500 20.53900
N  17.59500 50.50400 25.79400
C  18.55800 49.97300 24.99300
C  19.62700 49.38600 25.77100
C  19.18800 49.56200 27.06200
C  18.01700 50.31700 27.05400
C  20.81800 48.57300 25.20900
C  19.52000 49.28000 28.39400
O  20.41700 48.52400 28.83500
C  18.50800 50.07000 29.27200
C  17.89700 49.14200 30.25900
O  17.11800 48.20200 30.06600
O  18.20100 49.50900 31.58300
C  17.67600 48.63900 32.64400
H  12.39000 53.15800 27.93600
H  14.05100 52.69900 21.69200
H  19.38000 49.72000 23.09500
H  15.74000 50.90900 30.76500
H  13.87900 53.16300 30.08100
H  13.65400 50.56900 30.86000
H  12.62800 50.87000 29.35200
H  12.48900 51.86700 30.85800
H  16.74100 53.89300 30.25900
H  17.73700 52.61600 30.71600
H  15.68500 54.12300 32.03300
H  17.26300 53.36400 32.64300
H  10.45600 55.03100 25.62600
H  10.68200 53.89500 26.96500
H  9.59800 53.52600 25.75600
H  10.36000 55.32800 23.43500
H  9.37900 53.80000 23.25900
H  9.72800 54.76500 21.90700
H  16.34500 52.52500 20.58800
H  17.56400 49.91500 20.95200
H  14.66300 51.35300 19.49100
H  14.81100 49.93500 20.61800
H  16.03500 50.38000 19.22600
H  19.06800 52.62400 21.41700
H  18.51300 52.21100 19.92700
H  20.56200 51.06900 19.54500
H  19.90300 49.84700 20.63300
H  20.94500 51.08200 21.25900
H  20.58900 48.24300 24.19600
H  21.01700 47.63200 25.72100
H  21.66500 49.25800 25.17700
H  19.10100 50.82500 29.78800
H  16.72100 48.15700 32.43600
H  17.43900 49.16900 33.56600
H  18.35800 47.82900 32.90000

