158

Mg 16.18000 -1.99100 28.16200
C  15.14100 0.22900 30.70400
C  18.06400 -3.50700 30.52000
C  17.41100 -3.76600 25.63200
C  14.46700 0.16800 25.76900
N  16.50200 -1.69600 30.42900
C  15.90600 -0.78000 31.26800
C  16.26700 -1.05500 32.76800
C  17.35800 -2.10100 32.62400
C  17.37800 -2.44300 31.10300
C  18.82300 -1.74200 33.16800
C  15.07700 -1.45900 33.65700
C  14.78400 -1.00600 35.06800
H  16.00000 -0.47400 35.76000
N  17.46900 -3.60100 28.09600
C  18.11100 -4.07200 29.20600
C  18.91400 -5.18900 28.80500
C  18.65500 -5.42700 27.43700
C  17.76900 -4.26600 26.96900
C  19.67200 -6.11300 29.71900
C  19.13600 -6.47200 26.47100
O  18.77600 -6.50700 25.28600
C  20.15100 -7.46500 26.85200
N  15.98800 -1.76900 26.05900
C  16.61000 -2.66200 25.25700
C  16.31700 -2.34800 23.80800
C  15.05900 -1.40700 23.93200
C  15.23700 -0.91800 25.33700
C  17.60100 -1.76500 23.13000
C  13.61600 -1.89100 23.56500
C  12.85100 -1.00600 22.56100
N  15.02700 -0.21000 28.19700
C  14.36400 0.48300 27.16800
C  13.57900 1.55300 27.79800
C  13.93900 1.54600 29.15300
C  14.75600 0.42500 29.35000
C  12.64100 2.45800 26.94100
C  13.73300 2.22000 30.44000
O  13.12800 3.26000 30.71200
C  14.51300 1.35800 31.45800
C  15.56300 2.16400 32.12100
O  16.73700 2.21000 31.85800
O  14.97600 2.95100 33.08500
C  15.78100 3.89200 33.89800
H  18.49700 -4.14300 31.29500
H  17.77100 -4.41300 24.82900
H  13.81400 0.74200 25.10900
H  16.61800 -0.11700 33.20100
H  17.02600 -3.01200 33.12200
H  18.69000 -0.82400 33.74100
H  19.62000 -1.68900 32.42700
H  19.07100 -2.49800 33.91400
H  15.04400 -2.54300 33.54000
H  14.23700 -1.15700 33.03100
H  14.26100 -1.69000 35.73700
H  14.13700 -0.12900 35.08700
H  20.70900 -6.20200 29.39300
H  19.20400 -7.07000 29.94700
H  19.87200 -5.63200 30.67700
H  21.00500 -6.84500 27.12300
H  20.38400 -8.19900 26.08000
H  19.72500 -7.94500 27.73300
H  16.10800 -3.28900 23.29800
H  15.27200 -0.57300 23.26300
H  18.22600 -1.25400 23.86300
H  17.23900 -1.05700 22.38400
H  18.21700 -2.47500 22.57900
H  13.04100 -1.91700 24.49100
H  13.64100 -2.94500 23.28600
H  12.00400 -0.49600 23.02000
H  12.51400 -1.65900 21.75600
H  13.42800 -0.16200 22.18100
H  11.86600 1.75400 26.63500
H  13.11500 3.00300 26.12500
H  12.31300 3.26500 27.59500
H  13.93000 0.86000 32.23300
H  16.09000 4.74500 33.29400
H  16.55500 3.33500 34.42700
H  15.15400 4.36100 34.65700
Mg 49.22000 47.06500 42.93200
C  45.99500 48.07600 42.14700
C  48.93800 44.31700 40.83200
C  52.51000 46.51000 43.11000
C  49.67500 50.58200 43.68500
N  47.59400 46.33100 41.58700
C  46.40700 46.92400 41.41300
C  45.72500 46.31200 40.22700
C  46.60600 45.04200 39.87500
C  47.76900 45.22100 40.87800
C  45.80800 43.75600 39.82100
C  45.50500 47.29500 39.09000
C  44.03600 47.31800 38.61400
H  43.71500 46.93800 37.20800
N  50.43700 45.44000 42.33000
C  50.15200 44.41300 41.54200
C  51.23800 43.47400 41.57600
C  52.30000 44.04700 42.28700
C  51.77800 45.41000 42.62500
C  51.18900 42.05800 40.96000
C  53.73700 43.31800 42.48900
O  53.96700 42.23900 41.96300
C  54.79900 44.05800 43.25600
N  50.79800 48.40300 43.17800
C  52.09300 47.86700 43.28400
C  53.14400 48.86200 43.76600
C  52.22400 50.18900 43.78100
C  50.80000 49.69800 43.63400
C  53.82500 48.57700 45.09300
C  52.69300 51.22900 42.78700
C  53.57000 52.44200 43.29500
N  48.03900 48.87800 43.33500
C  48.35600 50.17900 43.54200
C  47.11300 50.99400 43.67600
C  46.17000 50.13800 43.26400
C  46.79000 48.93200 42.93500
C  47.09600 52.44900 44.15200
C  44.73700 50.05500 43.00100
O  43.77700 50.78000 43.18900
C  44.60200 48.72900 42.16600
C  43.46400 47.86900 42.71500
O  43.23800 47.53300 43.89500
O  42.87100 47.32800 41.66300
C  41.93500 46.21100 41.76100
H  48.74100 43.48800 40.15000
H  53.54500 46.26400 43.35600
H  49.86300 51.59500 44.04600
H  44.80000 45.94200 40.67000
H  47.06000 45.15300 38.89000
H  44.73600 43.85600 39.99400
H  46.06000 43.10900 40.66100
H  46.05800 43.37700 38.83000
H  46.15200 47.05800 38.24500
H  45.72500 48.29900 39.45300
H  43.53800 48.27800 38.75000
H  43.46300 46.63200 39.23800
H  52.03200 41.87500 40.29500
H  50.26200 41.87200 40.41700
H  51.32000 41.35700 41.78500
H  55.45600 43.30900 43.69800
H  54.32000 44.53800 44.10800
H  55.21900 44.85100 42.63700
H  53.94100 49.06800 43.05200
H  52.32800 50.72200 44.72600
H  53.03700 48.76100 45.82400
H  54.67400 49.23800 45.26800
H  54.06700 47.51800 45.17400
H  51.73100 51.67500 42.53500
H  52.98800 50.85600 41.80700
H  53.29000 52.69800 44.31700
H  53.58900 53.34400 42.68300
H  54.54800 51.96200 43.30300
H  48.10700 52.74300 44.43600
H  46.40600 52.43100 44.99600
H  46.61200 52.96800 43.32500
H  44.27100 49.02800 41.17100
H  40.93600 46.35100 41.34900
H  41.96000 45.89000 42.80200
H  42.31600 45.35200 41.20800

