158

Mg 1.39400 -0.30500 44.31100
C  4.78000 0.15700 43.65600
C  0.80100 2.52800 42.55800
C  -1.80100 -1.20900 44.31800
C  2.17900 -3.45000 45.69300
N  2.71300 1.13400 43.18100
C  4.02200 1.17500 43.11300
C  4.49600 2.52200 42.41700
C  3.17300 3.38500 42.41400
C  2.16600 2.28600 42.71400
C  3.16800 4.54800 43.40400
C  4.98400 2.19000 40.90900
C  6.44100 2.62400 40.57000
H  6.47600 3.53200 39.30200
N  -0.28800 0.49800 43.44000
C  -0.37300 1.73500 42.82300
C  -1.77700 2.00500 42.57200
C  -2.47400 0.79800 42.87700
C  -1.48900 -0.10700 43.56100
C  -2.30900 3.29800 42.05000
C  -3.89000 0.48500 42.48800
O  -4.65500 1.34100 42.04500
C  -4.33000 -0.92200 42.42700
N  0.29600 -1.99800 45.21200
C  -1.04200 -2.13600 45.04100
C  -1.59600 -3.53000 45.53000
C  -0.22400 -4.22200 45.92000
C  0.82800 -3.14600 45.67500
C  -2.66600 -3.35600 46.64900
C  0.13100 -5.60400 45.15100
C  0.34600 -6.75200 46.16600
N  3.11600 -1.37400 44.76800
C  3.30600 -2.66900 45.22700
C  4.72400 -2.99200 45.26400
C  5.34200 -1.87300 44.71600
C  4.32500 -0.97500 44.33800
C  5.22900 -4.28500 45.84500
C  6.65000 -1.38500 44.38200
O  7.80500 -1.85400 44.49200
C  6.32000 0.05600 43.79900
C  6.93800 1.12100 44.63600
O  6.32100 1.83100 45.41500
O  8.32200 1.14600 44.43000
C  8.98300 2.24900 45.16600
H  0.69900 3.54100 42.16400
H  -2.83600 -1.52400 44.47000
H  2.39100 -4.47500 46.00400
H  5.35200 2.94800 42.94000
H  2.94700 3.81800 41.44000
H  2.93400 5.45600 42.84900
H  4.13100 4.70600 43.89000
H  2.54500 4.53200 44.29800
H  4.33800 2.68900 40.18700
H  4.98200 1.13300 40.64500
H  7.03300 1.71800 40.43700
H  7.01300 3.15200 41.33400
H  -1.56100 4.05800 42.27500
H  -3.20100 3.50200 42.64300
H  -2.48400 3.23500 40.97600
H  -5.25400 -0.93300 41.84900
H  -4.50400 -1.17300 43.47400
H  -3.52200 -1.51400 41.99800
H  -2.17900 -4.03700 44.76100
H  -0.11500 -4.37800 46.99300
H  -2.34800 -3.91800 47.52700
H  -3.67400 -3.72200 46.45200
H  -2.78300 -2.36400 47.08500
H  1.04200 -5.64000 44.55400
H  -0.64400 -5.85200 44.42600
H  -0.34500 -6.60600 46.99600
H  1.39100 -6.84400 46.46200
H  -0.09200 -7.67700 45.79100
H  6.31400 -4.29700 45.94100
H  4.78400 -5.06600 45.22800
H  4.85800 -4.26400 46.87000
H  6.80700 0.12800 42.82600
H  8.85200 2.13100 46.24100
H  8.67100 3.23400 44.81700
H  10.04600 2.05900 45.01600
Mg 23.98500 -6.85600 46.10500
C  26.35000 -4.83200 44.61800
C  21.67300 -5.53900 43.96400
C  22.14000 -9.73600 46.47600
C  26.68200 -8.54900 47.66800
N  24.08100 -5.47700 44.31700
C  25.12200 -4.71900 43.94700
C  24.81100 -3.67300 42.87200
C  23.23700 -3.67200 42.94700
C  22.94300 -5.03600 43.76200
C  22.61800 -2.41500 43.62900
C  25.36700 -4.09700 41.46000
C  25.83700 -2.92700 40.47500
H  25.37200 -2.82800 38.98100
N  22.15400 -7.45200 45.44200
C  21.27500 -6.65400 44.63300
C  19.99900 -7.29500 44.60100
C  20.09600 -8.54100 45.28900
C  21.50100 -8.62800 45.76800
C  18.83800 -6.78600 43.84300
C  18.94800 -9.52700 45.41400
O  17.85000 -9.17100 45.01600
C  19.16800 -10.80800 46.09700
N  24.38600 -8.92400 47.03500
C  23.44100 -9.87400 47.04300
C  24.01400 -11.14000 47.72800
C  25.44000 -10.69700 48.32800
C  25.54500 -9.34300 47.59300
C  23.01800 -11.91300 48.68100
C  26.54200 -11.73900 47.97800
C  26.86000 -12.86300 48.94400
N  26.07000 -6.62200 46.29600
C  26.97800 -7.35600 46.96600
C  28.31900 -6.71000 46.87200
C  28.07200 -5.62400 46.02900
C  26.71300 -5.72600 45.62300
C  29.60000 -7.11400 47.41900
C  28.64300 -4.47900 45.39600
O  29.74900 -3.97900 45.59800
C  27.60200 -3.96100 44.33600
C  27.53900 -2.47600 44.31000
O  27.94800 -1.77400 43.38300
O  27.01700 -2.04100 45.43800
C  26.99300 -0.60200 45.75800
H  20.85900 -4.99700 43.47900
H  21.60700 -10.66900 46.66900
H  27.58700 -8.94200 48.13600
H  25.18600 -2.70400 43.20000
H  22.75500 -3.74700 41.97200
H  21.97600 -1.81100 42.98800
H  23.42300 -1.78500 44.00800
H  21.92500 -2.58200 44.45300
H  24.62600 -4.63300 40.86700
H  26.13000 -4.86800 41.56500
H  26.92200 -3.03400 40.49700
H  25.55200 -2.00700 40.98600
H  18.05100 -6.65400 44.58700
H  18.55300 -7.40100 42.99000
H  19.00700 -5.75500 43.53100
H  19.45000 -10.69200 47.14300
H  19.71100 -11.50600 45.46000
H  18.15000 -11.19300 46.14100
H  24.21000 -11.76300 46.85600
H  25.23400 -10.46800 49.37400
H  22.03500 -11.44400 48.63700
H  23.38900 -11.97800 49.70400
H  22.91400 -12.92400 48.29000
H  27.49500 -11.21800 47.89300
H  26.35100 -12.19400 47.00600
H  27.04700 -13.75700 48.35000
H  25.95600 -12.87900 49.55300
H  27.66100 -12.60000 49.63600
H  29.92800 -8.13400 47.21700
H  29.59100 -7.04500 48.50700
H  30.31200 -6.33600 47.14600
H  27.99300 -4.17700 43.34200
H  27.55300 0.07200 45.11000
H  27.17300 -0.51800 46.83000
H  25.96800 -0.29200 45.55400

