158

Mg 8.40000 3.79100 27.76500
C  9.72800 2.33600 30.76400
C  6.51800 5.84100 29.96400
C  6.77400 4.93000 25.15700
C  9.43400 1.01300 26.02100
N  8.21600 4.11700 30.08000
C  8.90800 3.41100 31.05700
C  8.75200 4.08000 32.46800
C  7.66500 5.11300 32.10300
C  7.40800 5.00700 30.65400
C  6.47100 5.20400 33.03900
C  10.06400 4.67800 32.90900
C  10.01000 5.26500 34.30500
H  10.96100 4.81400 35.44000
N  6.88800 5.24700 27.62600
C  6.21000 5.94000 28.55700
C  5.40200 6.92700 27.97800
C  5.45500 6.74400 26.58700
C  6.36200 5.55100 26.40700
C  4.57500 7.96700 28.75300
C  4.94700 7.56200 25.48000
O  5.08500 7.32500 24.30600
C  4.20000 8.85800 25.73200
N  8.27500 3.20100 25.86100
C  7.63500 3.87900 24.91400
C  7.57000 3.17000 23.54600
C  8.25100 1.83900 23.92600
C  8.75100 2.01900 25.36300
C  6.22900 3.16300 22.81000
C  9.37900 1.51700 22.90600
C  9.11300 0.23900 22.22300
N  9.43700 2.03600 28.20400
C  9.76200 0.97300 27.44700
C  10.51800 -0.03900 28.17700
C  10.57500 0.48900 29.51200
C  9.89200 1.73000 29.46500
C  10.90600 -1.42700 27.65600
C  10.97800 0.17300 30.81100
O  11.63200 -0.75300 31.27100
C  10.51700 1.45600 31.69100
C  9.72100 0.91600 32.81500
O  8.60100 0.45900 32.77100
O  10.46600 1.16600 33.97800
C  9.81600 0.87100 35.23400
H  5.94100 6.46200 30.65300
H  6.40100 5.22300 24.17300
H  9.67600 0.14800 25.40000
H  8.35600 3.40100 33.22400
H  8.14500 6.08600 32.20700
H  6.16800 4.22400 33.40800
H  5.55800 5.33900 32.46100
H  6.45800 6.00600 33.77700
H  10.40300 5.38400 32.15000
H  10.85700 3.94000 32.79300
H  8.98300 5.15300 34.65200
H  10.13600 6.34700 34.28200
H  5.18800 8.86800 28.72200
H  4.53100 7.60900 29.78200
H  3.59600 8.11200 28.29600
H  4.22700 9.45500 24.82100
H  4.69800 9.41900 26.52300
H  3.21900 8.70800 26.18300
H  8.16700 3.68700 22.79400
H  7.62700 0.94600 23.97400
H  5.40700 3.45600 23.46300
H  6.05600 2.11300 22.57500
H  6.28900 3.76100 21.90100
H  10.38900 1.54300 23.31300
H  9.52600 2.27100 22.13400
H  9.32600 0.40700 21.16700
H  8.15100 -0.24900 22.37600
H  9.82600 -0.50800 22.57400
H  10.04200 -1.86700 27.15900
H  11.17700 -2.04600 28.51100
H  11.83800 -1.37200 27.09200
H  11.41200 1.94900 32.06900
H  10.65800 0.67800 35.89800
H  9.14700 0.01500 35.13900
H  9.25700 1.79900 35.35400
Mg 49.38600 35.61300 28.22600
C  46.81900 33.86500 29.86700
C  49.36500 37.95100 30.76800
C  51.17600 37.49600 26.18200
C  48.76200 33.36600 25.47100
N  48.34600 35.75600 30.05300
C  47.39600 34.93500 30.63500
C  47.20100 35.19200 32.16800
C  47.70800 36.68800 32.25500
C  48.55000 36.79100 30.94700
C  46.52300 37.63200 32.24200
C  48.13800 34.23200 32.99800
C  47.92200 34.27900 34.51000
H  46.93000 35.31000 35.14900
N  50.22000 37.47200 28.41900
C  50.08100 38.30100 29.55600
C  50.75600 39.57100 29.27800
C  51.19200 39.51700 27.85700
C  50.87700 38.10800 27.41800
C  50.82800 40.73900 30.26500
C  51.78800 40.59700 26.98500
O  51.92800 40.45100 25.81300
C  52.05900 41.96100 27.55200
N  49.93900 35.36900 26.14200
C  50.81400 36.26900 25.58500
C  51.33300 35.82800 24.24100
C  50.48300 34.48400 24.00100
C  49.66100 34.35900 25.24200
C  51.07100 36.85100 23.09800
C  51.39800 33.18800 23.75800
C  50.82200 32.18200 22.74200
N  48.18100 33.86800 27.77500
C  48.04700 33.06000 26.65800
C  46.90500 32.09200 26.86400
C  46.38400 32.38300 28.07100
C  47.25400 33.35900 28.58500
C  46.44200 31.06200 25.82400
C  45.38000 31.95800 28.99800
O  44.59400 30.99400 28.99000
C  45.56700 32.98400 30.19100
C  45.61600 32.27400 31.43300
O  46.59100 31.61200 31.84200
O  44.43900 32.41500 32.07700
C  44.32700 31.79600 33.40300
H  49.47100 38.69300 31.56200
H  51.70400 38.11900 25.45800
H  48.58000 32.70500 24.62100
H  46.16800 34.97000 32.43800
H  48.25700 36.77800 33.19200
H  45.56500 37.18400 31.97800
H  46.71300 38.43000 31.52400
H  46.36200 38.06100 33.23100
H  49.16800 34.58500 32.94000
H  48.17400 33.19700 32.65800
H  48.90900 34.61700 34.82900
H  47.63700 33.24800 34.72000
H  50.33200 41.61400 29.84400
H  51.83500 41.09600 30.47800
H  50.24200 40.47100 31.14400
H  51.12800 42.51600 27.66500
H  52.64500 42.57600 26.86900
H  52.46000 41.80600 28.55400
H  52.40200 35.61900 24.25200
H  49.79400 34.60900 23.16600
H  50.42700 36.57200 22.26400
H  52.02100 37.17300 22.67300
H  50.50500 37.68000 23.52300
H  51.51500 32.55800 24.64000
H  52.35300 33.51400 23.34700
H  50.94300 31.23300 23.26300
H  51.23500 32.12000 21.73500
H  49.75400 32.39800 22.72700
H  46.70300 30.11300 26.29100
H  46.93600 31.10600 24.85300
H  45.37000 30.96500 25.65200
H  44.72000 33.66400 30.27900
H  43.33100 31.45400 33.68300
H  44.67100 32.50300 34.15800
H  44.96900 30.92800 33.55600

