158

Mg 5.98600 54.45500 39.87500
C  5.57000 50.96300 40.24400
C  9.15400 53.82400 38.69400
C  6.18900 57.71200 39.27900
C  2.52500 54.84400 40.68300
N  7.13600 52.47400 39.32700
C  6.73900 51.23200 39.55100
C  7.69200 50.28700 38.85200
C  9.01600 51.19600 38.75700
C  8.44900 52.60400 38.98500
C  10.10300 50.94800 39.93300
C  7.30500 49.65900 37.47100
C  6.38900 50.47400 36.58800
H  6.86400 51.40500 35.47500
N  7.47700 55.61300 39.03600
C  8.70900 55.23300 38.66000
C  9.44900 56.31800 38.10700
C  8.59500 57.46700 38.17100
C  7.34200 56.96800 38.88100
C  10.81800 56.14300 37.38700
C  8.85300 58.80300 37.65800
O  9.80700 59.00400 36.99400
C  8.08400 60.07500 38.09600
N  4.54500 56.07300 39.93100
C  4.91300 57.30400 39.80600
C  3.88600 58.34500 40.16900
C  2.66500 57.41600 40.49600
C  3.25300 56.01700 40.36100
C  4.34800 59.28100 41.27000
C  1.35600 57.76200 39.63000
C  0.39500 58.77300 40.28400
N  4.38700 53.20700 40.52000
C  3.06600 53.53800 40.83000
C  2.49500 52.36500 41.41500
C  3.43900 51.30200 41.21900
C  4.54600 51.86700 40.60200
C  1.09700 52.12600 41.93600
C  3.69400 49.81600 41.24900
O  3.01500 48.83800 41.55800
C  5.02800 49.60900 40.60800
C  4.76300 48.67200 39.52300
O  4.46100 48.95600 38.32300
O  4.82000 47.38900 39.97400
C  4.45700 46.26200 39.06200
H  10.19200 53.66800 38.39200
H  6.22900 58.80200 39.23100
H  1.58600 54.96000 41.22800
H  7.73000 49.38200 39.45800
H  9.57300 51.10000 37.82500
H  11.11800 51.01500 39.54000
H  9.94400 49.96800 40.38200
H  9.97400 51.82400 40.56900
H  6.99800 48.62100 37.60300
H  8.23900 49.47000 36.94200
H  5.69800 51.10600 37.14600
H  5.67000 49.89600 36.00700
H  10.93700 56.90700 36.61800
H  10.88400 55.19300 36.85700
H  11.59700 56.37900 38.11100
H  7.06100 60.15200 37.72600
H  8.61700 61.01300 37.93700
H  7.99900 60.06700 39.18300
H  3.71400 58.95300 39.28100
H  2.53900 57.56400 41.56900
H  4.37500 60.30600 40.90000
H  5.37900 59.09200 41.56900
H  3.75900 59.15700 42.17900
H  0.82900 56.83900 39.38700
H  1.59000 58.14100 38.63400
H  -0.67800 58.59800 40.20200
H  0.49800 59.75700 39.82800
H  0.66500 58.81800 41.33900
H  0.70600 51.30000 41.34200
H  0.43900 52.99400 41.90300
H  1.20700 51.76700 42.95900
H  5.64200 49.12500 41.36800
H  3.38000 46.26800 38.89200
H  4.68700 45.38900 39.67200
H  4.97000 46.32400 38.10200
Mg -2.03000 35.48200 26.73600
C  -3.72400 33.72600 29.31700
C  -0.84900 37.66100 29.16900
C  -0.48000 37.03100 24.38200
C  -3.62400 33.22500 24.48100
N  -2.24200 35.66700 28.97100
C  -2.90500 34.79500 29.81100
C  -2.82800 35.19800 31.27200
C  -2.03100 36.53700 31.11100
C  -1.71300 36.67600 29.69300
C  -2.69000 37.75500 31.74000
C  -1.99600 34.18000 32.12700
C  -1.85500 34.54000 33.53800
H  -2.66500 33.64000 34.44900
N  -0.84700 37.17800 26.76400
C  -0.46500 37.96600 27.86300
C  0.40300 39.04100 27.37600
C  0.54100 38.86800 25.97000
C  -0.37400 37.64900 25.61000
C  1.07700 40.03000 28.26700
C  1.33500 39.57400 24.84900
O  1.47100 39.11300 23.74100
C  2.20800 40.78600 25.30800
N  -2.06700 35.19900 24.78300
C  -1.16100 35.85800 24.07600
C  -0.97000 35.15800 22.64200
C  -2.00300 33.95200 22.63200
C  -2.58700 34.09400 24.02500
C  -1.09400 36.21300 21.50500
C  -1.31500 32.54100 22.36100
C  -2.14000 31.59300 21.40200
N  -3.48800 33.90400 26.82300
C  -4.03200 33.11600 25.83800
C  -4.98900 32.20200 26.41600
C  -4.85100 32.42300 27.80700
C  -3.97000 33.41200 28.00300
C  -5.77900 31.17500 25.67900
C  -5.23000 31.91400 29.13600
O  -5.78900 30.87000 29.43800
C  -4.63300 32.87500 30.15500
C  -5.71200 33.67100 30.75400
O  -6.55700 34.17500 30.04900
O  -5.77300 33.54600 32.13000
C  -6.91600 34.20400 32.81200
H  -0.58000 38.38800 29.93700
H  0.05600 37.51600 23.56300
H  -3.94300 32.46200 23.76800
H  -3.82000 35.36000 31.69500
H  -1.05300 36.37900 31.56700
H  -3.72500 37.52200 31.98900
H  -2.64600 38.64700 31.11600
H  -2.31500 38.06800 32.71400
H  -0.98200 34.32200 31.75300
H  -2.47300 33.20100 32.10900
H  -2.08000 35.57800 33.78200
H  -0.80500 34.48300 33.82400
H  0.55200 40.98000 28.16800
H  2.09400 40.17500 27.90200
H  1.15200 39.82500 29.33400
H  2.42500 41.41100 24.44200
H  3.07200 40.40100 25.84900
H  1.63300 41.38600 26.01300
H  0.08300 34.88100 22.70300
H  -2.63600 34.21100 21.78400
H  -1.63500 37.09400 21.85200
H  -1.69400 35.84400 20.67400
H  -0.12200 36.51900 21.11700
H  -1.03500 32.08800 23.31200
H  -0.36000 32.73500 21.87300
H  -1.54700 31.10000 20.63100
H  -2.98100 32.12400 20.95600
H  -2.53100 30.79900 22.03700
H  -5.67300 31.32900 24.60500
H  -6.73900 31.19700 26.19400
H  -5.40400 30.18400 25.93800
H  -4.17500 32.23700 30.91100
H  -7.77800 34.15400 32.14700
H  -6.61100 35.22800 33.02800
H  -7.11000 33.63500 33.72200

