158

Mg 8.70300 3.22200 28.29300
C  10.28000 1.86200 31.16700
C  6.60000 4.91700 30.29600
C  7.44300 4.45400 25.48000
C  10.35600 0.74800 26.48400
N  8.43600 3.30900 30.47200
C  9.21900 2.77000 31.43900
C  8.74800 3.21200 32.81500
C  7.44000 3.98900 32.58800
C  7.44700 4.07800 31.02200
C  6.21600 3.35000 33.19200
C  9.90600 4.08900 33.50500
C  9.46000 4.90400 34.71800
H  10.18800 4.61800 35.97400
N  7.34800 4.68700 27.90900
C  6.59000 5.28100 28.85300
C  5.62900 6.15200 28.18900
C  5.99900 6.19700 26.82500
C  6.99900 5.10900 26.65900
C  4.59500 6.93400 28.92600
C  5.48200 7.02100 25.68900
O  5.85200 6.98000 24.53800
C  4.44000 8.05900 26.05700
N  8.97100 2.80700 26.23000
C  8.32600 3.39500 25.23500
C  8.51400 2.61100 23.92600
C  9.73800 1.65700 24.28300
C  9.74700 1.76400 25.79000
C  7.25500 1.84600 23.45500
C  11.04600 2.15000 23.53100
C  11.88400 3.14100 24.35300
N  10.07800 1.65900 28.69800
C  10.63500 0.69900 27.85800
C  11.57400 -0.08600 28.56500
C  11.50000 0.35300 29.85400
C  10.54900 1.40800 29.87600
C  12.36200 -1.22700 27.93700
C  11.94800 0.11900 31.18800
O  12.78100 -0.64300 31.66700
C  11.13500 1.13600 32.04500
C  10.46000 0.32700 33.10500
O  9.63000 -0.52400 32.83000
O  10.95700 0.55400 34.37300
C  10.12600 0.07000 35.48600
H  5.83900 5.38400 30.92500
H  7.07200 4.99500 24.60700
H  10.87300 0.05800 25.81400
H  8.51400 2.34500 33.43200
H  7.48500 4.97800 33.04500
H  6.36400 2.27400 33.28300
H  5.49000 3.44700 32.38500
H  5.87000 3.91900 34.05400
H  10.26800 4.72400 32.69600
H  10.75100 3.44600 33.75000
H  8.40200 4.74100 34.92500
H  9.65800 5.94100 34.44600
H  4.71000 8.01300 29.02900
H  4.35700 6.38600 29.83700
H  3.77000 6.76700 28.23300
H  3.49100 7.52400 26.05700
H  4.45900 8.88100 25.34100
H  4.87400 8.47500 26.96600
H  8.83500 3.31500 23.15800
H  9.48000 0.63700 23.99700
H  6.44900 2.02400 24.16700
H  7.33600 0.77600 23.26300
H  6.91500 2.31600 22.53300
H  10.93400 2.55600 22.52600
H  11.67200 1.25800 23.52000
H  11.59200 3.49600 25.34200
H  12.05700 4.10600 23.87700
H  12.91600 2.81100 24.47300
H  12.38000 -1.13900 26.85100
H  11.91300 -2.17500 28.23100
H  13.38100 -1.01700 28.26300
H  11.94300 1.77300 32.40400
H  9.05600 0.19600 35.32000
H  10.33300 0.53800 36.44800
H  10.25500 -1.01100 35.52700
Mg 35.79800 49.26300 25.91500
C  35.91300 47.37300 28.68900
C  34.93100 52.15200 27.83500
C  35.40600 51.16800 23.15300
C  36.62400 46.48200 23.98300
N  35.24700 49.61700 28.01200
C  35.51700 48.74200 29.00000
C  35.32100 49.28300 30.39100
C  34.77400 50.77700 30.06100
C  34.98100 50.91000 28.51000
C  33.34200 51.05700 30.46700
C  36.65200 49.24700 31.22700
C  36.72300 48.58600 32.56400
H  36.91600 49.58500 33.77900
N  35.36000 51.38600 25.57700
C  35.08900 52.35100 26.46200
C  35.01100 53.62100 25.84500
C  35.08700 53.40500 24.44900
C  35.24300 51.96800 24.33600
C  34.68400 54.93100 26.51900
C  35.08500 54.41200 23.26400
O  35.22900 54.02600 22.14300
C  34.84500 55.90500 23.47100
N  35.94800 48.86600 23.86800
C  35.63800 49.83400 22.95100
C  35.85700 49.16500 21.49800
C  36.41500 47.77800 21.81400
C  36.34000 47.71000 23.30600
C  34.54500 49.16500 20.62100
C  37.92000 47.61700 21.39300
C  38.20200 46.20200 20.67200
N  36.04900 47.25300 26.21000
C  36.42400 46.27600 25.37800
C  36.70900 45.11800 26.16400
C  36.43000 45.48800 27.46000
C  36.09100 46.78300 27.44800
C  37.21000 43.81700 25.76100
C  36.53700 44.99900 28.77000
O  36.93100 43.96900 29.28400
C  36.19900 46.20400 29.67500
C  35.05500 45.76100 30.56400
O  33.84100 45.73400 30.18300
O  35.49300 45.52400 31.89100
C  34.53600 45.17600 32.96400
H  34.90000 53.01900 28.49700
H  35.23300 51.67400 22.20100
H  36.91400 45.66700 23.31600
H  34.59000 48.78200 31.02600
H  35.31000 51.64000 30.45500
H  33.34300 51.48900 31.46800
H  32.71600 50.17000 30.36800
H  32.94900 51.87000 29.85600
H  36.94300 50.28200 31.41000
H  37.37700 48.84900 30.51700
H  37.46200 47.79700 32.42100
H  35.86000 47.93800 32.71600
H  33.88300 55.40900 25.95500
H  35.51400 55.63700 26.52600
H  34.25900 54.85300 27.52000
H  35.62700 56.41400 24.03500
H  33.87300 55.97800 23.95800
H  34.73900 56.48100 22.55100
H  36.59600 49.83200 21.05600
H  35.80700 47.01100 21.33500
H  33.80300 49.84700 21.03500
H  34.31600 48.15100 20.29400
H  34.82200 49.77400 19.76000
H  38.62000 47.75200 22.21800
H  38.20200 48.36500 20.65200
H  39.19400 45.90500 21.01100
H  38.25000 46.25700 19.58400
H  37.51600 45.43600 21.03300
H  38.02500 44.09800 25.09400
H  36.46800 43.24900 25.20000
H  37.77800 43.31600 26.54500
H  37.07900 46.45200 30.26800
H  33.48500 45.30000 32.70600
H  34.80700 45.80100 33.81500
H  34.76200 44.12000 33.11400

