158

Mg 0.05100 6.89300 26.79700
C  1.22200 9.35500 29.14800
C  0.05000 4.58100 29.31200
C  -0.60800 4.65400 24.49400
C  0.44300 9.35400 24.25400
N  0.65000 6.97500 28.95000
C  0.89400 8.09000 29.68000
C  0.88800 7.73100 31.15200
C  0.84100 6.15800 31.19300
C  0.49300 5.86100 29.72200
C  2.08200 5.45200 31.67800
C  -0.42300 8.38600 31.78500
C  -0.42800 8.29800 33.34000
H  0.81300 7.91000 34.16400
N  -0.36600 4.83600 26.89700
C  -0.27100 4.12300 28.01100
C  -0.63800 2.78300 27.73200
C  -0.86800 2.71700 26.28500
C  -0.53700 4.11000 25.81900
C  -0.70500 1.73400 28.78400
C  -1.21800 1.58000 25.44500
O  -1.21300 1.63700 24.17200
C  -1.52600 0.20600 26.03300
N  -0.02900 7.02600 24.65600
C  -0.44300 5.95800 23.98400
C  -0.58900 6.30200 22.52800
C  -0.35900 7.80600 22.36100
C  0.04600 8.13500 23.82200
C  0.26100 5.36200 21.63100
C  -1.64400 8.66100 21.94600
C  -1.33400 10.00400 21.28100
N  0.79300 8.83500 26.64300
C  0.88400 9.73500 25.54100
C  1.33400 11.05000 26.02000
C  1.41900 10.93600 27.39700
C  1.11000 9.58700 27.74200
C  1.49900 12.37300 25.20600
C  1.80800 11.64000 28.62400
O  2.27400 12.76900 28.79400
C  1.69200 10.59200 29.76000
C  2.92400 10.65600 30.56100
O  3.94800 10.03600 30.32900
O  2.74300 11.35300 31.79000
C  3.80300 11.36800 32.79700
H  0.06600 3.93300 30.19000
H  -0.90800 3.99200 23.67900
H  0.47400 10.10400 23.46100
H  1.81200 8.10700 31.59300
H  0.01500 5.80600 31.81000
H  1.89000 5.07200 32.68100
H  2.95000 6.11100 31.68600
H  2.20700 4.52400 31.12000
H  -1.26100 7.78000 31.43900
H  -0.65100 9.43200 31.58100
H  -1.20400 7.59900 33.65200
H  -0.76900 9.28300 33.65700
H  -1.68200 1.85800 29.25100
H  -0.01600 2.00100 29.58600
H  -0.45000 0.84200 28.21300
H  -1.85800 -0.44800 25.22700
H  -2.28100 0.22000 26.82000
H  -0.56400 -0.17000 26.38200
H  -1.61500 6.16500 22.18600
H  0.43700 7.99000 21.63900
H  0.80300 4.61300 22.20800
H  0.90600 6.03000 21.06000
H  -0.43300 4.86900 20.95000
H  -2.17900 8.89700 22.86600
H  -2.18700 7.99800 21.27300
H  -1.50100 10.84700 21.95200
H  -1.85800 10.07700 20.32800
H  -0.26600 9.99400 21.06200
H  1.45900 12.25700 24.12300
H  2.46900 12.77700 25.49600
H  0.77000 13.14500 25.45200
H  0.82900 10.97300 30.30700
H  4.48500 12.13900 32.43800
H  4.41300 10.49100 33.01400
H  3.38300 11.71800 33.74000
Mg 30.07900 58.36300 38.19300
C  27.21500 56.29500 37.42900
C  32.03100 55.60000 38.02600
C  32.73500 60.29100 38.23000
C  27.96500 61.05900 37.82800
N  29.61900 56.19800 37.82600
C  28.41000 55.61100 37.47900
C  28.55800 54.10200 37.28400
C  30.05100 53.90700 37.86000
C  30.62600 55.32100 37.95400
C  30.13900 53.14600 39.18800
C  28.27700 53.66200 35.82200
C  29.15500 54.36800 34.78000
H  28.55000 55.08400 33.54500
N  32.14600 57.99300 38.12400
C  32.75400 56.78500 38.15400
C  34.16400 56.90900 38.18400
C  34.42700 58.26800 38.27100
C  33.11700 58.94400 38.24100
C  35.19400 55.71400 37.99800
C  35.80700 58.93600 38.27600
O  36.79200 58.21000 38.28500
C  35.96600 60.40900 38.49900
N  30.39600 60.34000 37.88300
C  31.59900 60.93500 37.99700
C  31.58400 62.46900 37.96400
C  30.03300 62.78600 37.84700
C  29.41000 61.30400 37.88300
C  32.34300 63.20500 39.13400
C  29.70200 63.62800 36.54300
C  29.01000 64.97800 36.70500
N  27.92000 58.65500 37.91400
C  27.28100 59.83800 37.77600
C  25.87700 59.62500 37.76100
C  25.72800 58.19500 37.54100
C  27.04500 57.71700 37.66800
C  24.82800 60.75700 37.73800
C  24.88100 57.11000 37.28400
O  23.69400 57.07400 37.11600
C  25.87100 55.82600 37.10500
C  25.37200 54.84200 38.14500
O  25.48400 54.94600 39.39200
O  24.90800 53.73500 37.50300
C  24.21100 52.76600 38.39200
H  32.56700 54.65800 37.89200
H  33.52600 61.03100 38.09200
H  27.41500 61.99700 37.73500
H  27.79400 53.62300 37.89700
H  30.64300 53.35000 37.13400
H  30.30200 52.08200 39.01700
H  29.37600 53.23300 39.96100
H  30.96200 53.55700 39.77400
H  27.22200 53.72300 35.55700
H  28.51300 52.59800 35.86600
H  29.93900 53.66200 34.50500
H  29.83600 55.08100 35.24500
H  35.91300 55.71400 37.17900
H  34.70700 54.77100 37.75100
H  35.69300 55.64900 38.96500
H  35.46100 60.69800 39.42100
H  35.53000 60.88800 37.62200
H  37.01800 60.69200 38.52000
H  32.08100 62.81800 37.05900
H  29.50100 63.22900 38.69000
H  31.67800 63.70700 39.83600
H  33.05300 63.94500 38.76400
H  32.96200 62.56300 39.76000
H  28.95600 63.00800 36.04600
H  30.62800 63.74300 35.98000
H  28.97200 65.22800 37.76600
H  27.96900 64.91200 36.38700
H  29.56500 65.75000 36.17300
H  24.11600 60.54200 38.53500
H  24.39800 60.73600 36.73600
H  25.27200 61.71400 38.01200
H  25.92900 55.42100 36.09500
H  23.42400 53.29400 38.93000
H  24.88900 52.31900 39.12000
H  23.74700 51.96800 37.81200

