158

Mg 17.48100 -0.72900 27.81400
C  16.59800 1.12100 30.64900
C  19.30600 -2.91000 29.92900
C  19.15300 -2.09200 25.09100
C  16.04500 1.65200 25.78600
N  17.97100 -0.78700 30.04100
C  17.40100 0.00100 30.99600
C  17.82200 -0.42000 32.39400
C  18.80800 -1.62700 32.13900
C  18.61500 -1.84800 30.61800
C  20.28100 -1.39800 32.48100
C  16.59900 -0.67600 33.44900
C  16.93200 -0.54400 34.91300
H  18.25700 0.06600 35.32000
N  18.90600 -2.41900 27.59100
C  19.49200 -3.19900 28.52900
C  20.23300 -4.27500 27.90700
C  20.11700 -4.04600 26.55400
C  19.39800 -2.83100 26.30700
C  20.92600 -5.27200 28.70500
C  20.76000 -4.81100 25.34100
O  20.53100 -4.55200 24.16300
C  21.73400 -5.98000 25.65500
N  17.58500 -0.32100 25.71200
C  18.24000 -1.08700 24.80700
C  17.85300 -0.62200 23.36800
C  16.80500 0.44500 23.58700
C  16.82100 0.67000 25.12100
C  19.17200 -0.17500 22.50800
C  15.45500 0.13900 23.02700
C  14.39900 -0.67900 23.89600
N  16.48600 1.04400 28.09000
C  15.85300 1.86400 27.15100
C  15.11700 2.92600 27.82600
C  15.37600 2.67500 29.27100
C  16.22400 1.48900 29.33800
C  14.31200 4.02600 27.17700
C  15.05600 3.08300 30.62400
O  14.24600 3.96700 30.97100
C  15.95400 2.19300 31.51200
C  16.86100 3.01100 32.33400
O  18.04200 3.18100 32.13800
O  16.09500 3.62800 33.27500
C  16.86200 4.47200 34.24400
H  19.75000 -3.48000 30.74800
H  19.53000 -2.42200 24.12100
H  15.50600 2.36800 25.16100
H  18.36200 0.43000 32.81000
H  18.32500 -2.48300 32.61300
H  20.64600 -2.37800 32.78800
H  20.42900 -0.52200 33.11200
H  20.87700 -1.16500 31.59900
H  16.29300 -1.67600 33.14300
H  15.85000 0.09900 33.29000
H  16.76100 -1.47000 35.46300
H  16.18400 0.09300 35.38400
H  21.99600 -5.07100 28.64900
H  20.68100 -6.25300 28.29800
H  20.81100 -5.12400 29.77900
H  21.19400 -6.81200 26.10700
H  22.49500 -5.66100 26.36700
H  22.07900 -6.24500 24.65500
H  17.47300 -1.44900 22.76800
H  17.13900 1.35900 23.09700
H  20.02600 -0.27100 23.17900
H  19.02900 0.88100 22.27800
H  19.38900 -0.69200 21.57300
H  15.54700 -0.48700 22.14000
H  15.01400 1.10700 22.78900
H  13.52600 -0.14500 24.27000
H  14.88200 -1.04500 24.80200
H  13.96900 -1.48900 23.30600
H  14.11400 3.99000 26.10600
H  14.71300 4.96000 27.57100
H  13.33900 3.89500 27.65100
H  15.13300 1.80600 32.11700
H  16.17500 5.25800 34.55700
H  17.62700 5.01900 33.69200
H  17.22600 4.07400 35.19100
Mg 35.59800 1.89600 30.20800
C  33.21100 2.66400 32.66200
C  38.02400 1.66100 32.65400
C  37.91400 1.42200 27.82800
C  33.22700 2.39400 27.74900
N  35.64700 2.25000 32.41700
C  34.51500 2.45800 33.22200
C  34.93000 2.45900 34.69700
C  36.46800 2.38400 34.68000
C  36.75100 2.08700 33.16100
C  37.14600 3.79600 35.00000
C  34.26700 1.21700 35.44300
C  33.79300 1.49200 36.88300
H  34.50000 2.51800 37.77600
N  37.73200 1.52600 30.24100
C  38.47500 1.41000 31.34300
C  39.80900 1.03000 30.93200
C  39.86700 1.13200 29.51400
C  38.44600 1.36400 29.14100
C  40.85200 0.88000 31.97600
C  41.06400 1.00900 28.61300
O  40.94700 1.21900 27.40500
C  42.39300 0.70000 29.14700
N  35.50700 1.67800 28.17500
C  36.63500 1.52900 27.36500
C  36.33500 1.52500 25.91900
C  34.73600 1.65900 25.88300
C  34.48100 1.98200 27.28700
C  36.95200 2.64500 25.07900
C  33.99300 0.53000 25.12100
C  33.47400 -0.68900 25.97900
N  33.64800 2.32700 30.15600
C  32.80100 2.59800 29.01900
C  31.52200 2.89300 29.51500
C  31.61600 2.96500 30.89300
C  32.89100 2.59400 31.25600
C  30.33600 3.15900 28.59800
C  30.89200 3.33300 32.11100
O  29.75900 3.77600 32.34100
C  31.86200 2.94900 33.30600
C  32.00400 4.19300 34.20100
O  32.30500 5.31500 33.80000
O  31.69100 3.88500 35.52800
C  31.61000 5.09900 36.38000
H  38.72800 1.54000 33.48000
H  38.54700 0.99100 27.05000
H  32.55000 2.54100 26.90400
H  34.63200 3.41700 35.12200
H  36.83400 1.62300 35.36900
H  38.16800 3.61100 35.32900
H  36.57500 4.35600 35.74000
H  37.21100 4.49000 34.16200
H  34.89100 0.32800 35.34500
H  33.38800 0.90100 34.88100
H  33.74600 0.51600 37.36600
H  32.78200 1.87400 36.74500
H  41.74500 0.31700 31.70600
H  40.36800 0.22000 32.69500
H  41.13000 1.79300 32.50400
H  42.75900 1.52300 29.76100
H  43.08700 0.59300 28.31400
H  42.49200 -0.25700 29.66000
H  36.68200 0.56000 25.54900
H  34.37200 2.56100 25.39200
H  37.30300 3.44700 25.72900
H  36.19400 3.12800 24.46300
H  37.69800 2.17200 24.44100
H  34.73100 -0.02900 24.54700
H  33.14500 0.82300 24.50200
H  33.87200 -1.62900 25.59700
H  32.39800 -0.79100 25.83500
H  33.69700 -0.66600 27.04600
H  30.37700 2.50500 27.72800
H  30.59100 4.09900 28.10900
H  29.34700 3.06200 29.04400
H  31.48100 2.06200 33.81200
H  30.56000 5.38700 36.42500
H  32.21500 5.99200 36.22400
H  31.74200 4.67100 37.37400

