158

Mg -2.17200 17.50900 26.78400
C  -2.29000 15.37400 29.49600
C  -2.76200 20.13900 28.89100
C  -1.95000 19.33300 24.04900
C  -1.89600 14.58000 24.62900
N  -2.57400 17.68300 28.97600
C  -2.58000 16.68900 29.91100
C  -2.81400 17.31400 31.34200
C  -2.93400 18.81500 31.07200
C  -2.84400 18.92700 29.53100
C  -4.28800 19.41100 31.51000
C  -1.77200 16.98100 32.54700
C  -1.90800 17.75500 33.85200
H  -2.03200 17.05500 35.19400
N  -2.32600 19.53000 26.53100
C  -2.57200 20.44200 27.50100
C  -2.53300 21.74100 26.87400
C  -2.50300 21.49200 25.47100
C  -2.25300 20.11600 25.24700
C  -2.87500 23.06000 27.61400
C  -2.55000 22.51600 24.28300
O  -2.75500 22.16000 23.14100
C  -2.69800 23.99700 24.58900
N  -1.71700 16.98500 24.68400
C  -1.79200 17.96100 23.81500
C  -1.73700 17.45000 22.34700
C  -1.43800 15.92200 22.52500
C  -1.71100 15.79700 23.99900
C  -3.03600 17.80700 21.51500
C  0.00800 15.65800 22.29100
C  1.18000 16.57500 22.83900
N  -2.15100 15.43300 26.95400
C  -1.98700 14.38200 26.00500
C  -2.02700 13.09900 26.70400
C  -2.07400 13.45000 28.04400
C  -2.23900 14.87000 28.18300
C  -2.07000 11.76900 26.17700
C  -2.14900 12.89000 29.39700
O  -2.16500 11.73500 29.73700
C  -2.23200 14.09200 30.32600
C  -1.07400 14.03700 31.29700
O  0.04300 14.52800 31.08700
O  -1.49700 13.33500 32.43500
C  -0.50100 13.40000 33.51100
H  -2.91800 20.99400 29.55100
H  -1.81400 19.91200 23.13300
H  -1.87200 13.67500 24.01900
H  -3.81300 16.92800 31.54800
H  -2.19600 19.46200 31.54600
H  -4.98300 19.57600 30.68800
H  -4.05300 20.34800 32.01500
H  -4.76700 18.85100 32.31400
H  -0.74300 17.23900 32.29600
H  -1.80700 15.90400 32.71500
H  -2.86300 18.27300 33.76400
H  -1.04900 18.35700 34.15200
H  -3.91400 23.22800 27.33100
H  -2.18100 23.88800 27.46600
H  -2.91900 22.86300 28.68500
H  -1.80800 24.54700 24.89500
H  -3.53900 24.14700 25.26600
H  -3.17800 24.41400 23.70300
H  -0.89800 17.95700 21.87100
H  -2.04800 15.20800 21.97200
H  -3.61500 18.50700 22.11700
H  -3.64800 16.96500 21.19200
H  -2.74800 18.37200 20.62900
H  0.15300 15.50500 21.22200
H  0.26200 14.73400 22.81000
H  0.91500 17.46400 23.41200
H  1.77500 17.01000 22.03600
H  1.89400 16.06800 23.48800
H  -1.48100 11.04300 26.73800
H  -2.07000 11.65800 25.09300
H  -3.08300 11.42600 26.39000
H  -3.16800 14.02600 30.88000
H  0.48600 13.02800 33.23900
H  -0.70100 12.75800 34.36900
H  -0.38100 14.43700 33.82500
Mg 47.69300 24.93800 28.90300
C  48.37200 27.38800 31.25600
C  46.51000 22.93200 31.42800
C  47.36600 22.66500 26.58300
C  48.96400 27.19000 26.38600
N  47.34200 25.22500 31.05500
C  47.74100 26.28200 31.84200
C  47.29600 26.12300 33.31600
C  46.72800 24.72200 33.33300
C  46.82800 24.24500 31.85600
C  47.50200 23.70300 34.21200
C  46.55900 27.34700 33.92500
C  45.51100 26.95400 35.00700
H  45.23800 27.94600 36.12500
N  46.95200 23.05400 29.03100
C  46.53100 22.39400 30.11800
C  46.05100 21.03000 29.76300
C  46.31700 20.90600 28.30000
C  46.93800 22.22900 27.88200
C  45.51600 19.98800 30.63200
C  46.02700 19.83500 27.28600
O  46.58000 19.76000 26.21100
C  45.15600 18.73700 27.66900
N  48.11800 24.96000 26.76400
C  47.92800 23.82200 26.05900
C  48.21300 24.00800 24.56300
C  48.34200 25.56700 24.55500
C  48.57000 25.93900 25.98700
C  49.43500 23.23600 24.06400
C  47.06700 26.30300 23.97000
C  47.33300 27.16600 22.70100
N  48.54400 26.84100 28.77200
C  49.02000 27.57600 27.75500
C  49.53600 28.84500 28.25700
C  49.42000 28.76800 29.65900
C  48.70000 27.61700 29.89100
C  50.03500 30.06400 27.47800
C  49.70800 29.44900 30.91100
O  50.31900 30.55000 31.03300
C  49.03100 28.53700 32.04100
C  49.96100 28.07700 33.06500
O  50.59900 27.06500 32.89600
O  50.22500 29.04000 34.07700
C  51.38200 28.79400 34.93800
H  46.16100 22.36100 32.29200
H  47.27300 22.05100 25.68500
H  49.29200 27.89900 25.62300
H  48.22700 26.03000 33.87500
H  45.68500 24.68100 33.64800
H  48.15100 23.12700 33.55400
H  46.80700 22.98500 34.64800
H  48.19900 24.18600 34.89800
H  45.99400 27.91800 33.18900
H  47.28100 27.98600 34.43200
H  45.79000 25.93900 35.28800
H  44.54600 26.83400 34.51400
H  44.48800 19.84800 30.30000
H  45.54200 20.16100 31.70800
H  46.12000 19.09300 30.48100
H  45.75100 18.18900 28.39900
H  44.89400 18.24500 26.73200
H  44.30100 19.15400 28.20200
H  47.28800 23.70400 24.07400
H  49.23300 25.82000 23.98000
H  50.25300 23.94300 23.93100
H  49.30900 22.68200 23.13400
H  49.72700 22.61400 24.91100
H  46.61600 26.94500 24.72600
H  46.28900 25.58600 23.70600
H  46.55100 27.92300 22.74600
H  47.22400 26.53100 21.82200
H  48.24300 27.75400 22.82100
H  50.03200 29.79400 26.42200
H  51.01700 30.44000 27.76600
H  49.25500 30.80600 27.65100
H  48.32400 29.09300 32.65600
H  51.19700 27.84700 35.44500
H  51.48100 29.55900 35.70900
H  52.32600 28.78100 34.39200

