158

Mg 25.31000 -8.05700 46.85700
C  26.99700 -5.36700 45.33300
C  22.67400 -7.41700 44.60300
C  23.84300 -10.93900 47.67400
C  28.21800 -9.02100 48.42700
N  25.01200 -6.73200 45.06600
C  25.75600 -5.65500 44.67100
C  25.22500 -4.97700 43.43200
C  23.77300 -5.53000 43.34400
C  23.83100 -6.68800 44.35700
C  22.69400 -4.53800 43.60800
C  26.08200 -5.25800 42.06400
C  26.19700 -3.92000 41.23200
H  25.05600 -3.78400 40.26100
N  23.40300 -8.94400 46.35500
C  22.50300 -8.54600 45.44700
C  21.33600 -9.43900 45.44700
C  21.67200 -10.48900 46.27700
C  23.01600 -10.16000 46.81100
C  20.06600 -9.14800 44.73000
C  20.78400 -11.79100 46.53500
O  19.69500 -11.78900 46.05000
C  21.27000 -12.98900 47.16400
N  26.00400 -9.75800 47.77600
C  25.19500 -10.77500 48.15400
C  25.87300 -11.77900 49.08000
C  27.22300 -11.15000 49.31200
C  27.17900 -9.90800 48.42900
C  25.10800 -12.01700 50.47300
C  28.39800 -12.12100 49.23300
C  29.25800 -12.27800 50.50800
N  27.27000 -7.45100 46.82400
C  28.29100 -7.79200 47.68200
C  29.38500 -6.85100 47.55900
C  28.93800 -5.90200 46.57200
C  27.59100 -6.28300 46.23400
C  30.60900 -6.90700 48.29200
C  29.32000 -4.69700 45.90700
O  30.41300 -4.15300 45.78200
C  28.03500 -4.31400 45.02700
C  27.48500 -3.04600 45.46000
O  27.21300 -2.16300 44.65600
O  27.21900 -2.85500 46.79700
C  26.63700 -1.55400 47.16700
H  21.81200 -7.09100 44.01800
H  23.48000 -11.83700 48.17800
H  29.07300 -9.25300 49.06700
H  25.27400 -3.91100 43.65400
H  23.67600 -5.90700 42.32600
H  22.30500 -4.16900 42.66000
H  23.02600 -3.59400 44.04000
H  21.82200 -4.89200 44.15800
H  25.58600 -6.00900 41.44800
H  27.06500 -5.60100 42.38500
H  27.17500 -3.87900 40.75200
H  26.03200 -3.00500 41.79900
H  20.33200 -9.43900 43.71400
H  19.90300 -8.07100 44.77500
H  19.12300 -9.54500 45.10400
H  21.89100 -12.98500 48.05900
H  21.93100 -13.38400 46.39200
H  20.46100 -13.71100 47.27800
H  25.85500 -12.73200 48.55100
H  27.30100 -10.74300 50.32000
H  24.23400 -11.36600 50.47400
H  25.70700 -11.77600 51.35200
H  24.91500 -13.07700 50.64100
H  29.02100 -11.73800 48.42400
H  27.98600 -13.12000 49.08900
H  30.30400 -12.26300 50.20100
H  28.78300 -13.08800 51.06200
H  29.15600 -11.44400 51.20300
H  31.18700 -5.99900 48.12500
H  31.23900 -7.79600 48.24100
H  30.25900 -6.83200 49.32200
H  28.35700 -4.28400 43.98600
H  26.95100 -1.26900 48.17100
H  25.56300 -1.67200 47.31400
H  26.82000 -0.71300 46.49800
Mg -2.15700 34.57200 26.15000
C  -3.32300 32.93200 29.00700
C  -0.75000 36.99400 28.17200
C  -1.46600 36.40400 23.36400
C  -3.95900 32.26200 24.20400
N  -1.96700 34.88900 28.38500
C  -2.48900 34.02700 29.33600
C  -2.14200 34.50900 30.75300
C  -1.43000 35.91800 30.48700
C  -1.43100 35.99400 28.90400
C  -2.15400 37.07300 31.16700
C  -1.30200 33.38900 31.64200
C  -1.83100 33.06000 33.03600
H  -0.84100 33.00200 34.24700
N  -1.19600 36.40700 25.79600
C  -0.63300 37.20200 26.75500
C  0.05000 38.33800 26.06600
C  -0.27200 38.26400 24.69300
C  -1.02100 36.99300 24.55300
C  0.79200 39.53700 26.83000
C  -0.00100 39.26300 23.57700
O  -0.25100 39.13400 22.39300
C  0.70500 40.54900 23.79200
N  -2.67000 34.33600 24.08900
C  -2.17900 35.22000 23.20400
C  -2.50400 34.68400 21.74500
C  -3.32500 33.39300 21.96900
C  -3.27300 33.28500 23.50200
C  -3.37600 35.66200 20.91000
C  -2.76100 32.13100 21.21900
C  -1.34900 31.67800 21.60100
N  -3.32700 32.97800 26.48600
C  -4.03900 32.18700 25.62500
C  -4.78800 31.18800 26.33700
C  -4.55000 31.47200 27.71200
C  -3.67300 32.55600 27.74900
C  -5.79700 30.28400 25.78800
C  -4.82700 31.05800 29.09000
O  -5.60400 30.20400 29.51100
C  -4.01700 31.91200 29.99400
C  -4.94300 32.54600 31.04300
O  -5.53600 33.60400 30.93700
O  -4.91400 31.76500 32.21700
C  -5.81500 32.35500 33.24300
H  -0.15500 37.65800 28.80300
H  -1.23400 36.88900 22.41400
H  -4.36400 31.54700 23.48500
H  -3.14700 34.58300 31.17000
H  -0.38300 35.86600 30.78400
H  -1.47400 37.85500 31.50600
H  -2.71200 36.69700 32.02500
H  -2.85000 37.46200 30.42400
H  -0.27200 33.72800 31.75800
H  -1.09100 32.43400 31.16000
H  -2.33700 32.09600 32.98500
H  -2.58500 33.83100 33.19000
H  0.80500 39.37000 27.90700
H  0.34300 40.52800 26.76900
H  1.80800 39.40200 26.45800
H  0.09600 41.16100 24.45700
H  0.74200 41.20100 22.91900
H  1.72900 40.43100 24.14800
H  -1.57800 34.29800 21.31900
H  -4.34500 33.54400 21.61700
H  -3.25400 36.68700 21.25800
H  -4.45500 35.51400 20.96900
H  -3.18000 35.56000 19.84300
H  -2.71900 32.60900 20.24000
H  -3.47700 31.30900 21.23000
H  -1.31200 30.59000 21.65900
H  -0.95200 32.05800 22.54200
H  -0.66300 31.88700 20.77900
H  -6.46800 30.01500 26.60400
H  -5.33100 29.39400 25.36700
H  -6.36000 30.84400 25.04100
H  -3.29500 31.22600 30.43700
H  -6.83400 32.51900 32.89100
H  -5.42900 33.27800 33.67700
H  -5.92100 31.63200 34.05200

