158

Mg 45.86700 17.24200 29.00600
C  44.30500 16.83600 32.23500
C  48.16000 19.20900 30.51900
C  46.92300 17.88700 26.03100
C  43.07300 15.52000 27.66000
N  46.18800 17.92500 31.03400
C  45.42500 17.65100 32.21600
C  46.16300 18.15400 33.47400
C  47.38200 18.98100 32.88300
C  47.25900 18.75200 31.40000
C  47.39600 20.48600 33.17700
C  46.61600 17.09800 34.47900
C  46.20100 17.23300 35.98700
H  45.91000 18.64700 36.49000
N  47.37300 18.28600 28.37600
C  48.24500 18.96200 29.15600
C  49.41000 19.39800 28.38400
C  49.07500 19.04900 27.05600
C  47.71500 18.42200 27.09400
C  50.63900 20.08400 28.99400
C  49.89600 19.42900 25.81000
O  49.49000 19.11600 24.68100
C  51.18400 20.24600 25.82100
N  45.06500 16.76800 27.13800
C  45.67100 17.25900 26.05800
C  44.82500 17.04600 24.78500
C  43.81900 15.95900 25.24200
C  43.92200 16.11200 26.78300
C  44.17700 18.35100 24.25400
C  44.14900 14.47100 24.77600
C  43.71800 14.07500 23.36600
N  44.08500 16.25100 29.75700
C  43.04100 15.60600 29.05200
C  42.09000 15.15500 30.00100
C  42.59300 15.51600 31.25600
C  43.80100 16.22700 31.05400
C  40.83100 14.40800 29.64700
C  42.27000 15.51200 32.67600
O  41.36600 14.97300 33.29600
C  43.36100 16.45900 33.35000
C  42.72800 17.66400 34.01500
O  42.45200 18.69800 33.44400
O  42.49200 17.41000 35.33400
C  41.81800 18.42300 36.20000
H  48.95300 19.79800 30.98400
H  47.28900 18.03800 25.01400
H  42.32700 14.90600 27.15200
H  45.47800 18.91000 33.85600
H  48.31800 18.47900 33.13100
H  46.71700 20.84200 33.95200
H  47.30600 21.06800 32.25900
H  48.39700 20.70200 33.55000
H  47.69300 16.93900 34.42400
H  46.14500 16.18100 34.12300
H  46.94800 16.76400 36.62700
H  45.24400 16.71300 36.03400
H  51.51600 19.71300 28.46400
H  50.83600 19.88100 30.04600
H  50.60800 21.16600 28.86300
H  51.84500 19.65700 26.45700
H  51.03500 21.28900 26.10000
H  51.53700 20.23500 24.79000
H  45.38800 16.59200 23.97000
H  42.84400 16.17100 24.80500
H  43.90700 18.98900 25.09600
H  43.26300 18.12400 23.70400
H  44.72800 18.95800 23.53600
H  43.98800 13.72900 25.55700
H  45.22900 14.58900 24.68200
H  43.53400 15.01100 22.83900
H  42.80000 13.49600 23.46200
H  44.49700 13.46800 22.90500
H  40.78500 13.95900 28.65500
H  40.04900 15.15000 29.80800
H  40.70800 13.61800 30.38700
H  43.77800 15.77400 34.08800
H  42.11500 18.21800 37.22900
H  40.74500 18.23900 36.16900
H  42.21700 19.43000 36.07600
Mg -5.55900 25.09100 25.84800
C  -3.95800 26.39700 28.78200
C  -7.58300 23.19800 28.01300
C  -6.90900 23.74300 23.16800
C  -3.25400 26.74100 23.93200
N  -5.57900 24.68100 28.06900
C  -4.90600 25.43500 29.03900
C  -5.55200 25.21900 30.39100
C  -6.43400 23.87500 30.18500
C  -6.62400 23.98500 28.67400
C  -5.67600 22.61100 30.66700
C  -6.42000 26.40800 30.94700
C  -6.46700 26.49300 32.50600
H  -6.02800 25.37700 33.48100
N  -7.01200 23.65300 25.65000
C  -7.75700 23.03300 26.67700
C  -8.71300 22.15800 25.98700
C  -8.50900 22.26500 24.56900
C  -7.46600 23.28900 24.38200
C  -9.64600 21.26500 26.76300
C  -9.12500 21.52800 23.42600
O  -8.79700 21.61400 22.23600
C  -10.10600 20.49800 23.76500
N  -5.14100 25.19100 23.81000
C  -5.86600 24.56000 22.91000
C  -5.30400 24.76300 21.55600
C  -4.17400 25.85700 21.76400
C  -4.13400 25.88700 23.21700
C  -4.92000 23.48600 20.84900
C  -4.42200 27.22200 21.07200
C  -4.72600 27.25700 19.56400
N  -4.06800 26.42900 26.24200
C  -3.22900 27.03800 25.32800
C  -2.22700 27.84300 25.95500
C  -2.46000 27.58200 27.36200
C  -3.61400 26.79200 27.46300
C  -0.96200 28.44800 25.29200
C  -1.98000 27.79600 28.72500
O  -0.96300 28.32200 29.13700
C  -3.07600 27.26900 29.68800
C  -2.40300 26.46100 30.72000
O  -1.91300 25.34300 30.48800
O  -2.33300 27.07800 31.91600
C  -1.78600 26.29900 33.02700
H  -8.18800 22.72000 28.78600
H  -7.37600 23.46700 22.22100
H  -2.40700 27.15100 23.37800
H  -4.72200 24.94400 31.04200
H  -7.35200 24.00100 30.75900
H  -4.68400 22.82800 31.06300
H  -5.64200 21.80100 29.93800
H  -6.19000 22.19300 31.53300
H  -7.46100 26.34000 30.62900
H  -5.86500 27.27500 30.59100
H  -7.40800 26.89500 32.88000
H  -5.72700 27.24800 32.77000
H  -9.48800 20.20000 26.59200
H  -10.71200 21.43900 26.61700
H  -9.51500 21.48800 27.82200
H  -10.61100 20.23600 22.83600
H  -10.90600 20.78400 24.44800
H  -9.57200 19.70200 24.28400
H  -6.07800 25.18300 20.91300
H  -3.25400 25.39700 21.40400
H  -5.01300 22.62900 21.51500
H  -3.89400 23.50800 20.48300
H  -5.59400 23.21700 20.03500
H  -3.58800 27.90600 21.23100
H  -5.23300 27.80500 21.50900
H  -4.78800 26.23200 19.19900
H  -3.91200 27.83300 19.12500
H  -5.66300 27.78800 19.39700
H  -1.21000 29.51000 25.27000
H  -0.74800 27.96800 24.33700
H  -0.03900 28.36400 25.86500
H  -3.64000 28.09800 30.11500
H  -0.71900 26.08500 32.96400
H  -2.27900 25.35300 33.25200
H  -1.94500 26.92400 33.90500

