158

Mg 25.45400 -8.07900 47.79300
C  28.28000 -5.88300 47.05700
C  23.83400 -6.48000 45.19800
C  23.28800 -10.55100 47.68600
C  27.68500 -10.01000 49.74100
N  26.08700 -6.43600 46.28700
C  27.25600 -5.72600 46.13100
C  27.15400 -4.83500 44.92300
C  25.64400 -4.97200 44.52700
C  25.11500 -6.09000 45.36300
C  24.85900 -3.63100 44.59400
C  28.05000 -5.12200 43.71100
C  28.70200 -3.86900 43.09300
H  28.19600 -3.38100 41.74300
N  23.66500 -8.31300 46.82000
C  23.12900 -7.48800 45.83900
C  21.77800 -7.93100 45.50300
C  21.59400 -9.08300 46.29400
C  22.84700 -9.38200 47.00600
C  20.90800 -7.28600 44.48600
C  20.18000 -9.85100 46.48900
O  19.24200 -9.54400 45.81500
C  19.95200 -10.89900 47.49400
N  25.63500 -10.11000 48.46500
C  24.49500 -10.91700 48.39700
C  24.66600 -12.07200 49.33400
C  26.11000 -11.96700 49.86500
C  26.47400 -10.61000 49.36700
C  23.59600 -12.22600 50.43200
C  27.11200 -13.15300 49.28900
C  27.67500 -13.97400 50.43200
N  27.47900 -7.93400 48.44000
C  28.23100 -8.77600 49.22600
C  29.52500 -8.38900 49.26700
C  29.51700 -7.15800 48.56200
C  28.25300 -6.94000 48.03900
C  30.65000 -9.11800 49.82300
C  30.46100 -6.12100 48.13100
O  31.61700 -5.87300 48.47700
C  29.66300 -5.25000 47.09000
C  29.59900 -3.78100 47.41300
O  29.85300 -3.30800 48.51200
O  29.37000 -3.13800 46.26700
C  29.65600 -1.65700 46.29300
H  23.25800 -5.97700 44.41800
H  22.54200 -11.33900 47.81100
H  28.21300 -10.65900 50.44200
H  27.36500 -3.82800 45.28300
H  25.54000 -5.39000 43.52600
H  23.84600 -3.77400 44.21800
H  25.27900 -2.88900 43.91400
H  24.82900 -3.24400 45.61300
H  27.44200 -5.56700 42.92300
H  28.79500 -5.90400 43.85600
H  29.73800 -4.17300 42.94800
H  28.61200 -3.02400 43.77500
H  21.14100 -7.48400 43.44000
H  21.06800 -6.21100 44.40700
H  19.87500 -7.51200 44.75100
H  20.32000 -10.61900 48.48200
H  20.56200 -11.71600 47.10900
H  18.93000 -11.26600 47.58800
H  24.56400 -12.90600 48.64000
H  26.12000 -11.95400 50.95500
H  23.36800 -13.29200 50.41700
H  22.67000 -11.68000 50.25200
H  24.04700 -11.85100 51.35100
H  27.95300 -12.68900 48.77400
H  26.70900 -13.73900 48.46300
H  28.71100 -13.75800 50.69600
H  27.75000 -15.04900 50.26600
H  27.12100 -13.83300 51.36000
H  30.77500 -9.96000 49.14300
H  30.36200 -9.69500 50.70200
H  31.64100 -8.66900 49.88700
H  30.20400 -5.32700 46.14700
H  29.99400 -1.22500 47.23500
H  28.76900 -1.13100 45.93800
H  30.42900 -1.48200 45.54400
Mg 43.85600 3.57300 47.18400
C  41.97000 6.51200 47.07400
C  41.06700 1.66100 46.94900
C  45.88700 0.93900 46.88000
C  46.83700 5.69400 46.90700
N  41.76100 4.11700 47.00800
C  41.18100 5.32900 47.22100
C  39.63500 5.19800 47.29500
C  39.46400 3.57800 47.44300
C  40.85300 3.04300 47.05600
C  38.97900 3.08100 48.80800
C  38.74400 5.72100 46.09300
C  39.17100 5.22400 44.74200
H  39.33700 6.18500 43.62800
N  43.58100 1.57100 46.84600
C  42.32100 0.96800 46.80500
C  42.48000 -0.49700 46.77600
C  43.92200 -0.70200 46.68400
C  44.52600 0.63600 46.75500
C  41.40000 -1.59200 46.86500
C  44.57200 -2.03000 46.45700
O  43.89000 -3.06700 46.49400
C  46.01300 -2.28500 46.12600
N  46.07800 3.33100 46.86900
C  46.55600 2.12800 47.12200
C  48.13400 2.26000 47.21000
C  48.45800 3.87000 46.94700
C  47.04000 4.34100 46.84400
C  48.73100 1.63800 48.52800
C  49.39900 4.21100 45.85200
C  50.76000 4.73700 46.19700
N  44.34300 5.69400 47.00600
C  45.59100 6.38300 46.99200
C  45.33000 7.83400 46.97000
C  43.94100 7.91000 46.91700
C  43.44300 6.58500 47.10000
C  46.40400 8.88300 46.89500
C  42.81000 8.80100 46.80200
O  42.75600 10.02200 46.64800
C  41.47400 7.92500 46.92600
C  40.82100 8.41400 48.21500
O  41.22600 8.25700 49.34700
O  39.62200 9.14000 47.86200
C  38.67000 9.46000 48.93100
H  40.16500 1.05400 47.05400
H  46.55900 0.07900 46.84400
H  47.66000 6.39600 47.05700
H  39.28600 5.77300 48.15300
H  38.68300 3.36500 46.71300
H  39.72900 2.91200 49.58100
H  38.56100 2.08300 48.67500
H  38.21600 3.78800 49.13300
H  38.67300 6.80900 46.06500
H  37.71400 5.46600 46.34100
H  38.41500 4.54700 44.34500
H  40.17800 4.80800 44.73600
H  41.66400 -2.32700 47.62600
H  41.21500 -1.99700 45.87100
H  40.48400 -1.21600 47.32100
H  46.69300 -2.20000 46.97400
H  46.20100 -1.66700 45.24900
H  46.03800 -3.29800 45.72400
H  48.59300 1.77600 46.34800
H  48.84700 4.41600 47.80600
H  49.42100 2.42200 48.84000
H  49.28700 0.71200 48.37700
H  47.92700 1.49100 49.24900
H  48.92200 4.89100 45.14600
H  49.58000 3.29700 45.28700
H  50.76100 5.81300 46.02000
H  51.55100 4.34600 45.55800
H  50.98900 4.43300 47.21800
H  45.72400 9.71800 46.72500
H  47.03600 8.65600 46.03600
H  46.97700 8.94700 47.82000
H  40.79000 8.02700 46.08300
H  37.74200 9.90000 48.56600
H  39.08800 10.24900 49.55600
H  38.39400 8.61600 49.56300

