158

Mg -1.63200 17.21900 26.67300
C  -2.07800 14.83600 29.07200
C  -2.42300 19.60800 28.85900
C  -1.47200 19.37900 24.11400
C  -1.87800 14.62200 24.18100
N  -1.86400 17.18900 28.78800
C  -1.94200 16.11400 29.57700
C  -2.10600 16.57900 31.06400
C  -2.73500 18.04600 30.90700
C  -2.39100 18.31900 29.38900
C  -4.19600 18.34300 31.23900
C  -0.68400 16.63200 31.67000
C  -0.52400 17.22800 33.10400
H  -0.29900 16.30200 34.32500
N  -1.77500 19.21800 26.49000
C  -1.96300 20.06600 27.62200
C  -1.94900 21.49500 27.18000
C  -1.74000 21.44700 25.72600
C  -1.62500 19.97900 25.35700
C  -2.37900 22.63500 28.07300
C  -1.79000 22.55700 24.73100
O  -1.68000 22.40900 23.51700
C  -1.89600 23.90200 25.30500
N  -1.59400 16.99700 24.52800
C  -1.51600 18.08900 23.69400
C  -1.60700 17.68800 22.25300
C  -1.46400 16.16100 22.25000
C  -1.64900 15.92500 23.72700
C  -2.88800 18.20900 21.54200
C  -0.12500 15.64800 21.55300
C  1.07400 15.36200 22.52100
N  -1.87900 15.13400 26.58600
C  -2.02900 14.21800 25.51800
C  -2.20400 12.89300 26.01000
C  -2.21900 13.10400 27.41600
C  -2.03500 14.49200 27.69600
C  -2.09200 11.73700 25.23200
C  -2.24800 12.46900 28.72500
O  -2.30100 11.27400 29.03200
C  -2.41300 13.58900 29.81300
C  -1.53700 13.37800 30.98000
O  -0.39500 13.05700 31.06300
O  -2.38700 13.55000 32.05700
C  -1.86200 13.46800 33.44100
H  -2.64200 20.34800 29.63200
H  -1.34000 20.12600 23.32700
H  -1.93600 13.82200 23.44000
H  -2.78800 15.87600 31.54200
H  -2.21300 18.74600 31.56000
H  -4.13300 19.23500 31.86200
H  -4.61700 17.46100 31.72100
H  -4.77200 18.61600 30.35400
H  0.03700 17.06700 30.97900
H  -0.28300 15.63900 31.87300
H  -1.47900 17.74300 33.20800
H  0.25600 17.99000 33.11300
H  -2.76500 22.29500 29.03500
H  -3.21900 23.04600 27.51400
H  -1.47100 23.22400 28.20100
H  -1.74800 24.61100 24.49000
H  -1.02900 23.94100 25.96300
H  -2.88800 24.05400 25.73200
H  -0.82000 18.19700 21.69600
H  -2.34100 15.61800 21.89800
H  -3.59100 17.37900 21.48400
H  -2.63700 18.40500 20.49900
H  -3.29600 19.10000 22.02000
H  0.24700 16.45700 20.92400
H  -0.34300 14.82900 20.86900
H  0.77700 15.27800 23.56600
H  1.79500 16.17800 22.47500
H  1.63500 14.49400 22.17700
H  -2.95800 11.54100 24.60000
H  -2.07900 10.93300 25.96700
H  -1.13000 11.77300 24.72200
H  -3.47100 13.68200 30.05900
H  -2.40200 14.16600 34.08100
H  -0.80800 13.74400 33.48200
H  -1.89500 12.43500 33.78700
Mg 48.57600 44.13300 42.93100
C  45.08400 43.50000 42.81300
C  48.95200 40.58900 42.45000
C  51.80500 44.60600 42.53600
C  47.93400 47.64100 42.63800
N  47.16400 42.25100 42.63200
C  45.73500 42.27500 42.55500
C  45.13400 40.93500 42.30700
C  46.39200 39.96600 42.27900
C  47.59500 40.99200 42.48200
C  46.41800 38.82800 43.28100
C  44.22800 40.75800 41.07400
C  44.73400 41.52900 39.77500
H  44.38800 40.87000 38.48200
N  50.15500 42.88700 42.53500
C  50.08700 41.45300 42.44700
C  51.39600 41.02600 42.15700
C  52.30600 42.07100 42.24800
C  51.44700 43.29300 42.43900
C  51.71700 39.53700 41.87100
C  53.86000 41.96800 42.07500
O  54.40700 40.89000 41.90900
C  54.73100 43.16500 42.24400
N  49.72900 45.91200 42.26700
C  51.08000 45.79000 42.47200
C  51.67200 47.15800 42.85200
C  50.44100 48.13400 42.57100
C  49.23600 47.17700 42.49500
C  52.38600 47.24900 44.27900
C  50.54700 48.91000 41.22900
C  50.03500 50.37600 41.32700
N  46.88600 45.34100 42.79700
C  46.81300 46.75100 42.68600
C  45.35200 47.07700 42.73900
C  44.68100 45.85900 42.85900
C  45.61600 44.83600 42.79700
C  44.86400 48.47800 42.78800
C  43.36100 45.27200 42.82300
O  42.25200 45.87400 42.74800
C  43.55200 43.67900 42.90200
C  42.87700 43.19900 44.10200
O  42.23700 42.15300 44.19700
O  43.18100 44.02000 45.12400
C  42.39500 43.81400 46.35700
H  49.04900 39.52400 42.22800
H  52.85900 44.88500 42.59900
H  47.82500 48.71800 42.78100
H  44.52800 40.76100 43.19600
H  46.54500 39.62100 41.25700
H  46.86700 39.21000 44.19800
H  47.01400 38.04100 42.81900
H  45.39600 38.52100 43.50200
H  43.23700 41.10100 41.37100
H  44.39200 39.71500 40.80400
H  45.82200 41.58500 39.82500
H  44.44700 42.58000 39.79400
H  51.81700 39.28500 40.81600
H  50.97500 38.90500 42.35900
H  52.72600 39.25400 42.17200
H  54.64100 43.92100 41.46400
H  55.75900 42.91000 42.50000
H  54.38500 43.63400 43.16400
H  52.42700 47.40500 42.10500
H  50.40900 48.82200 43.41600
H  52.59300 46.25900 44.68500
H  51.75100 47.81600 44.96000
H  53.31300 47.82100 44.33000
H  49.97800 48.40300 40.45100
H  51.56400 48.85200 40.84000
H  50.64800 51.14000 40.84900
H  49.79400 50.70900 42.33700
H  49.05500 50.26200 40.86500
H  45.11600 48.85700 43.77900
H  43.78000 48.58800 42.78100
H  45.26000 49.00300 41.91900
H  42.96200 43.26800 42.08300
H  43.21900 43.44200 46.96600
H  41.50400 43.18900 46.30300
H  42.24600 44.77800 46.84400

