158

Mg 23.90300 -7.50600 46.89700
C  26.66100 -5.66200 45.77600
C  22.00100 -6.06400 44.40300
C  21.55300 -9.76700 47.55900
C  26.28300 -9.45400 48.75400
N  24.40500 -6.16900 45.07100
C  25.55800 -5.47600 44.97400
C  25.41800 -4.43900 43.89400
C  23.91900 -4.62700 43.33100
C  23.37200 -5.62700 44.35400
C  23.19800 -3.24400 43.28600
C  26.46900 -4.73300 42.74300
C  27.07100 -3.51600 42.04500
H  26.85500 -3.32000 40.62200
N  21.99100 -7.87200 46.05000
C  21.35100 -7.10500 45.12900
C  19.93000 -7.54300 45.12900
C  19.78800 -8.57500 46.09800
C  21.11400 -8.79600 46.60200
C  18.91000 -6.94200 44.35100
C  18.50100 -9.30200 46.42700
O  17.44800 -9.04100 45.84600
C  18.56600 -10.61600 47.21600
N  23.93000 -9.32600 47.97200
C  22.75700 -10.12300 48.14000
C  23.10400 -11.43600 48.89800
C  24.49600 -11.10800 49.38800
C  24.94900 -9.84500 48.70500
C  22.11800 -11.87600 50.02100
C  25.38400 -12.37700 49.50200
C  25.84000 -13.02200 48.17400
N  26.01900 -7.45300 47.41500
C  26.84600 -8.39200 48.11000
C  28.20500 -7.96000 48.15400
C  28.18200 -6.81800 47.26400
C  26.83800 -6.66900 46.81100
C  29.27200 -8.43200 48.99600
C  28.93700 -5.71200 46.81200
O  30.13300 -5.38100 46.97900
C  28.00300 -4.95900 45.64000
C  27.95000 -3.56400 45.91800
O  27.20900 -2.91200 46.67100
O  28.82600 -2.95400 45.09400
C  28.90900 -1.50200 45.21300
H  21.41500 -5.49400 43.67900
H  20.88000 -10.56800 47.87100
H  26.99900 -10.14900 49.19700
H  25.56500 -3.50200 44.43000
H  23.91500 -5.07400 42.33700
H  22.76800 -3.13300 42.29100
H  24.01700 -2.53700 43.42200
H  22.43600 -3.18100 44.06200
H  26.04200 -5.37700 41.97400
H  27.17500 -5.42100 43.20800
H  28.16000 -3.55100 42.06800
H  26.82600 -2.62400 42.62300
H  18.52500 -7.69000 43.65800
H  19.23800 -6.01400 43.88300
H  18.10500 -6.55700 44.97800
H  18.82200 -10.38800 48.25000
H  19.26200 -11.29100 46.71900
H  17.62800 -11.15500 47.07800
H  22.99800 -12.22100 48.15000
H  24.30200 -10.88100 50.43600
H  21.49200 -11.02200 50.28000
H  22.68300 -12.11200 50.92300
H  21.62300 -12.77200 49.64800
H  25.01500 -13.13600 50.19100
H  26.31200 -12.05700 49.97700
H  26.91800 -12.92500 48.30700
H  25.42400 -12.58400 47.26700
H  25.47900 -14.05000 48.17900
H  29.03200 -8.60300 50.04500
H  30.00800 -7.62900 48.96400
H  29.65300 -9.41400 48.71700
H  28.51100 -5.18400 44.70100
H  28.85600 -1.11600 46.23100
H  28.15300 -1.03900 44.57900
H  29.84000 -1.15800 44.76300
Mg -10.65700 39.08800 42.23600
C  -10.04500 35.90500 41.35800
C  -7.76800 40.09200 40.66600
C  -11.82300 42.31500 42.46900
C  -13.99100 38.06100 43.31900
N  -9.22100 38.12700 40.89600
C  -9.17900 36.79300 40.67400
C  -7.86500 36.44000 39.99600
C  -7.01100 37.74300 40.05500
C  -8.05900 38.71200 40.53600
C  -5.86400 37.69200 41.10300
C  -8.12000 35.90700 38.51200
C  -7.16000 34.74800 38.06300
H  -6.16600 35.22700 37.07300
N  -9.93900 40.95900 41.71500
C  -8.72800 41.19800 41.14800
C  -8.46900 42.60900 40.96000
C  -9.61900 43.29400 41.38500
C  -10.53300 42.20400 41.84700
C  -7.13700 43.20000 40.43200
C  -9.76300 44.87100 41.46000
O  -8.81500 45.60100 41.15500
C  -11.12100 45.47900 41.88800
N  -12.62300 40.06200 42.88000
C  -12.73400 41.37900 42.96300
C  -14.12600 41.78600 43.34900
C  -14.78800 40.47800 43.75400
C  -13.75600 39.44700 43.30500
C  -14.34200 43.02200 44.29800
C  -16.17400 40.18300 43.13200
C  -17.21100 39.70100 44.13200
N  -11.74900 37.40100 42.49800
C  -13.01900 37.09300 42.98000
C  -13.23100 35.69300 42.98500
C  -12.13300 35.14600 42.44100
C  -11.26600 36.22600 42.07600
C  -14.47800 34.90300 43.39000
C  -11.41100 33.92600 42.07800
O  -11.75100 32.75700 42.23900
C  -10.05400 34.35900 41.26500
C  -8.86200 33.86800 42.07200
O  -8.71000 33.87200 43.29200
O  -8.05300 33.24300 41.17400
C  -6.79500 32.66500 41.62100
H  -6.77400 40.39100 40.32600
H  -12.21600 43.33100 42.55000
H  -14.98200 37.72500 43.63300
H  -7.57700 35.52700 40.51800
H  -6.68900 38.04000 39.05700
H  -5.69500 36.64900 41.37000
H  -6.06200 38.28100 41.99800
H  -4.90700 38.09100 40.76600
H  -8.16900 36.70000 37.76600
H  -9.14000 35.52700 38.45000
H  -7.63500 33.82600 37.72900
H  -6.64100 34.32200 38.92200
H  -6.64600 43.94700 41.05500
H  -7.45700 43.73500 39.53800
H  -6.40700 42.47700 40.06900
H  -11.25100 45.21700 42.93800
H  -11.87900 45.01500 41.25800
H  -11.12000 46.53600 41.62000
H  -14.54800 42.16700 42.42000
H  -14.90200 40.52900 44.83700
H  -14.78400 42.76300 45.26000
H  -14.88000 43.77600 43.72200
H  -13.36300 43.41100 44.57600
H  -16.16400 39.41600 42.35800
H  -16.52600 41.09800 42.65600
H  -17.90300 39.01400 43.64600
H  -17.75300 40.60300 44.41600
H  -16.75400 39.19500 44.98300
H  -15.07100 34.82900 42.47800
H  -15.13300 35.37600 44.12200
H  -14.20100 33.96800 43.87700
H  -10.05700 34.05900 40.21700
H  -5.96100 33.35400 41.75200
H  -6.40100 31.98300 40.86700
H  -6.96700 32.08100 42.52500

