158

Mg -0.60000 7.04200 26.52200
C  0.59700 8.97700 29.36600
C  -0.74900 4.38300 28.63300
C  -1.09500 5.29600 23.79400
C  0.06000 9.87000 24.55500
N  0.00300 6.72700 28.78900
C  0.31800 7.66300 29.74900
C  0.13900 7.02500 31.14800
C  -0.17900 5.52700 30.87300
C  -0.36200 5.52100 29.34700
C  0.80100 4.46000 31.52400
C  -1.03200 7.70800 31.91800
C  -0.76400 8.33900 33.25600
H  0.27000 7.74000 34.25100
N  -0.83100 5.05000 26.22900
C  -0.91900 4.13500 27.17000
C  -1.38400 2.84800 26.57400
C  -1.35500 3.06800 25.13500
C  -1.05400 4.54700 24.99900
C  -1.79200 1.62800 27.41200
C  -1.67900 2.09700 24.04000
O  -1.63900 2.32400 22.81800
C  -2.04300 0.60100 24.22400
N  -0.39100 7.45400 24.48000
C  -0.81900 6.57200 23.50200
C  -0.62700 7.11300 22.08500
C  -0.67200 8.67000 22.38600
C  -0.27900 8.72000 23.87900
C  0.75600 6.67400 21.45900
C  -2.15300 9.32000 22.23700
C  -2.31400 10.07600 20.95000
N  0.15600 8.95000 26.82400
C  0.32000 10.01700 25.92800
C  0.70500 11.23200 26.59200
C  0.96500 10.87600 27.90100
C  0.51900 9.52700 28.00300
C  0.89300 12.62400 26.00800
C  1.26300 11.39900 29.22200
O  1.71200 12.46900 29.63700
C  0.96600 10.19800 30.23900
C  2.19000 9.95700 31.05800
O  3.25200 9.47800 30.67300
O  2.09700 10.47100 32.25300
C  3.30200 10.39700 33.07300
H  -0.80900 3.48000 29.24400
H  -1.22600 4.64200 22.92900
H  0.06400 10.79800 23.97900
H  1.05600 7.17000 31.71900
H  -1.15200 5.34500 31.32900
H  0.31300 3.89300 32.31700
H  1.75000 4.88900 31.84500
H  1.15800 3.75900 30.77000
H  -1.96900 7.16800 32.05400
H  -1.21700 8.55300 31.25500
H  -1.68500 8.30500 33.83900
H  -0.46100 9.36800 33.06300
H  -1.35500 1.55200 28.40800
H  -1.28200 0.75500 27.00400
H  -2.86600 1.65900 27.59300
H  -2.72200 0.32900 25.03300
H  -1.15700 0.06100 24.56000
H  -2.35200 0.29300 23.22500
H  -1.57000 6.95000 21.56300
H  -0.00800 9.40700 21.93300
H  0.98300 5.82100 22.09900
H  1.59200 7.37100 21.40300
H  0.60900 6.35400 20.42700
H  -2.41900 10.00400 23.04300
H  -2.86800 8.51300 22.07100
H  -1.56900 9.70000 20.24800
H  -2.15800 11.12300 21.20800
H  -3.36900 10.04200 20.67600
H  -0.07100 12.89000 25.57200
H  1.56000 12.52800 25.15200
H  1.25600 13.38800 26.69500
H  0.21500 10.54000 30.95100
H  2.88300 10.50400 34.07300
H  4.06900 11.11300 32.77700
H  3.79000 9.42200 33.06200
Mg 36.57500 49.54500 25.19000
C  36.54000 47.49400 27.99600
C  35.03100 51.94600 26.98100
C  36.11300 50.99400 22.27700
C  37.61300 46.50800 23.31900
N  35.73600 49.60300 27.20400
C  36.01300 48.76900 28.25000
C  35.77800 49.47300 29.52700
C  35.04100 50.85300 29.21200
C  35.28800 50.82400 27.70600
C  33.52800 50.81900 29.60500
C  37.05600 49.50300 30.45200
C  36.87100 49.09500 31.87900
H  35.48500 49.27300 32.50200
N  35.86100 51.29600 24.67800
C  35.31400 52.18200 25.56800
C  34.98800 53.38700 24.85400
C  35.28300 53.13100 23.43800
C  35.80900 51.74500 23.40800
C  34.34200 54.60500 25.52200
C  34.95500 54.02700 22.22700
O  35.27200 53.80900 21.03200
C  34.03600 55.25600 22.48900
N  37.10400 48.89600 23.12300
C  36.75400 49.74100 22.14000
C  36.90400 49.10400 20.73200
C  37.69500 47.80900 21.13200
C  37.46600 47.73400 22.63500
C  35.67200 48.81200 19.96200
C  39.17600 47.84300 20.66800
C  40.27800 48.31800 21.74000
N  36.91700 47.39500 25.48800
C  37.44800 46.36000 24.72900
C  37.69100 45.17000 25.52400
C  37.33500 45.59400 26.85200
C  36.88400 46.93800 26.73500
C  38.21700 43.92700 25.00400
C  37.42500 45.23700 28.17300
O  37.84200 44.18700 28.59900
C  36.94100 46.45600 29.05500
C  35.78100 45.99200 29.85800
O  34.61300 45.89300 29.40300
O  36.14500 45.53800 31.06200
C  35.02100 45.00300 31.77800
H  34.69700 52.86300 27.47200
H  35.88400 51.45300 21.31300
H  37.88500 45.65300 22.69800
H  35.07400 48.77000 29.97300
H  35.54300 51.64400 29.77000
H  33.43400 50.17100 30.47600
H  32.89400 50.42500 28.81000
H  33.23300 51.84100 29.84200
H  37.50900 50.49500 30.46700
H  37.85300 48.89000 30.03000
H  37.71000 49.49100 32.45200
H  37.04600 48.02600 32.00200
H  34.70300 55.51700 25.04600
H  34.49800 54.62800 26.60100
H  33.25800 54.71500 25.48900
H  33.06900 55.13000 22.97500
H  33.81600 55.55600 21.46500
H  34.52300 56.10200 22.97400
H  37.55700 49.80000 20.20400
H  37.26300 46.93500 20.64500
H  35.70800 49.51900 19.13400
H  34.77700 49.04500 20.53900
H  35.56900 47.78400 19.61300
H  39.23800 48.41900 19.74400
H  39.47500 46.86600 20.28800
H  40.67100 47.56300 22.42000
H  39.98600 49.24000 22.24300
H  41.14000 48.59400 21.13300
H  37.94600 43.83800 23.95200
H  37.79000 43.08800 25.55300
H  39.29800 44.06100 25.04300
H  37.67300 46.78900 29.79000
H  35.41900 44.72900 32.75500
H  34.65400 44.11600 31.26200
H  34.21700 45.69400 32.03300

