158

Mg 45.54500 17.35100 28.71600
C  43.55600 16.86100 31.67200
C  47.58000 19.45300 30.55800
C  46.96700 18.12300 25.93300
C  42.89400 15.67700 27.05100
N  45.51000 18.14500 30.82900
C  44.71100 17.63800 31.88200
C  45.18100 18.05700 33.19800
C  46.29700 19.06200 32.81200
C  46.57600 18.84000 31.31700
C  46.05700 20.49500 33.31700
C  45.72000 16.88700 34.10900
C  46.12100 17.07100 35.55700
H  45.72800 18.34000 36.35000
N  47.20300 18.51100 28.33000
C  47.91600 19.32400 29.17700
C  48.98900 20.02000 28.51000
C  48.78500 19.59000 27.13000
C  47.59300 18.77300 27.05400
C  49.87200 21.06900 29.20100
C  49.72400 19.85600 25.87100
O  49.49100 19.39500 24.77600
C  50.83300 20.77600 26.05300
N  44.99500 16.99900 26.74300
C  45.80200 17.39800 25.77800
C  45.27900 16.98600 24.39700
C  44.02100 16.12300 24.79100
C  43.95900 16.27100 26.28900
C  45.03700 18.16800 23.38100
C  43.96800 14.60600 24.33900
C  44.74000 13.68600 25.30700
N  43.74700 16.30700 29.16100
C  42.83000 15.67400 28.36900
C  41.92000 14.96000 29.26300
C  42.12500 15.46400 30.50400
C  43.25100 16.28500 30.41400
C  40.76300 14.07100 28.80900
C  41.62400 15.47100 31.86400
O  40.58100 14.92400 32.32200
C  42.49100 16.29000 32.68900
C  41.73500 17.39500 33.40300
O  40.72500 17.93600 33.00700
O  42.21200 17.53100 34.75800
C  41.54300 18.44400 35.64000
H  48.21800 20.15900 31.09400
H  47.50600 18.27400 24.99500
H  42.07000 15.20300 26.51300
H  44.34600 18.52300 33.72000
H  47.26400 18.83900 33.26300
H  45.09000 20.50900 33.81900
H  46.08200 21.14200 32.44000
H  46.80000 20.78700 34.05800
H  46.48400 16.40100 33.50200
H  44.92200 16.15700 34.24000
H  47.21100 17.05300 35.57900
H  45.68400 16.18400 36.01500
H  50.74400 20.62900 29.68400
H  49.36600 21.69400 29.93700
H  50.23600 21.82900 28.51100
H  51.28500 20.65400 27.03700
H  50.45200 21.77700 25.85000
H  51.61200 20.56500 25.32100
H  45.90200 16.23800 23.90600
H  43.10600 16.54800 24.38000
H  45.67500 18.98300 23.72400
H  43.99500 18.48400 23.34100
H  45.25300 17.91100 22.34400
H  44.56300 14.56400 23.42700
H  42.96500 14.31400 24.02700
H  44.08600 13.13000 25.98000
H  45.57000 14.18600 25.80600
H  45.12700 12.94100 24.61200
H  41.11200 13.39900 28.02500
H  39.93500 14.67600 28.44100
H  40.39900 13.60900 29.72700
H  42.78000 15.51500 33.39900
H  41.82100 19.43900 35.29100
H  41.99400 18.31400 36.62400
H  40.46300 18.39500 35.77400
Mg -10.77500 37.27200 42.01800
C  -8.51500 34.73500 41.47300
C  -8.89500 39.45200 40.13800
C  -13.25800 39.46000 42.31400
C  -12.83800 34.86500 43.54600
N  -9.00900 37.01900 40.81600
C  -8.23800 35.87300 40.66400
C  -6.93700 36.16000 39.94500
C  -7.06600 37.70400 39.61800
C  -8.44700 38.10800 40.20300
C  -5.90700 38.58700 40.12100
C  -6.72700 35.14400 38.78900
C  -5.25000 34.84200 38.66600
H  -4.36200 35.33200 37.52800
N  -11.06300 39.25200 41.29400
C  -10.15400 39.92300 40.56600
C  -10.67900 41.25100 40.40600
C  -11.91700 41.34200 41.08900
C  -12.12800 39.99900 41.60000
C  -9.99000 42.40000 39.77400
C  -12.66400 42.57300 41.37900
O  -12.23000 43.61300 40.95000
C  -13.92900 42.59000 42.09100
N  -12.87200 37.12700 42.60100
C  -13.69100 38.20200 42.72700
C  -15.01700 37.92400 43.37300
C  -14.88900 36.38900 43.60900
C  -13.40400 36.09900 43.21600
C  -15.24800 38.74000 44.63900
C  -15.96900 35.47700 42.83100
C  -16.86000 34.50300 43.65000
N  -10.73000 35.21500 42.51000
C  -11.57600 34.39800 43.25100
C  -10.94100 33.09800 43.54800
C  -9.75300 33.21700 42.77300
C  -9.65000 34.50800 42.29800
C  -11.54500 31.93900 44.25600
C  -8.45700 32.56100 42.45800
O  -7.98200 31.52500 42.84300
C  -7.65400 33.49500 41.60500
C  -6.25300 33.60000 42.09400
O  -5.33600 32.78400 41.88700
O  -6.17900 34.78800 42.86600
C  -4.79400 35.04800 43.33600
H  -8.40000 40.12100 39.43000
H  -14.06100 40.19500 42.39700
H  -13.39500 34.07300 44.05200
H  -6.12000 36.01100 40.65000
H  -7.16000 37.83500 38.54000
H  -5.36300 39.04700 39.29600
H  -5.13200 38.01400 40.63000
H  -6.43800 39.23400 40.82000
H  -7.08400 35.58600 37.85900
H  -7.39400 34.28400 38.84800
H  -5.21700 33.75500 38.58700
H  -4.70600 35.24000 39.52300
H  -8.98600 42.20000 39.39800
H  -9.72100 43.04500 40.61000
H  -10.58700 43.01800 39.10400
H  -14.29700 43.61600 42.10700
H  -13.75300 42.30400 43.12800
H  -14.64100 41.93100 41.59400
H  -15.86200 38.12800 42.71500
H  -14.94500 36.06500 44.64800
H  -14.35600 39.19900 45.06500
H  -15.90400 38.13400 45.26400
H  -15.89000 39.59400 44.42500
H  -15.51100 34.79400 42.11600
H  -16.65900 36.15800 42.33300
H  -17.87900 34.87800 43.54900
H  -16.55200 34.49400 44.69500
H  -16.76700 33.48700 43.26500
H  -12.45100 32.24900 44.77800
H  -10.87300 31.50500 44.99500
H  -11.83600 31.17000 43.54000
H  -7.61400 32.83700 40.73600
H  -4.79800 35.91100 44.00100
H  -4.21400 35.15600 42.41900
H  -4.51200 34.30200 44.07900

