158

Mg 9.19700 3.46100 27.16300
C  10.31400 1.83100 29.96300
C  7.21700 5.47300 29.03000
C  8.01900 4.83400 24.25800
C  10.92700 1.11800 25.18500
N  8.67300 3.44900 29.30100
C  9.46800 2.89500 30.27400
C  9.10500 3.56400 31.71400
C  7.97600 4.57500 31.29000
C  7.92800 4.55300 29.80400
C  6.69700 4.43100 32.02000
C  10.37800 3.99500 32.48500
C  10.21500 4.85100 33.67100
H  10.39500 4.34800 35.09700
N  7.88700 4.98000 26.63900
C  7.14900 5.63100 27.61100
C  6.30500 6.61000 26.97500
C  6.53900 6.50600 25.54800
C  7.52300 5.45900 25.40700
C  5.46800 7.63300 27.78400
C  6.00500 7.29900 24.38400
O  6.30000 7.09900 23.24800
C  5.04900 8.41200 24.70100
N  9.50700 3.07600 25.09000
C  8.90100 3.78200 24.12500
C  9.34900 3.39900 22.73100
C  10.17200 2.16900 23.02600
C  10.23100 2.12700 24.51000
C  8.13900 3.30800 21.75800
C  11.48000 1.97300 22.24700
C  11.47000 0.87500 21.14300
N  10.35800 1.81100 27.44300
C  11.05400 0.95100 26.59000
C  11.86500 -0.05600 27.33600
C  11.56000 0.30100 28.70200
C  10.59500 1.38800 28.69100
C  12.74000 -1.20400 26.81900
C  12.01900 -0.01700 30.04500
O  12.97800 -0.74800 30.38300
C  11.19900 0.97500 30.89100
C  10.40100 0.48000 31.96800
O  9.22900 0.26000 31.93800
O  11.17600 0.20200 33.02000
C  10.49800 -0.13000 34.27700
H  6.73100 6.27600 29.58900
H  7.66100 5.28100 23.32800
H  11.45400 0.47100 24.48100
H  8.72600 2.77100 32.35800
H  8.42000 5.55700 31.45200
H  6.85000 3.66500 32.78100
H  5.95100 4.05700 31.31900
H  6.38700 5.40400 32.39900
H  11.14500 4.49800 31.89600
H  10.75500 3.01700 32.78400
H  9.26400 5.38100 33.65400
H  10.88200 5.69600 33.50300
H  4.50700 7.78400 27.29200
H  6.06300 8.54100 27.68400
H  5.31600 7.39600 28.83700
H  5.53900 9.13400 25.35400
H  4.13200 7.98100 25.10200
H  4.73000 8.84400 23.75200
H  10.04100 4.17200 22.39600
H  9.66600 1.21500 22.87800
H  7.21000 3.34400 22.32700
H  8.08400 2.36300 21.21700
H  8.23600 4.19700 21.13600
H  12.27000 1.68100 22.93900
H  11.89900 2.92400 21.92000
H  10.44700 0.85300 20.76700
H  11.89300 -0.04600 21.54500
H  12.03800 1.19700 20.27000
H  13.78900 -0.96700 26.64100
H  12.31300 -1.41000 25.83700
H  12.78900 -2.02500 27.53400
H  11.87700 1.71800 31.31000
H  11.14700 0.09000 35.12500
H  10.29200 -1.19300 34.40700
H  9.59600 0.47200 34.38700
Mg 47.69300 45.96600 43.59800
C  44.30600 46.06800 42.75700
C  47.95200 43.04500 41.87300
C  51.06700 46.19900 44.00800
C  47.51800 49.46500 44.29100
N  46.26500 44.64300 42.57000
C  44.97200 44.93600 42.31600
C  44.23800 43.85900 41.54700
C  45.40000 42.78400 41.38600
C  46.62200 43.52500 41.90000
C  45.10100 41.43600 42.07300
C  43.71400 44.34000 40.15100
C  42.38100 43.77900 39.69300
H  42.48100 42.82800 38.51100
N  49.27300 44.78800 42.94300
C  49.13900 43.52700 42.38200
C  50.40600 42.85300 42.21500
C  51.35600 43.76700 42.79100
C  50.62000 45.00700 43.25900
C  50.72700 41.57600 41.42400
C  52.87500 43.56300 42.80400
O  53.36300 42.58000 42.26400
C  53.80400 44.46200 43.55700
N  49.08400 47.66000 43.87700
C  50.37100 47.37600 44.25400
C  50.98500 48.56400 45.06400
C  49.99900 49.74200 44.63800
C  48.81800 48.91700 44.24600
C  50.88500 48.22200 46.56800
C  50.51400 50.63600 43.54100
C  49.73400 51.95500 43.37800
N  46.19700 47.49300 43.82100
C  46.27500 48.78700 44.08200
C  44.94200 49.36300 44.02900
C  44.11400 48.36200 43.56500
C  44.94700 47.23500 43.32900
C  44.53100 50.68400 44.53700
C  42.78500 47.96000 43.35200
O  41.70900 48.60200 43.41300
C  42.80800 46.42300 42.80400
C  41.97300 45.55300 43.64900
O  41.05400 44.79700 43.25500
O  42.47200 45.44900 44.91300
C  41.92000 44.35900 45.78800
H  47.98100 42.07300 41.37700
H  52.02400 46.00700 44.49700
H  47.47700 50.53900 44.48800
H  43.46900 43.48700 42.22400
H  45.70400 42.54500 40.36600
H  45.87000 40.87800 41.53900
H  44.15100 40.99100 41.77300
H  45.41700 41.40100 43.11600
H  44.51800 44.09300 39.45800
H  43.59100 45.42300 40.16500
H  41.69400 44.61100 39.54200
H  42.01600 43.19900 40.54100
H  50.73000 41.55200 40.33400
H  49.98600 40.89100 41.83600
H  51.70600 41.20000 41.71900
H  53.62100 44.50800 44.63100
H  53.81600 45.46700 43.13600
H  54.82600 44.10400 43.43700
H  52.00300 48.77000 44.73400
H  49.64400 50.38000 45.44800
H  51.86100 47.93600 46.95900
H  50.35600 47.28000 46.71800
H  50.34800 48.95400 47.17200
H  50.54300 50.22200 42.53300
H  51.49900 50.89500 43.93000
H  50.39800 52.79500 43.58400
H  48.87400 52.08300 44.03700
H  49.25300 51.92500 42.40000
H  44.61100 51.47800 43.79500
H  45.11000 50.85500 45.44500
H  43.46700 50.66000 44.77300
H  42.40000 46.46800 41.79400
H  41.58500 43.50900 45.19400
H  41.18900 44.76300 46.48800
H  42.78700 43.93400 46.29300

