158

Mg -1.72100 17.69900 26.82400
C  -2.34400 15.63800 29.48200
C  -2.46900 20.41200 28.88000
C  -1.26300 19.80700 24.21800
C  -1.45800 14.97900 24.67000
N  -2.68200 17.95400 28.89000
C  -2.52200 16.96000 29.83800
C  -3.04000 17.49100 31.22600
C  -3.09700 19.01900 30.95300
C  -2.64300 19.15300 29.43900
C  -4.46800 19.73800 31.45400
C  -2.07700 16.96500 32.40500
C  -1.81300 17.72200 33.70800
H  -1.95900 16.88200 34.99000
N  -1.78300 19.83900 26.56800
C  -2.03600 20.74100 27.55800
C  -1.96400 22.08600 27.07100
C  -1.43500 21.93900 25.70400
C  -1.54300 20.49100 25.40800
C  -2.31900 23.37800 27.81600
C  -1.00100 22.90200 24.73700
O  -0.70600 22.67400 23.54400
C  -0.80800 24.35000 25.33400
N  -1.54200 17.43000 24.68800
C  -1.27900 18.48600 23.87300
C  -1.02800 17.95300 22.43500
C  -1.00700 16.40000 22.61400
C  -1.25100 16.24400 24.05500
C  -2.21500 18.44400 21.48400
C  0.32900 15.72900 22.13400
C  1.50200 15.74300 23.20600
N  -1.91100 15.72600 26.94200
C  -1.75000 14.73000 25.98000
C  -1.83500 13.48000 26.66300
C  -1.97200 13.75900 28.04300
C  -2.07600 15.17900 28.15500
C  -1.69100 12.20000 25.92600
C  -2.09400 13.16100 29.34000
O  -2.08400 11.99700 29.73200
C  -2.32200 14.31000 30.36500
C  -1.16500 14.23000 31.29900
O  -0.03000 14.65600 31.19800
O  -1.61400 13.35700 32.24000
C  -0.72500 13.20200 33.35900
H  -2.51800 21.24700 29.58200
H  -1.10200 20.49200 23.38200
H  -1.33700 14.12500 24.00000
H  -3.97600 16.97000 31.42600
H  -2.25600 19.51500 31.43600
H  -5.07700 18.90600 31.80700
H  -4.92200 20.12200 30.54000
H  -4.33700 20.36600 32.33500
H  -1.14900 16.69100 31.90300
H  -2.58100 16.04200 32.68800
H  -2.54500 18.51000 33.88200
H  -0.78600 18.07700 33.79300
H  -2.75000 23.29800 28.81400
H  -3.06400 23.83300 27.16400
H  -1.43600 23.99300 27.98900
H  -1.81900 24.75400 25.38700
H  -0.37800 24.84200 24.46200
H  -0.15700 24.42500 26.20500
H  -0.02800 18.31500 22.19600
H  -1.93100 15.98600 22.20800
H  -2.87800 19.14600 21.99000
H  -2.91900 17.64000 21.26800
H  -1.85100 18.88000 20.55300
H  0.64800 16.14200 21.17700
H  0.10600 14.68000 21.94100
H  1.22800 16.03700 24.21900
H  2.24800 16.40300 22.76400
H  1.85600 14.71500 23.27600
H  -2.53800 11.53900 26.10800
H  -0.76900 11.65700 26.13700
H  -1.83500 12.35000 24.85700
H  -3.31400 14.20200 30.80500
H  0.27300 12.91500 33.02900
H  -1.10000 12.34700 33.92100
H  -0.65700 14.13500 33.91900
Mg -11.19600 16.32300 42.95600
C  -8.08400 14.70700 42.76300
C  -9.54400 19.24900 41.89300
C  -14.14800 17.64800 41.96400
C  -12.62700 13.36000 43.77500
N  -9.12100 16.85200 42.14100
C  -8.03000 16.04500 42.27700
C  -6.72500 16.69900 41.76800
C  -7.20000 18.28200 42.01500
C  -8.70900 18.11900 41.91400
C  -6.78900 18.91700 43.32400
C  -6.40900 16.37400 40.32500
C  -5.20500 15.38100 40.02000
H  -5.52700 14.40400 38.88400
N  -11.75800 18.16300 42.16300
C  -10.92100 19.26000 41.85700
C  -11.75400 20.31000 41.33400
C  -13.12100 19.91700 41.38500
C  -13.05200 18.47000 41.79800
C  -11.05900 21.52100 40.77600
C  -14.27200 20.70600 40.88800
O  -14.12900 21.82300 40.43000
C  -15.69400 20.26500 40.80600
N  -13.10700 15.63200 42.78900
C  -14.19600 16.30300 42.37700
C  -15.49300 15.37300 42.39200
C  -14.97700 14.13900 43.17600
C  -13.46300 14.39700 43.26300
C  -16.71600 16.03300 43.05800
C  -15.48500 12.81700 42.55300
C  -15.83500 11.65400 43.54500
N  -10.53800 14.43700 43.43500
C  -11.20800 13.30600 43.81700
C  -10.27600 12.24400 44.06100
C  -9.00000 12.77300 43.68200
C  -9.23700 14.07300 43.26300
C  -10.71000 10.86000 44.44600
C  -7.62000 12.51700 43.63000
O  -6.98100 11.50300 43.99000
C  -6.94900 13.76200 43.01600
C  -6.05000 14.20800 44.07500
O  -6.43100 14.57500 45.20700
O  -4.83100 14.19900 43.60600
C  -3.83000 14.85900 44.47100
H  -9.04500 20.19500 41.67500
H  -15.10100 18.03100 41.59200
H  -13.03400 12.42200 44.15900
H  -5.88000 16.56100 42.44300
H  -6.86400 18.89500 41.17800
H  -6.23800 19.84100 43.15000
H  -6.20100 18.27600 43.98000
H  -7.62000 19.09600 44.00700
H  -6.08800 17.28100 39.81300
H  -7.27200 15.92100 39.83800
H  -4.93300 14.82300 40.91600
H  -4.29300 15.94900 39.84000
H  -11.81000 22.31100 40.80000
H  -10.61500 21.39300 39.78900
H  -10.40000 21.96800 41.52100
H  -15.78000 19.46800 40.06700
H  -16.36900 21.02600 40.41300
H  -15.96700 19.96400 41.81700
H  -15.69900 15.17400 41.34100
H  -15.39400 14.24700 44.17800
H  -16.29400 16.84800 43.64500
H  -17.34600 15.32400 43.59600
H  -17.37100 16.46300 42.30000
H  -14.79700 12.33200 41.86000
H  -16.40800 13.06800 42.03100
H  -16.67500 11.01600 43.27000
H  -15.73700 11.99700 44.57500
H  -15.04800 10.92100 43.37000
H  -10.75100 10.25500 43.54000
H  -11.70300 10.81900 44.89600
H  -9.96200 10.43400 45.11500
H  -6.39300 13.43800 42.13600
H  -3.14300 15.40500 43.82400
H  -3.33600 14.16400 45.14900
H  -4.29200 15.60100 45.12300

