158

Mg -1.54200 17.22000 26.59000
C  -1.55800 14.85200 29.26600
C  -2.46500 19.51900 29.01600
C  -2.33200 19.30100 24.13800
C  -1.51600 14.65700 24.36400
N  -1.92600 17.20400 28.95800
C  -1.81900 16.11200 29.78800
C  -2.30300 16.47200 31.24400
C  -2.78600 17.95000 31.06400
C  -2.38800 18.27000 29.60500
C  -4.39400 18.06000 31.25800
C  -1.11900 16.23400 32.19000
C  -0.61300 17.40800 33.11400
H  0.29700 17.00500 34.26100
N  -2.11600 19.14100 26.62500
C  -2.35100 19.98300 27.71200
C  -2.65300 21.28300 27.24800
C  -2.56000 21.26900 25.87700
C  -2.35400 19.85500 25.49400
C  -2.82200 22.48100 28.29600
C  -2.72600 22.41500 24.84100
O  -2.57700 22.28100 23.63300
C  -3.05800 23.81200 25.34100
N  -1.71600 17.04400 24.58600
C  -2.14200 18.01500 23.75400
C  -2.45100 17.47800 22.33400
C  -1.59300 16.14500 22.41900
C  -1.49600 15.96000 23.88400
C  -3.92700 17.28600 21.91900
C  -0.12400 16.26000 21.77800
C  0.05700 15.56600 20.44100
N  -1.44400 15.23200 26.75700
C  -1.46500 14.31700 25.72500
C  -1.32800 12.99200 26.29100
C  -1.29800 13.18900 27.64200
C  -1.45200 14.50500 27.90000
C  -1.28200 11.64600 25.55500
C  -1.20800 12.44100 28.80100
O  -0.98100 11.24600 29.00000
C  -1.53300 13.41300 29.87500
C  -0.59000 13.29400 30.99700
O  0.61500 13.46700 30.96800
O  -1.25600 12.92800 32.15200
C  -0.45800 12.65200 33.34000
H  -2.76800 20.26700 29.75200
H  -2.61800 19.94700 23.30500
H  -1.36200 13.91600 23.57600
H  -3.17300 15.89000 31.54900
H  -2.16000 18.65300 31.61200
H  -4.87800 17.18200 31.68600
H  -4.78700 18.13900 30.24400
H  -4.77300 18.92100 31.80800
H  -0.22900 15.98800 31.61100
H  -1.40100 15.33000 32.73000
H  -1.47400 17.91900 33.54500
H  -0.18600 18.13100 32.41800
H  -2.40500 23.41800 27.92800
H  -2.39300 22.33900 29.28800
H  -3.89300 22.67000 28.37500
H  -3.96700 23.78000 25.94100
H  -3.34600 24.38500 24.45900
H  -2.17700 24.26700 25.79300
H  -2.12300 18.12200 21.51800
H  -2.06700 15.35000 21.84300
H  -4.42200 17.49600 22.86700
H  -4.14600 16.26100 21.62100
H  -4.26800 18.12100 21.30600
H  0.62400 15.82400 22.44000
H  0.11100 17.29500 21.53200
H  1.03400 15.79900 20.01800
H  -0.72500 15.80300 19.72000
H  0.05700 14.47700 20.49700
H  -0.54100 11.40000 24.79500
H  -2.25200 11.49300 25.08100
H  -1.29000 10.76100 26.19100
H  -2.48700 13.05300 30.25800
H  -0.34300 11.58200 33.51800
H  -0.91800 13.04300 34.24800
H  0.50100 13.16100 33.43800
Mg 36.02000 0.69900 30.82400
C  33.49700 1.97800 32.80500
C  38.19100 0.81700 33.61900
C  38.58400 -0.17600 28.74800
C  33.84500 0.91800 28.08200
N  35.83900 1.49600 32.86300
C  34.71400 1.90100 33.49600
C  34.94600 1.96500 35.06400
C  36.52700 1.81400 35.16100
C  36.89400 1.32800 33.80400
C  37.16200 3.13400 35.45000
C  34.21800 0.79700 35.79800
C  33.76400 1.10400 37.20200
H  34.31400 2.33800 37.99700
N  38.09600 0.35500 31.13000
C  38.77000 0.33100 32.37200
C  40.10200 -0.16700 32.09000
C  40.26200 -0.49800 30.75100
C  38.96400 -0.12500 30.13700
C  41.11900 -0.26800 33.18800
C  41.44800 -1.07800 30.06400
O  41.35000 -1.28300 28.86900
C  42.66800 -1.58800 30.84800
N  36.19500 0.48000 28.77600
C  37.35800 0.12400 28.14400
C  37.06000 0.00400 26.59200
C  35.55400 0.18600 26.47600
C  35.12700 0.55600 27.86100
C  37.78400 1.03100 25.62000
C  34.85100 -1.17100 26.02400
C  33.82800 -1.11700 24.93000
N  34.04600 1.22200 30.50400
C  33.27600 1.24300 29.31500
C  31.93300 1.68200 29.59800
C  31.93300 1.96400 31.01200
C  33.28300 1.76000 31.47900
C  30.92600 1.85900 28.56800
C  31.15400 2.32200 32.20700
O  29.97200 2.50100 32.44400
C  32.17600 2.38500 33.45800
C  31.97400 3.67600 34.09800
O  32.46000 4.72400 33.66300
O  31.38700 3.49800 35.33400
C  31.16600 4.85400 35.90600
H  38.81500 0.82100 34.51600
H  39.37400 -0.35400 28.01600
H  33.16500 0.92000 27.22700
H  34.56800 2.92000 35.43000
H  36.88300 1.12700 35.92800
H  37.86500 3.00300 36.27200
H  36.42800 3.88300 35.75000
H  37.64000 3.48300 34.53500
H  34.94500 -0.00400 35.93000
H  33.34800 0.42100 35.25900
H  33.95600 0.20300 37.78400
H  32.68000 1.20600 37.25300
H  40.96700 0.46700 33.97900
H  42.03000 0.12400 32.73600
H  41.17600 -1.32900 33.43000
H  43.36500 -0.81300 31.16700
H  43.21900 -2.20200 30.13600
H  42.23900 -2.25900 31.59300
H  37.41300 -1.01200 26.41500
H  35.27800 0.93900 25.73800
H  37.14000 1.88800 25.42200
H  38.22600 0.55700 24.74400
H  38.65900 1.42700 26.13500
H  34.31200 -1.67700 26.82400
H  35.61900 -1.80600 25.58200
H  34.01800 -1.80200 24.10400
H  33.77700 -0.11300 24.51000
H  32.88300 -1.43200 25.37300
H  30.77600 0.85400 28.17300
H  31.33100 2.59200 27.87000
H  30.08500 2.31100 29.09400
H  31.75600 1.61800 34.10900
H  31.96100 5.11900 36.60200
H  30.29400 4.91500 36.55800
H  31.02300 5.68700 35.21800

