158

Mg 47.66100 34.42400 27.00600
C  46.05800 33.33800 30.00400
C  48.54900 37.19900 28.57500
C  49.03800 35.22800 24.12700
C  46.43800 31.43100 25.50600
N  47.34800 35.07300 29.09600
C  46.75100 34.55500 30.17200
C  46.96800 35.45500 31.44200
C  47.35500 36.82000 30.74300
C  47.81600 36.34100 29.39300
C  46.19000 37.88300 30.51800
C  48.12900 34.86600 32.37200
C  47.72700 34.56600 33.88900
H  48.52800 35.40500 34.90700
N  48.58200 36.08200 26.40000
C  48.92200 37.15600 27.19900
C  49.58800 38.15900 26.32600
C  49.65900 37.61400 25.05500
C  49.05500 36.26200 25.12900
C  50.00600 39.46500 26.82800
C  50.12600 38.24300 23.85900
O  50.07000 37.73000 22.75400
C  50.63000 39.63200 23.90100
N  47.67100 33.41300 25.02000
C  48.43400 33.99200 24.04200
C  48.50800 33.01700 22.85500
C  47.64800 31.83200 23.24200
C  47.26700 32.18400 24.68200
C  48.09800 33.72000 21.49600
C  48.36300 30.48900 22.97500
C  49.46300 29.99800 24.02700
N  46.48700 32.75900 27.53700
C  46.15800 31.63700 26.85400
C  45.34200 30.77000 27.75500
C  45.24400 31.46700 28.91700
C  46.07700 32.58600 28.78100
C  44.73000 29.46000 27.50500
C  44.65200 31.34200 30.25300
O  43.98600 30.44400 30.74300
C  45.00400 32.68200 30.88900
C  45.18200 32.55800 32.33600
O  46.19400 32.20800 32.85300
O  43.91600 32.78500 32.92000
C  43.64300 32.34500 34.25000
H  48.89400 38.11300 29.06300
H  49.69500 35.40000 23.27200
H  46.14900 30.49300 25.02700
H  45.98900 35.44400 31.91900
H  48.14800 37.33600 31.28500
H  45.89700 38.02300 29.47700
H  46.60100 38.83900 30.84100
H  45.29000 37.81100 31.12900
H  48.93900 35.59000 32.46100
H  48.53400 33.96200 31.91900
H  47.98000 33.56300 34.23100
H  46.65400 34.71500 34.00700
H  50.95900 39.81100 26.42700
H  50.08400 39.30800 27.90400
H  49.20600 40.19000 26.67500
H  51.65500 39.61500 24.27100
H  49.87000 40.22400 24.41100
H  50.60200 40.01500 22.88100
H  49.54600 32.70000 22.75400
H  46.74400 31.82400 22.63300
H  47.31100 33.09700 21.07200
H  48.96600 33.67500 20.83800
H  47.81100 34.74000 21.75100
H  48.87400 30.55000 22.01400
H  47.62800 29.68400 22.98000
H  49.72000 30.72200 24.79900
H  50.32200 29.53100 23.54300
H  48.99300 29.20600 24.61000
H  43.68100 29.45000 27.80300
H  45.32000 28.61500 27.86100
H  44.69300 29.32500 26.42400
H  44.12000 33.31600 30.83200
H  43.02200 31.45100 34.29500
H  43.18400 33.15000 34.82400
H  44.58800 32.04000 34.70100
Mg 31.22800 58.09200 40.43400
C  28.51200 56.12100 39.40300
C  33.28200 55.57600 39.34000
C  33.87300 60.10400 40.85400
C  28.99100 60.80400 40.60000
N  30.86700 56.08300 39.49100
C  29.70200 55.48300 39.12300
C  29.89800 54.25800 38.30500
C  31.40300 53.90200 38.59000
C  31.88800 55.26600 39.19900
C  31.57000 52.72300 39.55500
C  29.57700 54.58400 36.75900
C  28.45600 53.78900 35.99700
H  27.47000 54.58000 35.14500
N  33.31700 57.83400 40.32200
C  33.89300 56.77500 39.79800
C  35.35600 56.94100 39.86000
C  35.60000 58.23200 40.32000
C  34.26600 58.78300 40.62000
C  36.34600 55.88500 39.52200
C  36.97400 58.84800 40.58600
O  37.95300 58.24500 40.26500
C  37.11800 60.22600 41.06100
N  31.32200 60.12600 40.69400
C  32.57000 60.74500 40.93000
C  32.46500 62.26900 40.95800
C  30.89400 62.41400 41.07000
C  30.34900 61.05200 40.75900
C  33.18700 63.12900 42.00400
C  30.23400 63.45800 40.08300
C  29.22300 64.44300 40.82500
N  29.13500 58.42500 40.14300
C  28.35900 59.55900 40.28000
C  26.96800 59.28100 40.06500
C  26.96900 57.89800 39.76400
C  28.32200 57.43300 39.83500
C  25.77300 60.22800 40.14000
C  26.07900 56.76500 39.40100
O  24.91400 56.73000 39.22500
C  27.10300 55.55900 39.08300
C  26.65600 54.33100 39.78900
O  26.66100 54.20500 41.03800
O  26.27900 53.40200 38.91600
C  25.64200 52.24100 39.42500
H  33.79700 54.62100 39.21800
H  34.74700 60.73400 41.03300
H  28.23300 61.58500 40.69300
H  29.16600 53.52300 38.63800
H  31.95900 53.56400 37.71600
H  31.95400 52.95200 40.54900
H  32.21800 51.98200 39.08800
H  30.63800 52.15900 39.60100
H  30.55100 54.49800 36.27900
H  29.26100 55.62400 36.67400
H  27.99600 53.24300 36.82100
H  28.89100 53.00900 35.37200
H  37.02300 55.71800 40.35900
H  36.98900 56.11400 38.67200
H  35.85000 54.93100 39.34600
H  36.56900 60.30100 41.99900
H  36.77200 60.83700 40.22700
H  38.16600 60.50100 41.17800
H  32.75600 62.52300 39.93800
H  30.54900 62.70000 42.06400
H  33.51600 63.95400 41.37300
H  34.05200 62.54400 42.31600
H  32.64900 63.40000 42.91300
H  29.70500 63.14200 39.18400
H  30.96900 64.13000 39.64000
H  28.89200 64.05900 41.79000
H  28.29600 64.47300 40.25200
H  29.71900 65.38300 41.06800
H  25.00500 59.85700 39.46100
H  26.01500 61.24300 39.82400
H  25.39600 60.09700 41.15500
H  27.10900 55.42800 38.00100
H  24.69700 52.39000 39.94800
H  26.25300 51.70600 40.15200
H  25.44700 51.56000 38.59700

