158

Mg 44.07000 4.08400 48.21900
C  41.79300 6.85000 48.25800
C  41.20600 2.16400 47.97100
C  46.00500 1.49900 47.69400
C  46.69500 6.30400 47.67500
N  41.79700 4.52300 48.20300
C  41.10500 5.64000 48.17200
C  39.52900 5.50100 48.08600
C  39.44300 3.97000 48.32400
C  40.93100 3.51300 48.24000
C  38.81000 3.49000 49.68800
C  38.81600 6.04600 46.83500
C  39.39000 5.45600 45.47700
H  38.59000 5.78700 44.21200
N  43.64500 2.08900 47.76800
C  42.42200 1.47200 47.74300
C  42.69900 0.01800 47.55800
C  44.06400 -0.18200 47.46600
C  44.61400 1.14400 47.61500
C  41.49300 -0.95200 47.48200
C  44.79800 -1.50200 47.16800
O  44.21500 -2.56700 47.06900
C  46.31500 -1.56000 46.98500
N  46.11300 3.96000 47.55100
C  46.69400 2.73000 47.67300
C  48.23300 2.89200 47.88000
C  48.47200 4.45300 47.70700
C  47.03700 4.98100 47.70200
C  48.85200 2.33200 49.16400
C  49.20600 4.77900 46.40000
C  50.64400 5.10600 46.49400
N  44.21200 6.13800 48.16700
C  45.37100 6.87800 47.92900
C  45.07100 8.33400 48.10900
C  43.62300 8.33800 48.21500
C  43.20600 7.00700 48.22100
C  45.99700 9.51400 47.96700
C  42.43300 9.14300 48.31100
O  42.31600 10.31600 48.42300
C  41.18200 8.18200 48.20200
C  40.44400 8.33600 49.43100
O  40.66900 7.71800 50.44800
O  39.24600 8.90600 49.14000
C  38.23200 8.73800 50.22800
H  40.30900 1.54300 48.01400
H  46.81400 0.78200 47.85300
H  47.50800 7.03300 47.68200
H  39.02800 6.01800 48.90500
H  38.84900 3.54400 47.51600
H  38.50200 4.42800 50.15100
H  39.49600 3.01500 50.38900
H  37.89400 2.92300 49.52400
H  38.59100 7.11200 46.85000
H  37.88000 5.48700 46.81600
H  39.26900 4.37300 45.50600
H  40.43200 5.75800 45.37700
H  40.69600 -0.47100 48.04900
H  41.71100 -1.95400 47.85300
H  41.23100 -1.06000 46.43000
H  46.81800 -1.65300 47.94800
H  46.64700 -0.68700 46.42400
H  46.68100 -2.40900 46.40700
H  48.63400 2.30900 47.05000
H  48.96900 4.98000 48.52200
H  47.97500 1.93300 49.67300
H  49.30900 3.11000 49.77600
H  49.61000 1.57200 48.97700
H  48.64100 5.60100 45.95900
H  49.03900 3.96600 45.69300
H  50.85900 5.99500 45.90100
H  51.36000 4.36000 46.15100
H  50.86200 5.20100 47.55800
H  46.36500 9.67400 48.98000
H  45.53000 10.48300 47.79400
H  46.77900 9.21000 47.27000
H  40.54800 8.30900 47.32400
H  37.30700 9.28300 50.03900
H  38.57200 9.20000 51.15500
H  38.00000 7.70200 50.47500
Mg 40.28500 9.77600 29.86500
C  42.21500 11.02100 32.35700
C  37.96200 8.50300 32.13200
C  38.69200 8.07300 27.48100
C  43.03100 10.33600 27.62500
N  40.05300 9.82200 31.96000
C  40.96100 10.50200 32.80900
C  40.37800 10.52400 34.20900
C  39.14300 9.54900 34.11400
C  38.98800 9.29100 32.63600
C  39.33400 8.23600 34.92100
C  40.02700 11.96400 34.80800
C  40.90900 12.37800 35.99100
H  40.29600 12.71100 37.33600
N  38.53900 8.56400 29.80200
C  37.74600 8.09700 30.80400
C  36.69800 7.26600 30.30800
C  36.85400 7.27200 28.87400
C  38.11400 7.88600 28.70600
C  35.82000 6.48700 31.20000
C  35.88100 6.67100 27.94600
O  36.12800 6.56700 26.78700
C  34.51800 6.39700 28.40000
N  40.70800 9.40300 27.82700
C  39.83400 8.71500 27.01600
C  40.33300 8.63000 25.50200
C  41.79100 9.30700 25.61400
C  41.86800 9.74200 27.12300
C  40.47700 7.15700 25.01200
C  41.93900 10.46400 24.57300
C  42.14700 11.86200 25.09100
N  42.18700 10.57000 29.90000
C  43.18700 10.71300 28.95600
C  44.33100 11.41000 29.60300
C  43.90600 11.57800 30.91000
C  42.70200 11.01000 31.05800
C  45.68500 11.68000 29.15000
C  44.36900 12.07500 32.16200
O  45.44700 12.55000 32.51500
C  43.20700 11.88300 33.07700
C  43.80100 11.25600 34.37500
O  44.19900 10.09000 34.44800
O  43.99700 12.11900 35.40300
C  44.41900 11.52100 36.69200
H  37.29200 8.22100 32.94700
H  38.26300 7.49900 26.65700
H  43.92700 10.46300 27.01300
H  41.18000 10.09400 34.80900
H  38.22300 10.01300 34.47000
H  40.19800 8.45100 35.54900
H  39.53900 7.46100 34.18200
H  38.49500 8.02000 35.58200
H  38.97100 12.05500 35.06200
H  40.17500 12.74000 34.05800
H  41.45800 13.25900 35.65900
H  41.74600 11.69700 36.14500
H  35.72200 5.43600 30.92800
H  34.81800 6.91300 31.15000
H  36.17800 6.47200 32.22900
H  33.95500 6.20200 27.48800
H  34.01200 7.21400 28.91400
H  34.54700 5.44500 28.92900
H  39.60300 9.15000 24.88100
H  42.59600 8.60200 25.40700
H  40.31700 6.46800 25.84200
H  41.28100 6.87000 24.33500
H  39.59300 7.08200 24.37800
H  41.08000 10.48200 23.90300
H  42.71800 10.14900 23.87900
H  41.89400 12.64900 24.38000
H  43.21400 12.05200 25.20900
H  41.48800 12.04500 25.94000
H  46.48300 11.63500 29.89100
H  45.66000 12.54700 28.48900
H  45.83900 10.84000 28.47300
H  42.87000 12.86600 33.40600
H  43.82700 10.62400 36.87100
H  44.20300 12.21800 37.50200
H  45.47600 11.30900 36.52600

