158

Mg 7.34700 2.44500 28.31100
C  8.88100 0.95100 31.01200
C  5.32600 4.26800 30.40000
C  5.62800 3.66200 25.53500
C  9.17300 0.33800 26.11300
N  7.18500 2.59500 30.42200
C  7.89000 1.90700 31.35500
C  7.62600 2.51000 32.78200
C  6.28900 3.35200 32.53300
C  6.23900 3.40700 31.01000
C  4.92900 2.74800 33.16100
C  8.91900 3.20500 33.34200
C  8.82600 4.33200 34.42600
H  9.52100 4.15600 35.82400
N  5.68500 3.76300 27.99600
C  5.13700 4.51900 29.00300
C  4.26600 5.51300 28.38600
C  4.30500 5.37900 26.96000
C  5.21900 4.22600 26.77600
C  3.44200 6.48700 29.20400
C  3.64200 6.13700 25.89000
O  3.74100 5.94100 24.73500
C  2.79000 7.34000 26.25500
N  7.41000 2.03500 26.15800
C  6.65100 2.71700 25.29600
C  6.96400 2.28700 23.86800
C  8.25500 1.38300 24.00800
C  8.26900 1.22900 25.52700
C  5.70100 1.73500 23.29500
C  9.50700 2.11100 23.46900
C  10.63300 1.28100 22.78100
N  8.73600 0.85800 28.46100
C  9.38200 0.11900 27.51800
C  10.25600 -0.85000 28.14700
C  10.19800 -0.48200 29.53800
C  9.17400 0.53200 29.68600
C  11.20300 -1.88500 27.44000
C  10.70100 -0.65200 30.93500
O  11.60500 -1.36700 31.35700
C  9.86800 0.25900 31.90400
C  9.25900 -0.52000 33.05000
O  8.61900 -1.55200 32.99200
O  9.78900 0.09000 34.19100
C  9.54800 -0.70600 35.42700
H  4.85600 4.94500 31.11600
H  5.32800 4.16400 24.61300
H  9.68700 -0.29400 25.38600
H  7.44200 1.58900 33.33300
H  6.32600 4.36200 32.94400
H  5.00400 1.77800 33.65400
H  4.14700 2.75800 32.40200
H  4.53400 3.46600 33.87900
H  9.44300 3.38700 32.40300
H  9.56700 2.43600 33.76200
H  7.78600 4.56700 34.65400
H  9.07300 5.22400 33.84900
H  2.39900 6.18500 29.10300
H  3.61700 7.50700 28.86100
H  3.63800 6.36400 30.26900
H  2.07200 7.06700 27.02900
H  2.33600 7.75900 25.35700
H  3.33000 8.18200 26.68800
H  7.06000 3.19600 23.27500
H  8.04500 0.36700 23.67200
H  4.82600 1.87500 23.93000
H  5.80700 0.68000 23.04500
H  5.43700 2.30200 22.40300
H  10.07400 2.65700 24.22400
H  9.18800 2.79400 22.68200
H  10.89900 1.82100 21.87300
H  10.27100 0.29300 22.49700
H  11.62600 1.22300 23.22800
H  12.21300 -1.51800 27.25800
H  10.69600 -2.42500 26.64000
H  11.32900 -2.60700 28.24600
H  10.52400 1.03600 32.29800
H  10.49400 -1.05700 35.84000
H  8.87600 -1.56000 35.34500
H  9.06800 0.03500 36.06600
Mg 47.63400 16.84700 29.05000
C  45.56500 16.24700 31.84300
C  50.03400 18.22200 30.95300
C  49.29000 17.83100 26.06600
C  45.02300 15.55300 26.94900
N  47.71000 17.23600 31.09800
C  46.79700 16.92200 32.09900
C  47.39200 17.39300 33.51300
C  48.54100 18.34800 33.04300
C  48.84500 17.82400 31.63500
C  48.18100 19.84600 33.05300
C  47.81600 16.26700 34.37700
C  48.35700 16.68500 35.82000
H  47.89900 18.02900 36.40000
N  49.44200 17.75100 28.61900
C  50.34800 18.07200 29.57600
C  51.62300 18.39900 28.98200
C  51.30700 18.55600 27.60100
C  49.95700 18.06400 27.35300
C  52.87800 18.51700 29.77900
C  52.17800 19.05300 26.45900
O  51.85700 19.13900 25.30200
C  53.58300 19.36900 26.77800
N  47.24500 16.72700 26.79700
C  48.07200 17.16000 25.83700
C  47.51600 16.94600 24.42600
C  46.18300 16.11500 24.73100
C  46.14000 16.12900 26.24800
C  47.41000 18.37700 23.71400
C  46.25200 14.63400 24.03900
C  45.02100 14.31500 23.13400
N  45.67600 16.13600 29.30200
C  44.78100 15.54100 28.35100
C  43.56000 15.09300 29.07400
C  43.89600 15.29500 30.44900
C  45.14100 15.92800 30.52400
C  42.37700 14.47300 28.46700
C  43.42000 15.06600 31.79600
O  42.46700 14.41600 32.17600
C  44.51300 15.68200 32.82100
C  43.81000 16.73500 33.61600
O  43.38300 17.80700 33.14200
O  43.65400 16.30100 34.84600
C  43.04000 17.26200 35.77200
H  50.84800 18.63100 31.55500
H  49.73200 18.17700 25.13000
H  44.21000 15.08100 26.39300
H  46.62400 17.93100 34.06900
H  49.46900 18.25700 33.60700
H  47.09300 19.87300 33.11900
H  48.44600 20.28900 32.09300
H  48.70800 20.34600 33.86500
H  48.60700 15.68000 33.91000
H  46.91800 15.65700 34.47700
H  49.44300 16.59700 35.78900
H  47.99000 15.89300 36.47200
H  53.53800 17.76600 29.34500
H  52.86000 18.17100 30.81200
H  53.36700 19.49200 29.78600
H  53.97000 18.39200 27.06600
H  53.58200 20.08100 27.60400
H  54.11300 19.80900 25.93400
H  48.21200 16.30200 23.88600
H  45.30400 16.65600 24.38100
H  47.91200 18.28900 22.75000
H  47.83400 19.18300 24.31400
H  46.33600 18.47800 23.56200
H  46.40200 13.85900 24.79100
H  47.18800 14.60600 23.48200
H  44.26700 15.10200 23.13800
H  44.60400 13.37100 23.48300
H  45.20000 14.09000 22.08300
H  42.71100 13.75600 27.71600
H  41.87500 15.31900 28.00000
H  41.81100 13.90400 29.20500
H  44.73300 14.81900 33.45000
H  43.70100 18.12100 35.88900
H  42.81800 16.83700 36.75100
H  42.15800 17.69900 35.30500

