158

Mg 47.43500 25.45900 28.07400
C  48.53300 27.81200 30.53900
C  46.07300 23.63800 30.48500
C  47.07300 22.96300 25.77600
C  49.35100 27.29700 25.71500
N  47.48400 25.70800 30.31100
C  47.73000 26.79800 31.06400
C  47.16600 26.58700 32.52200
C  46.40800 25.27100 32.41200
C  46.65000 24.83400 30.99100
C  46.86000 24.15800 33.46500
C  46.36700 27.79900 33.05300
C  47.00500 28.38900 34.41900
H  45.88200 28.72000 35.43800
N  46.56900 23.62700 28.06900
C  46.06600 23.05800 29.20300
C  45.48000 21.77900 28.84000
C  45.62900 21.64200 27.45200
C  46.44400 22.77200 27.02500
C  44.84800 20.83000 29.81900
C  45.02700 20.61100 26.42700
O  45.32100 20.57300 25.23700
C  44.02800 19.72200 27.00700
N  47.93000 25.31200 25.95300
C  47.74600 24.11700 25.32300
C  48.28500 24.21400 23.88100
C  48.88600 25.68800 23.79700
C  48.68300 26.16300 25.25300
C  49.46300 23.17900 23.55600
C  48.04800 26.56700 22.73800
C  48.70300 26.98800 21.37200
N  48.58100 27.18200 28.03600
C  49.29600 27.79200 27.02800
C  49.91000 29.02900 27.51600
C  49.53800 29.10900 28.83700
C  48.84400 27.90300 29.16900
C  50.80800 29.94800 26.78700
C  49.73600 29.83800 30.04300
O  50.46800 30.81600 30.15000
C  49.04400 29.09500 31.17200
C  49.96600 28.85600 32.33800
O  50.76200 27.98900 32.30000
O  49.87800 29.84400 33.36500
C  50.67600 29.80800 34.62900
H  45.42100 23.10500 31.18000
H  47.03700 22.21700 24.97900
H  50.03600 27.90700 25.12200
H  48.06200 26.44500 33.12700
H  45.33800 25.34400 32.60900
H  47.17300 24.60800 34.40800
H  47.65300 23.50300 33.10400
H  45.97200 23.57500 33.70700
H  45.37100 27.42400 33.28700
H  46.36300 28.60300 32.31700
H  47.46000 29.35100 34.18500
H  47.68900 27.74000 34.96600
H  45.30100 20.94900 30.80300
H  45.07200 19.80900 29.51000
H  43.76200 20.91300 29.77600
H  44.54900 18.96500 27.59300
H  43.54900 19.15000 26.21300
H  43.29100 20.26500 27.59900
H  47.41900 24.01100 23.25200
H  49.94600 25.80100 23.57000
H  50.31100 23.59700 23.01400
H  49.05500 22.37400 22.94500
H  49.82600 22.63300 24.42600
H  47.73300 27.54800 23.09500
H  47.14400 25.99900 22.52200
H  49.77500 26.78900 21.38300
H  48.65000 28.03500 21.07400
H  48.29000 26.35700 20.58500
H  51.74500 29.40300 26.67400
H  50.95200 30.90400 27.29100
H  50.28500 30.03800 25.83500
H  48.22500 29.65600 31.62300
H  51.69800 29.62600 34.29500
H  50.30600 28.95400 35.19600
H  50.58200 30.76800 35.13500
Mg 27.66800 58.65100 42.21700
C  25.74500 56.15900 40.54200
C  30.42200 57.42300 40.65000
C  29.23900 61.17200 43.55000
C  24.48400 60.07200 43.22600
N  27.97100 57.05500 40.64200
C  27.10400 56.09500 40.18300
C  27.87300 54.94000 39.45000
C  29.33600 55.28400 39.76300
C  29.24900 56.70000 40.44800
C  30.21500 54.17100 40.43900
C  27.54300 54.85200 37.90800
C  27.14600 53.55800 37.17400
H  26.82600 53.55800 35.65100
N  29.63600 59.26900 42.12000
C  30.62900 58.63700 41.41000
C  31.83700 59.31600 41.64200
C  31.60900 60.41000 42.57600
C  30.15700 60.39800 42.80100
C  33.21100 58.89300 41.04500
C  32.60600 61.35400 43.15200
O  33.81900 61.18300 43.05600
C  32.14800 62.61400 43.86800
N  26.94100 60.33600 43.29500
C  27.87300 61.27000 43.58900
C  27.09800 62.50300 44.24700
C  25.58200 62.15900 44.19600
C  25.64700 60.77200 43.50200
C  27.49900 62.90600 45.70300
C  24.63000 63.18500 43.54500
C  23.96100 64.12100 44.51600
N  25.51000 58.21700 42.03600
C  24.38200 58.84900 42.53500
C  23.18700 58.11600 42.15800
C  23.69500 57.11700 41.34800
C  25.09500 57.21900 41.31600
C  21.80300 58.24200 42.66900
C  23.30400 55.90500 40.66000
O  22.17000 55.41300 40.48200
C  24.60200 55.20200 40.17700
C  24.75700 53.87800 40.86900
O  24.98900 53.66300 42.04300
O  24.54800 52.76200 40.00300
C  24.35700 51.43900 40.49400
H  31.37200 57.00600 40.31000
H  29.75500 61.96700 44.09100
H  23.49700 60.49100 43.43100
H  27.54700 54.08600 40.04400
H  29.82400 55.47400 38.80700
H  31.26800 54.30900 40.19400
H  29.89500 53.16300 40.17300
H  30.14900 54.18600 41.52700
H  28.32700 55.34400 37.33200
H  26.62100 55.41500 37.76300
H  26.33300 53.09600 37.73400
H  27.85300 52.73000 37.22600
H  33.78100 58.15400 41.60700
H  33.86000 59.75300 40.88200
H  32.91200 58.49600 40.07500
H  31.49500 63.16500 43.19100
H  32.89200 63.35700 44.15400
H  31.60700 62.35400 44.77800
H  27.35600 63.34200 43.60100
H  25.24900 62.01600 45.22400
H  28.06400 63.83700 45.74500
H  28.06700 62.16000 46.25900
H  26.66100 63.02500 46.38900
H  23.92700 62.67200 42.88900
H  25.13600 63.81500 42.81300
H  24.05500 65.14600 44.16000
H  24.50100 64.03100 45.45900
H  22.97000 63.70100 44.69100
H  21.13300 58.75500 41.97900
H  21.71100 58.79600 43.60300
H  21.37500 57.25100 42.82600
H  24.66700 55.00800 39.10700
H  24.13200 50.73800 39.69000
H  23.49600 51.35700 41.15700
H  25.23100 50.96800 40.94400

