158

Mg 16.33300 -1.75500 28.65600
C  15.65400 0.15400 31.59000
C  18.58100 -3.53600 30.59400
C  17.46200 -3.43800 25.92600
C  14.57500 0.47300 26.81100
N  17.00700 -1.72400 30.87700
C  16.51000 -0.88400 31.89300
C  17.02300 -1.40200 33.23500
C  18.20000 -2.37700 32.82400
C  17.95600 -2.56000 31.32700
C  19.70500 -1.80700 33.04900
C  16.01400 -2.14100 34.17700
C  15.84100 -1.61200 35.60800
H  17.02800 -0.84200 36.24100
N  17.76700 -3.28300 28.30400
C  18.44500 -3.95900 29.28500
C  19.17100 -5.04300 28.67100
C  19.06600 -4.89000 27.28800
C  18.03500 -3.84500 27.10700
C  20.18000 -6.01900 29.40000
C  19.71000 -5.69300 26.09900
O  19.46500 -5.47600 24.92600
C  20.64400 -6.87300 26.42400
N  15.97300 -1.55800 26.62900
C  16.50800 -2.39700 25.70200
C  16.40100 -1.75600 24.33700
C  15.27000 -0.57000 24.52300
C  15.25300 -0.52700 26.08100
C  17.71500 -1.15100 23.93100
C  13.86500 -0.88800 23.82900
C  13.69700 -0.10900 22.51700
N  15.21700 -0.11200 29.05400
C  14.60500 0.72800 28.18500
C  13.81100 1.70500 28.89400
C  14.21500 1.56900 30.23500
C  15.05500 0.43000 30.29900
C  12.93400 2.79300 28.29700
C  14.04900 2.08200 31.59100
O  13.42600 3.07600 32.00100
C  14.96300 1.19100 32.56600
C  15.82400 2.19400 33.22800
O  16.62400 2.85100 32.57900
O  15.38000 2.43300 34.51700
C  15.86100 3.76800 35.04300
H  19.28700 -4.14700 31.16000
H  17.88800 -3.96100 25.06700
H  14.08100 1.19200 26.15300
H  17.43800 -0.55900 33.78800
H  18.04700 -3.34200 33.30800
H  20.35600 -2.05700 32.21100
H  20.16700 -2.25900 33.92700
H  19.66200 -0.74000 33.26300
H  16.37800 -3.15900 34.31800
H  15.04000 -2.14700 33.68900
H  15.70900 -2.45500 36.28700
H  15.04600 -0.86700 35.59000
H  20.13600 -7.08900 29.19800
H  20.16100 -5.78800 30.46500
H  21.20100 -5.74800 29.12800
H  21.55900 -6.62800 26.96200
H  20.91100 -7.30300 25.45900
H  20.00800 -7.50000 27.05000
H  16.06500 -2.51100 23.62500
H  15.74200 0.36800 24.22800
H  18.16800 -0.57200 24.73500
H  17.57700 -0.43600 23.12100
H  18.27000 -2.04500 23.64600
H  13.11900 -0.55800 24.55200
H  13.70500 -1.95800 23.69600
H  14.57600 0.34100 22.05600
H  13.13100 0.79000 22.75900
H  13.22400 -0.65600 21.70100
H  13.34400 3.11500 27.34000
H  12.83000 3.56900 29.05600
H  11.97300 2.33800 28.05500
H  14.40900 0.61800 33.31000
H  15.68500 3.71400 36.11700
H  15.38400 4.56400 34.47100
H  16.94900 3.81900 35.01900
Mg 46.84900 16.81800 28.09700
C  45.08900 16.59800 31.24600
C  49.24100 18.68600 29.74000
C  48.30600 17.02700 25.11700
C  44.10400 15.26700 26.67200
N  47.16300 17.52600 30.26800
C  46.29100 17.27700 31.36200
C  47.00000 17.74200 32.77700
C  48.12800 18.66700 32.13500
C  48.27500 18.23000 30.63900
C  47.75500 20.14500 32.24400
C  47.54100 16.47000 33.59900
C  47.66200 16.49800 35.08900
H  47.45100 17.80700 35.90800
N  48.55100 17.78200 27.52900
C  49.38100 18.55800 28.34600
C  50.46300 19.02800 27.53800
C  50.23000 18.51000 26.18100
C  48.96800 17.73600 26.21800
C  51.68100 19.83700 28.08900
C  51.07600 18.63800 24.90600
O  50.79500 18.05100 23.89700
C  52.17200 19.61300 24.89600
N  46.31500 16.19900 26.06300
C  47.11200 16.28300 25.02100
C  46.41300 15.73600 23.71500
C  45.14200 15.12800 24.27600
C  45.15500 15.56300 25.77500
C  46.10800 16.83700 22.68100
C  45.19400 13.58100 24.08800
C  44.71600 13.17600 22.66900
N  44.98300 16.08200 28.72000
C  44.03400 15.39600 27.99000
C  42.95200 15.01500 28.82200
C  43.33300 15.41200 30.14300
C  44.59300 16.08500 30.02000
C  41.70200 14.43000 28.36600
C  42.91800 15.46700 31.57600
O  41.92700 14.93600 32.08000
C  44.15100 16.13600 32.31700
C  43.74300 17.28500 33.23400
O  43.82600 18.48000 32.92800
O  43.13300 16.83500 34.35700
C  42.47800 17.72500 35.34800
H  50.06300 19.29500 30.12200
H  48.79700 16.98900 24.14200
H  43.29100 14.64300 26.29600
H  46.37700 18.34500 33.43700
H  49.07900 18.58100 32.66100
H  48.50500 20.81200 32.67000
H  46.91200 20.33900 32.90700
H  47.56600 20.63900 31.29200
H  48.50900 16.15300 33.21100
H  46.89900 15.59300 33.51700
H  48.65300 16.12800 35.35200
H  46.88500 15.89600 35.56200
H  52.62300 19.31900 27.90900
H  51.51200 20.05000 29.14500
H  51.54000 20.79100 27.58100
H  51.71100 20.58800 25.05100
H  52.47800 19.61500 23.85000
H  52.95100 19.41800 25.63300
H  47.11600 15.01100 23.30500
H  44.19500 15.49000 23.87500
H  46.84500 17.62700 22.82100
H  45.09800 17.24500 22.70800
H  46.36600 16.43500 21.70100
H  44.63800 13.09100 24.88700
H  46.22000 13.22100 24.16200
H  45.52400 12.75900 22.06700
H  44.27000 14.00100 22.11400
H  44.01400 12.35600 22.82300
H  41.65500 13.34100 28.37300
H  41.34400 14.70700 27.37500
H  40.87600 14.69100 29.02800
H  44.65600 15.43200 32.97800
H  41.70300 18.21200 34.75500
H  43.19400 18.39800 35.81800
H  41.99000 17.02300 36.02300

