158

Mg 1.51300 -1.09400 45.24900
C  5.07700 -0.02200 44.82300
C  0.73200 1.51000 43.24000
C  -1.38000 -2.56100 44.87400
C  2.91200 -4.03300 46.74800
N  2.83200 0.57500 44.13000
C  4.15900 0.79100 44.09000
C  4.50200 1.88200 43.16200
C  3.11100 2.57500 42.93700
C  2.12700 1.48300 43.39800
C  2.89000 3.96200 43.58700
C  5.16500 1.25700 41.89700
C  6.64100 1.64100 41.61100
H  6.87400 2.70700 40.49900
N  -0.13000 -0.51500 44.38300
C  -0.32700 0.63500 43.58600
C  -1.74700 0.67600 43.26100
C  -2.33700 -0.56000 43.63000
C  -1.28200 -1.29200 44.33000
C  -2.29600 1.88100 42.53800
C  -3.74800 -0.93200 43.42500
O  -4.46200 -0.10300 42.91200
C  -4.35400 -2.31000 43.78700
N  0.87400 -2.98300 45.75000
C  -0.41000 -3.32000 45.60800
C  -0.71700 -4.75300 46.06700
C  0.59200 -5.19300 46.70100
C  1.51400 -4.00400 46.43700
C  -2.04400 -4.94600 46.88400
C  1.21200 -6.60200 46.28200
C  1.78700 -7.45600 47.41900
N  3.51300 -1.74800 45.96100
C  3.89700 -3.02500 46.43000
C  5.35100 -3.04000 46.70000
C  5.81300 -1.85100 46.07300
C  4.68700 -1.17400 45.56800
C  6.17800 -4.12900 47.31600
C  7.05300 -1.08200 45.79600
O  8.17100 -1.27900 46.22600
C  6.61200 0.14900 44.97400
C  6.93100 1.39400 45.80000
O  6.68800 1.49800 47.01100
O  7.60100 2.35200 45.08800
C  7.99100 3.53100 45.88000
H  0.44600 2.20100 42.44500
H  -2.28400 -3.15900 44.74200
H  3.27900 -4.96900 47.17400
H  5.17600 2.54200 43.70800
H  2.94900 2.59800 41.85900
H  2.02100 3.90000 44.24100
H  2.68600 4.70800 42.81900
H  3.71300 4.26800 44.23300
H  4.60200 1.52900 41.00400
H  4.97000 0.18500 41.89200
H  6.97400 0.68600 41.20300
H  7.25000 1.75700 42.50700
H  -2.76000 1.56000 41.60600
H  -1.52300 2.60600 42.28100
H  -3.04100 2.28800 43.22100
H  -4.39100 -2.36100 44.87500
H  -3.68300 -3.01800 43.30100
H  -5.38500 -2.31200 43.43200
H  -0.95400 -5.31300 45.16300
H  0.45000 -5.11500 47.77900
H  -2.69700 -4.07400 46.86400
H  -1.75600 -5.26300 47.88700
H  -2.58500 -5.70600 46.32100
H  2.09600 -6.36800 45.68900
H  0.63200 -7.28800 45.66500
H  2.86000 -7.26600 47.39500
H  1.57600 -8.51900 47.30200
H  1.42300 -7.13500 48.39500
H  6.32700 -4.03500 48.39200
H  7.14400 -4.19400 46.81400
H  5.71600 -5.11500 47.26600
H  7.18600 0.17700 44.04700
H  7.16400 3.97000 46.43900
H  8.17100 4.21600 45.05200
H  8.90900 3.31800 46.42700
Mg -1.77900 34.27800 26.46600
C  -3.92800 32.77000 28.94300
C  -0.86200 36.48200 28.88300
C  -0.42100 36.08700 24.12800
C  -3.58800 32.49800 24.05000
N  -2.43100 34.62200 28.60700
C  -3.15300 33.81300 29.41900
C  -2.94300 34.20400 30.90600
C  -2.16700 35.56000 30.80800
C  -1.79100 35.58800 29.38100
C  -2.89600 36.83700 31.24500
C  -2.23600 33.09600 31.85600
C  -2.84500 32.66400 33.23100
H  -1.99500 32.39900 34.42600
N  -0.67400 36.07300 26.46800
C  -0.39100 36.77400 27.55800
C  0.62200 37.82400 27.16700
C  0.81200 37.65200 25.74600
C  -0.10800 36.59000 25.37900
C  1.18200 38.85500 28.06200
C  1.62200 38.46100 24.82700
O  1.57000 38.36600 23.56500
C  2.60200 39.46900 25.26900
N  -2.16000 34.44600 24.41200
C  -1.26300 35.15300 23.62600
C  -1.30700 34.77400 22.11600
C  -2.44400 33.72600 22.04500
C  -2.81900 33.58400 23.58100
C  -1.37700 35.94500 21.10400
C  -2.06300 32.40800 21.35700
C  -3.19900 31.74300 20.49200
N  -3.28500 32.76400 26.44600
C  -3.91200 32.11800 25.38500
C  -4.83800 31.17300 25.89600
C  -4.86000 31.39500 27.31600
C  -3.92900 32.39000 27.57700
C  -5.52700 30.15900 25.00700
C  -5.41900 30.85700 28.56200
O  -6.18000 29.92700 28.72000
C  -4.77200 31.75300 29.68900
C  -5.96500 32.21000 30.49000
O  -6.70000 33.14300 30.17900
O  -5.97300 31.56000 31.72000
C  -6.94600 32.15400 32.70500
H  -0.36800 37.08800 29.64500
H  0.18500 36.46300 23.30100
H  -4.02700 31.79900 23.33500
H  -3.87400 34.52800 31.37200
H  -1.30500 35.48600 31.47100
H  -3.94500 36.70900 31.51000
H  -2.86100 37.61900 30.48700
H  -2.49600 37.28900 32.15200
H  -1.24000 33.44900 32.12200
H  -2.14500 32.13600 31.35000
H  -3.50800 31.80100 33.17000
H  -3.62700 33.39000 33.45600
H  2.27000 38.78400 28.07900
H  0.75300 38.67500 29.04700
H  0.98100 39.90200 27.83700
H  3.11300 40.04400 24.49700
H  3.30700 38.73400 25.65900
H  2.09300 40.17300 25.92700
H  -0.37000 34.28100 21.85900
H  -3.27100 34.20100 21.51700
H  -1.37700 36.91700 21.59700
H  -2.28400 35.97200 20.50100
H  -0.48800 36.02700 20.47800
H  -1.88200 31.62900 22.09700
H  -1.21600 32.53000 20.68200
H  -3.83500 32.43600 19.94100
H  -3.84000 31.18400 21.17300
H  -2.65800 31.09200 19.80500
H  -6.53800 30.53400 24.84700
H  -5.52600 29.23400 25.58400
H  -5.12100 30.01900 24.00500
H  -4.17800 31.24200 30.44700
H  -6.62700 33.16700 32.95000
H  -6.88700 31.71600 33.70200
H  -7.96500 32.10200 32.32300

