158

Mg 47.95800 45.53600 43.52600
C  44.34600 45.37400 43.03300
C  47.89500 42.14300 42.78600
C  51.11900 45.81400 43.10900
C  47.43200 49.06200 43.89100
N  46.24700 44.00300 42.85400
C  44.94000 44.15700 42.62000
C  44.31500 42.96200 41.95200
C  45.39400 41.85200 42.23600
C  46.63200 42.68700 42.67900
C  44.95600 40.77500 43.21900
C  43.87500 43.21700 40.48500
C  42.64800 42.56100 39.95500
H  42.64400 41.69100 38.68800
N  49.34700 44.14700 43.07900
C  49.15100 42.80900 42.91200
C  50.51800 42.22100 42.82400
C  51.48200 43.26900 42.65500
C  50.70400 44.47200 42.96400
C  50.70900 40.69900 42.88600
C  52.92600 43.07700 42.22500
O  53.33400 41.91100 42.06300
C  53.84100 44.20200 42.01300
N  49.01600 47.28000 43.14400
C  50.34300 47.06300 43.29800
C  51.06200 48.39600 43.58300
C  49.87700 49.33600 44.00100
C  48.66700 48.53300 43.68100
C  52.28400 48.27200 44.53700
C  49.82200 50.64600 43.23300
C  49.22800 51.84900 43.92300
N  46.24100 46.94600 43.64000
C  46.23700 48.29300 43.83100
C  44.89700 48.77500 43.97500
C  44.15400 47.65900 43.67500
C  44.98600 46.59100 43.41300
C  44.41900 50.21200 44.33100
C  42.78700 47.21200 43.41300
O  41.74200 47.81900 43.45100
C  42.88800 45.77100 42.99900
C  42.08800 45.06500 44.14800
O  41.20100 44.27000 43.92900
O  42.54900 45.32000 45.40000
C  41.97500 44.55200 46.52100
H  48.08400 41.08500 42.59300
H  52.18400 45.98500 42.94000
H  47.45800 50.13200 44.10900
H  43.39100 42.62700 42.42300
H  45.72100 41.36100 41.31900
H  45.62100 40.66400 44.07600
H  44.90100 39.80300 42.72900
H  43.95400 41.01200 43.57700
H  44.69800 42.90100 39.84400
H  43.89000 44.29400 40.32100
H  41.92300 43.37500 39.96300
H  42.30700 41.83200 40.69100
H  51.05800 40.51900 41.86900
H  49.80400 40.11800 43.06200
H  51.42400 40.42300 43.66200
H  53.41300 45.00900 41.41900
H  54.77500 43.88300 41.55000
H  54.07900 44.61300 42.99400
H  51.52400 48.82500 42.69400
H  49.81600 49.60300 45.05600
H  52.36200 47.31400 45.05000
H  52.21700 48.97400 45.36900
H  53.25600 48.54000 44.12400
H  49.31900 50.59400 42.26700
H  50.82300 51.00500 42.99800
H  49.92700 52.68300 43.98300
H  48.86800 51.63200 44.92900
H  48.36200 52.19700 43.36000
H  43.76600 50.65900 43.58200
H  45.30800 50.84200 44.31400
H  43.93900 50.15100 45.30800
H  42.41100 45.55300 42.04400
H  40.88600 44.57900 46.56100
H  42.37300 44.95700 47.45100
H  42.18300 43.48700 46.42200
Mg -6.40000 24.72400 26.71300
C  -4.65600 26.33700 29.38900
C  -7.82000 22.68500 29.23200
C  -7.96100 23.14400 24.23700
C  -4.59600 26.59000 24.43600
N  -6.20600 24.46700 29.12300
C  -5.49100 25.34100 29.91100
C  -5.80400 25.09200 31.39300
C  -6.52100 23.69500 31.29200
C  -7.01600 23.65300 29.82700
C  -5.85600 22.36000 31.81000
C  -6.73500 26.23500 32.03400
C  -6.27600 26.77500 33.33000
H  -5.84700 25.81100 34.40800
N  -7.68600 23.10600 26.75000
C  -8.17500 22.46700 27.88000
C  -9.28600 21.55900 27.47500
C  -9.34400 21.66000 26.03700
C  -8.30700 22.63400 25.61000
C  -10.12800 20.63400 28.40800
C  -10.09000 20.84400 25.01000
O  -10.06200 21.06300 23.78900
C  -10.87400 19.66200 25.52400
N  -6.38100 24.85100 24.56400
C  -7.20200 24.18700 23.79000
C  -6.75100 24.45000 22.27600
C  -5.70500 25.54200 22.42100
C  -5.55200 25.67800 23.91200
C  -6.35600 23.21000 21.49600
C  -6.07300 26.92100 21.85100
C  -5.55900 27.20900 20.44300
N  -4.93700 26.13000 26.79200
C  -4.29700 26.86100 25.79700
C  -3.38100 27.84500 26.41500
C  -3.55300 27.69500 27.74200
C  -4.47000 26.65800 27.98200
C  -2.48900 28.81800 25.72600
C  -3.05500 28.25300 29.00100
O  -2.19400 29.06500 29.22500
C  -3.84200 27.38900 30.09600
C  -2.82000 26.85600 31.06900
O  -1.94900 26.02700 30.78800
O  -3.10800 27.16500 32.35700
C  -2.16800 26.50900 33.34100
H  -8.29800 22.22600 30.10000
H  -8.39500 22.60400 23.39300
H  -4.22200 27.15600 23.58000
H  -4.81100 24.86400 31.78000
H  -7.35500 23.88400 31.96700
H  -5.16500 22.47100 32.64600
H  -5.22800 22.00400 30.99300
H  -6.47600 21.49800 32.05500
H  -7.76600 25.89200 32.12800
H  -6.82900 27.11600 31.40000
H  -7.14900 27.32100 33.68600
H  -5.44700 27.46200 33.16400
H  -11.17600 20.65700 28.11100
H  -10.30100 21.09300 29.38200
H  -9.82400 19.58900 28.46800
H  -10.27900 19.11000 26.25200
H  -11.18100 19.02500 24.69500
H  -11.71300 20.15300 26.01600
H  -7.68100 24.81700 21.84300
H  -4.78800 25.18300 21.95300
H  -7.00200 23.02700 20.63700
H  -6.12000 22.28400 22.02200
H  -5.39100 23.43600 21.04100
H  -5.74800 27.76500 22.46100
H  -7.16100 26.89400 21.79700
H  -6.35000 27.29000 19.69700
H  -4.84900 26.45900 20.09300
H  -5.12400 28.20900 20.44100
H  -1.54600 28.78600 26.27200
H  -2.87300 29.82700 25.87400
H  -2.33000 28.56900 24.67700
H  -4.51400 28.06300 30.62600
H  -2.44900 25.45600 33.31600
H  -2.28600 26.84600 34.37100
H  -1.16000 26.70700 32.97500

