158

Mg -12.33900 16.96200 40.08300
C  -8.69000 15.98300 39.94800
C  -11.11500 20.25800 39.69600
C  -15.32500 17.69300 39.47800
C  -12.98500 13.46300 39.76200
N  -10.16400 18.02000 39.78400
C  -8.94100 17.42900 39.78700
C  -7.86600 18.40000 39.55300
C  -8.57200 19.80000 39.86900
C  -10.04300 19.35600 39.75000
C  -8.23100 20.61200 41.06300
C  -7.12500 18.26900 38.13100
C  -5.67600 17.83900 38.30200
H  -4.99400 16.95700 37.25800
N  -13.13100 18.74400 39.75300
C  -12.53800 19.94800 39.59700
C  -13.54600 20.87000 39.27300
C  -14.81700 20.22700 39.30000
C  -14.51300 18.78200 39.51900
C  -13.28200 22.34800 39.08900
C  -16.18400 20.88900 39.08400
O  -16.24300 22.12700 38.91900
C  -17.39200 20.10500 39.03100
N  -13.89600 15.71500 39.73100
C  -15.06100 16.25500 39.41200
C  -16.21200 15.20600 39.13300
C  -15.34400 13.90500 38.95400
C  -13.98700 14.38200 39.57000
C  -17.40700 15.04200 40.25900
C  -15.10500 13.42800 37.49800
C  -15.01700 11.88500 37.35500
N  -11.18400 15.04800 40.01900
C  -11.65100 13.73200 39.91100
C  -10.47700 12.87400 39.82000
C  -9.34500 13.72400 39.97700
C  -9.79600 15.07700 39.97600
C  -10.49300 11.39100 39.55200
C  -7.87400 13.73500 39.89600
O  -7.09200 12.78300 39.72400
C  -7.45100 15.16800 39.93300
C  -6.61900 15.33300 41.11800
O  -6.82100 16.02000 42.11700
O  -5.40500 14.69500 40.92200
C  -4.47000 14.65200 42.03100
H  -10.84600 21.31500 39.75500
H  -16.32100 17.92800 39.09700
H  -13.25100 12.40400 39.74900
H  -7.18100 18.19600 40.37600
H  -8.29900 20.48000 39.06200
H  -7.70300 21.52200 40.77800
H  -7.47900 20.04100 41.60700
H  -9.13800 20.72300 41.65700
H  -7.10100 19.29500 37.76400
H  -7.61100 17.65100 37.37600
H  -5.54600 17.42300 39.30200
H  -5.18400 18.81100 38.27500
H  -13.79000 22.71900 38.19900
H  -12.21400 22.53900 38.98700
H  -13.63200 22.92000 39.94800
H  -17.41600 19.69900 38.01900
H  -18.25200 20.74200 39.23800
H  -17.37000 19.39700 39.85900
H  -16.77700 15.38300 38.21700
H  -15.62000 13.19400 39.73400
H  -18.27500 15.61800 39.93700
H  -17.10900 15.34400 41.26400
H  -17.93400 14.09000 40.18600
H  -14.17500 13.78300 37.05500
H  -15.93300 13.70700 36.84600
H  -15.93500 11.62400 36.82800
H  -15.13100 11.47500 38.35800
H  -14.04900 11.53500 36.99600
H  -10.06200 11.11200 38.59000
H  -11.53100 11.05900 39.54800
H  -9.94100 10.95000 40.38300
H  -6.81600 15.50200 39.11300
H  -3.83700 13.76500 42.03700
H  -4.99100 14.69900 42.98800
H  -3.87000 15.54600 41.86000
Mg -5.56400 25.41700 26.33600
C  -4.31800 26.84000 29.20000
C  -7.40200 23.25600 28.17000
C  -6.63000 23.96200 23.42300
C  -3.23600 27.34200 24.52000
N  -5.73200 25.01300 28.39800
C  -5.26600 25.81500 29.46400
C  -5.98100 25.46300 30.79700
C  -6.62000 24.08900 30.45500
C  -6.61200 24.14200 28.93800
C  -5.83800 22.91900 31.07300
C  -7.01900 26.49900 31.32600
C  -7.24300 26.38400 32.85400
H  -6.88800 25.15100 33.71200
N  -6.88000 23.82000 25.90800
C  -7.56300 23.08200 26.79200
C  -8.38400 22.17700 26.03800
C  -8.10500 22.38100 24.61800
C  -7.12800 23.38000 24.58300
C  -9.30900 21.21200 26.79400
C  -8.73700 21.67400 23.45900
O  -8.38400 22.01000 22.30600
C  -9.58400 20.44300 23.64900
N  -4.99800 25.50900 24.28900
C  -5.63800 24.94900 23.23400
C  -4.96500 25.34000 21.85000
C  -4.03400 26.55400 22.23300
C  -4.10700 26.47500 23.79800
C  -4.33400 24.12100 21.18400
C  -4.44400 27.88400 21.60600
C  -3.59400 28.42100 20.47000
N  -4.11700 26.85300 26.69100
C  -3.22000 27.51300 25.91700
C  -2.56000 28.56100 26.62700
C  -2.96100 28.32100 27.94000
C  -3.88600 27.24200 27.95100
C  -1.66100 29.66700 26.00600
C  -2.86700 28.71600 29.30000
O  -2.22400 29.62000 29.92800
C  -3.73200 27.81000 30.19600
C  -2.85200 27.27400 31.27700
O  -1.89800 26.53300 31.02900
O  -3.12300 27.80900 32.45000
C  -2.36500 27.42700 33.62900
H  -8.19300 22.74100 28.71800
H  -6.86300 23.66400 22.39800
H  -2.59700 28.00400 23.93200
H  -5.14900 25.43500 31.50000
H  -7.64700 23.98800 30.80500
H  -4.79900 23.13600 31.32000
H  -5.77500 22.16500 30.28700
H  -6.29800 22.42400 31.92800
H  -8.01200 26.34500 30.90300
H  -6.72900 27.48100 30.95100
H  -8.30900 26.40500 33.08200
H  -6.82300 27.24900 33.36800
H  -8.86700 21.03500 27.77400
H  -9.55700 20.25600 26.33400
H  -10.23300 21.76100 26.97700
H  -8.99100 19.83800 24.33400
H  -9.58600 19.88200 22.71400
H  -10.58800 20.64800 24.02000
H  -5.72800 25.76900 21.20000
H  -2.99300 26.50800 21.91300
H  -3.24400 24.11800 21.20900
H  -4.61600 24.07700 20.13200
H  -4.71500 23.14100 21.47100
H  -4.42500 28.58900 22.43700
H  -5.48700 27.88300 21.29100
H  -4.37600 28.57300 19.72700
H  -2.84900 27.70400 20.12500
H  -3.11500 29.39600 20.57300
H  -1.14000 30.17400 26.81800
H  -2.15900 30.48100 25.48000
H  -0.78500 29.30500 25.46600
H  -4.41000 28.57800 30.56900
H  -2.94600 27.03200 34.46200
H  -1.80400 28.28300 34.00300
H  -1.56300 26.74200 33.35200

