158

Mg 25.16100 1.76300 29.73600
C  27.24500 1.18900 32.43400
C  22.54900 2.10800 31.94200
C  22.99800 1.91700 27.06200
C  27.61200 0.67800 27.63000
N  24.91300 1.37800 31.97500
C  25.91400 1.22200 32.87500
C  25.49200 1.54500 34.37500
C  23.90100 1.49200 34.11500
C  23.78200 1.75300 32.59900
C  23.12000 0.19300 34.55100
C  26.01900 2.94700 34.79700
C  26.90300 3.07100 36.06300
H  26.45900 4.06400 37.18900
N  23.12000 2.12400 29.54300
C  22.19500 2.21100 30.59700
C  20.87600 2.36700 30.02100
C  20.97900 2.32300 28.58900
C  22.42400 2.11200 28.29600
C  19.61200 2.62200 30.89000
C  19.95300 2.42500 27.50400
O  20.20100 2.50700 26.30200
C  18.50000 2.40800 27.98200
N  25.32800 1.39400 27.67200
C  24.29400 1.56400 26.70200
C  24.75100 1.20600 25.30000
C  26.20700 0.71600 25.53400
C  26.41600 0.99000 27.03700
C  23.72400 0.29600 24.49900
C  27.26200 1.41700 24.60900
C  28.13300 2.54800 25.13000
N  27.07200 1.15700 29.93600
C  27.97400 0.76200 28.97900
C  29.26800 0.54400 29.55400
C  29.03300 0.69100 30.93100
C  27.65400 1.00500 31.09800
C  30.59700 0.19300 28.92400
C  29.68300 0.67300 32.26800
O  30.87700 0.51900 32.58100
C  28.51200 1.03500 33.29100
C  28.52500 -0.07100 34.17900
O  27.99700 -1.17100 33.98500
O  29.14600 0.26100 35.39500
C  29.02900 -0.67500 36.53000
H  21.78300 2.30600 32.69500
H  22.34400 1.96100 26.18900
H  28.39600 0.31600 26.96200
H  25.82800 0.76900 35.06300
H  23.42900 2.34400 34.60600
H  23.94100 -0.46400 34.83800
H  22.64200 -0.29800 33.70300
H  22.43000 0.46900 35.34800
H  25.16000 3.59900 34.95600
H  26.51200 3.42500 33.95100
H  27.88400 3.32900 35.66200
H  27.01500 2.08900 36.52200
H  19.09300 3.51700 30.54700
H  19.84000 2.82600 31.93600
H  19.01600 1.71500 30.78900
H  18.16200 3.22800 28.61600
H  18.37500 1.45500 28.49500
H  17.93200 2.35700 27.05300
H  24.71400 2.13400 24.73000
H  26.26000 -0.33300 25.24200
H  22.74100 0.26000 24.97000
H  24.00200 -0.75800 24.46500
H  23.76200 0.68000 23.48000
H  26.73800 1.71000 23.70000
H  27.96100 0.64300 24.28800
H  28.15000 3.20500 24.26000
H  29.19000 2.29300 25.19900
H  27.68600 3.00800 26.01100
H  31.38400 0.79500 29.37900
H  30.47200 0.34600 27.85300
H  30.82800 -0.83600 29.20000
H  28.88100 1.88500 33.86600
H  29.04500 -1.71900 36.21800
H  28.25800 -0.61600 37.29800
H  29.91900 -0.64800 37.15900
Mg 27.19700 50.81600 25.86200
C  25.31300 51.94500 28.63000
C  29.42000 49.33800 28.19700
C  29.20400 49.98500 23.33900
C  25.20700 52.77000 23.86600
N  27.39100 50.70400 28.18400
C  26.42400 51.20400 29.09100
C  26.77300 50.72300 30.53300
C  28.11500 49.96300 30.32400
C  28.29400 49.95000 28.81700
C  29.30800 50.70600 30.97300
C  25.65200 50.00800 31.33500
C  25.23300 50.51800 32.79400
H  26.29000 50.77100 33.87100
N  29.04600 49.74500 25.78000
C  29.85300 49.30900 26.86400
C  30.99700 48.63900 26.27100
C  30.95600 48.88900 24.85900
C  29.70000 49.54700 24.62100
C  32.06100 47.80200 27.05900
C  32.00500 48.63300 23.77300
O  31.91400 48.84700 22.56800
C  33.29700 47.99700 24.25400
N  27.17800 51.31900 23.89300
C  28.07800 50.78400 22.99900
C  27.69000 51.09100 21.49400
C  26.32100 51.82900 21.61500
C  26.21800 52.01100 23.22600
C  28.73200 51.63400 20.52200
C  25.18800 51.05500 20.93500
C  24.20400 52.08100 20.33900
N  25.51900 52.10000 26.15400
C  24.84200 52.83600 25.21100
C  23.70100 53.54600 25.73900
C  23.85200 53.19300 27.11600
C  25.02700 52.37000 27.28300
C  22.69800 54.38100 25.05300
C  23.20200 53.28000 28.43300
O  22.02000 53.62100 28.70300
C  24.16000 52.52600 29.50900
C  24.62100 53.49600 30.55300
O  25.63600 54.17300 30.58500
O  23.67100 53.48100 31.58300
C  23.97000 54.25800 32.83600
H  30.00200 48.84700 28.98100
H  29.75500 49.63600 22.46300
H  24.50700 53.28100 23.20300
H  26.93100 51.71200 30.96400
H  28.06600 48.93800 30.69000
H  29.83900 51.33400 30.25900
H  30.00200 49.99200 31.41700
H  28.93800 51.33200 31.78500
H  26.00500 49.01200 31.60000
H  24.69600 49.80900 30.85100
H  24.57700 49.74400 33.19200
H  24.72400 51.47900 32.71900
H  32.63100 47.02800 26.54500
H  31.78100 47.32800 28.00000
H  32.89800 48.45700 27.30100
H  33.89300 48.07400 23.34400
H  33.18200 46.95900 24.56400
H  33.69900 48.71200 24.97200
H  27.45300 50.06800 21.20200
H  26.55400 52.82800 21.24700
H  29.68000 51.37100 20.99200
H  28.69100 52.72000 20.43300
H  28.79800 51.02600 19.62000
H  24.73000 50.56400 21.79300
H  25.62500 50.42700 20.15800
H  23.37400 51.46900 19.98600
H  24.55400 52.58700 19.44000
H  23.81400 52.85200 21.00300
H  21.74200 53.87800 24.90600
H  22.97900 54.66000 24.03800
H  22.55900 55.32300 25.58300
H  23.74500 51.67300 30.04600
H  25.04200 54.31700 33.02600
H  23.42000 53.95000 33.72500
H  23.61600 55.27500 32.67100

