158

Mg 34.70000 3.16600 29.44300
C  32.68700 4.33700 32.09700
C  37.30500 3.14400 31.63600
C  36.69700 2.78600 26.77900
C  31.85900 3.92300 27.31900
N  34.95600 3.60200 31.66400
C  33.95300 3.90700 32.56300
C  34.42800 3.82300 34.01000
C  36.02400 3.54100 33.83200
C  36.13800 3.49500 32.25900
C  36.85400 4.48600 34.60400
C  33.62400 2.89400 34.91600
C  33.19500 3.22600 36.37600
H  34.04200 4.34200 37.06000
N  36.67300 2.81200 29.25300
C  37.57800 2.74700 30.26100
C  38.85800 2.38400 29.76200
C  38.69400 2.26300 28.35500
C  37.33500 2.64100 28.05700
C  40.04500 2.01700 30.59100
C  39.71800 1.85800 27.24300
O  39.42300 1.74700 26.06300
C  41.17200 1.48300 27.60600
N  34.29700 3.38800 27.43200
C  35.32700 3.06300 26.49000
C  34.79700 3.06800 25.02000
C  33.25300 3.34900 25.28300
C  33.08200 3.52800 26.78000
C  35.44300 4.13100 24.14700
C  32.30600 2.13400 24.79800
C  32.12900 0.95600 25.74200
N  32.70800 3.94000 29.63500
C  31.69600 4.13600 28.70900
C  30.52500 4.67800 29.28300
C  30.86200 4.78200 30.64500
C  32.23800 4.34800 30.80500
C  29.32700 5.00400 28.68400
C  30.39100 5.15700 31.94900
O  29.34700 5.64900 32.37700
C  31.49000 4.78800 32.95700
C  31.68900 5.93500 33.98000
O  32.36000 6.96500 33.79500
O  30.82300 5.72300 34.99000
C  30.59300 6.88100 35.78200
H  37.95400 3.00800 32.50400
H  37.15000 2.40700 25.86000
H  31.03500 4.18400 26.65100
H  34.26100 4.87500 34.24000
H  36.24600 2.49100 34.02300
H  37.61700 4.94400 33.97500
H  37.39700 3.90600 35.35000
H  36.33200 5.28500 35.13100
H  34.26500 2.07000 35.23000
H  32.78100 2.45500 34.38300
H  33.40100 2.38100 37.03300
H  32.11600 3.38200 36.36800
H  39.69600 1.70500 31.57600
H  40.85600 2.74300 30.64500
H  40.48800 1.07700 30.26200
H  41.16100 0.67500 28.33800
H  41.60600 2.36300 28.08000
H  41.73700 1.17000 26.72800
H  34.84800 2.05400 24.62300
H  32.94500 4.26100 24.77100
H  35.87900 3.68200 23.25400
H  36.21000 4.50700 24.82400
H  34.80600 4.96100 23.84200
H  32.68000 1.69000 23.87500
H  31.32400 2.60100 24.71600
H  31.10200 0.83500 26.08400
H  32.78500 0.94900 26.61200
H  32.27300 -0.01500 25.26700
H  28.67100 5.41800 29.45000
H  28.75900 4.24300 28.14900
H  29.51500 5.70000 27.86600
H  31.11300 3.85300 33.37100
H  31.50600 7.22800 36.26600
H  29.86900 6.53300 36.51900
H  30.07700 7.61500 35.16300
Mg 10.70900 47.95800 25.64800
C  7.97100 48.10900 27.89400
C  12.72500 49.23700 28.04400
C  13.02800 47.92200 23.30400
C  8.19200 47.44100 22.97500
N  10.37000 48.62300 27.70000
C  9.28700 48.36900 28.47800
C  9.53800 48.46400 30.04700
C  10.99300 49.22700 29.97600
C  11.38500 49.08100 28.44200
C  11.00100 50.72800 30.29500
C  9.45300 47.15800 30.90600
C  10.10400 47.07100 32.33400
H  9.39200 46.53800 33.51900
N  12.59000 48.44700 25.67100
C  13.26900 48.93400 26.79500
C  14.67000 49.10900 26.38100
C  14.84500 48.65900 25.04900
C  13.45900 48.25200 24.64300
C  15.67100 49.71000 27.30800
C  16.10600 48.58900 24.22500
O  16.15900 48.12200 23.11200
C  17.38500 48.98100 24.84100
N  10.54800 47.67400 23.40800
C  11.72500 47.78600 22.77600
C  11.51700 47.29200 21.32600
C  9.97900 47.28700 21.15500
C  9.51500 47.39700 22.58700
C  12.17800 48.15100 20.21900
C  9.45500 45.98500 20.48800
C  8.49400 46.12100 19.27000
N  8.56200 47.78800 25.41500
C  7.75100 47.61600 24.29100
C  6.37800 47.54200 24.73000
C  6.40600 47.64000 26.14600
C  7.79200 47.73300 26.50000
C  5.14700 47.33900 23.78500
C  5.59300 47.61900 27.38700
O  4.34100 47.56100 27.41000
C  6.58100 47.92800 28.56800
C  6.48000 46.69200 29.28800
O  7.14900 45.68300 29.06100
O  5.63400 46.87100 30.28300
C  5.54500 45.78600 31.22700
H  13.42300 49.50000 28.84100
H  13.77000 47.95100 22.50300
H  7.46100 47.27200 22.18100
H  8.61800 48.95900 30.35800
H  11.67600 48.73300 30.66600
H  10.79800 50.91500 31.35000
H  10.24500 51.16000 29.63900
H  11.87800 51.34600 30.10500
H  9.66600 46.31500 30.24800
H  8.37800 47.05900 31.05900
H  10.32700 48.11400 32.55700
H  11.06500 46.56200 32.26600
H  15.25800 49.93800 28.29000
H  16.07900 50.61600 26.85900
H  16.46900 48.99400 27.50600
H  17.56400 48.31000 25.68100
H  17.15000 49.91200 25.35600
H  18.20500 49.03600 24.12500
H  11.87700 46.26300 21.31100
H  9.65100 48.18600 20.63200
H  11.46700 48.73900 19.63900
H  12.48900 47.34000 19.56100
H  13.05100 48.74700 20.48600
H  8.79700 45.43900 21.16300
H  10.34200 45.46600 20.12400
H  7.59900 45.51600 19.41400
H  9.04500 45.68800 18.43500
H  8.20100 47.12500 18.96600
H  4.65900 48.30500 23.91900
H  4.49700 46.53200 24.12400
H  5.41600 47.25600 22.73200
H  6.28800 48.77700 29.18600
H  5.22700 44.89200 30.69100
H  4.83100 46.10600 31.98700
H  6.50500 45.56300 31.69200

