158

Mg 8.68500 2.99500 27.69400
C  9.81900 1.60500 30.34500
C  6.76100 5.23000 29.42500
C  7.21500 4.08700 24.65000
C  10.19300 0.44700 25.63800
N  8.16900 3.26000 29.66300
C  8.85500 2.61300 30.63300
C  8.49200 3.22000 32.01200
C  7.45800 4.33400 31.71000
C  7.33100 4.25800 30.19500
C  6.07600 4.19800 32.37000
C  9.83400 3.82400 32.71300
C  10.21500 3.39600 34.12600
H  10.58600 4.40000 35.25700
N  7.25700 4.39800 27.13800
C  6.64800 5.35400 28.01400
C  5.96800 6.34400 27.25600
C  6.04800 5.99100 25.88400
C  6.88900 4.76500 25.87300
C  5.24500 7.49000 27.95100
C  5.36000 6.69100 24.72700
O  5.34800 6.25500 23.59900
C  4.72100 8.07400 24.93200
N  8.59000 2.21800 25.38100
C  8.03200 2.93200 24.42000
C  8.38700 2.47900 23.02200
C  9.45700 1.39400 23.30100
C  9.41800 1.34100 24.84800
C  7.06600 2.04600 22.11300
C  10.78600 1.56600 22.60700
C  10.82700 0.96000 21.16200
N  9.78200 1.21900 27.93800
C  10.37300 0.42100 27.04200
C  11.16100 -0.55100 27.83100
C  11.08400 -0.04700 29.22600
C  10.16900 1.01500 29.13800
C  11.94100 -1.65200 27.31900
C  11.40500 -0.24300 30.63900
O  12.19300 -0.98500 31.21200
C  10.60600 0.86900 31.43600
C  9.84200 0.11700 32.50600
O  8.78800 -0.45600 32.34000
O  10.45000 0.20600 33.76400
C  9.74100 -0.19600 34.93300
H  6.12400 5.86200 30.04800
H  6.95900 4.58100 23.71100
H  10.78600 -0.25300 25.04500
H  8.11500 2.43100 32.66200
H  7.89200 5.30700 31.93900
H  6.10300 3.54300 33.24000
H  5.27600 3.80400 31.74300
H  5.84600 5.21100 32.70000
H  9.83300 4.91300 32.66300
H  10.64000 3.61300 32.01100
H  11.08100 2.74000 34.03800
H  9.42800 2.69600 34.40800
H  5.19200 7.52200 29.03900
H  4.17800 7.45900 27.72800
H  5.58400 8.40900 27.47300
H  5.44800 8.78300 25.32700
H  3.74100 8.00200 25.40400
H  4.51900 8.51600 23.95700
H  8.74600 3.29500 22.39500
H  8.97200 0.46100 23.01200
H  7.12700 1.13400 21.52000
H  6.88300 2.83000 21.37800
H  6.23700 1.94600 22.81400
H  11.48000 1.07200 23.28600
H  10.87500 2.65000 22.67600
H  11.09600 1.84700 20.58900
H  9.87700 0.56600 20.80000
H  11.58500 0.18400 21.05400
H  11.62400 -1.91200 26.30900
H  11.58200 -2.45400 27.96400
H  13.01900 -1.49300 27.31200
H  11.30800 1.58000 31.87100
H  9.86100 0.71600 35.51800
H  10.10800 -1.03100 35.53000
H  8.71500 -0.41900 34.64000
Mg -2.07700 34.76500 27.22500
C  -3.55900 33.00400 30.00400
C  -0.57300 36.73500 29.24100
C  -0.75700 36.04300 24.44000
C  -3.98600 32.50500 25.17600
N  -2.21400 34.87700 29.29000
C  -2.81100 34.21700 30.28900
C  -2.50000 34.77100 31.70700
C  -1.72500 36.07700 31.38600
C  -1.51500 35.86100 29.88600
C  -2.30800 37.46200 31.74100
C  -1.64300 33.68700 32.49700
C  -2.35300 33.04800 33.68200
H  -1.77900 33.30100 35.13000
N  -0.88700 36.16600 26.90200
C  -0.21300 36.85300 27.88900
C  0.74100 37.75300 27.28400
C  0.74200 37.49900 25.92300
C  -0.34200 36.56200 25.68300
C  1.51800 38.69000 28.19200
C  1.55300 38.23800 24.78100
O  1.29800 38.17600 23.63600
C  2.58700 39.29200 25.22800
N  -2.49300 34.44100 25.05100
C  -1.69000 35.05300 24.13900
C  -2.21700 34.71100 22.74900
C  -2.98700 33.34500 23.02200
C  -3.17800 33.41000 24.53400
C  -3.08900 35.89500 22.23600
C  -2.38500 32.04600 22.50400
C  -1.02300 31.57900 23.08000
N  -3.48200 33.11100 27.45400
C  -4.15000 32.31800 26.53600
C  -4.94200 31.32300 27.13500
C  -4.68000 31.50500 28.48400
C  -3.83500 32.63500 28.68000
C  -5.74600 30.22200 26.46800
C  -4.84400 30.96800 29.83700
O  -5.40300 29.96400 30.19500
C  -4.23700 31.97500 30.84300
C  -5.36500 32.48300 31.67400
O  -6.05200 33.41800 31.31100
O  -5.55300 31.70600 32.75600
C  -6.52800 32.22600 33.68700
H  -0.07900 37.29700 30.03600
H  -0.40100 36.59900 23.57000
H  -4.33400 31.70500 24.52000
H  -3.41600 35.00200 32.24900
H  -0.75800 36.06700 31.88900
H  -2.75100 37.85700 30.82700
H  -1.50500 38.14600 32.01500
H  -3.03700 37.36600 32.54600
H  -0.69700 34.19200 32.69100
H  -1.49100 32.85200 31.81200
H  -2.49400 31.98000 33.52100
H  -3.35600 33.47100 33.62200
H  2.53500 38.47000 27.86500
H  1.36900 38.63300 29.27100
H  1.35300 39.70900 27.84200
H  3.40700 38.65000 25.55000
H  2.30100 39.92100 26.07200
H  2.98800 39.92200 24.43400
H  -1.37400 34.56900 22.07200
H  -4.01700 33.34700 22.66500
H  -2.86100 36.79100 22.81300
H  -4.15800 35.70500 22.32400
H  -2.75800 36.06800 21.21200
H  -2.18000 32.23500 21.45000
H  -3.10600 31.22800 22.51400
H  -0.89400 32.10100 24.02800
H  -0.29500 31.90500 22.33600
H  -1.05500 30.51000 23.29300
H  -5.33200 30.01200 25.48200
H  -6.77300 30.55800 26.32600
H  -5.70300 29.34700 27.11700
H  -3.61000 31.39900 31.52300
H  -6.25000 33.13800 34.21500
H  -6.80000 31.45000 34.40200
H  -7.45600 32.48500 33.17800

