158

Mg 46.58000 24.63200 28.08200
C  47.02900 27.20200 30.40800
C  46.00500 22.44000 30.58100
C  46.28600 22.20900 25.71700
C  47.81400 26.81100 25.53500
N  46.45700 24.85100 30.16200
C  46.65300 25.99600 30.92300
C  46.45900 25.70100 32.37600
C  46.28200 24.14000 32.43100
C  46.32000 23.72900 30.97400
C  47.20500 23.30200 33.31800
C  45.37000 26.50300 33.20700
C  45.12200 25.89300 34.59700
H  45.21300 26.79200 35.87700
N  45.98700 22.67000 28.15600
C  45.86800 21.89200 29.26100
C  45.63400 20.52200 28.92500
C  45.68500 20.45900 27.52100
C  45.92500 21.81800 27.02800
C  45.41700 19.37500 29.93700
C  45.66400 19.23300 26.59600
O  45.77700 19.26800 25.36000
C  45.63500 17.91500 27.22100
N  46.73000 24.59800 25.93400
C  46.60800 23.44800 25.19000
C  47.07600 23.64900 23.71100
C  47.01700 25.25300 23.62300
C  47.27300 25.58900 25.09600
C  48.53200 23.09700 23.61100
C  45.81500 26.01300 22.94400
C  44.61700 26.50800 23.76600
N  47.30500 26.55700 27.93300
C  47.72100 27.33400 26.86800
C  48.18400 28.62200 27.32900
C  47.90500 28.58300 28.71400
C  47.32700 27.38800 29.01600
C  48.90500 29.72800 26.67400
C  48.13800 29.28900 29.92700
O  48.78300 30.36800 30.06700
C  47.46800 28.52700 31.12300
C  48.63300 28.36300 32.11800
O  49.67400 27.72300 31.99400
O  48.35100 29.00400 33.28000
C  49.34600 28.80300 34.33100
H  45.83000 21.70300 31.36800
H  46.24500 21.38800 24.99800
H  48.04200 27.60500 24.82000
H  47.43100 26.03500 32.73700
H  45.34300 23.81400 32.87800
H  47.87300 22.54500 32.90600
H  46.70300 22.65600 34.03800
H  47.77600 24.02200 33.90400
H  44.42000 26.50900 32.67200
H  45.67200 27.54000 33.35000
H  45.80000 25.05300 34.74900
H  44.11800 25.47000 34.59700
H  46.32200 18.76900 29.89100
H  44.65300 18.69100 29.56900
H  45.05400 19.71900 30.90500
H  46.36800 17.79500 28.01800
H  45.92900 17.06300 26.60800
H  44.60000 17.74100 27.51700
H  46.32700 23.20400 23.05500
H  47.92800 25.56600 23.11400
H  48.49100 22.12700 23.11500
H  49.11000 23.00600 24.53000
H  49.16200 23.77400 23.03400
H  45.35500 25.28300 22.27700
H  46.14000 26.86100 22.34200
H  44.00900 25.61000 23.87200
H  44.07400 27.32600 23.29400
H  44.80400 26.83800 24.78800
H  49.62800 30.20100 27.33900
H  48.21100 30.54600 26.48200
H  49.42400 29.42700 25.76400
H  46.67300 29.13600 31.55400
H  49.14500 27.90000 34.90700
H  49.19000 29.62700 35.02800
H  50.41300 28.91700 34.13800
Mg -9.86600 40.29600 42.59200
C  -9.16000 36.89800 41.78600
C  -7.02400 41.18200 40.93600
C  -10.90800 43.39800 42.96000
C  -13.08900 39.11800 43.76500
N  -8.33700 39.14900 41.40500
C  -8.17800 37.78100 41.29100
C  -6.93100 37.46300 40.43600
C  -6.22700 38.84900 40.39800
C  -7.25200 39.81100 40.93300
C  -4.89500 38.89500 41.22900
C  -7.33600 36.82400 38.96800
C  -6.38500 35.76200 38.38300
H  -5.53700 36.08300 37.13300
N  -9.11700 42.05600 41.98400
C  -7.91200 42.25500 41.39700
C  -7.57400 43.64900 41.44900
C  -8.71000 44.30100 41.90300
C  -9.62800 43.18100 42.30500
C  -6.38600 44.17000 40.68700
C  -8.94000 45.84500 41.89800
O  -8.10500 46.59300 41.44400
C  -10.21900 46.50400 42.45500
N  -11.70100 41.11000 43.36000
C  -11.82600 42.48300 43.42800
C  -13.18600 42.83000 44.04400
C  -13.84100 41.48200 44.24000
C  -12.86700 40.52200 43.74300
C  -12.95600 43.65200 45.32100
C  -15.29900 41.53900 43.61800
C  -16.29600 42.14900 44.61600
N  -10.95600 38.42000 42.69600
C  -12.17900 38.14400 43.25600
C  -12.38200 36.69000 43.27400
C  -11.23500 36.13900 42.69000
C  -10.39600 37.26200 42.33000
C  -13.46600 35.90100 43.94200
C  -10.55000 34.92200 42.38300
O  -10.79200 33.74100 42.58900
C  -9.20600 35.35800 41.68700
C  -8.04200 34.64000 42.30600
O  -7.86000 34.39400 43.55100
O  -7.25200 34.08900 41.33900
C  -6.09100 33.34100 41.71600
H  -6.06000 41.55200 40.58100
H  -11.22000 44.42900 43.14000
H  -14.06300 38.79600 44.14000
H  -6.27400 36.77400 40.96700
H  -6.05100 39.08000 39.34700
H  -4.89000 39.80400 41.83000
H  -4.07200 38.90300 40.51400
H  -4.88300 38.11400 41.98800
H  -7.34600 37.58600 38.18800
H  -8.32600 36.37500 39.04000
H  -6.98000 34.87500 38.16800
H  -5.65200 35.51000 39.14900
H  -6.48300 45.18400 40.29800
H  -6.11500 43.63300 39.77800
H  -5.54600 44.10400 41.37700
H  -10.34100 46.26100 43.51000
H  -11.07500 46.11000 41.90700
H  -10.19300 47.58900 42.35900
H  -13.70700 43.43900 43.30400
H  -14.07300 41.50700 45.30500
H  -12.02500 44.19900 45.17400
H  -12.80400 43.01200 46.19100
H  -13.76600 44.32500 45.60100
H  -15.64100 40.53900 43.35000
H  -15.33300 42.14100 42.71000
H  -15.79800 42.49800 45.52000
H  -16.96800 41.35200 44.93400
H  -16.88000 42.99300 44.24700
H  -14.38200 36.08200 43.38000
H  -13.58400 36.36400 44.92100
H  -13.36200 34.81900 44.02400
H  -9.26000 35.23100 40.60600
H  -5.88700 33.36700 42.78700
H  -5.20600 33.72000 41.20400
H  -6.20600 32.31300 41.37300

