158

Mg 46.90900 16.46200 28.69600
C  44.89100 16.02000 31.51700
C  48.99700 18.36700 30.55100
C  48.42800 17.32900 25.88600
C  44.21900 15.02100 26.82300
N  46.87500 17.11800 30.74800
C  46.01900 16.79700 31.77700
C  46.49200 17.48600 33.09500
C  47.69300 18.43000 32.69300
C  47.87400 17.96900 31.15800
C  47.42800 20.00000 32.84400
C  46.86600 16.43200 34.22000
C  46.24900 16.74000 35.60300
H  45.94100 18.17900 36.05900
N  48.55800 17.60200 28.25700
C  49.33700 18.21100 29.20100
C  50.52400 18.79600 28.57500
C  50.43800 18.45800 27.17200
C  49.11600 17.75400 27.05900
C  51.53200 19.63000 29.43900
C  51.32500 18.69300 26.01600
O  51.07000 18.30200 24.91300
C  52.63100 19.42900 26.30000
N  46.28800 16.42400 26.67900
C  47.11000 16.82300 25.69300
C  46.48900 16.69900 24.28600
C  45.44800 15.63300 24.58100
C  45.25100 15.73900 26.11400
C  46.09300 17.99400 23.52300
C  45.78700 14.20400 24.06800
C  46.87700 13.56200 24.88900
N  45.11800 15.46100 29.01300
C  44.14300 14.96200 28.19400
C  43.13200 14.29800 28.92600
C  43.43000 14.62400 30.27400
C  44.59100 15.42100 30.26000
C  41.97100 13.43800 28.40100
C  42.92900 14.49700 31.67300
O  41.97600 13.93600 32.15500
C  43.86400 15.46500 32.52700
C  43.05100 16.53300 33.10700
O  42.79600 17.62000 32.61400
O  42.53500 16.04200 34.28700
C  41.58400 17.05900 34.86800
H  49.59000 19.02100 31.19300
H  48.99800 17.53200 24.97700
H  43.42700 14.60400 26.19800
H  45.67700 18.03600 33.56600
H  48.58400 18.17000 33.26400
H  48.25600 20.29900 33.48700
H  46.47100 20.13800 33.34700
H  47.42100 20.61500 31.94400
H  47.95300 16.40200 34.29100
H  46.52600 15.48200 33.80900
H  46.91600 16.33300 36.36300
H  45.29400 16.21500 35.58300
H  51.20100 19.89400 30.44300
H  51.42200 20.58300 28.92200
H  52.53800 19.21600 29.38000
H  53.41200 18.68600 26.46200
H  52.61000 20.11900 27.14300
H  52.87700 20.03200 25.42500
H  47.23200 16.29100 23.60200
H  44.48800 15.96000 24.18200
H  46.87500 18.17200 22.78500
H  46.03400 18.82300 24.22800
H  45.14600 17.87700 22.99600
H  46.19500 14.40600 23.07800
H  44.82400 13.69600 24.11600
H  46.41400 12.89000 25.61100
H  47.57900 14.25700 25.35100
H  47.43400 13.02200 24.12200
H  41.09000 14.00600 28.10300
H  41.71800 12.75100 29.20900
H  42.26600 12.87000 27.51900
H  44.41800 14.82200 33.21200
H  41.10900 17.75400 34.17600
H  42.07400 17.48600 35.74300
H  40.73400 16.42500 35.12100
Mg 26.85400 50.58600 26.94700
C  24.68300 51.85500 29.43600
C  29.02100 49.82500 29.29500
C  29.04200 49.82200 24.32800
C  24.45300 51.68000 24.43400
N  26.78000 50.65700 29.12600
C  25.84100 51.26900 29.92100
C  26.21900 51.09500 31.35600
C  27.66900 50.55800 31.32100
C  27.81900 50.17600 29.83200
C  28.80400 51.58000 31.83500
C  25.23900 50.07300 32.08700
C  24.34700 50.66600 33.25800
H  24.21400 49.82800 34.53600
N  28.85700 50.14400 26.86200
C  29.60400 49.83400 28.01200
C  30.90200 49.56100 27.55800
C  30.88500 49.39400 26.15400
C  29.55200 49.75400 25.68700
C  32.00800 49.36400 28.64800
C  32.04900 48.99600 25.23200
O  31.92500 48.94500 24.02800
C  33.37600 48.74700 25.81000
N  26.72200 50.63800 24.66200
C  27.75500 50.25800 23.87500
C  27.31100 50.16700 22.36200
C  25.89200 50.86100 22.37600
C  25.63400 51.04600 23.91200
C  28.30500 50.81600 21.36300
C  24.72400 50.10400 21.55600
C  23.94800 50.95400 20.51900
N  24.89700 51.37800 26.87100
C  24.08400 51.83400 25.82400
C  22.87200 52.39300 26.37600
C  23.12200 52.52000 27.74300
C  24.33300 51.86600 28.05000
C  21.70500 53.08600 25.66100
C  22.53400 53.02500 29.02900
O  21.48100 53.62500 29.31900
C  23.56400 52.52000 30.13500
C  24.04100 53.53500 31.02500
O  24.86800 54.38700 30.79100
O  23.30800 53.48000 32.21300
C  23.56500 54.50300 33.24500
H  29.69800 49.49300 30.08400
H  29.71500 49.39900 23.57900
H  23.73200 51.99600 23.67700
H  26.19000 52.11200 31.74800
H  27.84600 49.65800 31.90900
H  28.25500 52.50200 32.02400
H  29.65200 51.70600 31.16200
H  29.19100 51.31100 32.81800
H  25.78700 49.17200 32.36200
H  24.45900 49.83300 31.36400
H  23.35200 50.81500 32.83900
H  24.65600 51.66800 33.55400
H  32.30900 48.32300 28.76400
H  31.80100 49.69200 29.66700
H  32.88800 49.87100 28.25200
H  33.29800 48.08800 26.67500
H  33.80100 49.71800 26.06500
H  34.08800 48.19400 25.19700
H  27.40400 49.10300 22.14400
H  26.00500 51.84700 21.92500
H  28.77700 49.99600 20.82000
H  29.03700 51.39200 21.92900
H  28.03500 51.47800 20.54000
H  23.96100 49.79800 22.27300
H  24.97700 49.19000 21.01800
H  23.66400 50.32800 19.67300
H  24.51400 51.82000 20.17600
H  23.00400 51.27300 20.96200
H  20.81100 52.47000 25.75200
H  21.95300 53.24800 24.61100
H  21.55100 54.01200 26.21500
H  23.05600 51.70800 30.65300
H  23.99600 55.37300 32.74900
H  24.23700 54.12100 34.01400
H  22.62800 54.83000 33.69500

