158

Mg -12.06000 15.58200 41.58400
C  -8.97000 14.00900 41.01900
C  -10.71400 18.51500 40.25000
C  -15.15300 16.65400 41.13400
C  -13.26700 12.40400 42.56100
N  -10.21300 16.05500 40.42800
C  -9.02700 15.25500 40.40200
C  -7.84800 16.01200 39.81600
C  -8.36500 17.48500 39.70800
C  -9.89500 17.35300 40.19600
C  -7.68300 18.58700 40.48100
C  -7.25200 15.36700 38.48100
C  -5.66300 15.28000 38.47100
H  -4.91000 15.55400 37.20600
N  -12.88900 17.35700 40.85300
C  -12.15000 18.40900 40.32200
C  -13.06500 19.48100 40.06100
C  -14.36600 19.08500 40.39300
C  -14.20800 17.69100 40.80000
C  -12.53400 20.81800 39.47700
C  -15.63400 19.95100 40.41400
O  -15.62400 21.13000 40.03400
C  -16.98300 19.43500 40.90300
N  -13.95700 14.70600 41.98000
C  -15.08800 15.36100 41.58800
C  -16.30200 14.50500 41.71300
C  -15.70000 13.16100 42.14100
C  -14.22600 13.43900 42.23300
C  -17.32000 15.14300 42.68800
C  -16.00400 11.95000 41.22200
C  -16.15400 10.60300 41.92300
N  -11.29600 13.56800 41.92300
C  -11.85600 12.46500 42.40100
C  -10.91000 11.47300 42.54200
C  -9.61700 11.97800 42.16800
C  -9.97800 13.29800 41.68200
C  -11.25900 10.06900 42.95500
C  -8.19700 11.79400 41.93200
O  -7.46800 10.86800 42.15100
C  -7.78600 13.10600 41.11600
C  -6.67500 13.72800 41.90200
O  -6.86900 14.30500 42.96200
O  -5.40300 13.51100 41.32700
C  -4.24400 13.98800 42.04400
H  -10.25300 19.47000 39.98800
H  -16.16700 16.87300 40.79300
H  -13.70100 11.42300 42.76100
H  -7.12400 16.11800 40.62400
H  -8.41900 17.80300 38.66700
H  -7.26100 19.31200 39.78500
H  -6.92400 18.15200 41.13200
H  -8.40400 19.18900 41.03300
H  -7.52800 15.99900 37.63700
H  -7.68800 14.37900 38.33200
H  -5.40300 14.24500 38.69300
H  -5.22100 15.92200 39.23300
H  -13.39600 21.40800 39.16700
H  -11.75900 20.73500 38.71600
H  -12.17400 21.41400 40.31600
H  -17.83000 20.12100 40.91000
H  -16.91600 18.77500 41.76900
H  -17.08900 18.76300 40.05100
H  -16.69600 14.33200 40.71200
H  -15.74900 12.99000 43.21600
H  -16.84100 15.49200 43.60300
H  -18.03500 14.37400 42.98000
H  -17.79900 16.02000 42.25400
H  -15.22700 11.92800 40.45800
H  -16.95700 12.07800 40.70900
H  -16.44100 10.84600 42.94600
H  -15.16000 10.16400 42.00500
H  -16.90800 9.98400 41.43600
H  -10.35100 9.49000 42.79200
H  -12.12700 9.63900 42.45300
H  -11.43600 10.13400 44.02800
H  -7.28600 12.76400 40.20900
H  -4.28400 15.06200 42.22800
H  -3.42400 13.66900 41.40100
H  -4.21500 13.47700 43.00600
Mg -5.98700 25.02300 25.52200
C  -4.04700 26.23600 28.45100
C  -7.49200 22.75100 27.56600
C  -7.01400 23.33900 22.72800
C  -3.53700 26.63700 23.60300
N  -5.70300 24.55000 27.74900
C  -5.11600 25.33400 28.73500
C  -5.55900 24.89200 30.18800
C  -6.43200 23.61700 29.77700
C  -6.59600 23.63400 28.24900
C  -5.85000 22.25900 30.23500
C  -6.44400 25.90100 31.01600
C  -6.44000 25.72500 32.59300
H  -5.71700 24.58300 33.27000
N  -7.23700 23.38500 25.17100
C  -7.86900 22.62600 26.16900
C  -8.80100 21.76800 25.57200
C  -8.47700 21.70000 24.20600
C  -7.55800 22.84800 23.92700
C  -9.66500 20.75100 26.35100
C  -8.94900 20.73600 23.04500
O  -8.69700 20.96500 21.91000
C  -9.75900 19.57000 23.44400
N  -5.38500 25.05100 23.45700
C  -6.02800 24.27100 22.50200
C  -5.61500 24.74200 21.08500
C  -4.60700 25.88100 21.39100
C  -4.47700 25.88200 22.87900
C  -5.12300 23.61800 20.21500
C  -4.79900 27.36200 20.79100
C  -3.59400 28.09600 20.13800
N  -4.28200 26.30900 25.86400
C  -3.38000 26.81800 24.96400
C  -2.38000 27.54900 25.64500
C  -2.55900 27.37900 27.00100
C  -3.76100 26.62700 27.13000
C  -1.37700 28.45500 25.04600
C  -2.05300 27.77700 28.35500
O  -1.08300 28.42300 28.70200
C  -3.09400 27.09300 29.34600
C  -2.28700 26.16500 30.23700
O  -1.80900 25.06500 30.02000
O  -2.25400 26.80000 31.49200
C  -1.47400 26.08700 32.51300
H  -8.09200 22.09400 28.20000
H  -7.19100 22.66100 21.89000
H  -2.76800 27.06700 22.95900
H  -4.68200 24.67100 30.79600
H  -7.43500 23.75900 30.17900
H  -4.77400 22.38600 30.35700
H  -5.93600 21.56700 29.39700
H  -6.30000 21.90700 31.16300
H  -7.42900 25.79600 30.56100
H  -6.12300 26.92100 30.80500
H  -7.47900 25.96900 32.81500
H  -5.83400 26.56200 32.94100
H  -9.23700 19.77100 26.14000
H  -10.65000 20.96500 25.93400
H  -9.71500 20.93200 27.42400
H  -10.15600 18.94500 22.64400
H  -10.58900 19.90400 24.06600
H  -9.03900 18.86000 23.85100
H  -6.52200 25.25200 20.76200
H  -3.61000 25.67000 21.00400
H  -4.08400 23.76100 19.91600
H  -5.79200 23.57900 19.35600
H  -5.14300 22.70700 20.81400
H  -5.06500 27.96300 21.66100
H  -5.62200 27.32700 20.07800
H  -3.34200 28.93300 20.79000
H  -3.90400 28.44700 19.15400
H  -2.66400 27.52800 20.17000
H  -1.38700 28.50100 23.95700
H  -0.34500 28.25700 25.33500
H  -1.59400 29.44200 25.45500
H  -3.67000 27.90000 29.79900
H  -0.50000 25.93100 32.04800
H  -1.87300 25.20300 33.01000
H  -1.26900 26.78800 33.32200

