158

Mg 34.51000 2.91900 28.94000
C  32.60600 3.95800 31.83300
C  37.28500 2.75100 30.95700
C  36.40600 2.71700 26.28600
C  31.62700 3.88900 27.00500
N  34.82700 3.38900 31.14300
C  33.95200 3.72500 32.12300
C  34.62800 3.74200 33.53700
C  36.12700 3.66500 33.12000
C  36.07000 3.15800 31.63700
C  36.99100 4.94100 33.33900
C  34.06400 2.56200 34.38900
C  33.93400 2.85900 35.91000
H  34.55800 4.14000 36.44100
N  36.58600 2.52900 28.63400
C  37.54200 2.44900 29.60800
C  38.81900 2.19700 28.95400
C  38.54200 2.10500 27.57200
C  37.12400 2.40300 27.39000
C  40.06400 2.00300 29.74000
C  39.54700 1.69800 26.44200
O  39.17600 1.51400 25.30200
C  40.92100 1.63900 26.77400
N  34.10600 3.34200 26.97200
C  35.10400 3.14900 26.05700
C  34.61800 3.42000 24.67600
C  33.07100 3.42600 24.79800
C  32.87200 3.53300 26.34300
C  35.09800 4.84700 24.22800
C  32.46300 2.17400 24.15800
C  30.87200 2.13300 23.96200
N  32.45100 3.68500 29.33800
C  31.43000 3.90700 28.40000
C  30.21900 4.26000 29.14700
C  30.64100 4.27400 30.50200
C  32.01000 3.99700 30.54900
C  28.86600 4.52000 28.71400
C  30.18100 4.51600 31.81600
O  29.09800 4.81300 32.23000
C  31.50200 4.21100 32.72400
C  31.73900 5.44400 33.47400
O  32.15800 6.49900 33.06300
O  31.25500 5.20900 34.79600
C  31.38700 6.31500 35.80800
H  38.23400 2.79300 31.49500
H  36.96600 2.60000 25.35500
H  30.88800 4.12300 26.23600
H  34.52200 4.72900 33.98700
H  36.38800 2.85700 33.80300
H  37.56100 5.20100 32.44700
H  37.64500 4.73800 34.18700
H  36.46400 5.81600 33.71900
H  34.63900 1.65300 34.21400
H  33.06200 2.22100 34.13100
H  34.31400 2.05000 36.53500
H  32.86800 2.89200 36.13600
H  40.57100 1.14000 29.30700
H  39.86600 1.59900 30.73300
H  40.64000 2.92800 29.74000
H  41.30200 2.53000 27.27200
H  41.35600 1.58100 25.77600
H  41.08400 0.68300 27.27100
H  34.95400 2.56300 24.09100
H  32.68200 4.33100 24.33100
H  35.22400 4.89100 23.14600
H  36.04400 5.08000 24.71500
H  34.45100 5.68900 24.47200
H  32.65800 1.37900 24.87800
H  32.95000 1.95600 23.20700
H  30.48500 2.24700 22.94900
H  30.38100 2.95200 24.48600
H  30.56400 1.17100 24.37300
H  28.17300 3.96000 29.34100
H  28.70600 4.25500 27.66800
H  28.79800 5.59700 28.86600
H  31.24000 3.33500 33.31700
H  32.10800 7.06400 35.47900
H  31.73600 5.96200 36.77800
H  30.43800 6.85100 35.80000
Mg -2.00200 33.77200 26.33300
C  -3.48900 32.25700 28.94000
C  -0.30300 35.78900 28.50600
C  -0.41800 35.15600 23.72300
C  -3.83800 31.84500 24.14100
N  -2.06400 34.05200 28.44400
C  -2.58500 33.28700 29.31900
C  -2.35400 33.62500 30.82400
C  -1.49000 34.92000 30.60300
C  -1.29400 34.96100 29.07000
C  -2.16100 36.24600 31.05800
C  -1.75900 32.44600 31.60900
C  -2.43700 32.12900 32.98500
H  -1.61500 31.91300 34.22400
N  -0.60700 35.39200 26.12200
C  0.07500 36.01200 27.15900
C  1.01400 36.96900 26.58900
C  0.92700 36.86100 25.11300
C  -0.05100 35.78800 24.94300
C  1.92400 37.86700 27.36600
C  1.58200 37.70000 23.98200
O  1.63000 37.33600 22.77800
C  2.28600 39.03100 24.39600
N  -2.16500 33.62900 24.25300
C  -1.39700 34.23600 23.40400
C  -1.70500 33.79200 21.95100
C  -2.48500 32.50600 22.17900
C  -2.87300 32.66500 23.63700
C  -2.35100 34.97600 21.18100
C  -1.56000 31.27000 21.94500
C  -2.26100 30.19700 21.07800
N  -3.44100 32.34000 26.43300
C  -4.11900 31.63500 25.45200
C  -4.97800 30.63900 26.14000
C  -4.82400 30.95000 27.51500
C  -3.85700 31.87600 27.61900
C  -5.94400 29.69600 25.41000
C  -5.23800 30.57600 28.81800
O  -6.13900 29.85300 29.20000
C  -4.44200 31.43800 29.83900
C  -5.39800 32.42200 30.52600
O  -5.68500 33.57900 30.18500
O  -5.97300 31.79800 31.61000
C  -6.64100 32.69200 32.47300
H  0.30800 36.41100 29.16400
H  0.28200 35.36200 22.91100
H  -4.22000 31.09900 23.44200
H  -3.29600 33.85500 31.32100
H  -0.58300 34.88500 31.20700
H  -1.57500 36.68500 31.86500
H  -3.13700 36.04600 31.49900
H  -2.21900 36.97800 30.25200
H  -0.69800 32.58000 31.82200
H  -1.69800 31.60300 30.92000
H  -2.99900 31.23300 32.72200
H  -3.18000 32.85400 33.31800
H  1.63700 38.91800 27.34000
H  2.91300 37.69800 26.93900
H  1.98600 37.49300 28.38800
H  2.68800 39.45200 23.47400
H  3.08800 38.97300 25.13200
H  1.44600 39.63900 24.73200
H  -0.77100 33.68200 21.39900
H  -3.37200 32.40800 21.55200
H  -3.36700 34.77100 20.84300
H  -1.81200 35.23300 20.26900
H  -2.39600 35.85600 21.82300
H  -1.39300 30.78500 22.90700
H  -0.60800 31.51400 21.47300
H  -2.09100 29.22000 21.53100
H  -1.93400 30.02200 20.05300
H  -3.33100 30.34300 20.93400
H  -6.17800 30.27900 24.51900
H  -6.76900 29.50400 26.09600
H  -5.53700 28.69900 25.24300
H  -4.05500 30.62500 30.45300
H  -7.53900 33.18100 32.09500
H  -6.10400 33.49000 32.98500
H  -7.11500 32.01600 33.18500

