158

Mg 43.19800 41.44500 26.41400
C  42.29100 43.77600 28.85400
C  44.37200 39.43900 28.84800
C  44.07800 39.28200 23.98800
C  42.43900 43.82900 23.96600
N  43.39900 41.63900 28.66000
C  42.74100 42.56300 29.41400
C  42.82100 42.15600 30.91800
C  43.58500 40.82400 30.78500
C  43.87500 40.67000 29.34300
C  44.90300 40.59100 31.65100
C  41.40000 42.08800 31.57300
C  41.25100 42.89900 32.84900
H  40.71300 42.12100 34.10500
N  44.19500 39.62400 26.42700
C  44.58700 38.92900 27.55300
C  45.27400 37.67000 27.07500
C  45.12500 37.63400 25.65600
C  44.47300 38.86000 25.25200
C  45.76700 36.60500 28.02200
C  45.59900 36.52700 24.60900
O  45.68500 36.72100 23.38700
C  45.98100 35.20600 25.27300
N  43.42800 41.58800 24.26300
C  43.67700 40.50600 23.48500
C  43.42000 40.84600 21.98700
C  42.91100 42.33000 22.01300
C  42.87500 42.59700 23.54000
C  44.65900 40.67200 21.11100
C  41.56000 42.57500 21.37700
C  41.37500 43.97200 20.71700
N  42.37500 43.32400 26.39400
C  42.20300 44.17100 25.29700
C  41.57200 45.42100 25.74400
C  41.58400 45.34200 27.19500
C  42.17200 44.05200 27.51500
C  41.22800 46.52600 24.92600
C  41.45200 46.06600 28.45700
O  41.18000 47.24400 28.62700
C  41.77800 45.03200 29.60300
C  42.89500 45.59300 30.40000
O  44.09900 45.49100 30.15700
O  42.40800 46.06300 31.61000
C  43.42400 46.13600 32.71400
H  44.79000 38.76900 29.60300
H  44.05800 38.54700 23.18100
H  42.27000 44.52900 23.14500
H  43.50500 42.88600 31.35100
H  42.91400 39.98200 30.95100
H  44.80900 39.60800 32.11400
H  44.83600 41.22500 32.53500
H  45.80900 40.66000 31.04800
H  41.21700 41.03800 31.80300
H  40.78900 42.33200 30.70400
H  40.53200 43.64300 32.50700
H  42.19700 43.40800 33.03600
H  45.33200 35.60800 28.08100
H  45.87100 37.03000 29.02100
H  46.76800 36.34800 27.67500
H  45.23700 34.94100 26.02300
H  46.97200 35.38700 25.68800
H  46.01000 34.47900 24.46100
H  42.59800 40.25000 21.59000
H  43.61300 43.08200 21.65200
H  44.65400 41.54900 20.46500
H  44.50500 39.71600 20.60900
H  45.55200 40.67600 21.73600
H  40.77500 42.54300 22.13200
H  41.41900 41.79300 20.63100
H  40.64400 44.45300 21.36800
H  40.92500 43.79400 19.74100
H  42.33300 44.49100 20.69000
H  40.31500 46.94900 25.34300
H  40.94100 46.13900 23.94800
H  42.02700 47.25200 24.77200
H  40.84200 44.75800 30.09100
H  44.12200 45.30100 32.66300
H  43.02000 46.04000 33.72200
H  43.91500 47.10400 32.82200
Mg 30.18700 58.15900 39.55700
C  27.29100 56.38900 38.44500
C  32.07300 55.64100 38.25400
C  33.02800 60.17300 39.35100
C  28.23400 60.90600 40.13200
N  29.63700 56.22600 38.48200
C  28.45100 55.66500 38.22200
C  28.53700 54.24700 37.72500
C  30.09000 54.00700 37.88900
C  30.66600 55.41900 38.19900
C  30.57900 52.96300 38.96300
C  28.02900 54.15900 36.22700
C  28.32900 55.35800 35.24300
H  28.12900 55.16100 33.75200
N  32.25700 57.89300 39.03600
C  32.81400 56.77300 38.53800
C  34.24100 56.85400 38.52100
C  34.52000 58.23400 38.88400
C  33.21300 58.84900 39.09200
C  35.21200 55.72600 38.14400
C  35.90500 58.80900 38.94400
O  36.89000 58.09400 38.67200
C  36.23600 60.22400 39.21500
N  30.55600 60.26700 39.44200
C  31.77900 60.90400 39.50800
C  31.71500 62.38000 39.78600
C  30.20100 62.49500 40.32500
C  29.63800 61.13000 39.95900
C  32.79800 63.05700 40.80700
C  29.38300 63.66800 39.70600
C  28.71500 64.68600 40.50000
N  28.19400 58.62500 39.41400
C  27.49600 59.74900 39.69300
C  26.06900 59.54500 39.63400
C  25.90100 58.23300 39.10100
C  27.26100 57.73100 38.90300
C  25.04800 60.50500 40.11300
C  24.97000 57.24000 38.73100
O  23.73400 57.37100 38.78500
C  25.86800 55.96500 38.24800
C  25.51500 54.79300 39.08400
O  25.59700 54.78200 40.28900
O  24.90000 53.83600 38.26300
C  24.27800 52.76600 39.09800
H  32.57900 54.72500 37.94300
H  33.85600 60.85000 39.57200
H  27.56600 61.69600 40.48200
H  27.94200 53.61100 38.38000
H  30.47400 53.70400 36.91500
H  30.98800 52.06200 38.50500
H  29.64700 52.60800 39.40300
H  31.26600 53.43900 39.66200
H  26.97400 53.94000 36.06000
H  28.62900 53.30900 35.90100
H  29.40200 55.27400 35.41800
H  27.95500 56.25800 35.73000
H  35.93300 55.94100 37.35600
H  34.75500 54.80200 37.79000
H  35.70700 55.44500 39.07300
H  37.31200 60.32100 39.07600
H  35.91700 60.50900 40.21800
H  35.87300 60.97800 38.51700
H  31.74200 62.93500 38.84800
H  30.26200 62.69000 41.39500
H  32.30600 63.52600 41.65900
H  33.44800 63.77000 40.30000
H  33.38500 62.27700 41.29100
H  28.50500 63.29800 39.17600
H  30.00700 64.30100 39.07500
H  29.25200 65.63100 40.58900
H  28.64100 64.24000 41.49200
H  27.70500 64.79500 40.10600
H  24.18900 59.86700 40.32300
H  24.73900 61.35100 39.50000
H  25.57300 60.95100 40.95900
H  25.87200 55.80800 37.16900
H  24.98900 52.33000 39.79900
H  23.96400 51.96700 38.42700
H  23.50600 53.10400 39.78900

