158

Mg -0.11400 7.33600 27.61500
C  0.67900 9.85700 30.10500
C  0.04900 5.11500 30.17900
C  -0.84900 5.03900 25.44000
C  0.42100 9.67400 25.15300
N  0.29800 7.56900 29.90000
C  0.55900 8.62600 30.69700
C  0.87600 8.26300 32.11200
C  0.97400 6.72100 32.08300
C  0.46200 6.42900 30.56000
C  2.37800 6.14700 32.35700
C  -0.13100 8.84400 33.21500
C  0.44000 8.73500 34.65000
H  -0.34100 7.89900 35.58600
N  -0.42200 5.31300 27.82700
C  -0.39300 4.60100 28.97600
C  -0.77500 3.24800 28.71400
C  -0.79500 3.16500 27.32100
C  -0.76500 4.54000 26.80100
C  -0.96000 2.17100 29.81000
C  -1.00300 1.98200 26.43400
O  -0.98700 1.97000 25.22200
C  -1.40700 0.63600 27.10000
N  -0.07000 7.25700 25.55500
C  -0.44400 6.22200 24.84600
C  -0.63400 6.54800 23.30100
C  0.15800 7.88500 23.27200
C  0.16400 8.31100 24.73500
C  -0.07000 5.43800 22.36000
C  -0.46100 8.89700 22.20300
C  -1.79000 9.57400 22.39100
N  0.50700 9.34900 27.58300
C  0.61900 10.19400 26.45400
C  0.86000 11.50700 26.90900
C  0.92400 11.48300 28.31100
C  0.68300 10.16000 28.68800
C  1.09500 12.67800 26.03800
C  1.12200 12.29100 29.51600
O  1.28400 13.48200 29.72200
C  1.03200 11.28000 30.66500
C  2.33700 11.26300 31.42700
O  3.28000 10.54500 31.23200
O  2.24600 12.13800 32.42500
C  3.30600 12.06400 33.37700
H  0.17800 4.41900 31.01100
H  -1.22900 4.29000 24.74300
H  0.68000 10.42600 24.40500
H  1.77600 8.76700 32.46600
H  0.25400 6.20900 32.72100
H  3.20800 6.84800 32.26600
H  2.60800 5.37800 31.62000
H  2.48200 5.94900 33.42400
H  -1.08900 8.32900 33.14600
H  -0.29600 9.90200 33.01600
H  0.53900 9.74200 35.05700
H  1.43700 8.29700 34.64000
H  -0.09800 1.55300 30.06000
H  -1.81400 1.59900 29.44700
H  -1.28600 2.71000 30.69900
H  -0.73800 0.44700 27.93900
H  -1.39500 -0.13800 26.33300
H  -2.35600 0.81300 27.60700
H  -1.69700 6.70400 23.11500
H  1.21700 7.66400 23.14100
H  0.57500 5.91800 21.62300
H  -0.94100 4.96000 21.91100
H  0.44200 4.64400 22.90400
H  -0.43100 8.51100 21.18400
H  0.35500 9.61900 22.23900
H  -2.41600 9.45500 21.50700
H  -1.78400 10.63700 22.63000
H  -2.37300 8.97600 23.09200
H  1.20900 13.62100 26.57200
H  0.17400 12.67700 25.45400
H  1.98900 12.52100 25.43600
H  0.16400 11.71500 31.16100
H  3.51400 13.09400 33.66600
H  4.26300 11.59900 33.13900
H  2.93500 11.57600 34.27800
Mg 36.92600 49.29400 25.44200
C  37.01200 47.10500 28.25700
C  34.87100 51.32000 27.40100
C  36.06900 50.91000 22.67100
C  38.15000 46.61100 23.48100
N  36.13700 49.18400 27.60400
C  36.43200 48.33000 28.62400
C  36.03300 48.74800 30.02100
C  35.07300 49.91100 29.61700
C  35.37100 50.20400 28.15200
C  33.54300 49.76400 30.04000
C  37.35300 49.16200 30.63500
C  37.63200 48.63000 32.01900
H  36.38600 48.51200 32.93200
N  35.83200 50.96100 25.14400
C  35.16600 51.67600 26.06500
C  34.77600 53.02100 25.49300
C  35.05400 52.92500 24.07100
C  35.67800 51.55000 23.90800
C  34.42400 54.23200 26.38300
C  34.84100 53.88900 23.00300
O  35.04500 53.54600 21.84700
C  34.45900 55.31600 23.27000
N  37.17100 48.80500 23.44700
C  36.68200 49.67000 22.45900
C  36.96800 49.17700 21.04600
C  37.83700 47.88600 21.36600
C  37.69100 47.71800 22.80900
C  35.75400 48.99800 20.13700
C  39.34200 48.06100 20.89900
C  40.44700 48.60600 21.84500
N  37.52300 47.30800 25.74800
C  38.09400 46.41500 24.87700
C  38.35900 45.18700 25.60000
C  38.04000 45.48800 26.96700
C  37.47200 46.67500 26.98300
C  38.68500 43.86200 25.03300
C  37.94700 44.87400 28.25500
O  38.16300 43.73200 28.55900
C  37.51700 45.99800 29.20300
C  36.41300 45.39400 30.04300
O  35.26200 45.28800 29.67800
O  36.89400 45.08100 31.30200
C  35.89100 44.78400 32.32000
H  34.24600 51.96400 28.02300
H  35.88500 51.42100 21.72300
H  38.73500 45.87000 22.93200
H  35.45600 47.99400 30.55600
H  35.39200 50.80600 30.15200
H  32.87400 49.78000 29.17900
H  33.39900 50.72200 30.54000
H  33.29200 48.94600 30.71400
H  37.49000 50.23900 30.73400
H  38.17700 48.81000 30.01400
H  38.19000 49.38200 32.57700
H  38.31000 47.77900 32.07900
H  33.82300 54.97300 25.85500
H  35.27900 54.72900 26.84100
H  33.79700 53.93000 27.22200
H  35.18300 55.74700 23.96200
H  33.44400 55.32800 23.66800
H  34.47600 55.81500 22.30100
H  37.57000 49.96200 20.58900
H  37.56100 47.00500 20.78800
H  35.83400 48.19400 19.40600
H  35.51600 49.90500 19.58100
H  34.86600 48.80100 20.73800
H  39.38100 48.61400 19.96100
H  39.70800 47.06900 20.63600
H  39.96300 48.96800 22.75200
H  41.08000 49.33900 21.34400
H  40.96600 47.66400 22.02200
H  39.07300 43.22900 25.83100
H  39.50600 43.92400 24.31900
H  37.85800 43.41200 24.48300
H  38.38900 46.38400 29.73200
H  35.54500 43.75400 32.24500
H  34.97800 45.37400 32.24300
H  36.36100 45.12500 33.24300

