158

Mg 16.48300 -1.21000 27.90800
C  15.55500 1.14000 30.53900
C  18.23100 -2.95000 30.17500
C  17.64100 -3.03800 25.34300
C  15.12400 1.07900 25.60500
N  16.96500 -0.85400 30.02800
C  16.42100 0.08000 30.93300
C  16.89100 -0.18800 32.34900
C  17.76000 -1.45700 32.18100
C  17.73800 -1.75500 30.65200
C  19.27900 -1.12700 32.59000
C  15.67700 -0.37700 33.36900
C  15.83100 0.33600 34.74100
H  17.30300 0.65700 35.24100
N  17.82500 -2.79900 27.78700
C  18.40100 -3.48400 28.81600
C  19.05200 -4.65300 28.28100
C  18.85400 -4.67400 26.90200
C  18.05600 -3.48900 26.63100
C  19.97800 -5.57200 29.11200
C  19.12400 -5.72300 25.82900
O  18.88500 -5.61900 24.61500
C  19.83300 -6.92900 26.28500
N  16.58300 -0.92800 25.72500
C  16.99100 -1.90800 24.90400
C  17.01100 -1.50000 23.47400
C  15.93000 -0.31400 23.52900
C  15.79100 -0.05000 25.05400
C  18.42200 -1.09800 22.97200
C  14.54300 -0.61300 22.82900
C  14.01000 0.57600 21.92600
N  15.44500 0.65800 27.96100
C  15.01000 1.47500 26.97300
C  14.30700 2.67300 27.54500
C  14.47700 2.51600 28.93700
C  15.23600 1.33800 29.15800
C  13.50200 3.70100 26.83100
C  14.07800 3.12200 30.21600
O  13.41300 4.10800 30.53200
C  14.74800 2.23200 31.31700
C  15.52100 2.99600 32.22300
O  16.71100 3.27000 32.09100
O  14.79200 3.47400 33.33200
C  15.59900 4.35600 34.20100
H  18.68200 -3.51300 30.99500
H  18.04400 -3.59100 24.49200
H  14.68700 1.74700 24.86000
H  17.51800 0.65800 32.63000
H  17.33300 -2.28700 32.74300
H  19.32900 -0.14100 33.05100
H  19.89900 -1.10200 31.69400
H  19.62900 -1.83600 33.34000
H  15.53400 -1.42700 33.62400
H  14.72600 -0.11300 32.90700
H  15.39700 -0.31600 35.50000
H  15.32400 1.29900 34.66900
H  20.77500 -5.91000 28.44900
H  19.42600 -6.48600 29.33100
H  20.43800 -5.08100 29.96900
H  19.35900 -7.44100 27.12300
H  20.84900 -6.54600 26.38300
H  19.93600 -7.68100 25.50300
H  16.62200 -2.41300 23.02300
H  16.41000 0.55900 23.08700
H  18.35000 -0.10800 22.52200
H  18.64000 -1.80700 22.17300
H  19.18400 -0.96800 23.74000
H  13.82200 -0.76900 23.63100
H  14.70500 -1.48500 22.19600
H  14.62600 1.47300 21.98700
H  13.04700 0.89300 22.32700
H  13.81300 0.10300 20.96400
H  14.08400 4.62300 26.86500
H  12.52100 3.75600 27.30100
H  13.11300 3.54800 25.82400
H  14.01300 1.67500 31.89900
H  14.95900 4.60500 35.04700
H  15.89700 5.27400 33.69300
H  16.45800 3.92500 34.71700
Mg 17.26400 50.72700 26.20700
C  18.91400 48.95800 28.73000
C  14.71100 51.33800 28.66600
C  15.36200 51.84500 23.80000
C  19.27000 49.03900 23.86100
N  16.83000 50.13100 28.49000
C  17.73100 49.52700 29.31400
C  17.26800 49.76700 30.76000
C  15.76100 50.16600 30.59500
C  15.76400 50.59900 29.12400
C  14.71300 49.05000 30.75600
C  18.11100 50.82400 31.53100
C  18.51700 50.46700 32.97500
H  17.55800 50.87200 34.14900
N  15.37500 51.60800 26.23700
C  14.49000 51.89500 27.35900
C  13.37200 52.65200 26.87300
C  13.56900 52.84700 25.48400
C  14.79000 52.06000 25.14400
C  12.26100 53.17400 27.79900
C  12.80900 53.70500 24.48900
O  13.16700 53.75500 23.32100
C  11.61400 54.55900 24.99900
N  17.26000 50.39800 24.06200
C  16.45700 51.12700 23.33100
C  16.78500 51.00600 21.82200
C  18.01800 50.08700 21.82000
C  18.20200 49.80400 23.30800
C  15.60600 50.48200 20.94500
C  19.34100 50.68000 21.29000
C  20.18100 49.63500 20.53000
N  18.80900 49.50400 26.27900
C  19.54100 48.90700 25.20800
C  20.67400 48.20800 25.74400
C  20.58200 48.32600 27.17800
C  19.30500 48.93900 27.41300
C  21.73700 47.48100 24.89800
C  21.15300 47.95800 28.46600
O  22.27000 47.42100 28.68700
C  20.18600 48.52600 29.54700
C  19.88000 47.46300 30.52300
O  18.97200 46.63400 30.46600
O  20.72600 47.55900 31.61200
C  20.27300 46.77000 32.83100
H  13.94200 51.53900 29.41500
H  14.81700 52.32100 22.98200
H  19.97100 48.56600 23.17000
H  17.36100 48.80100 31.25500
H  15.47000 51.02600 31.19700
H  14.77400 48.27500 29.99300
H  13.73700 49.51300 30.60600
H  14.69700 48.57800 31.73900
H  17.48100 51.67500 31.78800
H  18.91700 51.33200 31.00100
H  19.55000 50.76900 33.14900
H  18.67800 49.38900 32.95300
H  12.16000 54.24800 27.64500
H  12.41800 52.83000 28.82100
H  11.38000 52.68100 27.38700
H  10.99400 53.86800 25.57000
H  11.17500 55.08100 24.14900
H  12.03200 55.30800 25.67100
H  17.03500 52.00300 21.46000
H  17.68500 49.18700 21.30200
H  14.90200 49.90900 21.54900
H  16.03300 49.85900 20.15800
H  15.00500 51.31100 20.57200
H  19.99600 50.95500 22.11700
H  19.19000 51.50400 20.59200
H  20.90400 49.29300 21.27100
H  20.68300 50.07400 19.66800
H  19.59800 48.74800 20.28400
H  22.24400 48.00200 24.08600
H  21.36200 46.50900 24.58000
H  22.47300 47.10100 25.60700
H  20.66500 49.32200 30.11600
H  20.43300 45.75000 32.48100
H  19.21100 46.74000 33.07600
H  20.84400 46.98200 33.73500

