158

Mg 2.34600 -2.34300 45.16700
C  5.65900 -1.62000 44.57900
C  1.43900 -0.21200 42.65300
C  -0.86800 -3.68800 45.37500
C  3.49000 -5.22000 47.04400
N  3.47400 -1.12900 43.71200
C  4.81100 -0.83700 43.77500
C  5.24400 0.19300 42.74800
C  3.84200 0.80400 42.31900
C  2.83600 -0.29700 42.83300
C  3.47400 2.13200 43.08400
C  6.07400 -0.41300 41.59800
C  7.29000 0.39800 41.09200
H  7.48000 0.56500 39.58900
N  0.50500 -1.87700 44.23200
C  0.35400 -1.01400 43.18700
C  -1.11300 -0.85600 42.91700
C  -1.76800 -1.76000 43.83100
C  -0.69700 -2.51600 44.54400
C  -1.59100 0.01700 41.78300
C  -3.21900 -1.87700 43.93000
O  -3.97100 -1.20000 43.26400
C  -3.88100 -2.65700 45.04000
N  1.42800 -4.10700 46.16500
C  0.12900 -4.42200 46.04600
C  -0.19100 -5.77400 46.79200
C  1.15500 -6.19800 47.33600
C  2.08900 -5.10300 46.88900
C  -1.36600 -5.72300 47.87500
C  1.50700 -7.64900 46.90000
C  2.62800 -8.44400 47.66900
N  4.20400 -3.20200 45.83600
C  4.52600 -4.35600 46.61800
C  5.95700 -4.41400 46.75600
C  6.40500 -3.28000 46.08700
C  5.29300 -2.64000 45.45500
C  6.68700 -5.49300 47.61600
C  7.58700 -2.54100 45.71000
O  8.76300 -2.75600 46.03100
C  7.13200 -1.42600 44.73200
C  7.44600 -0.14900 45.41300
O  6.88400 0.32700 46.35700
O  8.45300 0.47800 44.71400
C  8.56600 1.91200 45.21100
H  1.27800 0.47400 41.81900
H  -1.82000 -4.21400 45.28200
H  3.78100 -6.16500 47.50700
H  5.81700 0.96700 43.26000
H  3.70400 0.86000 41.23900
H  2.52100 2.09700 43.61300
H  3.37800 2.86800 42.28500
H  4.19800 2.36000 43.86600
H  5.37700 -0.50900 40.76600
H  6.41400 -1.41600 41.85800
H  8.20800 -0.03500 41.49100
H  7.25300 1.35900 41.60400
H  -1.91800 -0.59700 40.94400
H  -0.75400 0.64800 41.48400
H  -2.41200 0.63200 42.15200
H  -3.82400 -3.69700 44.72100
H  -4.92100 -2.33500 45.10900
H  -3.31700 -2.47200 45.95400
H  -0.50800 -6.53700 46.08200
H  1.01000 -6.23000 48.41500
H  -1.83000 -4.74900 47.71900
H  -0.92000 -5.79000 48.86700
H  -2.13900 -6.46800 47.69100
H  1.82200 -7.65500 45.85700
H  0.66000 -8.33300 46.95900
H  2.93900 -7.85800 48.53300
H  3.50000 -8.61300 47.03800
H  2.17300 -9.40100 47.92800
H  7.74700 -5.47400 47.36000
H  6.22900 -6.43200 47.30400
H  6.50700 -5.14900 48.63400
H  7.62000 -1.48700 43.76000
H  9.20900 2.43100 44.50000
H  9.06300 1.93400 46.18100
H  7.64400 2.49200 45.21900
Mg 8.27500 2.37600 28.08100
C  9.68300 1.03500 30.90200
C  6.58400 4.61500 30.09700
C  6.46800 3.34600 25.31100
C  9.69100 -0.19700 26.14300
N  8.01000 2.65500 30.22900
C  8.92600 2.13500 31.13100
C  8.78000 2.78900 32.52300
C  7.62900 3.78700 32.26100
C  7.38000 3.67200 30.72600
C  6.31200 3.51000 33.05500
C  10.09600 3.41900 33.01600
C  10.57000 3.00500 34.45800
H  10.76900 4.11700 35.57900
N  6.66700 3.74600 27.76300
C  6.16600 4.59000 28.73600
C  5.14600 5.38900 28.15200
C  5.08200 5.06500 26.72400
C  6.09600 4.00100 26.52000
C  4.23600 6.26800 28.96800
C  4.07400 5.64800 25.63700
O  4.14100 5.24900 24.50600
C  3.01200 6.63000 25.97800
N  8.19200 1.74500 26.03500
C  7.42400 2.27500 25.08900
C  7.65100 1.72500 23.71000
C  8.80500 0.70400 24.01400
C  8.92300 0.76300 25.50000
C  6.51200 1.10400 22.99600
C  10.21200 1.02700 23.20000
C  10.82500 -0.00000 22.23400
N  9.45900 0.76900 28.35200
C  9.99100 -0.18800 27.51100
C  10.81700 -1.13400 28.28000
C  10.66000 -0.71300 29.64700
C  9.88200 0.51200 29.61200
C  11.66000 -2.25000 27.79800
C  11.02800 -1.01000 31.01100
O  11.78700 -1.92200 31.42800
C  10.41100 0.15700 31.87000
C  9.54500 -0.42200 32.99500
O  8.33400 -0.46300 32.97700
O  10.40900 -0.76700 34.06700
C  9.75800 -1.04200 35.28000
H  6.11100 5.22500 30.87000
H  5.81200 3.50300 24.45200
H  9.99000 -0.98900 25.45300
H  8.45000 2.07400 33.27700
H  7.83400 4.82000 32.54200
H  5.38000 3.72900 32.53300
H  6.32900 4.08100 33.98300
H  6.30700 2.44100 33.26600
H  10.02200 4.50200 32.91000
H  10.96400 3.12100 32.42800
H  11.60200 2.68000 34.33100
H  10.12800 2.08500 34.84100
H  3.25400 5.81300 28.83900
H  4.18000 7.25000 28.49700
H  4.46900 6.32000 30.03100
H  3.46600 7.45100 26.53200
H  2.31000 6.12600 26.64300
H  2.65400 7.14200 25.08500
H  8.00600 2.49400 23.02400
H  8.37400 -0.28900 23.89000
H  5.65300 1.25200 23.65100
H  6.64700 0.04800 22.76300
H  6.46700 1.62700 22.04100
H  10.93800 1.30700 23.96300
H  10.11000 1.92800 22.59600
H  11.90300 -0.04600 22.38600
H  10.57000 0.31700 21.22300
H  10.34300 -0.96000 22.42100
H  11.87500 -2.12400 26.73700
H  11.16800 -3.20700 27.97200
H  12.59100 -2.23300 28.36500
H  11.20500 0.78600 32.27400
H  8.99600 -1.79700 35.08500
H  9.36400 -0.08100 35.61200
H  10.44600 -1.43200 36.03000

