158

Mg 35.24700 0.44800 29.43300
C  33.05900 1.52200 31.68900
C  37.79300 0.62400 31.83800
C  37.71200 -0.09600 27.03300
C  32.88600 0.70500 26.90100
N  35.46000 1.06400 31.48100
C  34.35700 1.50100 32.19900
C  34.72400 1.68600 33.73800
C  36.34500 1.63900 33.65000
C  36.56200 1.04000 32.30300
C  37.10900 2.99200 33.88400
C  34.11400 0.62700 34.69900
C  33.97300 1.04900 36.10200
H  35.05900 2.03000 36.74500
N  37.39600 0.09300 29.43000
C  38.19500 0.13900 30.57200
C  39.55100 -0.26700 30.21700
C  39.54800 -0.44900 28.79600
C  38.18800 -0.07200 28.35600
C  40.73800 -0.40600 31.18000
C  40.79900 -0.80800 27.86200
O  40.83000 -0.77700 26.63000
C  42.05000 -1.21500 28.49800
N  35.28000 0.31700 27.23900
C  36.40100 0.06900 26.50300
C  36.09700 0.06000 25.01900
C  34.51300 0.17500 24.91500
C  34.16600 0.43400 26.42000
C  36.80100 1.39400 24.44400
C  33.79200 -1.15500 24.58400
C  32.40700 -1.02000 23.87600
N  33.29600 0.97100 29.25100
C  32.41400 0.96500 28.18500
C  31.05700 1.18800 28.64900
C  31.25400 1.52500 30.04000
C  32.67200 1.33400 30.33600
C  29.77900 1.22800 27.79200
C  30.69200 1.94400 31.29900
O  29.50400 2.14700 31.61100
C  31.79100 1.86600 32.38800
C  31.77600 3.24400 33.02800
O  31.62700 4.34500 32.53200
O  31.93700 3.14000 34.36500
C  31.97700 4.39100 35.19400
H  38.58600 0.62400 32.58800
H  38.41100 -0.25100 26.20900
H  32.25600 0.81300 26.01600
H  34.46200 2.71900 33.96600
H  36.78800 0.95900 34.37700
H  37.93300 2.81300 34.57500
H  36.42900 3.75500 34.26300
H  37.62400 3.35600 32.99500
H  34.68200 -0.29700 34.59300
H  33.17700 0.26900 34.27300
H  34.10700 0.11100 36.64100
H  32.96200 1.44200 36.20600
H  41.47300 0.38400 31.02500
H  41.14500 -1.39600 30.97000
H  40.44300 -0.48900 32.22600
H  41.80300 -1.93800 29.27600
H  42.27900 -0.38000 29.16000
H  42.84500 -1.54500 27.82900
H  36.50400 -0.88400 24.65600
H  34.22600 0.94900 24.20300
H  37.51700 1.84500 25.13000
H  36.07500 2.16500 24.18600
H  37.33400 1.11400 23.53500
H  33.59100 -1.78200 25.45300
H  34.52800 -1.73800 24.03100
H  31.62900 -1.54700 24.42800
H  32.67200 -1.46800 22.91800
H  32.13900 0.03700 23.85700
H  30.04400 0.62800 26.92200
H  29.29400 2.19000 27.62600
H  28.97500 0.70900 28.31300
H  31.42900 1.04400 33.00600
H  30.98600 4.84100 35.12500
H  32.74000 5.04500 34.77400
H  32.27400 4.29100 36.23800
Mg 35.92700 49.20100 24.82900
C  36.01000 47.52200 28.04000
C  34.53300 51.87500 26.47600
C  35.62100 50.51900 21.85600
C  36.67800 46.03200 23.33400
N  35.49600 49.68300 27.07200
C  35.59800 48.85500 28.19000
C  35.23900 49.62700 29.44100
C  34.86900 51.07100 28.92100
C  34.89100 50.81400 27.38100
C  33.49900 51.58100 29.49800
C  36.42000 49.71300 30.46800
C  36.10100 49.02300 31.81600
H  35.73700 49.91700 32.97100
N  35.32100 51.05900 24.23200
C  34.76800 51.97100 25.05200
C  34.56700 53.12300 24.28500
C  34.77800 52.81700 22.85800
C  35.26100 51.40500 22.92200
C  34.05800 54.44300 24.89400
C  34.48200 53.68700 21.63300
O  34.86600 53.29100 20.50000
C  33.73400 54.97500 21.66500
N  35.96100 48.32300 22.84200
C  36.00900 49.13700 21.81600
C  36.41200 48.49500 20.47700
C  36.76200 47.07700 21.01600
C  36.49400 47.12200 22.52800
C  35.28600 48.53200 19.40200
C  38.15900 46.61200 20.74100
C  39.35800 46.82800 21.72700
N  36.08200 47.10600 25.52000
C  36.55700 45.99200 24.75600
C  36.86400 44.97200 25.74900
C  36.60400 45.49400 26.99000
C  36.20800 46.83900 26.81900
C  37.29800 43.56900 25.38600
C  36.68200 45.15000 28.36400
O  37.04600 44.09900 28.92600
C  36.28300 46.42200 29.13800
C  35.02900 46.11400 29.86900
O  33.90600 46.40900 29.48100
O  35.34100 45.52900 31.08200
C  34.17900 45.05900 31.92600
H  34.10900 52.79600 26.88100
H  35.47900 51.00200 20.88700
H  37.18400 45.17400 22.88600
H  34.43600 49.17800 30.02700
H  35.59700 51.88000 28.97500
H  33.10900 51.03300 30.35600
H  32.72000 51.44800 28.74700
H  33.64100 52.59900 29.85800
H  36.67600 50.76700 30.57400
H  37.30400 49.15900 30.15100
H  36.97700 48.48200 32.17400
H  35.36000 48.22900 31.73100
H  32.97300 54.42300 25.00000
H  34.35200 55.28500 24.26800
H  34.57500 54.66400 25.82800
H  33.33100 55.28400 20.70100
H  34.36400 55.70700 22.17000
H  32.85400 54.74300 22.26600
H  37.24200 49.15000 20.21300
H  36.04500 46.32600 20.68500
H  35.15000 47.55000 18.94800
H  35.49600 49.10500 18.49900
H  34.36800 48.84300 19.90000
H  38.37200 47.09300 19.78600
H  38.16100 45.54400 20.52600
H  39.55100 45.82000 22.09600
H  39.32300 47.47600 22.60300
H  40.21300 47.19200 21.15900
H  36.83600 42.85400 26.06700
H  38.34200 43.26400 25.30700
H  36.89500 43.38400 24.39100
H  36.98100 46.75300 29.90700
H  33.47300 44.65400 31.20100
H  33.79200 45.69600 32.72100
H  34.57500 44.17500 32.42600

