158

Mg -2.44200 16.94100 25.73900
C  -2.68000 14.82200 28.63500
C  -3.30300 19.55500 27.80100
C  -2.51100 18.89300 22.98500
C  -1.85700 14.06400 23.72800
N  -3.20900 17.08600 27.94800
C  -3.07900 16.17400 28.94600
C  -3.33100 16.82400 30.37300
C  -3.60700 18.34100 30.00500
C  -3.34800 18.37500 28.48600
C  -5.11400 18.76100 30.23100
C  -2.39600 16.49300 31.49200
C  -2.51600 17.26900 32.77100
H  -2.19400 16.43500 34.02600
N  -2.83400 18.95900 25.48700
C  -3.07100 19.86300 26.43900
C  -3.17400 21.10500 25.87500
C  -3.00000 21.05400 24.43600
C  -2.79600 19.57900 24.26900
C  -3.45300 22.42700 26.73900
C  -2.98000 22.15300 23.34000
O  -2.83400 21.96200 22.11500
C  -3.20100 23.65500 23.68600
N  -2.29700 16.53600 23.61900
C  -2.34300 17.56100 22.68500
C  -2.05300 17.02600 21.26700
C  -1.79400 15.45800 21.50800
C  -1.91600 15.36800 23.06100
C  -3.14400 17.33300 20.19900
C  -0.46700 14.91800 21.03600
C  0.76900 15.24900 21.93700
N  -2.35800 14.93700 26.06600
C  -2.08900 13.86600 25.11300
C  -2.00500 12.65600 25.80700
C  -2.09200 13.05000 27.20900
C  -2.40000 14.38600 27.34500
C  -1.69200 11.33400 25.34200
C  -1.97600 12.45700 28.53500
O  -1.65400 11.34900 28.89900
C  -2.39600 13.62300 29.52300
C  -1.33500 13.72500 30.49600
O  -0.28000 14.29300 30.23400
O  -1.60800 13.01300 31.59500
C  -0.63600 13.10300 32.73500
H  -3.38000 20.47400 28.38600
H  -2.38500 19.57900 22.14500
H  -1.61400 13.15500 23.17500
H  -4.29100 16.38600 30.64400
H  -2.85800 18.96200 30.49600
H  -5.74100 19.10300 29.40700
H  -5.06500 19.53800 30.99400
H  -5.70800 17.97300 30.69500
H  -1.41900 16.61200 31.02400
H  -2.59000 15.44400 31.71500
H  -3.48300 17.71500 33.00600
H  -1.79700 18.08800 32.74300
H  -4.15400 23.03900 26.17200
H  -2.52500 22.97600 26.89800
H  -3.84200 22.25600 27.74300
H  -2.81200 24.36400 22.95500
H  -2.73700 23.91800 24.63600
H  -4.26800 23.87600 23.71200
H  -1.10000 17.45200 20.95200
H  -2.65100 14.84400 21.23200
H  -3.92700 18.05400 20.43400
H  -3.66900 16.45000 19.83600
H  -2.63900 17.79200 19.34800
H  -0.32200 15.28200 20.01900
H  -0.49300 13.82900 21.04500
H  1.23600 14.35300 22.34800
H  0.43800 15.82400 22.80200
H  1.55900 15.76900 21.39500
H  -1.22600 10.79900 26.16900
H  -1.07900 11.28900 24.44200
H  -2.63600 10.81100 25.18900
H  -3.33200 13.37400 30.02200
H  0.38500 12.89100 32.42000
H  -0.93200 12.41800 33.52900
H  -0.67900 14.15200 33.03000
Mg 24.65400 -7.91000 48.04800
C  27.19600 -6.01500 46.98600
C  22.70100 -6.65300 45.47600
C  22.50600 -10.33200 48.62300
C  27.07600 -9.78900 50.13700
N  24.99400 -6.58100 46.31000
C  26.05800 -5.70400 46.29400
C  25.77600 -4.67500 45.16200
C  24.25600 -4.73000 44.96600
C  23.90900 -6.04600 45.66200
C  23.48000 -3.46000 45.28300
C  26.53300 -4.93500 43.79800
C  26.88300 -3.66600 42.99200
H  26.18900 -3.50200 41.64200
N  22.82200 -8.35600 47.29400
C  22.11700 -7.69600 46.21400
C  20.86100 -8.31300 46.04400
C  20.85900 -9.51600 46.80700
C  22.08600 -9.44000 47.63100
C  19.82100 -7.60600 45.15400
C  19.83000 -10.49100 46.71600
O  18.79500 -10.32600 46.08600
C  19.94200 -11.82800 47.46200
N  24.79300 -9.87800 49.30300
C  23.63500 -10.60700 49.39800
C  23.91600 -11.86400 50.20100
C  25.34500 -11.67600 50.81500
C  25.76500 -10.37100 50.07200
C  22.80700 -12.39500 51.18900
C  26.41000 -12.78900 50.56200
C  27.31600 -12.94400 51.77100
N  26.73200 -7.94000 48.54400
C  27.54900 -8.75600 49.29900
C  28.89300 -8.21100 49.30900
C  28.75600 -7.12000 48.41200
C  27.44800 -7.04300 47.92500
C  30.08200 -8.80600 50.06300
C  29.55000 -6.01400 47.81600
O  30.74100 -5.83800 47.83600
C  28.51200 -5.22200 46.84200
C  28.27700 -3.88900 47.40100
O  27.35200 -3.50400 48.16000
O  29.26100 -3.02200 46.82200
C  29.17000 -1.67300 47.13000
H  22.03000 -6.24400 44.71800
H  21.85400 -11.18800 48.80600
H  27.79800 -10.04200 50.91600
H  25.95400 -3.73500 45.68400
H  24.10200 -4.83100 43.89200
H  24.16400 -2.80400 45.82000
H  22.63600 -3.77800 45.89400
H  23.11900 -2.89500 44.42200
H  25.97300 -5.60900 43.14900
H  27.46900 -5.43000 44.05400
H  27.96900 -3.57300 42.96100
H  26.41000 -2.86900 43.56600
H  19.82500 -6.56000 45.46200
H  18.80500 -7.89500 45.42400
H  19.95000 -7.72000 44.07800
H  20.83600 -12.34200 47.10900
H  19.01100 -12.35600 47.25600
H  19.95800 -11.71800 48.54700
H  23.94300 -12.66400 49.46100
H  25.22400 -11.53400 51.88900
H  22.08400 -11.61200 51.41700
H  23.20800 -12.67900 52.16200
H  22.27200 -13.25700 50.78900
H  26.96800 -12.45700 49.68600
H  25.92200 -13.73700 50.33200
H  26.58800 -12.78400 52.56600
H  28.13400 -12.24700 51.95400
H  27.65700 -13.97900 51.76500
H  29.77600 -8.74100 51.10700
H  30.93800 -8.15100 49.90100
H  30.22600 -9.86100 49.82900
H  28.99100 -5.25500 45.86400
H  30.16600 -1.24600 47.24700
H  28.65400 -1.44300 48.06200
H  28.78700 -1.07700 46.30200

