158

Mg 8.42500 3.05600 27.42200
C  9.34900 1.45500 30.29700
C  6.50000 5.15100 29.28400
C  7.00400 4.39300 24.59100
C  9.77200 0.50000 25.59800
N  8.02200 3.23600 29.54100
C  8.62700 2.59000 30.54000
C  8.18500 3.16500 31.94500
C  7.05100 4.11500 31.59200
C  7.15700 4.14600 30.04800
C  5.65200 3.79600 32.21600
C  9.36600 3.70100 32.86200
C  8.82600 4.43600 34.16500
H  9.74000 4.25400 35.40700
N  7.14500 4.70000 26.94400
C  6.48700 5.39300 27.90000
C  5.83700 6.46000 27.26100
C  6.03900 6.40800 25.86400
C  6.71400 5.12100 25.72500
C  4.95600 7.42400 28.02200
C  5.64900 7.40400 24.80500
O  5.74600 7.16600 23.62400
C  5.14700 8.81200 25.20200
N  8.27200 2.46800 25.38400
C  7.59500 3.13700 24.40200
C  7.90500 2.57600 22.98800
C  8.72500 1.25800 23.41300
C  8.97400 1.38900 24.92800
C  6.56900 2.28100 22.20500
C  10.04100 1.27300 22.59900
C  10.67400 -0.07000 22.16500
N  9.37700 1.37600 27.86200
C  9.90400 0.45000 27.00600
C  10.66300 -0.64000 27.75400
C  10.41300 -0.23900 29.13700
C  9.68300 0.95600 29.08500
C  11.36900 -1.81900 27.20800
C  10.59100 -0.55600 30.52300
O  11.21100 -1.54700 30.97200
C  9.81700 0.53700 31.38400
C  8.73600 -0.14100 32.12300
O  7.56800 -0.21000 31.74100
O  9.19900 -0.67000 33.30100
C  8.25100 -1.57400 33.98400
H  5.91200 5.86100 29.87100
H  6.61900 4.79100 23.65000
H  10.23500 -0.25700 24.96100
H  7.76300 2.29700 32.45000
H  7.36100 5.13400 31.82000
H  4.90900 3.54300 31.46000
H  5.23800 4.50300 32.93500
H  5.78300 3.01100 32.96100
H  9.97500 4.39300 32.27900
H  9.88400 2.79600 33.18000
H  7.86500 3.94300 34.30900
H  8.73700 5.49800 33.93900
H  5.50200 8.36500 28.09100
H  4.56000 7.06200 28.97100
H  4.09400 7.58900 27.37500
H  4.13000 8.80400 25.59400
H  5.08200 9.49000 24.35000
H  5.75900 9.19900 26.01700
H  8.49700 3.35900 22.51600
H  8.12800 0.37600 23.18300
H  6.36100 3.10000 21.51700
H  5.80500 1.99500 22.92900
H  6.76700 1.37200 21.63700
H  10.80300 1.78600 23.18400
H  10.00900 1.85000 21.67500
H  10.86700 -0.06900 21.09200
H  10.19900 -1.02200 22.40300
H  11.70600 -0.11200 22.51400
H  11.62400 -1.68500 26.15700
H  10.74600 -2.70700 27.31300
H  12.28300 -1.99900 27.77400
H  10.56000 1.05700 31.98900
H  8.17900 -2.45500 33.34500
H  7.22700 -1.20200 33.93300
H  8.58800 -1.95500 34.94800
Mg 24.67300 -6.87300 47.11700
C  27.54200 -4.73900 46.02800
C  22.97900 -5.34600 44.45800
C  22.62400 -9.36200 47.44500
C  27.22000 -8.65300 48.90000
N  25.25200 -5.26600 45.38000
C  26.41100 -4.60100 45.23500
C  26.22300 -3.52200 44.18500
C  24.71900 -3.49300 43.80800
C  24.24400 -4.79700 44.54400
C  23.96100 -2.12500 44.20700
C  27.16100 -3.86300 42.99100
C  28.16500 -2.65600 42.67000
H  27.82200 -1.91500 41.34900
N  22.90200 -7.21400 46.20800
C  22.33200 -6.45000 45.23300
C  21.06600 -7.06900 44.85000
C  20.97600 -8.27800 45.59200
C  22.21000 -8.32600 46.44400
C  20.09400 -6.51500 43.73900
C  19.84900 -9.30700 45.38400
O  18.82000 -9.08500 44.74800
C  20.00800 -10.61800 46.01900
N  24.91400 -8.80300 47.94200
C  23.91000 -9.65100 47.98200
C  24.22000 -10.87200 48.93300
C  25.68400 -10.59400 49.36800
C  25.96300 -9.29200 48.67100
C  23.07400 -11.13700 50.00000
C  26.72400 -11.70500 48.96900
C  27.68700 -12.15600 50.07700
N  26.82200 -6.68000 47.60100
C  27.65900 -7.44300 48.35300
C  29.01000 -6.90500 48.44300
C  28.96600 -5.78500 47.58700
C  27.65900 -5.77500 46.99200
C  30.15000 -7.48200 49.22600
C  29.74100 -4.64000 47.14900
O  30.83300 -4.19100 47.52500
C  28.73600 -3.83800 46.09100
C  28.41600 -2.47200 46.66800
O  27.89000 -2.20500 47.78100
O  28.90500 -1.49300 45.82100
C  28.56500 -0.13700 46.16800
H  22.37200 -4.70900 43.81200
H  21.88500 -10.11800 47.71800
H  27.83400 -9.30400 49.52600
H  26.46000 -2.53800 44.59100
H  24.56000 -3.60000 42.73500
H  23.37800 -1.68900 43.39600
H  24.65500 -1.31600 44.43600
H  23.25100 -2.33500 45.00700
H  26.60700 -4.10900 42.08500
H  27.69900 -4.78100 43.22700
H  29.22800 -2.85400 42.81000
H  27.91800 -1.88300 43.39700
H  19.08400 -6.33800 44.11000
H  19.99700 -7.08700 42.81700
H  20.44300 -5.56400 43.33500
H  19.73500 -10.36300 47.04300
H  20.98700 -11.03100 45.77400
H  19.24000 -11.29000 45.63700
H  24.20400 -11.64300 48.16300
H  25.60800 -10.36000 50.43000
H  22.44900 -10.27500 50.23500
H  23.56800 -11.63700 50.83300
H  22.42800 -11.82900 49.46000
H  27.40400 -11.23600 48.25800
H  26.28100 -12.54300 48.43200
H  27.66100 -13.24500 50.07000
H  27.30800 -11.86300 51.05600
H  28.68900 -11.72900 50.05200
H  30.81400 -6.72600 49.64500
H  30.88800 -8.03200 48.64200
H  29.85900 -8.10300 50.07400
H  29.24400 -3.72500 45.13400
H  27.91800 0.32000 45.42000
H  29.43100 0.51500 46.28300
H  28.11600 -0.05400 47.15800

