158

Mg 25.81100 0.23800 29.19200
C  27.59700 0.12300 32.24200
C  22.81900 0.24700 30.85900
C  24.22800 0.37500 26.23500
C  28.81500 -0.61800 27.58900
N  25.29700 0.20500 31.33700
C  26.22500 0.34700 32.39900
C  25.42900 0.51200 33.74800
C  23.97700 0.53500 33.22100
C  24.00500 0.33600 31.62100
C  23.02200 -0.51200 33.93100
C  25.92800 1.83100 34.46400
C  26.70200 1.68400 35.77900
H  26.12500 2.72300 36.74300
N  23.79000 0.20200 28.65300
C  22.68400 0.10700 29.46800
C  21.48600 0.19600 28.72400
C  21.87100 0.42100 27.34900
C  23.37000 0.29700 27.38000
C  20.05600 0.07700 29.34200
C  20.99400 0.73800 26.10100
O  21.50100 0.94400 24.99900
C  19.52500 0.76400 26.22500
N  26.46400 -0.10900 27.14800
C  25.65700 0.15500 26.14700
C  26.43700 0.24700 24.77600
C  27.87300 -0.01800 25.24600
C  27.74200 -0.27600 26.74800
C  25.93200 -0.74400 23.66800
C  28.94100 1.08300 24.90400
C  29.97200 0.58900 23.85600
N  27.75300 -0.19100 29.74800
C  28.86100 -0.55100 29.00800
C  30.08800 -0.74800 29.87700
C  29.62300 -0.46300 31.18300
C  28.23500 -0.15700 31.01300
C  31.32500 -1.31700 29.37900
C  30.03700 -0.34800 32.57500
O  31.11400 -0.46900 33.12900
C  28.69400 0.17400 33.34600
C  28.50900 -0.88500 34.38900
O  27.93900 -1.96500 34.21300
O  28.97600 -0.45600 35.59500
C  28.51700 -1.14500 36.82500
H  21.90400 0.43800 31.42300
H  23.73300 0.48900 25.26800
H  29.77200 -0.83100 27.10800
H  25.48000 -0.35600 34.40600
H  23.43000 1.47700 33.24700
H  22.73000 -1.32700 33.27000
H  22.12900 -0.04900 34.35100
H  23.28100 -1.07200 34.82900
H  24.99000 2.36400 34.61600
H  26.59800 2.29300 33.73900
H  27.70500 2.03400 35.53900
H  26.60300 0.64100 36.08000
H  20.04100 -0.01100 30.42800
H  19.37700 -0.58600 28.80300
H  19.52300 0.99500 29.09400
H  19.18800 0.65500 25.19500
H  19.23700 1.72400 26.65500
H  19.00400 -0.03700 26.75000
H  26.25000 1.22000 24.32200
H  28.29500 -0.95600 24.88400
H  25.25900 -1.35800 24.26500
H  26.71000 -1.37200 23.23400
H  25.40600 -0.17800 22.90000
H  29.55400 1.38700 25.75200
H  28.35700 1.90100 24.48300
H  29.81000 1.30400 23.05000
H  29.76200 -0.37000 23.38100
H  31.01500 0.60100 24.17200
H  31.69900 -0.66700 28.58800
H  31.09500 -2.32400 29.03200
H  32.04100 -1.28800 30.19900
H  28.87300 1.15200 33.79400
H  28.14300 -0.42200 37.54900
H  29.31300 -1.53600 37.45900
H  27.79700 -1.95700 36.72000
Mg 47.77100 15.16300 28.36800
C  45.86500 15.26400 31.34200
C  49.93600 17.35300 29.82100
C  49.32600 15.30800 25.47900
C  45.16500 13.19700 26.87500
N  47.89300 16.19300 30.42100
C  47.07000 16.06300 31.48200
C  47.68100 16.73500 32.70300
C  48.89500 17.51000 32.11600
C  48.87400 17.06500 30.67100
C  48.82500 19.01500 32.34600
C  47.88700 15.83900 33.86100
C  47.14900 16.08000 35.23500
H  47.02500 17.49000 35.76500
N  49.35000 16.16600 27.72300
C  50.12200 17.06300 28.43800
C  51.29000 17.43500 27.65100
C  51.18400 16.79600 26.39700
C  49.92000 16.01900 26.50500
C  52.34100 18.36300 28.14500
C  51.99800 16.99600 25.16100
O  51.81900 16.36500 24.12500
C  53.22600 17.86400 25.25000
N  47.32400 14.31700 26.46400
C  48.12600 14.50700 25.41500
C  47.59700 13.95700 24.10500
C  46.32300 13.26600 24.57000
C  46.27500 13.58300 26.06300
C  47.36200 15.12200 22.97800
C  46.18300 11.67400 24.28600
C  46.87600 10.66900 25.23100
N  45.98000 14.37800 28.95200
C  45.00700 13.60800 28.22800
C  43.85600 13.31000 29.05300
C  44.22100 13.96400 30.26700
C  45.46600 14.56600 30.14000
C  42.66300 12.42400 28.69300
C  43.70800 14.16300 31.62200
O  42.65800 13.65700 32.08300
C  44.82400 14.96300 32.44400
C  44.02100 16.13900 32.94700
O  43.82800 17.17400 32.33900
O  43.55100 15.89700 34.24000
C  42.75800 16.98000 34.85100
H  50.64500 18.07400 30.23200
H  49.92000 15.27600 24.56400
H  44.29500 12.64200 26.51800
H  46.86600 17.39300 33.00700
H  49.75000 17.01700 32.57900
H  48.10900 19.24800 33.13400
H  48.56800 19.61100 31.47100
H  49.77700 19.43400 32.67400
H  48.93100 15.82800 34.17300
H  47.51500 14.89300 33.46500
H  47.72800 15.37000 35.82600
H  46.09700 15.81300 35.13200
H  52.07200 19.40400 27.96200
H  53.36700 18.16100 27.83700
H  52.45500 18.36300 29.22900
H  53.17100 18.85000 25.71000
H  53.39300 18.06000 24.19100
H  54.05800 17.34900 25.72900
H  48.39000 13.26800 23.81500
H  45.45400 13.68000 24.05800
H  46.49600 14.85900 22.37000
H  48.21200 15.04500 22.30000
H  47.36300 16.10400 23.45100
H  46.49400 11.54000 23.25000
H  45.14600 11.36800 24.42800
H  47.39200 11.11800 26.07900
H  47.63900 10.10800 24.69100
H  46.19200 9.90300 25.59600
H  42.99900 11.56300 28.11600
H  42.05500 13.07500 28.06400
H  42.06100 12.03500 29.51500
H  45.11800 14.51200 33.39200
H  41.74300 16.67500 35.10700
H  42.60100 17.90000 34.28800
H  43.25300 17.31000 35.76400

