158

Mg 44.36600 4.31800 46.77800
C  42.15700 7.06500 46.62700
C  41.39200 2.23700 46.58400
C  46.26000 1.67500 46.47700
C  47.09100 6.45300 46.56600
N  42.14000 4.62000 46.40300
C  41.47900 5.83400 46.43800
C  39.95700 5.66000 46.29700
C  39.78900 4.14200 46.50900
C  41.18000 3.64100 46.50900
C  38.89800 3.80000 47.71500
C  39.52800 6.22700 44.85300
C  38.11100 6.74200 44.55600
H  37.62600 6.79900 43.11000
N  43.95100 2.28600 46.57600
C  42.71300 1.62300 46.56700
C  42.93000 0.23100 46.48800
C  44.35900 0.01200 46.51200
C  44.93600 1.37700 46.53600
C  41.72000 -0.81000 46.60200
C  45.09200 -1.37200 46.44300
O  44.35400 -2.32500 46.45100
C  46.56900 -1.54300 46.21900
N  46.44900 4.14400 46.53300
C  46.97100 2.91700 46.46700
C  48.54000 3.09100 46.45300
C  48.83200 4.63200 46.66800
C  47.42100 5.15500 46.61700
C  49.31900 2.09500 47.40700
C  49.94600 5.33300 45.75800
C  51.29700 4.55400 45.67300
N  44.58700 6.33500 46.69900
C  45.78800 7.07000 46.64600
C  45.47100 8.45600 46.73900
C  44.06700 8.52300 46.74800
C  43.56400 7.17200 46.72900
C  46.45700 9.63900 46.61500
C  42.95400 9.37800 46.84900
O  43.02300 10.58700 46.88500
C  41.70000 8.50100 46.78100
C  40.91700 8.64500 48.04800
O  40.81500 7.74400 48.86200
O  40.10300 9.80300 48.07000
C  39.02200 9.69000 49.06800
H  40.47000 1.65100 46.59200
H  46.99700 0.87000 46.48300
H  47.94600 7.12500 46.47100
H  39.39200 6.21500 47.04700
H  39.33600 3.67300 45.63600
H  38.12500 3.07600 47.45700
H  38.33000 4.67700 48.02500
H  39.47100 3.44900 48.57300
H  39.60600 5.33100 44.23800
H  40.25100 6.97400 44.52600
H  37.87200 7.69800 45.02200
H  37.44700 6.13400 45.17100
H  41.88300 -1.43900 47.47700
H  41.84900 -1.44100 45.72300
H  40.75900 -0.30000 46.53100
H  47.12000 -1.20300 47.09600
H  46.75100 -0.96100 45.31600
H  46.67400 -2.62500 46.14500
H  48.71100 2.77700 45.42400
H  49.25000 4.86600 47.64700
H  50.07100 2.64700 47.97000
H  49.79100 1.24500 46.91300
H  48.60000 1.87100 48.19400
H  50.07600 6.30500 46.23200
H  49.56200 5.55000 44.76100
H  51.34300 3.55400 46.10400
H  52.06900 5.20500 46.08400
H  51.50300 4.63400 44.60500
H  46.91400 9.64600 45.62600
H  47.34400 9.52300 47.23800
H  46.01500 10.62900 46.72900
H  41.11900 8.84800 45.92700
H  39.42500 9.63600 50.07900
H  38.33900 8.89800 48.75900
H  38.40800 10.58200 48.94500
Mg 54.55600 23.58400 44.75000
C  52.03200 25.66400 43.57200
C  52.96000 20.97800 42.84500
C  57.31500 21.61300 44.85800
C  56.32500 26.32100 45.58700
N  52.85100 23.43400 43.14100
C  51.93900 24.40500 42.88400
C  50.84500 23.98400 41.87400
C  51.05500 22.42700 41.84500
C  52.34200 22.20900 42.70600
C  49.82700 21.58500 42.36100
C  51.06600 24.85500 40.59100
C  51.22000 24.12000 39.26300
H  51.30200 24.84900 37.90600
N  55.03000 21.55500 44.16300
C  54.20400 20.69600 43.42200
C  54.87300 19.36200 43.39400
C  56.06400 19.48100 44.12400
C  56.18300 20.88000 44.50700
C  54.30400 18.34300 42.51200
C  57.04000 18.40800 44.28800
O  56.92700 17.32700 43.67600
C  58.22800 18.46000 45.23400
N  56.53300 23.94900 45.01500
C  57.51400 22.91700 45.11700
C  58.81200 23.56600 45.51200
C  58.58400 25.11000 45.66000
C  57.06600 25.11800 45.43300
C  59.48000 22.95800 46.75500
C  59.44500 26.04600 44.80400
C  60.06400 27.15500 45.63800
N  54.22400 25.62700 44.85500
C  54.97400 26.57000 45.41900
C  54.28400 27.82300 45.46100
C  53.05600 27.50600 44.79000
C  53.12400 26.19400 44.33600
C  54.72700 29.08500 46.10000
C  51.79300 28.01800 44.39300
O  51.37300 29.15400 44.55200
C  51.06600 26.84000 43.60200
C  50.62900 27.42300 42.35400
O  51.38700 27.90300 41.52300
O  49.25800 27.44200 42.27900
C  48.67500 28.09300 41.06100
H  52.46600 20.11500 42.39400
H  58.18800 20.98600 44.66700
H  56.95100 27.15500 45.91100
H  49.89200 24.31500 42.28800
H  51.24100 22.07000 40.83200
H  49.07700 21.63300 41.57100
H  49.45700 21.88300 43.34200
H  50.24800 20.58200 42.29400
H  52.00500 25.40600 40.63500
H  50.31100 25.63800 40.51900
H  50.52300 23.28700 39.17800
H  52.21500 23.67500 39.24000
H  54.11500 18.77400 41.52900
H  53.38300 17.96500 42.95600
H  54.81800 17.40000 42.32300
H  58.17100 19.20000 46.03200
H  58.89300 18.94800 44.52200
H  58.51300 17.47500 45.60500
H  59.57400 23.44600 44.74200
H  58.56700 25.41600 46.70600
H  59.31600 23.60300 47.61700
H  60.56600 23.04600 46.71400
H  59.04400 21.97700 46.94300
H  58.82600 26.46300 44.01000
H  60.24100 25.48500 44.31400
H  59.74400 28.13200 45.27600
H  61.14000 26.98200 45.62300
H  59.80000 27.07800 46.69200
H  55.81000 29.12000 45.98600
H  54.59900 29.15800 47.18000
H  54.35400 29.87300 45.44500
H  50.17200 26.51600 44.13500
H  49.08600 27.64700 40.15600
H  48.91100 29.15600 41.00500
H  47.58700 28.11000 41.12200

