158

Mg 47.57800 25.56100 28.14300
C  48.80100 27.65000 30.68200
C  46.90000 23.21500 30.49300
C  47.06200 23.44600 25.68000
C  49.24400 27.65500 25.74700
N  47.98600 25.39600 30.31900
C  48.27900 26.43900 31.18000
C  47.98600 26.06600 32.68900
C  47.53900 24.53000 32.59800
C  47.45100 24.34600 31.03900
C  48.60200 23.64600 33.28300
C  47.11200 27.12700 33.43300
C  46.24600 26.65700 34.60000
H  46.16300 27.61300 35.71400
N  46.96200 23.57000 28.07300
C  46.69800 22.76200 29.14500
C  46.11600 21.50000 28.67000
C  46.14900 21.55800 27.28500
C  46.71700 22.90600 26.90200
C  45.63700 20.50400 29.60500
C  45.59100 20.54900 26.33200
O  45.62800 20.75900 25.13200
C  45.03100 19.19100 26.93100
N  48.30800 25.48000 25.99000
C  47.76400 24.51900 25.21300
C  48.05600 24.73500 23.69900
C  48.68400 26.20400 23.73900
C  48.73600 26.50700 25.21700
C  48.96800 23.66100 23.04300
C  47.99700 27.28500 22.88900
C  48.68500 27.82900 21.60600
N  48.68300 27.32700 28.14500
C  49.21500 28.09200 27.14200
C  49.74700 29.30300 27.75400
C  49.62500 29.14600 29.10800
C  48.98500 27.97100 29.33300
C  50.50300 30.46500 27.02200
C  49.85700 29.87000 30.40600
O  50.35000 30.96400 30.65800
C  49.29300 28.87200 31.44700
C  50.48500 28.51200 32.29200
O  51.27000 27.61100 32.06200
O  50.40700 29.22700 33.44500
C  51.30000 28.88200 34.55600
H  46.72600 22.55200 31.34300
H  46.77000 22.91500 24.77200
H  49.85700 28.27500 25.09000
H  48.93900 26.31000 33.15700
H  46.60900 24.41900 33.15500
H  49.29300 24.25100 33.87200
H  49.21400 23.09600 32.56800
H  48.16500 22.93000 33.97900
H  46.56200 27.65800 32.65600
H  47.78000 27.87900 33.85300
H  46.55900 25.69000 34.99200
H  45.25700 26.49600 34.17100
H  46.41500 19.74200 29.65600
H  44.61900 20.24700 29.31300
H  45.30700 20.89400 30.56800
H  45.78700 18.77300 27.59600
H  44.87200 18.53800 26.07300
H  44.09600 19.30400 27.48000
H  47.08600 24.67800 23.20500
H  49.74300 26.21400 23.48000
H  49.72500 24.19200 22.46500
H  48.34600 23.14600 22.31200
H  49.38600 23.01500 23.81600
H  47.86400 28.18500 23.48900
H  47.06200 26.87500 22.50700
H  48.96300 28.87700 21.70900
H  47.87400 27.83900 20.87700
H  49.53900 27.28300 21.20500
H  49.90500 30.98400 26.27200
H  51.45600 30.11800 26.62400
H  50.71100 31.17500 27.82300
H  48.44100 29.18300 32.05200
H  50.83300 28.03000 35.05200
H  51.36800 29.74000 35.22500
H  52.28900 28.64400 34.16600
Mg -12.33200 15.97400 41.78700
C  -9.32300 14.24700 41.40600
C  -11.12500 18.62300 40.18200
C  -15.44300 17.16200 41.70600
C  -13.72600 12.81600 42.87300
N  -10.44300 16.29100 40.76500
C  -9.32800 15.52300 40.83900
C  -8.17800 16.15800 40.13500
C  -8.56600 17.66800 40.11400
C  -10.18500 17.55000 40.38600
C  -7.88200 18.59600 41.23800
C  -7.58700 15.53800 38.83300
C  -6.04800 15.74900 38.75600
H  -5.42500 16.29200 37.55900
N  -13.11100 17.79300 41.15700
C  -12.48000 18.78500 40.52600
C  -13.43300 19.80700 40.32200
C  -14.65600 19.44200 40.75400
C  -14.44800 18.05100 41.22100
C  -12.97200 21.12200 39.71100
C  -15.91400 20.28000 40.72300
O  -15.78800 21.45000 40.36800
C  -17.30200 19.81100 41.17500
N  -14.33900 15.09500 42.27900
C  -15.45200 15.82000 42.23200
C  -16.74400 14.97800 42.45100
C  -16.16500 13.50900 42.72400
C  -14.64200 13.81200 42.64300
C  -17.79900 15.40300 43.51400
C  -16.68800 12.47500 41.69300
C  -17.27500 11.11300 42.23300
N  -11.59200 14.00300 42.44500
C  -12.29400 12.86100 42.76900
C  -11.35700 11.70900 42.75000
C  -10.17400 12.26100 42.42400
C  -10.40200 13.57200 42.11700
C  -11.61600 10.32000 43.08400
C  -8.77800 11.96100 42.19800
O  -8.15700 10.95600 42.32200
C  -8.15700 13.24500 41.61000
C  -7.08400 13.58900 42.65400
O  -7.26100 14.01900 43.79200
O  -5.78900 13.44800 42.22900
C  -4.67500 13.94700 43.00800
H  -10.59000 19.44200 39.69600
H  -16.47300 17.52000 41.65400
H  -14.12500 11.83300 43.13000
H  -7.45000 16.00500 40.93200
H  -8.42300 18.05900 39.10700
H  -8.52200 19.05100 41.99400
H  -7.53600 19.48000 40.70300
H  -7.00100 18.20800 41.74800
H  -8.12100 16.07100 38.04700
H  -7.82700 14.47700 38.76600
H  -5.53800 14.79000 38.85300
H  -5.62200 16.35900 39.55300
H  -13.06500 21.02300 38.62900
H  -11.89100 21.20700 39.81500
H  -13.40000 22.07200 40.03300
H  -17.72000 19.04800 40.51800
H  -18.01900 20.63100 41.21500
H  -17.10100 19.40400 42.16500
H  -17.43100 15.04800 41.60800
H  -16.28900 13.13300 43.73900
H  -18.77900 15.56800 43.06500
H  -17.49000 16.38000 43.88700
H  -17.84900 14.70500 44.35000
H  -15.87700 12.23800 41.00400
H  -17.47700 12.89300 41.06800
H  -16.70700 10.37300 41.66900
H  -18.34100 11.05200 42.01400
H  -17.11900 11.03900 43.30900
H  -10.97200 9.55300 42.65400
H  -12.55400 10.05800 42.59500
H  -11.71300 10.17400 44.15900
H  -7.57500 13.06400 40.70700
H  -3.90100 14.29600 42.32400
H  -4.20800 13.09300 43.50000
H  -4.88000 14.75700 43.70700

