158

Mg 36.45500 49.08200 24.61200
C  36.50700 47.40300 27.68600
C  35.27100 51.91300 26.12900
C  36.06300 50.60500 21.54500
C  37.69800 46.18100 23.11600
N  36.00200 49.64200 26.68300
C  36.06800 48.75300 27.82700
C  35.74500 49.57600 29.07200
C  35.40900 51.00100 28.49100
C  35.56300 50.82700 26.99200
C  34.11600 51.64700 29.08600
C  36.67700 49.50400 30.28800
C  35.98200 49.10500 31.63100
H  34.53200 49.31300 31.83700
N  35.88400 50.99800 23.90200
C  35.39000 52.00800 24.76200
C  35.09100 53.16100 23.98400
C  35.20400 52.74100 22.57100
C  35.74400 51.45400 22.62900
C  34.24300 54.30400 24.49600
C  34.78800 53.40600 21.26300
O  34.76900 52.90100 20.15700
C  34.41400 54.92800 21.30900
N  36.89600 48.46300 22.62400
C  36.56300 49.25100 21.53200
C  36.81800 48.50800 20.23100
C  37.53000 47.22100 20.74000
C  37.44100 47.24100 22.22600
C  35.49700 48.33200 19.28800
C  38.83400 46.82500 20.05600
C  40.05700 46.96000 20.90000
N  36.81500 47.02900 25.22200
C  37.40400 46.02300 24.47300
C  37.56700 44.87200 25.37600
C  37.24100 45.41000 26.65600
C  36.81700 46.76800 26.48100
C  38.04600 43.49800 25.04500
C  37.08500 45.07600 28.00300
O  37.32000 43.99500 28.56700
C  36.68100 46.30700 28.77500
C  35.37200 46.00200 29.51500
O  34.27100 46.37500 29.14100
O  35.57700 45.12500 30.55000
C  34.44500 44.48400 31.10300
H  35.02000 52.80200 26.71100
H  36.02200 50.99300 20.52500
H  38.14000 45.32600 22.60000
H  34.78600 49.12100 29.32000
H  36.22500 51.66300 28.78000
H  33.67500 51.07000 29.89900
H  33.35500 51.67000 28.30600
H  34.37100 52.66300 29.38700
H  37.06000 50.52400 30.29500
H  37.39600 48.69900 30.13800
H  36.47100 49.74100 32.36900
H  36.07200 48.02500 31.74200
H  34.09800 55.17400 23.85600
H  34.65700 54.73800 25.40600
H  33.34900 53.80900 24.87300
H  35.04500 55.47300 22.01200
H  33.36800 54.87400 21.60900
H  34.35600 55.30300 20.28800
H  37.48900 49.17200 19.68500
H  36.98500 46.30900 20.49600
H  35.22000 47.30400 19.05200
H  35.94300 48.60500 18.33200
H  34.59800 48.89300 19.54200
H  38.88800 47.45700 19.16900
H  38.78900 45.86500 19.54200
H  40.95800 47.07200 20.29700
H  40.21500 46.08400 21.52900
H  39.98400 47.86800 21.49900
H  38.91700 43.39000 24.39900
H  37.16700 42.97600 24.66700
H  38.24400 42.97400 25.98000
H  37.36400 46.56500 29.58400
H  33.98700 45.10500 31.87200
H  34.79600 43.57000 31.58300
H  33.66100 44.12600 30.43500
Mg -11.99100 15.40200 41.78400
C  -8.93400 13.88300 41.80000
C  -10.65100 18.28100 40.31200
C  -15.19500 16.57900 41.01000
C  -13.34900 12.44900 43.16800
N  -10.03100 15.92400 40.93300
C  -8.90500 15.18500 41.18700
C  -7.68100 15.92500 40.66600
C  -8.20300 17.44500 40.58100
C  -9.73000 17.22300 40.64400
C  -7.76300 18.23800 41.81800
C  -7.18900 15.36000 39.25000
C  -5.68300 15.47500 39.06600
H  -5.14200 16.32700 37.95500
N  -12.86200 17.25300 40.89100
C  -12.07100 18.30300 40.41500
C  -12.97000 19.42200 40.03100
C  -14.34500 18.86100 40.10600
C  -14.19200 17.51800 40.69300
C  -12.52800 20.85300 39.64800
C  -15.64900 19.49600 39.67800
O  -15.66300 20.69900 39.43900
C  -16.92500 18.63500 39.33400
N  -14.01300 14.43300 41.80200
C  -15.12300 15.24600 41.54500
C  -16.34500 14.39500 41.99100
C  -15.78600 13.22300 42.88400
C  -14.31100 13.35200 42.54500
C  -17.56400 15.06400 42.69000
C  -16.36600 11.82100 42.64600
C  -16.69100 11.02700 43.86800
N  -11.38500 13.46800 42.23200
C  -12.00900 12.44500 42.96600
C  -11.02800 11.43700 43.34900
C  -9.83000 11.88100 42.82100
C  -10.08800 13.12200 42.17300
C  -11.26200 10.23200 44.20700
C  -8.42700 11.68200 42.65400
O  -7.71700 10.74400 42.98600
C  -7.76700 12.92700 42.02800
C  -6.74700 13.52200 42.95400
O  -6.98700 14.20300 43.97700
O  -5.48100 13.28200 42.46700
C  -4.37600 13.91900 43.19600
H  -10.21100 19.18200 39.88000
H  -16.24200 16.88100 40.95300
H  -13.70700 11.50200 43.57700
H  -6.86500 15.99400 41.38400
H  -7.87300 17.94800 39.67200
H  -7.58200 17.57100 42.66100
H  -8.54200 18.94600 42.10100
H  -6.83000 18.75500 41.59500
H  -7.59600 15.90200 38.39700
H  -7.39900 14.29200 39.18800
H  -5.30300 14.47900 38.83700
H  -5.12800 15.79200 39.94900
H  -13.19000 21.61000 40.06800
H  -12.58200 20.87700 38.55900
H  -11.51900 21.08800 39.98900
H  -16.57600 17.64600 39.03600
H  -17.51000 19.16600 38.58400
H  -17.67000 18.63600 40.12900
H  -16.58000 13.82700 41.09000
H  -15.82600 13.47700 43.94300
H  -17.36500 16.12700 42.83100
H  -17.75600 14.58200 43.64900
H  -18.36700 14.93200 41.96500
H  -15.61700 11.17700 42.18500
H  -17.16300 11.85400 41.90200
H  -16.17700 10.06800 43.81500
H  -17.75900 10.82000 43.93500
H  -16.44300 11.54100 44.79700
H  -12.32800 10.01100 44.25900
H  -10.92700 10.40000 45.23100
H  -10.75100 9.36600 43.78600
H  -7.25400 12.63600 41.11100
H  -3.52100 13.86200 42.52300
H  -4.09400 13.42800 44.12700
H  -4.64000 14.94700 43.44500

