158

Mg -2.25400 17.36400 27.53400
C  -2.95800 15.11500 30.31100
C  -2.85600 19.93500 29.62300
C  -2.44200 19.39300 24.86800
C  -2.42800 14.62700 25.51700
N  -2.83300 17.47300 29.70800
C  -3.01400 16.50800 30.68300
C  -3.22600 17.09700 32.08200
C  -3.09800 18.61600 31.72600
C  -2.93800 18.70500 30.20500
C  -4.25800 19.53900 32.33600
C  -2.17400 16.54900 33.07600
C  -1.68700 17.43700 34.28800
H  -1.64700 16.83200 35.71300
N  -2.33700 19.40200 27.23800
C  -2.60200 20.32400 28.24100
C  -2.50000 21.64400 27.68600
C  -2.42600 21.51600 26.27700
C  -2.38200 20.05300 26.11000
C  -2.52200 22.91200 28.60700
C  -2.30400 22.53700 25.25300
O  -2.21700 22.28000 24.06100
C  -2.20700 24.03700 25.74200
N  -2.58100 17.07100 25.50200
C  -2.48000 18.07100 24.58400
C  -2.54400 17.52900 23.15300
C  -2.46200 15.98300 23.36900
C  -2.37900 15.88200 24.87700
C  -3.78400 17.96800 22.24100
C  -1.29900 15.32300 22.63500
C  0.18800 15.48100 23.22900
N  -2.54400 15.24500 27.85800
C  -2.49800 14.28000 26.89400
C  -2.59300 12.97400 27.49200
C  -2.79900 13.27100 28.85400
C  -2.83300 14.65200 28.98600
C  -2.40100 11.63400 26.91800
C  -3.00400 12.65900 30.13100
O  -3.03000 11.49800 30.46000
C  -3.15300 13.85500 31.09500
C  -2.04000 13.61800 32.03300
O  -0.87000 13.80700 31.76300
O  -2.52700 13.02300 33.11600
C  -1.49700 12.69300 34.12300
H  -2.88500 20.72500 30.37700
H  -2.25600 19.99000 23.97300
H  -2.41300 13.81600 24.78700
H  -4.23900 16.85800 32.40500
H  -2.11500 18.91500 32.09000
H  -3.85200 20.24700 33.05800
H  -5.07100 18.95400 32.76500
H  -4.82100 20.00600 31.52700
H  -1.24300 16.36400 32.54000
H  -2.57300 15.71500 33.65400
H  -2.11300 18.44000 34.25300
H  -0.63800 17.69600 34.14400
H  -2.63100 22.64300 29.65800
H  -3.38200 23.53200 28.35400
H  -1.66800 23.51300 28.29400
H  -2.13400 24.71100 24.88800
H  -1.26400 24.11000 26.28400
H  -3.18200 24.17300 26.20900
H  -1.58100 17.86300 22.76700
H  -3.39300 15.58500 22.96500
H  -4.43400 17.15700 21.91300
H  -3.46800 18.47300 21.32700
H  -4.43100 18.69200 22.73500
H  -1.42400 15.72800 21.63100
H  -1.63000 14.30200 22.44200
H  0.78500 15.92600 22.43300
H  0.48100 14.47200 23.51900
H  0.30300 16.13300 24.09400
H  -3.25800 10.96000 26.95500
H  -1.61500 11.24800 27.56700
H  -2.04400 11.78400 25.89900
H  -4.12200 13.76600 31.58600
H  -2.05300 12.70100 35.06000
H  -0.65300 13.36700 34.27200
H  -1.07900 11.69100 34.02100
Mg 10.05000 47.62700 26.28300
C  8.22300 47.76000 29.21500
C  12.81800 48.96900 27.92200
C  11.66900 47.25000 23.50600
C  7.08200 46.38500 24.77100
N  10.46600 48.35500 28.28700
C  9.57600 48.21100 29.40300
C  10.34100 48.70900 30.64200
C  11.57700 49.49800 30.08400
C  11.67500 48.88000 28.67300
C  11.43300 51.05700 30.00800
C  10.63900 47.55600 31.68100
C  9.88500 47.64300 33.03900
H  9.95400 46.41400 33.90000
N  12.00100 48.11400 25.75200
C  13.01300 48.58400 26.52800
C  14.17000 48.67600 25.72100
C  13.83500 48.28400 24.42100
C  12.44600 47.81100 24.51200
C  15.55800 49.15200 26.24900
C  14.56000 48.35400 23.13200
O  13.96500 48.17600 22.08800
C  15.96500 48.77400 23.03100
N  9.49200 47.06000 24.44900
C  10.34600 46.85600 23.44500
C  9.74800 46.16100 22.15100
C  8.30000 45.95600 22.56700
C  8.26500 46.49700 24.03200
C  9.96900 47.01700 20.85300
C  7.86000 44.43700 22.47200
C  8.55500 43.63600 23.63700
N  7.94900 47.26800 26.81500
C  6.86400 46.80100 26.07900
C  5.72200 46.86400 26.89800
C  6.20200 47.24200 28.20300
C  7.56900 47.35700 28.07400
C  4.34400 46.50700 26.51400
C  5.83400 47.54800 29.57200
O  4.71400 47.56300 30.13100
C  7.25900 47.72900 30.29500
C  7.32800 46.45700 31.14600
O  7.89900 45.43200 30.86700
O  6.49400 46.71100 32.23500
C  6.35000 45.65800 33.25400
H  13.73700 49.24600 28.44200
H  12.17300 47.03300 22.56200
H  6.27100 45.86000 24.26200
H  9.62900 49.42400 31.05500
H  12.46900 49.26600 30.66600
H  10.56900 51.33300 30.61300
H  11.32400 51.38500 28.97400
H  12.24800 51.57600 30.51200
H  11.70500 47.63400 31.89400
H  10.34500 46.54800 31.38900
H  8.82700 47.86800 32.90500
H  10.39000 48.50600 33.47300
H  16.28000 48.40000 25.93200
H  15.48600 49.29300 27.32700
H  15.87600 49.99900 25.64100
H  16.02200 49.78500 23.43600
H  16.26100 48.73400 21.98300
H  16.46400 47.95500 23.54900
H  10.33200 45.25700 21.97800
H  7.57400 46.48200 21.94700
H  10.71100 46.53500 20.21700
H  10.28900 48.01000 21.16700
H  9.01700 47.12100 20.33200
H  8.11800 44.11100 21.46400
H  6.78100 44.31900 22.56800
H  7.82100 43.38700 24.40300
H  9.42800 43.95100 24.20900
H  8.85600 42.71600 23.13600
H  4.27300 45.45500 26.23700
H  4.13500 47.09600 25.62100
H  3.69700 46.75100 27.35700
H  7.15500 48.69600 30.78600
H  6.36400 46.17600 34.21300
H  7.13600 44.90300 33.22800
H  5.37300 45.22000 33.04700

