158

Mg 3.47600 1.06200 44.35200
C  6.22600 3.25800 43.84700
C  1.53200 3.50200 42.71100
C  1.15700 -1.22200 43.80600
C  5.84900 -1.39100 45.26100
N  3.88500 3.03000 43.26000
C  5.00100 3.71500 43.36900
C  4.81500 5.11200 42.74300
C  3.31700 5.26900 42.80600
C  2.85800 3.86100 42.85700
C  2.74800 6.11300 43.97300
C  5.35500 5.25500 41.34200
C  5.42400 3.96700 40.51300
H  5.67000 4.10400 39.01400
N  1.59200 1.16000 43.52700
C  0.94400 2.25000 42.99900
C  -0.44700 1.93100 42.85600
C  -0.58400 0.54400 43.17200
C  0.75600 0.07400 43.57300
C  -1.43600 2.91800 42.29900
C  -1.90300 -0.26500 43.15100
O  -2.94900 0.22000 42.77400
C  -1.95900 -1.67600 43.41600
N  3.59100 -1.03100 44.38900
C  2.44600 -1.78500 44.16600
C  2.57600 -3.30900 44.57400
C  3.99400 -3.26300 45.23700
C  4.60300 -1.87600 44.90300
C  1.44100 -3.80100 45.50500
C  4.82400 -4.50300 44.86100
C  5.43200 -5.25100 45.99800
N  5.66100 0.95000 44.56500
C  6.44300 -0.13000 44.99300
C  7.82300 0.32900 44.94500
C  7.72100 1.69400 44.58200
C  6.43400 2.00900 44.30700
C  9.08400 -0.43800 45.44800
C  8.52600 2.87100 44.39800
O  9.76200 3.02400 44.44900
C  7.57600 3.92100 43.83800
C  7.63300 5.21900 44.58600
O  8.12200 6.27600 44.25600
O  6.94000 4.95300 45.79000
C  6.57500 6.20700 46.52500
H  0.85600 4.28000 42.34800
H  0.45700 -2.04000 43.62300
H  6.52100 -2.16900 45.62900
H  5.33200 5.90900 43.27700
H  2.81000 5.69300 41.93900
H  2.54900 7.15100 43.70700
H  3.38500 6.29400 44.83900
H  1.82100 5.76100 44.42500
H  6.31300 5.75500 41.48900
H  4.75100 5.94200 40.74900
H  4.45600 3.46700 40.55600
H  6.24600 3.31700 40.81200
H  -1.43100 2.98800 41.21100
H  -1.19100 3.91800 42.65700
H  -2.47900 2.70500 42.53400
H  -1.74100 -2.10700 44.39300
H  -1.40600 -2.11200 42.58300
H  -2.96400 -2.08900 43.32300
H  2.63400 -3.91000 43.66600
H  3.87100 -3.09100 46.30700
H  0.54200 -4.09400 44.96300
H  1.16000 -2.99200 46.18000
H  1.70000 -4.66700 46.11400
H  5.65300 -4.15300 44.24600
H  4.25600 -5.16200 44.20500
H  5.30300 -6.26600 45.62200
H  4.96800 -5.10100 46.97300
H  6.51900 -5.18800 46.04400
H  9.76100 -0.74400 44.65000
H  8.80100 -1.31800 46.02600
H  9.59900 0.12700 46.22500
H  8.06600 4.11200 42.88400
H  5.69400 5.92800 47.10300
H  6.43100 7.00700 45.79900
H  7.34200 6.40500 47.27400
Mg -0.27900 44.05600 24.99200
C  1.74200 43.81000 27.73800
C  -3.03600 43.26400 27.02000
C  -2.30200 43.94900 22.24400
C  2.49100 44.46800 22.94900
N  -0.58300 43.63000 27.14500
C  0.38900 43.60900 28.14700
C  -0.22200 43.34800 29.50500
C  -1.72800 42.96300 29.13800
C  -1.74200 43.33900 27.66500
C  -2.23000 41.48100 29.47200
C  0.05600 44.47200 30.52500
C  0.36500 44.01500 31.98000
H  -0.18400 42.72600 32.46800
N  -2.37900 43.76700 24.69200
C  -3.34500 43.46400 25.64100
C  -4.69100 43.47300 24.98100
C  -4.48800 43.74400 23.57300
C  -2.98400 43.84100 23.43200
C  -5.96100 43.23200 25.80300
C  -5.50500 43.95300 22.54800
O  -5.23900 44.19000 21.37700
C  -7.04200 43.88700 22.92700
N  0.02500 44.35000 22.86200
C  -0.94800 44.06300 21.97800
C  -0.37000 43.94500 20.59300
C  1.12400 44.42600 20.78200
C  1.29100 44.48300 22.29500
C  -0.51900 42.43000 20.17100
C  1.41500 45.75800 20.04400
C  0.95200 46.99500 20.88500
N  1.66800 44.08400 25.21000
C  2.68100 44.27200 24.30500
C  3.97000 44.10200 24.99800
C  3.63200 43.91100 26.32200
C  2.20500 43.98800 26.39800
C  5.31500 44.04200 24.36500
C  4.23100 43.71600 27.59300
O  5.38900 43.54500 28.02400
C  3.01700 43.71600 28.54200
C  3.14900 42.51900 29.37400
O  2.82900 41.36700 29.07000
O  3.57500 42.89300 30.63000
C  3.70200 41.97500 31.74900
H  -3.80700 42.97800 27.73900
H  -2.91500 43.90400 21.34200
H  3.33000 44.55700 22.25600
H  0.31100 42.47500 29.88200
H  -2.46100 43.53300 29.71000
H  -2.73600 41.09800 28.58600
H  -2.82000 41.40300 30.38600
H  -1.40400 40.85300 29.80300
H  -0.82900 45.10800 30.56600
H  0.87900 45.11100 30.20500
H  0.05900 44.88500 32.56100
H  1.45400 44.04200 32.01200
H  -6.36200 42.27600 25.46800
H  -6.60200 44.10000 25.65500
H  -5.77500 43.21300 26.87700
H  -7.27800 44.72300 23.58600
H  -7.35100 42.96600 23.42000
H  -7.67900 44.02800 22.05400
H  -0.86700 44.56400 19.84600
H  1.84000 43.75900 20.30200
H  0.46800 41.97600 20.07800
H  -0.94900 42.23200 19.18900
H  -1.16500 41.83000 20.81100
H  0.87100 45.74700 19.10000
H  2.47700 45.81800 19.80400
H  0.37700 46.72600 21.77100
H  0.30100 47.60000 20.25300
H  1.71100 47.74900 21.09200
H  5.27900 43.51000 23.41500
H  6.01400 43.52600 25.02200
H  5.72900 45.04900 24.31400
H  3.11800 44.61000 29.15700
H  4.72200 41.92900 32.12900
H  3.23600 41.03700 31.44400
H  3.15600 42.38700 32.59800

