158

Mg 1.76100 -2.07300 43.44400
C  5.37000 -2.23600 42.79100
C  1.69700 0.82300 41.64900
C  -1.66400 -2.45000 43.08400
C  1.98900 -5.36100 44.56400
N  3.43200 -0.79400 42.52700
C  4.80000 -1.03400 42.37900
C  5.43500 0.16300 41.69500
C  4.30600 1.13500 41.46900
C  3.00900 0.36000 41.82600
C  4.48900 2.58800 42.02200
C  6.12100 -0.24200 40.35400
C  6.76300 0.80800 39.53600
H  6.14200 1.05300 38.17600
N  0.17600 -0.92400 42.67700
C  0.38300 0.26100 41.95400
C  -0.83600 0.78100 41.47600
C  -1.82700 -0.15100 41.85200
C  -1.13400 -1.24600 42.59800
C  -0.98200 2.04800 40.68700
C  -3.35100 0.07500 41.70900
O  -3.86200 1.04700 41.15200
C  -4.33100 -0.83900 42.42700
N  0.35600 -3.67900 43.78100
C  -0.96200 -3.54400 43.60500
C  -1.64800 -4.85300 43.95800
C  -0.47400 -5.82000 44.50500
C  0.68900 -4.90600 44.38600
C  -2.88700 -4.75700 44.90300
C  -0.45600 -7.18900 43.70500
C  -1.55100 -8.20200 44.09500
N  3.28000 -3.57400 43.71500
C  3.19600 -4.84000 44.17900
C  4.56300 -5.34600 44.32600
C  5.43000 -4.35400 43.79100
C  4.59600 -3.33700 43.38900
C  5.03100 -6.61200 44.98700
C  6.84200 -3.99300 43.50500
O  7.88400 -4.59000 43.71100
C  6.79800 -2.67400 42.66500
C  7.81500 -1.74200 43.08200
O  8.88300 -1.61400 42.48700
O  7.41700 -1.05600 44.21800
C  8.46500 -0.14800 44.71300
H  1.70300 1.69200 40.98800
H  -2.71700 -2.66000 42.89000
H  1.96900 -6.40100 44.89500
H  6.18100 0.53900 42.39600
H  4.21900 1.29400 40.39400
H  3.51400 2.85500 42.43000
H  4.69200 3.31600 41.23600
H  5.22900 2.62500 42.82100
H  5.44100 -0.79700 39.70800
H  6.97300 -0.85300 40.65200
H  7.83800 0.68500 39.41000
H  6.56800 1.71000 40.11600
H  -1.99300 2.44600 40.77500
H  -0.68700 1.77000 39.67500
H  -0.28800 2.81700 41.02400
H  -5.37800 -0.53300 42.43000
H  -4.04100 -1.08500 43.44800
H  -4.35600 -1.81300 41.93900
H  -2.12900 -5.19000 43.03900
H  -0.63200 -6.03700 45.56100
H  -3.03300 -3.74200 45.27100
H  -2.90000 -5.48300 45.71600
H  -3.78000 -5.00100 44.32800
H  0.47500 -7.72700 43.88500
H  -0.43600 -6.98300 42.63500
H  -2.38000 -7.58600 44.44500
H  -1.37200 -8.98100 44.83700
H  -1.84900 -8.75300 43.20300
H  4.73900 -7.45900 44.36500
H  4.67900 -6.65400 46.01700
H  6.10600 -6.76500 45.08000
H  7.03800 -2.98600 41.64900
H  9.12100 -0.87900 45.18500
H  8.13000 0.47000 45.54600
H  9.02900 0.48100 44.02500
Mg 17.49000 -1.40700 28.20900
C  16.22000 0.63500 30.84300
C  19.38300 -3.07200 30.51900
C  19.09900 -2.73100 25.67500
C  15.63400 0.69600 26.06400
N  17.67400 -1.22200 30.45900
C  17.08000 -0.36000 31.31400
C  17.47700 -0.74300 32.78600
C  18.72700 -1.69600 32.59600
C  18.60700 -2.02100 31.09600
C  20.10800 -0.97500 32.92600
C  16.26700 -1.33000 33.53100
C  15.94200 -0.65800 34.95000
H  17.17600 -0.05500 35.63000
N  18.96100 -2.73600 28.08000
C  19.56900 -3.39200 29.14200
C  20.32100 -4.55600 28.69500
C  20.23700 -4.49600 27.24100
C  19.42000 -3.27400 26.91000
C  21.07700 -5.47400 29.59600
C  21.06700 -5.29900 26.18200
O  20.94800 -5.20400 24.94600
C  22.02100 -6.38500 26.65700
N  17.50800 -1.03400 26.17100
C  18.23400 -1.70000 25.31700
C  18.13400 -1.12200 23.96100
C  16.89000 -0.15900 23.98600
C  16.69400 -0.08200 25.55600
C  19.33600 -0.46800 23.33100
C  15.58200 -0.71100 23.29300
C  14.94800 0.21000 22.27700
N  16.16200 0.26400 28.34700
C  15.40100 0.94500 27.39500
C  14.44000 1.87700 28.01300
C  14.69800 1.64300 29.39800
C  15.80300 0.76200 29.52800
C  13.60600 2.91600 27.38500
C  14.30800 2.10000 30.70400
O  13.39300 2.87500 30.95200
C  15.36900 1.51000 31.66600
C  16.15300 2.54100 32.34200
O  17.37400 2.69400 32.29300
O  15.34000 3.15200 33.28800
C  15.98300 3.99100 34.27400
H  19.97600 -3.64200 31.23800
H  19.57800 -3.35900 24.92000
H  15.17900 1.43000 25.39600
H  17.74600 0.18900 33.28500
H  18.54400 -2.55100 33.24700
H  20.66400 -1.59000 33.63400
H  20.08300 0.05500 33.28300
H  20.74100 -0.79700 32.05700
H  16.24400 -2.41900 33.49400
H  15.42700 -1.07500 32.88500
H  15.44200 -1.35800 35.62000
H  15.24800 0.13900 34.68300
H  20.88800 -6.46800 29.19100
H  20.58300 -5.43900 30.56700
H  22.08200 -5.07500 29.72800
H  22.13400 -7.13700 25.87700
H  21.70100 -7.01800 27.48400
H  22.99300 -5.91800 26.81400
H  17.92100 -2.04300 23.41900
H  17.10900 0.80300 23.52100
H  19.44600 0.53100 23.75200
H  19.31600 -0.39100 22.24400
H  20.20000 -1.04500 23.65900
H  14.87800 -1.04800 24.05300
H  15.74800 -1.65500 22.77300
H  14.93300 -0.26100 21.29400
H  15.42500 1.18900 22.30100
H  13.90900 0.38200 22.55800
H  12.57400 2.64200 27.60600
H  13.72300 3.15000 26.32700
H  13.67300 3.87400 27.90000
H  14.75200 1.11100 32.47200
H  16.27900 4.93400 33.81500
H  16.84500 3.52500 34.75200
H  15.20000 4.25100 34.98700

