158

Mg 8.38600 3.10300 27.58700
C  10.19100 1.78300 30.45500
C  6.53200 5.07700 29.90500
C  6.52100 3.96000 25.08700
C  10.14600 0.68300 25.72000
N  8.42600 3.32800 29.93100
C  9.32900 2.82500 30.85300
C  9.27400 3.60300 32.12000
C  8.03900 4.59200 31.95200
C  7.60700 4.34500 30.50700
C  6.90900 4.45500 32.99700
C  10.61700 4.39900 32.36000
C  11.21200 4.12400 33.73100
H  10.85000 5.02600 34.92900
N  6.82200 4.37400 27.47000
C  6.14800 5.01700 28.47200
C  5.03900 5.72000 27.92600
C  5.06500 5.57900 26.53000
C  6.21000 4.66100 26.25700
C  4.02900 6.37200 28.79500
C  4.10100 6.25100 25.53300
O  4.10100 5.92200 24.36000
C  3.22700 7.33700 25.86200
N  8.48900 2.56200 25.69200
C  7.51800 2.95300 24.86700
C  7.83100 2.39000 23.40000
C  9.01300 1.48400 23.54000
C  9.27500 1.56100 25.07300
C  6.51500 1.73100 22.83600
C  10.30200 1.87200 22.80600
C  10.71400 1.09200 21.54000
N  9.84600 1.49800 27.93000
C  10.43000 0.63800 27.03500
C  11.33800 -0.23100 27.70000
C  11.32500 0.23000 29.06900
C  10.32000 1.24800 29.14600
C  12.10800 -1.25900 27.04500
C  11.97400 0.11000 30.31500
O  12.86800 -0.65000 30.67300
C  11.22800 1.06600 31.32000
C  10.52800 0.21800 32.29400
O  9.78100 -0.71600 32.11900
O  10.93000 0.59400 33.49800
C  10.32800 -0.06000 34.69700
H  6.09900 5.79000 30.61000
H  5.97000 4.23700 24.18600
H  10.64500 -0.00700 25.03800
H  9.03500 3.03300 33.01800
H  8.36300 5.63300 31.92300
H  6.00700 4.17200 32.45500
H  6.78100 5.42300 33.48100
H  7.15000 3.67200 33.71500
H  10.46100 5.47400 32.26600
H  11.36600 4.22300 31.58700
H  12.29000 3.97000 33.68200
H  10.80600 3.18600 34.10900
H  4.10400 7.44500 28.61800
H  4.08900 6.05300 29.83600
H  3.01100 6.11900 28.49900
H  3.80100 8.12600 26.34700
H  2.35900 6.89200 26.34800
H  2.99900 7.80000 24.90200
H  7.95800 3.24500 22.73700
H  8.68000 0.46800 23.32500
H  5.80900 1.71200 23.66600
H  6.69300 0.74600 22.40400
H  5.98800 2.34900 22.10900
H  11.10700 1.84100 23.54100
H  10.23500 2.92600 22.53700
H  10.90700 1.83200 20.76300
H  9.95400 0.37600 21.22600
H  11.61100 0.48100 21.63400
H  11.44000 -2.06500 26.73900
H  12.93300 -1.70400 27.60100
H  12.51300 -0.91700 26.09200
H  11.81800 1.88300 31.73400
H  9.30400 -0.41500 34.57400
H  10.22500 0.76800 35.39800
H  11.03000 -0.68100 35.25300
Mg 48.12100 34.93400 27.20900
C  46.24800 33.82100 29.98400
C  48.93800 37.85800 29.18800
C  50.06300 36.00600 24.64700
C  47.00000 32.25500 25.39400
N  47.83200 35.58800 29.35800
C  47.00300 34.93700 30.28600
C  47.13600 35.60700 31.67000
C  47.51400 37.09700 31.19700
C  48.05000 36.91900 29.77800
C  46.44000 38.18700 31.37000
C  48.14400 34.99500 32.65300
C  47.68200 34.74100 34.08500
H  47.76200 35.85600 35.08200
N  49.32100 36.68900 26.91100
C  49.46400 37.69000 27.82400
C  50.35400 38.72100 27.18400
C  50.76200 38.16900 25.93400
C  50.00300 36.90500 25.77700
C  50.73300 40.06800 27.76400
C  51.76300 38.81500 24.83300
O  52.01400 38.16200 23.77500
C  52.36200 40.21400 25.00800
N  48.45900 34.26900 25.28800
C  49.37500 34.80400 24.48700
C  49.75400 33.84800 23.36700
C  48.72300 32.68000 23.54400
C  47.98400 33.08100 24.86600
C  49.78400 34.43800 21.87000
C  49.32400 31.29700 23.55000
C  48.71200 30.35700 22.55900
N  46.82700 33.42600 27.49700
C  46.48200 32.37200 26.66900
C  45.50600 31.41800 27.33100
C  45.43400 31.97800 28.61200
C  46.20300 33.15900 28.66700
C  44.80500 30.15800 26.81000
C  44.85000 31.78700 29.89600
O  44.22200 30.83500 30.32400
C  45.26000 32.98200 30.78500
C  45.74600 32.47900 32.07600
O  46.84200 31.96900 32.38500
O  44.71800 32.46500 32.95000
C  45.12000 32.14000 34.41400
H  49.10000 38.81700 29.68500
H  50.67600 36.28100 23.78600
H  46.71000 31.40300 24.77600
H  46.15000 35.55400 32.13100
H  48.35300 37.57200 31.70500
H  45.51900 37.74600 31.75300
H  46.29300 38.72900 30.43600
H  46.86600 38.80300 32.16200
H  48.86900 35.80300 32.75700
H  48.70500 34.15000 32.25400
H  48.19400 33.89000 34.53500
H  46.63500 34.49000 33.91600
H  51.73000 39.97100 28.19400
H  50.05800 40.22100 28.60700
H  50.65300 40.86900 27.03000
H  51.52100 40.90200 24.93200
H  53.08100 40.45800 24.22500
H  52.81500 40.41700 25.97800
H  50.80300 33.55500 23.39600
H  47.93800 32.75100 22.79100
H  49.59100 35.50100 22.01100
H  48.92600 34.18400 21.24800
H  50.72000 34.30800 21.32800
H  49.19100 30.99900 24.58900
H  50.39800 31.31800 23.36500
H  47.80900 29.81800 22.84300
H  49.36900 29.55100 22.23200
H  48.45200 30.91700 21.66100
H  45.14500 29.34500 27.45100
H  45.06500 29.80100 25.81300
H  43.72800 30.26400 26.93900
H  44.36800 33.56300 31.01900
H  46.11200 32.38400 34.79400
H  45.05200 31.06100 34.55200
H  44.50700 32.62600 35.17400

