158

Mg -2.90500 16.63300 26.21300
C  -2.95000 14.23400 28.88900
C  -3.37000 19.08600 28.50900
C  -2.62200 18.78100 23.66100
C  -2.69200 13.95200 23.97100
N  -3.12300 16.60900 28.45600
C  -3.15800 15.55700 29.36500
C  -3.46100 16.03500 30.75700
C  -3.85700 17.55900 30.53700
C  -3.47400 17.73700 29.03700
C  -5.24500 18.09100 30.95700
C  -2.35700 15.63100 31.78900
C  -1.97800 16.67600 32.85000
H  -1.46000 16.05500 34.19000
N  -2.95100 18.65400 26.13900
C  -3.19800 19.53500 27.19900
C  -2.99900 20.93600 26.75400
C  -2.80200 20.81500 25.30500
C  -2.75700 19.38600 24.97700
C  -3.17800 22.15900 27.67500
C  -2.69400 21.97900 24.34100
O  -2.63900 21.73200 23.15900
C  -2.46500 23.35200 24.73000
N  -2.68900 16.43700 24.15800
C  -2.56900 17.46300 23.28000
C  -2.54000 16.93100 21.82600
C  -2.30600 15.42500 21.98500
C  -2.57300 15.24300 23.44800
C  -3.87200 17.09100 21.05400
C  -0.89400 14.86300 21.56700
C  -0.93000 13.53200 20.80100
N  -3.06500 14.57500 26.29800
C  -2.94000 13.67500 25.28000
C  -2.99800 12.34300 25.82700
C  -2.90900 12.51300 27.22400
C  -2.96300 13.90600 27.46200
C  -2.96600 11.04500 25.03900
C  -2.90900 11.75800 28.53200
O  -2.99400 10.53600 28.66300
C  -2.73900 12.83900 29.62600
C  -1.47700 12.66500 30.45900
O  -0.41100 13.24900 30.33800
O  -1.68700 11.60700 31.30200
C  -0.66500 11.42400 32.33600
H  -3.45800 19.79300 29.33700
H  -2.48100 19.40500 22.77700
H  -2.73100 13.13600 23.24700
H  -4.41500 15.60100 31.05700
H  -3.12400 18.10700 31.12800
H  -5.68700 18.55100 30.07300
H  -5.15200 18.83700 31.74600
H  -5.85400 17.28400 31.36400
H  -1.54300 15.32600 31.13100
H  -2.56800 14.67300 32.26300
H  -2.81400 17.36700 32.96400
H  -1.08600 17.25900 32.62400
H  -3.00900 21.84700 28.70600
H  -4.10100 22.72900 27.57400
H  -2.40600 22.91000 27.50100
H  -3.23700 23.63800 25.44500
H  -2.52600 23.99900 23.85500
H  -1.41600 23.44300 25.01400
H  -1.70400 17.47400 21.38600
H  -3.00900 14.87000 21.36400
H  -4.29900 18.03900 21.38100
H  -4.61700 16.33300 21.29500
H  -3.68000 16.95600 19.99000
H  -0.24200 14.80600 22.43900
H  -0.47200 15.62700 20.91500
H  -0.47500 13.74100 19.83300
H  -1.94600 13.15200 20.69200
H  -0.34200 12.79700 21.35100
H  -2.09500 11.24200 24.41400
H  -3.88900 10.97100 24.46400
H  -2.69900 10.16700 25.62700
H  -3.52700 12.56700 30.32800
H  -0.23600 10.45400 32.08100
H  -1.15500 11.21000 33.28500
H  0.16000 12.13600 32.34300
Mg 10.66600 46.55800 25.64700
C  8.64400 46.68500 28.47200
C  13.24000 47.76400 27.48700
C  12.54400 46.14600 22.90500
C  7.75700 46.11700 23.68300
N  10.86800 47.18000 27.70500
C  9.97400 47.06200 28.74100
C  10.52900 47.65900 30.03500
C  11.82600 48.40100 29.54000
C  11.99300 47.74900 28.19300
C  11.62700 49.94300 29.45300
C  10.81600 46.47000 31.05700
C  10.35200 46.59000 32.57800
H  10.44100 45.36900 33.40800
N  12.63800 46.73400 25.24900
C  13.53400 47.21200 26.17900
C  14.88500 47.15800 25.59800
C  14.73300 46.60400 24.27200
C  13.26400 46.41300 24.08200
C  16.14700 47.54800 26.30900
C  15.75400 46.29400 23.22000
O  15.47800 45.88100 22.13600
C  17.22000 46.56100 23.57100
N  10.20800 46.21400 23.57400
C  11.16800 46.09500 22.66600
C  10.62000 45.91000 21.24500
C  9.09000 45.63500 21.57800
C  8.99900 46.07800 22.99200
C  10.90300 47.17400 20.40500
C  8.75300 44.11800 21.29300
C  9.13800 43.06900 22.41600
N  8.68300 46.30300 25.95900
C  7.61400 46.19600 25.06700
C  6.36600 46.19900 25.81800
C  6.71200 46.29900 27.13300
C  8.15100 46.44400 27.20700
C  5.00500 45.98600 25.23700
C  6.13400 46.40500 28.46100
O  4.95700 46.45200 28.79900
C  7.37800 46.84600 29.34100
C  7.28800 45.95800 30.58200
O  7.79100 44.83800 30.67500
O  6.42800 46.56100 31.45800
C  5.99600 45.77800 32.64800
H  14.07700 48.18800 28.04500
H  12.94000 45.81200 21.94400
H  6.91900 46.03000 22.98900
H  9.78800 48.14000 30.67300
H  12.61800 48.18900 30.25800
H  12.27500 50.47000 30.15300
H  10.65400 50.11800 29.91300
H  11.43800 50.31900 28.44700
H  11.89400 46.33200 30.97700
H  10.33200 45.58500 30.64300
H  9.31800 46.91300 32.69900
H  10.91800 47.41600 33.00900
H  16.03800 47.71600 27.38100
H  16.41100 48.47500 25.80000
H  16.88200 46.76000 26.14500
H  17.56500 45.97000 24.42000
H  17.56300 47.59100 23.67300
H  17.81900 46.17000 22.74900
H  11.04000 44.99400 20.82800
H  8.42100 46.22600 20.95200
H  11.65900 47.77300 20.91300
H  9.96300 47.68500 20.20000
H  11.45800 46.78800 19.54900
H  9.41400 43.84500 20.47000
H  7.75600 44.02500 20.86200
H  9.58400 43.51600 23.30500
H  9.92500 42.39100 22.08800
H  8.25400 42.48800 22.68000
H  4.50700 45.08000 25.58400
H  4.87300 46.11900 24.16400
H  4.37100 46.80100 25.58400
H  7.21300 47.89400 29.59200
H  5.15400 45.09700 32.52200
H  5.72200 46.55000 33.36700
H  6.85400 45.41100 33.21000

