158

Mg 24.87900 -4.64800 46.74000
C  26.82600 -2.27800 45.08300
C  22.28200 -3.75800 44.63400
C  23.26400 -7.42300 47.76100
C  27.79600 -5.64500 48.47500
N  24.59700 -3.06700 45.18800
C  25.52000 -2.17900 44.66000
C  25.01600 -1.28200 43.50000
C  23.41600 -1.72400 43.56200
C  23.39900 -2.90900 44.54700
C  22.54000 -0.48100 44.18200
C  25.73800 -1.69500 42.16100
C  26.39200 -0.54600 41.40000
H  25.89200 -0.35200 39.96900
N  22.97000 -5.37500 46.42600
C  22.07800 -4.90600 45.44600
C  20.91900 -5.79700 45.40100
C  21.13400 -6.74000 46.43000
C  22.49600 -6.53800 46.98400
C  19.76200 -5.67200 44.37700
C  20.20700 -7.93400 46.84600
O  19.17200 -8.17700 46.28200
C  20.52600 -8.83000 48.07100
N  25.46700 -6.27400 47.96300
C  24.56700 -7.23600 48.29300
C  25.28100 -8.29600 49.19700
C  26.47600 -7.49400 49.71600
C  26.60500 -6.42400 48.65800
C  24.38700 -9.09300 50.19800
C  27.76000 -8.34300 50.13200
C  28.10400 -8.30300 51.63000
N  26.94900 -4.09700 46.82600
C  27.98000 -4.60500 47.55900
C  29.13100 -3.83700 47.22900
C  28.71800 -2.89000 46.27000
C  27.36400 -3.11600 46.07500
C  30.51200 -3.99700 47.83300
C  29.25600 -1.76400 45.46800
O  30.30500 -1.21600 45.48100
C  28.02600 -1.34400 44.66700
C  27.79100 0.07000 44.97600
O  27.40600 0.48300 46.01400
O  28.07400 0.83800 43.83800
C  27.91300 2.27100 43.95700
H  21.42600 -3.41000 44.05200
H  22.92900 -8.46000 47.82700
H  28.66200 -6.01700 49.02700
H  25.11800 -0.21800 43.71400
H  22.94300 -2.07700 42.64600
H  21.81300 -0.13200 43.44900
H  23.09500 0.36600 44.58700
H  21.97000 -0.92700 44.99800
H  24.96500 -2.06900 41.49000
H  26.36000 -2.57000 42.34900
H  27.46600 -0.72100 41.33400
H  26.29400 0.40600 41.92200
H  19.21200 -6.58900 44.16300
H  20.08700 -5.21000 43.44500
H  19.04000 -4.92500 44.70400
H  21.03200 -8.24400 48.83900
H  21.22900 -9.62000 47.80900
H  19.57800 -9.13200 48.51600
H  25.52200 -9.04700 48.44400
H  26.02700 -7.04900 50.60400
H  23.32200 -8.99700 49.98900
H  24.56000 -8.77400 51.22600
H  24.76300 -10.11600 50.18800
H  28.66000 -8.02400 49.60600
H  27.53800 -9.36600 49.83000
H  27.19700 -7.96400 52.13100
H  28.87100 -7.58400 51.91700
H  28.35600 -9.30500 51.97700
H  30.75200 -5.06000 47.81700
H  30.47200 -3.68400 48.87700
H  31.30600 -3.39000 47.39800
H  28.46400 -1.47200 43.67800
H  26.95600 2.63200 43.58000
H  28.71200 2.79200 43.43000
H  27.82000 2.66900 44.96800
Mg 16.70000 -1.67400 28.30300
C  15.63300 0.20300 30.96200
C  18.86400 -3.46600 30.39400
C  18.04600 -3.24200 25.66000
C  14.89300 0.34600 26.13800
N  17.13600 -1.60200 30.46300
C  16.59900 -0.78500 31.40900
C  17.16400 -1.05100 32.83600
C  18.32300 -2.16500 32.56900
C  18.14700 -2.42600 31.04400
C  19.78700 -1.76600 32.98600
C  16.10600 -1.52400 33.83200
C  16.44600 -1.36100 35.28800
H  17.52400 -0.33700 35.69100
N  18.26100 -3.14400 28.07500
C  18.97300 -3.80100 29.04000
C  19.72900 -4.90000 28.48100
C  19.51900 -4.84900 27.10200
C  18.62300 -3.67600 26.87400
C  20.50400 -5.88000 29.25400
C  20.05400 -5.72600 25.91100
O  19.61200 -5.71100 24.77600
C  20.94200 -6.75800 26.27800
N  16.45900 -1.45700 26.17900
C  17.16500 -2.21500 25.34200
C  16.81800 -1.81800 23.87500
C  15.73700 -0.69200 23.99700
C  15.72200 -0.58800 25.47800
C  18.00400 -1.42600 22.90200
C  14.35500 -1.24000 23.47900
C  13.58500 -0.26700 22.57700
N  15.47300 -0.10500 28.47900
C  14.80800 0.64000 27.49500
C  14.05000 1.66600 28.17500
C  14.36700 1.58000 29.55700
C  15.21700 0.48200 29.66800
C  13.15600 2.65300 27.46200
C  14.10500 2.14000 30.87700
O  13.40000 3.07500 31.19000
C  14.97300 1.22400 31.87900
C  15.80500 2.13500 32.69400
O  16.95500 2.43800 32.53100
O  15.01600 2.69000 33.70400
C  15.67100 3.60100 34.65300
H  19.61700 -3.91800 31.04200
H  18.50400 -3.61100 24.73900
H  14.29200 1.01900 25.52300
H  17.64400 -0.09100 33.02900
H  18.08400 -3.15200 32.96500
H  19.68100 -0.83600 33.54500
H  20.44900 -1.50800 32.16000
H  20.35500 -2.46400 33.60300
H  15.94500 -2.58200 33.62700
H  15.21900 -0.93600 33.59800
H  16.61000 -2.33500 35.74900
H  15.56900 -1.07400 35.86800
H  20.41900 -5.74900 30.33200
H  21.54600 -5.99600 28.95700
H  20.11800 -6.89800 29.20500
H  21.85500 -6.45900 26.79400
H  21.16100 -7.31600 25.36800
H  20.44600 -7.41500 26.99200
H  16.38700 -2.70600 23.41200
H  16.09700 0.26400 23.61800
H  18.20300 -2.31300 22.30000
H  18.84800 -1.14500 23.53200
H  17.67900 -0.59000 22.28300
H  13.79900 -1.71100 24.28900
H  14.48900 -2.07400 22.79000
H  14.23600 0.57900 22.35600
H  12.72400 0.22200 23.03400
H  13.29000 -0.77900 21.66100
H  12.72300 2.05800 26.65800
H  13.71300 3.58100 27.33500
H  12.41400 2.91600 28.21600
H  14.20800 0.75700 32.50000
H  15.67100 4.61700 34.25800
H  16.65400 3.31100 35.02200
H  15.00000 3.51900 35.50800

