158

Mg 46.84200 24.91600 28.83600
C  47.32200 27.14600 31.38300
C  45.61500 22.54800 30.93900
C  46.88400 22.68000 26.34200
C  47.88600 27.41900 26.71100
N  46.47600 24.93700 30.88000
C  46.84600 25.85700 31.76800
C  46.44600 25.41200 33.16300
C  46.09200 23.98800 33.01400
C  45.98600 23.80800 31.45800
C  46.96700 22.92000 33.70900
C  45.39300 26.31700 33.81800
C  45.85200 26.95100 35.15000
H  44.87700 27.10300 36.31800
N  46.31000 22.86000 28.65200
C  45.64900 22.08400 29.64800
C  45.28300 20.75700 29.19300
C  45.71900 20.83500 27.77700
C  46.26100 22.16000 27.46800
C  44.74000 19.64700 30.12100
C  45.52600 19.77000 26.67600
O  45.84000 19.98400 25.55400
C  44.80600 18.42100 27.07400
N  47.53000 24.95900 26.85900
C  47.39100 23.94800 26.00500
C  48.01500 24.29800 24.63800
C  47.77900 25.83300 24.63700
C  47.60400 26.14300 26.13700
C  49.46100 23.89500 24.47800
C  46.57700 26.43400 23.82900
C  45.24400 26.59000 24.57400
N  47.60400 26.91900 28.99100
C  47.85000 27.83900 28.00800
C  48.28900 29.04300 28.65000
C  47.99900 28.88500 29.96300
C  47.61200 27.61900 30.09000
C  48.81900 30.29300 27.99300
C  47.98000 29.48400 31.31500
O  48.24200 30.61300 31.74000
C  47.72700 28.26700 32.33500
C  49.00700 28.06000 33.03900
O  50.05100 27.69900 32.51500
O  48.84900 28.36700 34.35500
C  49.97200 28.25600 35.25400
H  45.24200 21.94800 31.77200
H  46.94200 22.06700 25.44000
H  48.08300 28.24700 26.02700
H  47.31300 25.53400 33.81200
H  45.06900 23.81100 33.34500
H  47.17400 22.02100 33.12800
H  46.26800 22.72100 34.52100
H  47.90900 23.40600 33.96400
H  44.42300 25.85200 33.99500
H  45.19900 27.14100 33.13200
H  46.30200 27.91600 34.91700
H  46.62100 26.29000 35.54800
H  44.48500 20.13900 31.05900
H  45.45200 18.84900 30.33300
H  43.80900 19.31800 29.66000
H  43.99500 18.66400 27.76100
H  45.42900 17.84300 27.75700
H  44.40000 17.85200 26.23700
H  47.47300 23.93400 23.76400
H  48.63900 26.33700 24.19600
H  50.06100 24.80200 24.55600
H  49.76900 23.45800 23.52800
H  49.74600 23.19700 25.26600
H  46.35100 25.74800 23.01300
H  46.92800 27.44200 23.60600
H  45.23800 27.48400 25.19700
H  45.03400 25.77600 25.26700
H  44.39700 26.63400 23.89000
H  48.28100 31.10600 28.48000
H  48.71200 30.25200 26.90900
H  49.89700 30.29400 28.15800
H  46.97500 28.48000 33.09500
H  50.19700 29.22200 35.70700
H  50.89100 27.83500 34.84800
H  49.75000 27.61000 36.10300
Mg 41.73400 40.77500 27.02200
C  41.29500 43.42300 29.32700
C  42.73900 38.85900 29.63500
C  42.69500 38.51100 24.71300
C  41.20500 43.13900 24.45400
N  41.96700 41.14900 29.24900
C  41.64100 42.23700 29.95500
C  41.58400 41.95200 31.43500
C  42.27200 40.56000 31.51200
C  42.43300 40.17600 30.07500
C  43.64400 40.56000 32.27300
C  40.13400 42.04800 31.94300
C  39.88100 43.03800 33.05100
H  39.05400 42.61400 34.33000
N  42.34200 38.96100 27.17800
C  42.61700 38.28200 28.35000
C  42.92400 36.92900 28.02500
C  42.86000 36.81100 26.61200
C  42.57600 38.11500 26.11500
C  43.22200 35.86500 29.20100
C  42.95100 35.56200 25.74300
O  42.93000 35.57400 24.53200
C  42.96400 34.19200 26.45000
N  41.92000 40.77600 24.93500
C  42.46600 39.80000 24.17000
C  42.32800 40.06600 22.61600
C  41.66200 41.48100 22.61900
C  41.51700 41.81600 24.14700
C  43.57500 39.84400 21.64100
C  40.38500 41.58800 21.86500
C  39.09500 40.79300 22.40300
N  41.32700 42.87500 26.85500
C  41.16200 43.67100 25.73000
C  40.91300 45.00100 26.15500
C  40.80100 44.91700 27.54800
C  41.17900 43.65400 27.90100
C  40.61700 46.18600 25.25500
C  40.57300 45.68100 28.75000
O  40.19300 46.83600 28.81700
C  40.89300 44.73200 29.93800
C  41.97600 45.40300 30.76800
O  43.09000 45.74400 30.39800
O  41.46800 45.62900 32.07300
C  42.49900 46.14100 33.07000
H  42.85900 38.20800 30.50300
H  42.95400 37.76400 23.96100
H  40.95700 43.82500 23.64100
H  42.15800 42.76600 31.87900
H  41.75000 39.69400 31.91900
H  43.97000 41.50900 32.70000
H  44.38600 40.11900 31.60700
H  43.49200 39.93200 33.15000
H  39.99500 41.01500 32.26300
H  39.53100 42.20500 31.04900
H  39.32500 43.79200 32.49500
H  40.80200 43.47400 33.43700
H  43.52300 36.31000 30.14900
H  44.05300 35.21900 28.92000
H  42.45500 35.16800 29.54000
H  42.13300 34.18400 27.15500
H  43.91400 34.15600 26.98300
H  42.99400 33.41900 25.68200
H  41.50800 39.45300 22.24300
H  42.34000 42.21400 22.18200
H  43.26600 39.26500 20.77000
H  44.40900 39.34000 22.12800
H  43.94200 40.73500 21.13200
H  40.48700 41.13800 20.87800
H  40.15200 42.65300 21.84700
H  38.83200 39.97000 21.73900
H  38.22900 41.42400 22.60200
H  39.33500 40.33300 23.36200
H  40.32500 45.87700 24.25100
H  41.58000 46.66500 25.07700
H  39.83600 46.87800 25.57200
H  40.00100 44.59500 30.54900
H  43.50800 46.06600 32.66200
H  42.41600 45.52200 33.96300
H  42.40000 47.19200 33.34000

