158

Mg 3.35000 0.76000 44.07900
C  6.35400 2.58900 43.97500
C  1.87200 3.54600 42.54500
C  0.73100 -1.06400 43.47400
C  5.28300 -2.04000 44.94100
N  4.10700 2.70600 43.09400
C  5.31900 3.23400 43.31400
C  5.42100 4.62200 42.78800
C  3.93900 4.94800 42.33500
C  3.22500 3.71100 42.69600
C  3.32800 6.23600 42.89600
C  6.51800 4.80600 41.71300
C  6.85400 3.67000 40.73800
H  7.15800 4.11100 39.26700
N  1.46300 1.20400 43.21900
C  1.05700 2.42300 42.76200
C  -0.28800 2.28800 42.37500
C  -0.65400 0.91000 42.53700
C  0.51200 0.25900 43.03500
C  -1.05900 3.37900 41.73400
C  -2.02300 0.40200 42.23900
O  -2.87400 1.14400 41.84300
C  -2.38700 -1.06700 42.32900
N  3.10500 -1.37600 43.92300
C  1.87000 -1.83500 43.76800
C  1.79800 -3.34500 44.12300
C  3.29100 -3.68300 44.57400
C  3.93700 -2.25800 44.56400
C  0.65200 -3.89600 45.18600
C  4.20100 -4.66800 43.77100
C  4.83600 -5.95600 44.36900
N  5.36400 0.30200 44.52800
C  5.96000 -0.80600 44.96700
C  7.30000 -0.53300 45.36200
C  7.51300 0.82000 45.03000
C  6.29300 1.28400 44.51400
C  8.33200 -1.50300 45.89400
C  8.50400 1.89800 45.03300
O  9.68400 1.99200 45.39800
C  7.74800 3.14900 44.31800
C  7.71600 4.34900 45.22700
O  8.58200 5.19100 45.19900
O  6.61000 4.38700 46.11000
C  6.56400 5.51600 46.98900
H  1.43700 4.41500 42.04700
H  -0.21700 -1.60100 43.55400
H  5.66200 -2.94100 45.42900
H  5.58900 5.40800 43.52400
H  3.83500 5.00600 41.25200
H  4.14000 6.85200 43.28200
H  2.56600 6.00200 43.63900
H  2.89700 6.77300 42.05100
H  7.38300 5.11100 42.30000
H  6.17300 5.65300 41.12000
H  5.99800 3.02600 40.53700
H  7.84300 3.28100 40.98000
H  -1.99500 3.45200 42.28800
H  -1.13800 3.28200 40.65200
H  -0.70500 4.40400 41.84000
H  -2.53400 -1.19200 43.40200
H  -1.56100 -1.63400 41.89800
H  -3.25100 -1.34200 41.72400
H  1.66400 -3.76500 43.12600
H  3.22000 -4.18500 45.53900
H  0.38500 -2.95000 45.65700
H  0.96100 -4.70800 45.84500
H  -0.19000 -4.35800 44.66900
H  5.03000 -4.11500 43.32900
H  3.54000 -5.12400 43.03500
H  4.72500 -6.80200 43.69000
H  4.48100 -6.29600 45.34200
H  5.91400 -5.85200 44.48700
H  8.21800 -1.48800 46.97800
H  9.29500 -1.06800 45.62700
H  8.19900 -2.49500 45.46000
H  8.41200 3.29800 43.46600
H  7.48900 6.07700 47.12300
H  6.45900 4.97900 47.93200
H  5.71100 6.15600 46.76700
Mg 47.57100 15.37200 28.44000
C  45.22800 15.03800 31.22300
C  49.37000 17.49900 30.45600
C  49.34700 16.18100 25.67200
C  45.03800 13.88400 26.49500
N  47.15400 16.28700 30.53100
C  46.33700 15.86800 31.48800
C  46.84800 16.30100 32.81500
C  47.85100 17.44300 32.54300
C  48.15300 17.06400 31.12100
C  47.29400 18.89500 32.40900
C  47.50100 15.20000 33.66800
C  47.43400 15.36100 35.18700
H  48.73400 15.47600 35.96300
N  49.27000 16.43100 28.19900
C  49.86700 17.27300 29.12300
C  51.00900 17.88400 28.60200
C  51.03300 17.57500 27.24800
C  49.84000 16.70100 26.95200
C  51.93600 18.87900 29.36800
C  52.03300 18.05300 26.17900
O  51.92300 17.65000 25.03100
C  53.18900 18.98600 26.40900
N  47.23100 15.03600 26.38300
C  48.20200 15.44900 25.45000
C  47.85400 14.82000 24.12700
C  46.50000 14.08700 24.40500
C  46.25500 14.24400 25.87600
C  47.89900 15.82900 23.00500
C  46.26100 12.67100 23.85600
C  47.14600 11.54300 24.33600
N  45.61700 14.57300 28.75100
C  44.73400 13.95500 27.86400
C  43.54400 13.37300 28.55600
C  43.80200 13.70700 29.89300
C  44.99100 14.49500 29.96400
C  42.46500 12.56400 27.88600
C  43.27800 13.51000 31.18400
O  42.24400 12.98200 31.53700
C  44.26200 14.41100 32.19300
C  43.36300 15.38900 32.78700
O  42.46100 15.96600 32.20500
O  43.65200 15.43000 34.12900
C  42.69300 16.24100 34.95400
H  49.90900 18.04000 31.23700
H  49.91400 16.43100 24.77300
H  44.31600 13.33600 25.88700
H  46.06100 16.76500 33.40900
H  48.83400 17.43600 33.01500
H  47.48300 19.38400 31.45300
H  47.80000 19.46200 33.19100
H  46.22000 18.90600 32.59200
H  48.55000 15.18400 33.37500
H  47.06200 14.21800 33.48700
H  46.79300 14.53400 35.49400
H  46.91200 16.30600 35.33700
H  51.83700 19.86400 28.91300
H  52.91100 18.44000 29.15800
H  51.73700 18.93800 30.43800
H  53.84000 18.95800 25.53500
H  53.70900 18.56600 27.27100
H  52.86600 20.00300 26.62900
H  48.66600 14.10800 23.97700
H  45.65700 14.60600 23.94800
H  47.00900 15.69900 22.39000
H  48.73400 15.60800 22.34000
H  47.96000 16.83200 23.42700
H  46.50100 12.73000 22.79500
H  45.24800 12.30000 24.01500
H  46.46200 10.82000 24.78000
H  47.87700 11.89500 25.06500
H  47.61900 11.08000 23.47000
H  42.66300 12.03300 26.95500
H  41.69400 13.29600 27.64600
H  42.31800 11.83900 28.68600
H  44.71200 13.81400 32.98700
H  42.20700 17.07600 34.44900
H  43.40500 16.61300 35.69100
H  41.92000 15.62900 35.41800

