158

Mg 45.46800 5.48200 48.69000
C  43.36100 8.12800 47.79400
C  42.97900 3.32200 47.95200
C  47.88300 3.01600 48.42800
C  48.20400 7.79600 48.66800
N  43.37900 5.76900 48.16500
C  42.70900 6.91500 47.69500
C  41.30200 6.56100 47.18700
C  41.06700 5.12500 47.79600
C  42.55000 4.65800 48.01300
C  40.11800 4.96900 49.17300
C  41.23400 6.78700 45.67600
C  39.90600 7.40400 45.15100
H  39.29700 6.73400 43.92300
N  45.43700 3.45200 48.35000
C  44.24000 2.77000 48.12600
C  44.51900 1.40200 47.93800
C  45.93800 1.24700 47.92000
C  46.49800 2.57800 48.31200
C  43.44300 0.40000 47.56700
C  46.75200 0.00300 47.72300
O  46.18100 -1.02000 47.41400
C  48.26700 -0.02000 47.84800
N  47.76900 5.42500 48.60400
C  48.44400 4.26800 48.56100
C  49.92200 4.44000 48.78600
C  50.06300 5.99300 48.71200
C  48.60500 6.43500 48.73200
C  50.51400 3.74800 50.12500
C  50.98700 6.44200 47.49700
C  52.12400 7.34800 47.94800
N  45.73800 7.56300 48.45600
C  46.87000 8.34500 48.47200
C  46.53300 9.71500 48.30300
C  45.17500 9.70200 48.09500
C  44.71700 8.32600 48.14000
C  47.41900 10.95200 48.22000
C  43.96600 10.54900 47.70400
O  43.81300 11.77200 47.55700
C  42.80600 9.54100 47.55800
C  41.69200 9.99100 48.56700
O  41.52900 9.52400 49.65100
O  40.92100 10.97600 48.00100
C  39.81800 11.50600 48.88200
H  42.08700 2.69500 47.99900
H  48.67000 2.26600 48.52500
H  48.94300 8.58800 48.52400
H  40.54200 7.23300 47.58600
H  40.65600 4.45200 47.04400
H  39.99900 5.95300 49.62500
H  40.54100 4.33900 49.95600
H  39.13900 4.60300 48.86500
H  41.19100 5.82200 45.17200
H  42.08500 7.37800 45.33700
H  40.08900 8.46600 44.99100
H  39.12700 7.36800 45.91300
H  43.70400 -0.21800 46.70800
H  42.50100 0.89600 47.33500
H  43.31900 -0.33200 48.36500
H  48.79600 0.57300 47.10200
H  48.51800 -1.04000 47.55900
H  48.58200 0.18800 48.87100
H  50.38700 4.00200 47.90300
H  50.57800 6.35700 49.60100
H  49.78900 3.72900 50.93900
H  51.38000 4.26200 50.54300
H  50.74000 2.70800 49.89000
H  50.33900 6.96300 46.79300
H  51.47300 5.58700 47.02900
H  52.20800 8.12900 47.19300
H  53.08000 6.83400 48.05100
H  51.85900 7.84800 48.88000
H  48.35800 10.62800 47.77100
H  47.54000 11.45700 49.17900
H  47.10700 11.71300 47.50500
H  42.43600 9.52200 46.53300
H  39.06000 11.92400 48.22000
H  40.32500 12.24700 49.50000
H  39.33900 10.79700 49.55700
Mg -9.83700 39.77500 39.60400
C  -9.21300 36.30000 38.94000
C  -6.73000 40.53500 38.55700
C  -10.99800 42.96900 39.24900
C  -13.37300 38.72000 39.98300
N  -8.13400 38.48400 38.68900
C  -8.01900 37.13000 38.63800
C  -6.53800 36.74100 38.36900
C  -5.84000 38.13200 38.56700
C  -6.96900 39.12200 38.69200
C  -4.80200 38.22000 39.65900
C  -6.37300 36.01900 37.00000
C  -6.82700 36.76000 35.76200
H  -8.09300 36.29700 35.01900
N  -8.99800 41.48700 39.04700
C  -7.63300 41.60700 38.66400
C  -7.29600 43.00000 38.64900
C  -8.49200 43.73300 38.83600
C  -9.57400 42.74200 39.05700
C  -5.80600 43.48800 38.59400
C  -8.51400 45.25200 38.73900
O  -7.49500 45.90600 38.48600
C  -9.74200 46.00300 39.04200
N  -11.89600 40.67500 39.64700
C  -12.01400 42.00000 39.57300
C  -13.52200 42.36800 39.67000
C  -14.19400 41.08200 40.16600
C  -13.09000 40.08800 39.91400
C  -13.75800 43.63700 40.59700
C  -15.63400 40.84500 39.52700
C  -16.70700 40.59100 40.66100
N  -11.02900 37.96600 39.60900
C  -12.40600 37.73900 39.72400
C  -12.70800 36.37500 39.43000
C  -11.48700 35.77600 39.26300
C  -10.48600 36.79500 39.37700
C  -14.06500 35.78100 39.46100
C  -10.89100 34.46800 39.09500
O  -11.35200 33.36000 38.91100
C  -9.37500 34.80300 38.84100
C  -8.55000 33.99800 39.79900
O  -8.86100 33.77400 40.99200
O  -7.33200 33.61500 39.19700
C  -6.35100 32.92800 40.00500
H  -5.71300 40.89400 38.38800
H  -11.28400 44.02300 39.24000
H  -14.42600 38.49400 40.16500
H  -6.29900 36.06700 39.19300
H  -5.34800 38.38900 37.62900
H  -3.83300 38.10600 39.17300
H  -4.85300 37.40300 40.37800
H  -4.91200 39.16800 40.18600
H  -6.87500 35.05200 36.97600
H  -5.34100 35.77500 36.74900
H  -6.01400 36.59800 35.05500
H  -7.01200 37.78500 36.08200
H  -5.55600 44.09500 37.72400
H  -5.03700 42.73300 38.75400
H  -5.74600 44.19700 39.42000
H  -10.07500 45.85800 40.07000
H  -10.52300 45.63000 38.37900
H  -9.66300 47.07300 38.84600
H  -13.69700 42.42900 38.59600
H  -14.33700 41.25100 41.23300
H  -12.93100 43.77500 41.29400
H  -14.63300 43.46500 41.22400
H  -13.89700 44.62200 40.15100
H  -15.76600 39.89400 39.01100
H  -15.99900 41.52100 38.75500
H  -17.16100 39.60400 40.56900
H  -17.53000 41.30400 40.69700
H  -16.25100 40.68000 41.64700
H  -13.91900 34.70100 39.41600
H  -14.59900 35.99600 38.53600
H  -14.56200 36.08500 40.38200
H  -9.29300 34.49500 37.79800
H  -5.46600 32.90200 39.37000
H  -6.77500 31.93900 40.18100
H  -6.13500 33.49500 40.91000

