158

Mg 35.12100 49.20600 24.87900
C  35.24600 47.40100 27.85400
C  33.92800 51.85000 26.44900
C  34.79800 50.62600 21.78600
C  36.35800 46.26000 23.24800
N  34.57100 49.57900 26.91400
C  34.86300 48.71500 27.97100
C  34.52700 49.44500 29.29800
C  34.00400 50.80400 28.84500
C  34.17100 50.75200 27.34400
C  32.54100 51.11700 29.29300
C  35.83400 49.45500 30.24400
C  35.61900 49.09200 31.72600
H  34.20500 49.25100 32.29500
N  34.39900 50.95100 24.23400
C  34.14500 51.97700 25.06600
C  33.99300 53.19500 24.25900
C  34.08400 52.80300 22.92900
C  34.43700 51.35500 22.89800
C  33.66500 54.54400 24.87700
C  33.88000 53.70200 21.76400
O  33.83200 53.24700 20.62100
C  33.64600 55.20400 21.83300
N  35.57000 48.54000 22.78200
C  35.27900 49.29200 21.75600
C  35.50900 48.57700 20.38800
C  36.22900 47.27800 20.87700
C  36.07000 47.34400 22.36000
C  34.22200 48.26200 19.65200
C  37.72200 47.01600 20.44100
C  38.70300 48.07700 20.98700
N  35.66100 47.23800 25.38800
C  36.10000 46.13200 24.64700
C  36.29400 45.03300 25.55200
C  35.95700 45.44500 26.76800
C  35.65800 46.85000 26.63400
C  36.84600 43.70400 25.16700
C  35.89200 45.10800 28.18400
O  36.21200 44.08100 28.75500
C  35.53100 46.37700 28.94100
C  34.40100 45.93100 29.66600
O  33.27500 45.93000 29.15500
O  34.61200 45.56600 30.93900
C  33.39000 45.20700 31.66000
H  33.59200 52.78400 26.90300
H  34.97300 51.25200 20.90700
H  36.48300 45.27600 22.79300
H  33.72900 48.87900 29.77900
H  34.64000 51.63000 29.16400
H  32.15100 50.36600 29.97900
H  31.85900 51.37300 28.48200
H  32.70500 52.01600 29.88900
H  36.34100 50.42000 30.23600
H  36.50800 48.73500 29.77900
H  36.32200 49.61400 32.37500
H  35.90600 48.06800 31.96400
H  34.41300 55.23900 24.49500
H  33.86200 54.54100 25.94900
H  32.64000 54.79600 24.60700
H  34.33700 55.68600 22.52500
H  32.59400 55.36200 22.07000
H  33.81100 55.70700 20.88000
H  36.15200 49.19000 19.75600
H  35.69100 46.40200 20.51300
H  33.35700 48.87500 19.90200
H  33.91000 47.21700 19.66700
H  34.34200 48.54000 18.60500
H  37.71500 47.05600 19.35100
H  37.98900 46.09100 20.95300
H  39.48600 47.61500 21.58900
H  38.27000 48.90400 21.55000
H  39.34200 48.56700 20.25300
H  37.60800 43.42000 25.89200
H  37.31100 43.93500 24.20800
H  35.94500 43.10200 25.04200
H  36.36500 46.67900 29.57400
H  32.91200 44.26600 31.38700
H  32.58600 45.94300 31.67500
H  33.73400 45.23400 32.69400
Mg 15.88000 52.07700 25.37500
C  17.90400 51.16200 28.18300
C  13.23800 52.47000 27.49100
C  14.33700 53.11700 22.72400
C  18.55300 50.93400 23.34500
N  15.65800 51.93400 27.51900
C  16.57400 51.67400 28.53900
C  16.10000 52.09600 29.92900
C  14.53700 52.11400 29.64900
C  14.44600 52.10200 28.12700
C  13.82400 50.77800 30.23900
C  16.71600 53.42700 30.22000
C  16.71500 53.83000 31.72000
H  15.79200 53.02000 32.70900
N  13.93000 52.75700 25.15000
C  12.97300 52.78600 26.11200
C  11.77100 53.32900 25.45800
C  12.05200 53.55100 24.08100
C  13.44300 53.17600 23.92200
C  10.39600 53.38300 26.20000
C  11.14200 54.06100 22.97000
O  11.49100 54.23500 21.82000
C  9.67500 54.33800 23.23900
N  16.46000 52.19500 23.34900
C  15.65100 52.67100 22.44200
C  16.20900 52.62700 21.00800
C  17.67500 52.16600 21.29300
C  17.59100 51.78100 22.74100
C  15.40500 51.57200 20.10600
C  18.76100 53.23700 21.12000
C  20.11400 52.77400 20.33600
N  17.75000 50.96300 25.57800
C  18.68700 50.52900 24.73800
C  19.78800 49.90300 25.40000
C  19.51800 50.20900 26.74000
C  18.33300 50.85500 26.82600
C  20.91900 49.18700 24.73400
C  20.13600 50.16600 28.02500
O  21.19800 49.72600 28.40900
C  19.02900 50.65100 29.10300
C  18.56200 49.41200 29.89000
O  18.01800 48.35400 29.48800
O  18.68000 49.70400 31.23100
C  18.06900 48.76700 32.15600
H  12.37700 52.73100 28.11000
H  13.79400 53.34300 21.80400
H  19.39600 50.73900 22.67900
H  16.57800 51.42300 30.64100
H  14.20600 53.03900 30.12200
H  13.27700 50.20300 29.49200
H  13.12000 51.09600 31.00800
H  14.53300 50.17600 30.80700
H  16.11200 54.24800 29.83200
H  17.73500 53.46700 29.83700
H  16.73900 54.91900 31.76000
H  17.71900 53.55500 32.04400
H  9.71400 52.62700 25.80900
H  9.85500 54.32300 26.09200
H  10.54500 53.20300 27.26400
H  9.29000 53.53600 23.87000
H  9.12400 54.32500 22.29900
H  9.45100 55.29400 23.71200
H  16.31100 53.51700 20.38700
H  17.91200 51.26100 20.73300
H  14.65800 52.18000 19.59700
H  14.90900 50.78300 20.67200
H  15.97100 51.09400 19.30600
H  19.06100 53.56800 22.11500
H  18.44500 54.16800 20.64900
H  20.01600 51.70700 20.13500
H  21.04900 52.96200 20.86300
H  20.23900 53.29600 19.38800
H  20.64900 49.12200 23.68000
H  21.00100 48.16100 25.09300
H  21.91600 49.61900 24.81700
H  19.30800 51.43800 29.80400
H  18.93300 48.21800 32.53000
H  17.29100 48.16100 31.69200
H  17.70400 49.25800 33.05800

