158

Mg 17.20100 -2.25900 27.47900
C  16.54900 -0.00500 30.19100
C  19.13500 -4.09600 29.54400
C  18.51800 -3.77100 24.71700
C  15.70700 0.19900 25.36400
N  17.83600 -2.00700 29.58000
C  17.37200 -1.12000 30.58800
C  17.97400 -1.38000 31.98700
C  18.94900 -2.60200 31.64000
C  18.66200 -2.91200 30.16500
C  20.53700 -2.47600 31.88600
C  16.93100 -1.65400 33.07500
C  17.38200 -1.29500 34.47500
H  18.90200 -1.44700 34.81900
N  18.51200 -3.84200 27.16900
C  19.17500 -4.53800 28.16400
C  19.98900 -5.53900 27.57500
C  19.72600 -5.53000 26.16300
C  18.86400 -4.37700 25.96200
C  20.82100 -6.48100 28.43400
C  20.08400 -6.48700 25.06500
O  19.94700 -6.26500 23.85600
C  20.84500 -7.68100 25.37900
N  16.99200 -1.92100 25.44200
C  17.68700 -2.63600 24.46700
C  17.48100 -2.02300 23.01000
C  16.38900 -0.94800 23.32800
C  16.25700 -0.92500 24.79400
C  18.79000 -1.53600 22.28500
C  15.05300 -1.19700 22.67100
C  14.42800 0.02300 21.99800
N  16.28000 -0.34400 27.64200
C  15.64600 0.51700 26.71900
C  15.04100 1.65200 27.38900
C  15.30600 1.48700 28.73200
C  16.11500 0.28200 28.86100
C  14.03100 2.60700 26.70100
C  15.06600 2.02200 30.01200
O  14.31800 2.95900 30.35600
C  15.86500 1.04500 31.02500
C  16.75600 1.83800 31.93900
O  17.90400 2.17500 31.67600
O  16.09300 2.07600 33.14700
C  16.79700 2.96900 34.08900
H  19.72400 -4.70900 30.22900
H  19.13800 -4.11700 23.88700
H  15.16900 0.88000 24.70100
H  18.55100 -0.49400 32.25300
H  18.64200 -3.39500 32.32200
H  21.05600 -3.39700 32.15000
H  20.72300 -1.69600 32.62500
H  20.90100 -2.18500 30.90000
H  16.76000 -2.73000 33.03900
H  15.95700 -1.21400 32.86400
H  16.90600 -2.06900 35.07800
H  16.97000 -0.36500 34.86700
H  21.27900 -5.89300 29.23000
H  21.63100 -7.00900 27.93100
H  20.25800 -7.18300 29.05000
H  20.24300 -8.24600 26.09100
H  21.76700 -7.28400 25.80300
H  21.16900 -8.39300 24.62000
H  17.04500 -2.80300 22.38500
H  16.69400 0.04600 23.00100
H  18.57800 -0.56600 21.83500
H  18.98900 -2.25000 21.48500
H  19.67300 -1.43100 22.91500
H  14.31800 -1.50600 23.41400
H  15.00300 -1.99400 21.93000
H  13.72300 -0.32400 21.24200
H  15.18900 0.62800 21.50400
H  13.91800 0.65500 22.72500
H  14.36300 2.97000 25.72900
H  14.10000 3.47300 27.36000
H  13.03700 2.17300 26.58800
H  15.10400 0.60200 31.66800
H  17.70000 2.58700 34.56400
H  16.07700 3.17200 34.88200
H  16.96700 3.88600 33.52400
Mg 47.09000 16.31800 28.48500
C  45.22700 15.47500 31.26200
C  48.74500 18.61600 30.27700
C  48.86300 17.19500 25.69000
C  45.05700 14.31900 26.53700
N  46.91700 16.96600 30.52700
C  46.22900 16.39000 31.52800
C  46.68900 16.90300 32.92400
C  47.63200 18.08000 32.55300
C  47.81300 17.82100 31.04100
C  47.13100 19.51900 32.92500
C  47.37800 15.83100 33.77600
C  47.12600 15.80100 35.31900
H  48.38200 15.81900 36.26400
N  48.67400 17.59700 28.07200
C  49.28200 18.39900 28.99400
C  50.44500 19.02800 28.41100
C  50.49700 18.66100 27.09700
C  49.34100 17.73600 26.87600
C  51.53100 19.64700 29.35000
C  51.47300 19.09300 25.93600
O  51.43200 18.69600 24.77300
C  52.63900 19.88400 26.36400
N  47.06300 15.69400 26.41600
C  47.90500 16.15400 25.45700
C  47.41600 15.71300 24.03400
C  46.42100 14.58900 24.44200
C  46.14500 14.84800 25.86300
C  46.67400 16.80000 23.26300
C  47.01800 13.19100 24.40700
C  47.03700 12.39600 23.07000
N  45.38700 15.24000 28.74400
C  44.68000 14.44900 27.88400
C  43.57500 13.73700 28.49600
C  43.79700 14.09600 29.86800
C  44.87700 14.99900 29.92900
C  42.46300 12.88100 27.93900
C  43.33500 13.95000 31.30500
O  42.40200 13.27800 31.72500
C  44.28200 14.74900 32.27700
C  43.46600 15.82900 32.97600
O  42.79100 16.69900 32.46400
O  43.41600 15.57300 34.36500
C  42.50300 16.27600 35.19300
H  49.39200 19.29000 30.84200
H  49.44800 17.51600 24.82600
H  44.31500 13.80900 25.92000
H  45.79300 17.28800 33.41300
H  48.63800 17.90400 32.93400
H  46.27700 19.80300 32.31000
H  47.96600 20.21000 32.81500
H  46.74100 19.47900 33.94200
H  48.46100 15.94800 33.74500
H  47.12300 14.83000 33.42700
H  46.46000 14.99400 35.62400
H  46.58400 16.74300 35.40100
H  51.35800 20.72300 29.36000
H  52.55400 19.42600 29.04600
H  51.41400 19.34400 30.39100
H  52.28800 20.78100 26.87400
H  53.23700 20.18700 25.50500
H  53.25400 19.26700 27.02000
H  48.25500 15.38500 23.42000
H  45.47200 14.55300 23.90900
H  45.65800 16.59300 22.92900
H  47.34400 16.91500 22.41100
H  46.59400 17.78200 23.72800
H  46.38800 12.57000 25.04300
H  47.99700 13.25100 24.88300
H  46.61700 11.43500 23.36900
H  48.09300 12.30100 22.81700
H  46.56400 12.86200 22.20600
H  41.86200 13.47300 27.25000
H  41.73600 12.64900 28.71700
H  42.86400 12.00000 27.43600
H  44.65300 14.03700 33.01500
H  41.67400 16.65400 34.59500
H  43.05300 17.13300 35.58200
H  42.19900 15.59600 35.98800

