158

Mg 25.74700 2.12800 29.15500
C  27.80300 1.45800 32.07200
C  23.00700 1.80700 31.20400
C  23.90200 2.19900 26.37800
C  28.57700 1.28500 27.28400
N  25.52800 1.81800 31.42000
C  26.42800 1.60300 32.41200
C  25.80500 1.79700 33.78400
C  24.30400 1.76700 33.48200
C  24.26900 1.79100 31.93500
C  23.53800 0.53400 33.98700
C  26.22400 3.06900 34.63900
C  26.70900 2.65100 36.05600
H  26.22400 3.61700 37.23100
N  23.73900 2.05600 28.82900
C  22.74000 1.92100 29.80100
C  21.42200 1.94100 29.16200
C  21.65800 2.18200 27.75400
C  23.16600 2.19200 27.61500
C  20.17600 1.79400 29.95200
C  20.65400 2.35200 26.67700
O  20.88900 2.70200 25.54900
C  19.19400 2.15400 27.08600
N  26.13400 1.56900 27.08700
C  25.25400 1.96200 26.14400
C  25.82300 1.99000 24.73000
C  27.24800 1.39700 25.02000
C  27.38800 1.46600 26.53500
C  25.02500 1.20300 23.67400
C  28.36400 2.20200 24.26500
C  29.56400 1.40100 23.62600
N  27.85900 1.57600 29.51400
C  28.77200 1.19600 28.63800
C  29.99900 0.91400 29.33400
C  29.68100 1.02600 30.70500
C  28.35400 1.39300 30.74300
C  31.29800 0.51700 28.74900
C  30.17100 0.89400 31.99700
O  31.30000 0.60000 32.34800
C  28.94700 1.12700 32.97300
C  28.70100 -0.02700 33.87800
O  27.97200 -0.98700 33.62600
O  29.24000 0.29700 35.05400
C  28.86200 -0.47400 36.23600
H  22.18100 1.83000 31.91800
H  23.24900 2.43900 25.53700
H  29.48300 1.20800 26.67900
H  26.07700 0.90000 34.33900
H  23.73900 2.65200 33.77600
H  23.29600 -0.11700 33.14700
H  22.64000 0.90200 34.48200
H  24.12600 -0.04700 34.69900
H  25.42800 3.81300 34.68700
H  27.07400 3.46600 34.08500
H  27.79400 2.60400 35.96600
H  26.33200 1.65600 36.29400
H  20.41900 1.45500 30.95900
H  19.54200 1.03600 29.49100
H  19.62400 2.73400 29.96100
H  18.47300 2.31600 26.28500
H  18.90000 2.81100 27.90400
H  19.13200 1.11900 27.42200
H  25.93000 3.04700 24.48700
H  27.33100 0.33700 24.77900
H  24.65300 1.89500 22.91800
H  24.14000 0.71300 24.08100
H  25.66200 0.47600 23.17100
H  28.90200 2.84400 24.96200
H  27.91000 2.87800 23.54000
H  29.38200 1.54600 22.56100
H  29.44800 0.37700 23.98400
H  30.54200 1.76200 23.94400
H  31.38800 0.99400 27.77300
H  31.52600 -0.51100 28.46700
H  32.08300 0.89100 29.40500
H  29.25300 2.00000 33.54900
H  27.93800 -0.07700 36.65600
H  29.67300 -0.47700 36.96400
H  28.76500 -1.51400 35.92600
Mg -0.30000 42.89000 26.54800
C  1.92600 43.12600 29.26100
C  -2.80900 42.66600 28.76200
C  -2.28500 42.19900 23.95100
C  2.47600 43.19300 24.30200
N  -0.40800 42.62900 28.81100
C  0.61700 42.90900 29.65200
C  0.04900 42.87500 31.12900
C  -1.48100 42.47900 30.90700
C  -1.59600 42.56900 29.41100
C  -1.86700 41.02700 31.47800
C  0.36000 44.23100 31.90100
C  1.00700 44.39700 33.33400
H  0.71400 43.24300 34.36200
N  -2.30500 42.59200 26.33700
C  -3.12700 42.61800 27.36700
C  -4.47800 42.51400 26.85400
C  -4.39500 42.16500 25.46000
C  -2.94000 42.33900 25.15100
C  -5.77100 42.83800 27.72900
C  -5.46800 41.73700 24.40700
O  -5.15600 41.46100 23.25200
C  -6.86700 41.73000 24.86800
N  0.06800 42.78900 24.35300
C  -0.93700 42.38900 23.56200
C  -0.37700 42.42400 22.06800
C  1.10400 42.88000 22.16600
C  1.22300 42.98000 23.68600
C  -0.49100 40.94600 21.58200
C  1.28900 44.19700 21.41500
C  1.97000 44.12900 20.00100
N  1.74100 43.04300 26.67500
C  2.75400 43.21200 25.74200
C  4.01500 43.41200 26.46000
C  3.73100 43.26700 27.81500
C  2.37400 43.12700 27.90500
C  5.26400 43.83700 25.72900
C  4.26800 43.43400 29.13300
O  5.44200 43.61100 29.45600
C  3.10000 43.36200 30.15300
C  3.44200 42.17900 30.97000
O  3.68600 41.02400 30.54100
O  3.71200 42.62700 32.25000
C  4.28500 41.50300 33.11100
H  -3.69500 42.57700 29.39400
H  -2.88900 42.04400 23.05400
H  3.29900 43.41100 23.61700
H  0.58900 42.04700 31.58800
H  -2.16500 43.27600 31.19700
H  -0.94900 40.53000 31.79100
H  -2.38900 40.41800 30.73900
H  -2.54300 41.05000 32.33300
H  -0.56600 44.80600 31.91500
H  1.04400 44.84900 31.32000
H  0.60300 45.31100 33.77000
H  2.08100 44.56600 33.25600
H  -6.40800 43.46900 27.10900
H  -5.68500 43.43600 28.63600
H  -6.30500 41.92400 27.98700
H  -6.85500 41.55800 25.94400
H  -7.52900 41.03800 24.34700
H  -7.36600 42.68800 24.73000
H  -1.04900 42.99900 21.43100
H  1.83200 42.12300 21.87300
H  0.23200 40.44100 22.22300
H  -0.23300 40.74100 20.54300
H  -1.41700 40.38900 21.72000
H  1.96200 44.82800 21.99500
H  0.36900 44.75300 21.23600
H  1.16900 44.39000 19.31000
H  2.35100 43.14000 19.74700
H  2.75800 44.86600 19.84500
H  5.63000 42.96200 25.19200
H  6.02300 44.27300 26.37900
H  4.84000 44.55400 25.02500
H  2.96700 44.36700 30.55300
H  4.58400 40.55100 32.67200
H  3.50200 41.23800 33.82100
H  5.08600 41.96300 33.69000

