158

Mg 42.86900 4.16100 47.19700
C  41.14900 7.08700 47.10200
C  40.06000 2.36100 46.88100
C  44.77900 1.38200 46.68300
C  45.94800 6.25900 46.72900
N  40.82000 4.74800 46.87300
C  40.33500 5.92900 47.08400
C  38.75000 5.93800 47.07000
C  38.45800 4.40000 47.10100
C  39.89600 3.76400 46.91700
C  37.76500 3.88900 48.39500
C  38.16000 6.71800 45.90900
C  39.04500 6.69000 44.57400
H  38.31100 6.11600 43.33300
N  42.45400 2.06800 46.93300
C  41.23200 1.55900 46.75300
C  41.29900 0.18100 46.60400
C  42.69400 -0.17900 46.48100
C  43.39200 1.12400 46.71600
C  40.02500 -0.77100 46.38200
C  43.21700 -1.57500 46.24500
O  42.40600 -2.49700 46.30500
C  44.64400 -1.87000 46.26200
N  44.99000 3.89200 46.70600
C  45.46800 2.59000 46.68000
C  47.03500 2.65300 46.59700
C  47.35500 4.17200 46.52900
C  45.95900 4.83500 46.63400
C  47.69600 1.93600 47.72800
C  48.31300 4.65800 45.40600
C  49.53100 5.46800 45.78900
N  43.46100 6.29400 47.02000
C  44.68900 6.95300 46.87100
C  44.49800 8.33300 46.79400
C  43.10000 8.48500 46.96100
C  42.54200 7.19400 46.94800
C  45.57700 9.32600 46.38300
C  42.01900 9.39500 47.15200
O  42.08700 10.64700 47.25400
C  40.73300 8.56700 47.07500
C  39.77600 8.93900 48.21100
O  39.68300 8.43200 49.34400
O  38.93400 9.87200 47.69600
C  37.82700 10.14600 48.55500
H  39.16500 1.73700 46.84400
H  45.39900 0.50300 46.49200
H  46.93500 6.72200 46.65600
H  38.37800 6.43500 47.96600
H  37.84600 4.14400 46.23600
H  37.39600 4.73800 48.97000
H  38.52400 3.41800 49.02000
H  36.94400 3.18200 48.27400
H  38.01300 7.71500 46.32400
H  37.17400 6.34300 45.63200
H  39.95100 6.08700 44.63900
H  39.36000 7.71500 44.37600
H  39.67000 -0.75400 45.35100
H  39.21300 -0.34900 46.97400
H  40.26000 -1.77400 46.73900
H  45.16000 -1.45800 47.12900
H  45.05300 -1.64100 45.27800
H  44.62400 -2.95900 46.28000
H  47.33600 2.15000 45.67700
H  47.85900 4.38500 47.47200
H  48.00800 0.92800 47.45700
H  47.04800 1.85300 48.60100
H  48.61000 2.46500 47.99600
H  47.68700 5.21900 44.71300
H  48.61100 3.82000 44.77500
H  50.43500 4.90300 45.56100
H  49.52900 5.65900 46.86200
H  49.54100 6.37600 45.18700
H  46.00900 9.02000 45.43000
H  46.36700 9.32800 47.13400
H  45.27600 10.36800 46.27500
H  40.28900 8.65700 46.08300
H  37.04100 10.65300 47.99500
H  38.13300 10.64200 49.47600
H  37.43900 9.13800 48.70600
Mg 40.48100 9.64600 28.59100
C  42.19700 10.58200 31.53700
C  38.24300 7.89300 30.86200
C  38.68100 8.70700 25.96800
C  43.14400 10.69600 26.57200
N  40.26600 9.21300 31.00500
C  41.05900 9.79800 31.90700
C  40.57600 9.38300 33.32900
C  39.62600 8.19600 33.09600
C  39.36200 8.46600 31.59300
C  40.22900 6.80100 33.38500
C  39.99000 10.58500 34.11400
C  40.46100 10.70900 35.55600
H  40.88300 12.13600 35.89600
N  38.74200 8.57700 28.44700
C  38.02500 7.86800 29.40600
C  36.80800 7.28700 28.81200
C  36.80500 7.56300 27.39300
C  38.12100 8.34600 27.25700
C  35.79300 6.54200 29.65000
C  35.79300 7.26300 26.29600
O  35.94500 7.50100 25.08800
C  34.45300 6.75900 26.74600
N  40.96200 9.66400 26.53700
C  39.95200 9.36600 25.69200
C  40.43100 9.59500 24.19700
C  41.76100 10.33000 24.36600
C  42.03500 10.24100 25.88200
C  40.46900 8.31100 23.30300
C  41.93700 11.70700 23.72900
C  41.23800 12.89600 24.24400
N  42.35800 10.44500 28.93400
C  43.33700 10.83800 28.00600
C  44.31800 11.55200 28.81400
C  43.90300 11.52100 30.17700
C  42.71000 10.78200 30.22800
C  45.53500 12.14700 28.22200
C  44.22800 12.02400 31.55900
O  45.14900 12.72300 32.01900
C  43.16200 11.39200 32.46100
C  43.77100 10.39800 33.47000
O  44.27000 9.31000 33.22100
O  43.77600 10.94700 34.73000
C  44.18900 10.08000 35.84500
H  37.64100 7.21200 31.46800
H  38.03900 8.54900 25.09900
H  43.83000 11.11300 25.83200
H  41.45500 8.97800 33.83100
H  38.76100 8.25400 33.75700
H  41.28100 6.95500 33.62600
H  40.29700 6.28500 32.42700
H  39.72800 6.17700 34.12500
H  38.91400 10.42400 34.18400
H  40.21900 11.52300 33.60900
H  41.26400 10.04300 35.87200
H  39.57500 10.54000 36.16700
H  35.97200 6.36100 30.71000
H  35.63000 5.58300 29.15800
H  34.87500 7.11900 29.75500
H  33.95100 6.47600 25.82100
H  33.82000 7.57700 27.08900
H  34.54600 5.97200 27.49400
H  39.69500 10.28600 23.78600
H  42.56300 9.70900 23.96500
H  39.40400 8.22100 23.09000
H  40.65600 7.38900 23.85400
H  41.13100 8.38500 22.44100
H  41.75000 11.53800 22.66900
H  43.00000 11.89300 23.87800
H  40.59600 13.23700 23.43200
H  41.90300 13.71900 24.50700
H  40.56800 12.69700 25.08100
H  45.65000 13.05800 28.81000
H  45.40000 12.38300 27.16700
H  46.34300 11.41600 28.26400
H  42.72500 12.14700 33.11400
H  43.81600 10.51100 36.77400
H  45.27500 10.13400 35.92500
H  44.01300 9.00800 35.76100

