158

Mg 17.23200 -2.12200 27.41500
C  15.98200 -0.01400 30.07700
C  19.21700 -3.54800 29.82500
C  18.66900 -3.98600 24.96200
C  15.60400 -0.10900 25.19400
N  17.58300 -1.76800 29.69100
C  16.90600 -0.91500 30.54500
C  17.32500 -1.14400 32.00100
C  18.52900 -2.12000 31.82000
C  18.54000 -2.44100 30.33900
C  19.91600 -1.54500 32.17900
C  16.15300 -1.79300 32.83800
C  16.23600 -1.63000 34.39200
H  17.44000 -0.82300 35.02100
N  18.62200 -3.69700 27.42700
C  19.39300 -4.09100 28.52300
C  20.16500 -5.28800 28.13900
C  19.92800 -5.51100 26.72900
C  19.05000 -4.42000 26.31500
C  21.01100 -6.09300 29.14100
C  20.52800 -6.58000 25.72000
O  20.10800 -6.58100 24.55500
C  21.50800 -7.63200 26.13700
N  17.12000 -2.08500 25.34200
C  17.92000 -2.86600 24.51900
C  17.61400 -2.58900 23.04900
C  16.53400 -1.44600 23.13500
C  16.34400 -1.21800 24.66300
C  18.92500 -2.28700 22.32600
C  15.27600 -1.85400 22.30900
C  13.93000 -2.13000 23.10500
N  16.01000 -0.47400 27.53000
C  15.34200 0.20300 26.51900
C  14.55300 1.23900 27.04600
C  14.72900 1.17800 28.44200
C  15.58000 0.07900 28.70200
C  13.88900 2.34300 26.25400
C  14.43200 1.79500 29.73500
O  13.71400 2.82500 29.92400
C  15.17700 0.93600 30.82400
C  15.98100 1.82200 31.68400
O  17.10600 2.21100 31.50600
O  15.23300 2.17800 32.76900
C  15.84600 3.17700 33.67700
H  19.96600 -3.83300 30.56700
H  19.16700 -4.55900 24.17800
H  15.08000 0.54100 24.49000
H  17.64000 -0.17600 32.39100
H  18.36100 -3.04100 32.37900
H  19.74600 -0.52400 32.52300
H  20.51600 -1.42900 31.27600
H  20.39900 -2.06100 33.00900
H  16.09100 -2.82900 32.50400
H  15.23200 -1.28800 32.54900
H  16.29600 -2.66400 34.73100
H  15.25100 -1.26400 34.68300
H  20.61600 -6.15700 30.15500
H  22.03500 -5.72500 29.06900
H  21.19200 -7.10600 28.78100
H  21.07500 -8.38500 26.79600
H  22.36000 -7.10300 26.56400
H  21.91100 -8.09500 25.23600
H  17.27500 -3.47500 22.51300
H  17.03800 -0.54300 22.79000
H  19.76100 -2.40200 23.01600
H  18.92600 -1.25300 21.98200
H  19.12000 -2.93800 21.47400
H  15.41100 -2.74600 21.69700
H  15.12100 -1.01100 21.63600
H  14.20300 -2.38900 24.12800
H  13.59200 -3.05100 22.63100
H  13.14600 -1.37300 23.07100
H  13.34100 3.04500 26.88400
H  13.27100 1.88300 25.48300
H  14.67000 2.97500 25.83300
H  14.44100 0.37500 31.40100
H  15.80800 4.15200 33.19100
H  16.88400 2.91200 33.87900
H  15.30500 3.26600 34.61900
Mg 35.67900 0.76900 29.98600
C  33.34600 1.85200 32.48100
C  37.98800 0.41100 32.74500
C  37.97800 0.16100 27.80800
C  33.38700 1.52400 27.63800
N  35.62200 1.10700 32.29700
C  34.61000 1.60300 33.02400
C  34.98200 1.61800 34.49200
C  36.58000 1.53900 34.46200
C  36.74000 1.00700 33.05900
C  37.26900 2.91700 34.51400
C  34.38000 0.41600 35.23100
C  34.44700 0.42200 36.81000
H  35.27700 1.50000 37.49300
N  37.68500 0.29600 30.23800
C  38.45600 0.13200 31.39600
C  39.79800 -0.27700 31.03800
C  39.76500 -0.56800 29.63500
C  38.45400 -0.00600 29.15800
C  40.99900 -0.45100 32.02200
C  40.78800 -1.15300 28.71400
O  40.60400 -1.16600 27.46700
C  42.04200 -1.59900 29.27500
N  35.73900 0.91700 27.99100
C  36.77300 0.55100 27.25500
C  36.46500 0.66600 25.72500
C  34.92800 0.95100 25.67500
C  34.61200 1.13800 27.15300
C  37.37500 1.66600 24.87300
C  33.98100 -0.10900 25.07700
C  33.42600 -1.27300 25.93900
N  33.73900 1.49600 29.94300
C  32.85200 1.65400 28.91100
C  31.57100 2.07200 29.41800
C  31.69700 2.13800 30.82400
C  33.02200 1.76400 31.09500
C  30.31400 2.24100 28.55200
C  31.06100 2.43700 32.09600
O  29.86400 2.68900 32.33600
C  32.11000 2.31800 33.21800
C  32.26400 3.73600 33.70800
O  32.57100 4.74700 32.99200
O  31.98700 3.73700 35.05500
C  31.46400 4.97100 35.58700
H  38.78400 0.30900 33.48500
H  38.68700 -0.06600 27.00900
H  32.77100 1.93100 26.83300
H  34.56600 2.48400 35.00700
H  36.95700 0.86500 35.23200
H  36.57700 3.73200 34.72800
H  37.73700 3.07300 33.54200
H  38.05500 2.86500 35.26800
H  34.94300 -0.50400 35.07100
H  33.34400 0.24900 34.93500
H  34.84200 -0.54800 37.11100
H  33.40400 0.55700 37.09800
H  41.83600 0.07500 31.56200
H  41.10400 -1.52400 32.18600
H  40.92400 0.04500 32.98900
H  42.04700 -2.05300 30.26600
H  42.69800 -0.73100 29.33200
H  42.46300 -2.32300 28.57700
H  36.66500 -0.33500 25.34400
H  34.68300 1.85900 25.12300
H  38.19800 1.93600 25.53400
H  36.79800 2.56200 24.64100
H  37.59700 1.11700 23.95800
H  34.62100 -0.60500 24.34800
H  33.13900 0.45300 24.67000
H  33.83200 -2.22200 25.59000
H  32.33700 -1.22100 25.96700
H  33.80400 -1.28000 26.96100
H  30.62300 2.67600 27.60200
H  29.62000 2.93800 29.02200
H  29.98900 1.21200 28.39800
H  31.74400 1.71400 34.04800
H  30.59500 4.80600 36.22300
H  31.14200 5.68300 34.82700
H  32.22300 5.50500 36.15900

