158

Mg 25.13600 1.50900 29.94500
C  27.10200 1.04400 32.86600
C  22.36600 1.28000 32.08900
C  23.24700 1.60100 27.29200
C  27.88500 0.59800 28.05000
N  24.85500 1.37700 32.23900
C  25.76800 1.25800 33.20400
C  25.19900 1.31700 34.67800
C  23.76200 1.18800 34.37200
C  23.60200 1.31000 32.79000
C  22.93600 -0.02300 34.92900
C  25.65800 2.57800 35.55600
C  26.18000 2.23600 36.97400
H  25.69300 3.09800 38.16600
N  23.03300 1.60400 29.75400
C  22.10800 1.50300 30.72300
C  20.84200 1.74600 30.00100
C  21.02700 1.74300 28.59000
C  22.47400 1.69900 28.47400
C  19.62900 2.11300 30.66800
C  20.09200 1.81400 27.45100
O  20.44200 1.80800 26.24000
C  18.59100 1.89100 27.75400
N  25.45600 0.73300 27.96600
C  24.57500 1.16800 27.03100
C  25.07600 1.14100 25.57700
C  26.58200 0.74200 25.83200
C  26.66500 0.75300 27.41500
C  24.24700 0.15200 24.71000
C  27.54200 1.69400 25.04200
C  28.04200 2.97900 25.80000
N  27.13500 1.05000 30.29500
C  28.13400 0.75100 29.42100
C  29.33600 0.68700 30.17300
C  28.97300 0.88000 31.52400
C  27.61900 1.06000 31.53600
C  30.63900 0.39200 29.58600
C  29.54300 0.68700 32.80500
O  30.67400 0.39000 33.22300
C  28.29800 0.87500 33.76500
C  28.39500 -0.30000 34.73500
O  27.83500 -1.42700 34.59700
O  29.03400 0.08100 35.81300
C  28.82400 -0.71400 37.06400
H  21.51400 1.21300 32.76900
H  22.81500 1.71400 26.29600
H  28.79400 0.48500 27.45700
H  25.52900 0.44300 35.24000
H  23.21000 2.08900 34.64000
H  22.22200 0.34200 35.66700
H  23.56900 -0.70900 35.49200
H  22.61300 -0.79900 34.23500
H  24.82800 3.28400 35.57900
H  26.54400 3.02300 35.10200
H  27.27000 2.22000 36.99100
H  25.85400 1.25800 37.32900
H  19.64800 2.05500 31.75600
H  18.96500 1.25500 30.56100
H  19.19700 3.04200 30.29600
H  18.05200 1.82700 26.80900
H  18.26300 2.80200 28.25500
H  18.26300 1.08600 28.41200
H  25.03900 2.12000 25.09900
H  26.76800 -0.31600 25.64300
H  23.34500 -0.11800 25.25900
H  24.81600 -0.72200 24.39300
H  23.83200 0.61200 23.81300
H  27.05300 2.03100 24.12800
H  28.47200 1.22900 24.71500
H  27.56500 2.91500 26.77800
H  27.69400 3.82100 25.20200
H  29.13100 2.95600 25.79600
H  31.48900 0.80100 30.13200
H  30.69400 0.79900 28.57600
H  30.66700 -0.68700 29.43400
H  28.32600 1.77400 34.37900
H  28.27200 -1.64600 36.94300
H  28.35200 -0.07400 37.81000
H  29.79100 -0.96900 37.49700
Mg 54.35700 24.05300 44.78000
C  51.93200 26.50400 43.34600
C  52.57000 21.61500 43.16600
C  57.02100 22.06100 44.95900
C  56.18900 26.77800 45.87800
N  52.55400 24.20300 43.29900
C  51.69900 25.21000 42.97600
C  50.56300 24.78800 42.06400
C  50.62500 23.22600 42.31600
C  52.05300 22.91000 42.92300
C  49.53700 22.84300 43.36300
C  50.73900 25.21900 40.62200
C  52.13600 25.69000 40.12500
H  52.95800 24.64700 39.41000
N  54.62800 22.05400 44.41300
C  53.78000 21.20900 43.80900
C  54.27200 19.86500 43.99400
C  55.65200 19.97300 44.37800
C  55.83900 21.38400 44.57400
C  53.42700 18.68500 43.64500
C  56.69800 18.82600 44.58900
O  56.32600 17.66400 44.55900
C  58.11700 19.11700 45.01900
N  56.46700 24.47600 45.01600
C  57.27500 23.44800 45.18800
C  58.57900 23.85600 45.86100
C  58.31200 25.34900 46.33200
C  56.89900 25.57800 45.72600
C  59.19400 22.92700 47.02300
C  59.35200 26.36500 45.69600
C  59.58300 27.66200 46.43300
N  54.18500 26.19400 44.63600
C  54.94500 27.10500 45.28200
C  54.24800 28.37800 45.29900
C  53.08700 28.16900 44.51900
C  53.10100 26.88300 44.04900
C  54.71500 29.52200 45.97600
C  51.86100 28.86100 44.08300
O  51.42100 30.00600 44.22500
C  51.09000 27.78600 43.24100
C  50.76700 28.31200 41.85400
O  51.61700 28.65900 41.02800
O  49.40700 28.36300 41.73600
C  49.09200 28.85000 40.36900
H  51.85700 20.87400 42.79900
H  57.90600 21.42700 45.04500
H  56.72500 27.59200 46.36800
H  49.74800 25.32000 42.55500
H  50.46100 22.63500 41.41500
H  48.61000 22.86400 42.78900
H  49.54000 23.52100 44.21600
H  49.76000 21.84700 43.74500
H  50.08500 26.06900 40.43000
H  50.42000 24.38900 39.99100
H  52.77900 26.20000 40.84200
H  51.97100 26.60800 39.56100
H  53.58800 18.20300 42.68000
H  52.46500 19.14900 43.43100
H  53.31800 18.05600 44.52800
H  58.52900 18.11600 45.15100
H  58.10900 19.58300 46.00500
H  58.66200 19.71600 44.29000
H  59.19900 23.74300 44.97200
H  58.24500 25.40800 47.41800
H  58.42200 22.17800 47.19600
H  59.43900 23.47700 47.93200
H  60.11400 22.45000 46.68500
H  59.00300 26.57700 44.68600
H  60.27800 25.80000 45.58900
H  60.64000 27.80300 46.66100
H  59.00000 27.57100 47.35000
H  59.30500 28.54200 45.85200
H  55.01600 30.27400 45.24600
H  55.48200 29.25300 46.70300
H  53.81900 29.90900 46.46000
H  50.19900 27.54600 43.82000
H  49.14900 29.93800 40.42000
H  48.05600 28.69200 40.06800
H  49.77700 28.32400 39.70500

