158

Mg 6.79600 53.35600 40.86800
C  6.60800 49.76700 40.39400
C  10.09200 53.11700 40.35700
C  6.89900 56.77200 40.79400
C  3.30300 53.37100 41.05200
N  8.18400 51.60900 40.40600
C  7.92600 50.25600 40.29300
C  9.16400 49.49000 39.84700
C  10.30200 50.59800 40.16600
C  9.46500 51.86500 40.30600
C  11.09000 50.45800 41.47200
C  9.15500 48.82200 38.48500
C  8.73100 49.75200 37.30700
H  7.34100 49.54700 36.71500
N  8.26900 54.71700 40.57400
C  9.59500 54.38600 40.34700
C  10.39100 55.63000 40.10700
C  9.45100 56.75200 40.19500
C  8.12500 56.11300 40.54400
C  11.78900 55.56700 39.60400
C  9.77800 58.23300 39.98200
O  10.91900 58.51400 39.84500
C  8.74400 59.35000 40.13900
N  5.27100 54.86700 40.66700
C  5.56700 56.21700 40.84400
C  4.23700 57.02300 41.30700
C  3.14800 55.88800 41.19900
C  3.95400 54.58800 40.95600
C  4.37400 57.57800 42.73500
C  2.02600 56.24600 40.15900
C  1.08800 57.44800 40.55600
N  5.23200 51.88500 40.71900
C  3.90300 52.11700 40.89600
C  3.28800 50.85000 40.86900
C  4.27900 49.94600 40.84800
C  5.48600 50.56800 40.60500
C  1.85100 50.47300 41.19200
C  4.55000 48.49700 41.01900
O  3.84000 47.54600 41.24700
C  6.00600 48.34400 40.72700
C  6.07600 47.35800 39.59700
O  5.86800 47.62400 38.40900
O  6.43200 46.14600 40.06700
C  6.45400 45.03900 39.09200
H  11.18400 53.10800 40.36900
H  6.89300 57.84300 41.01200
H  2.21900 53.44500 41.16800
H  9.31100 48.69300 40.57500
H  10.86900 50.64000 39.23600
H  10.87400 51.24400 42.19700
H  12.08700 50.66500 41.08400
H  11.08400 49.47800 41.94800
H  8.39300 48.05000 38.58200
H  10.19300 48.52900 38.32500
H  9.46700 49.79200 36.50400
H  8.77700 50.79800 37.60900
H  12.35900 54.69900 39.93400
H  12.33800 56.47400 39.85800
H  11.78700 55.56100 38.51400
H  8.03500 59.17900 39.32900
H  9.33200 60.25300 39.97700
H  8.26800 59.33200 41.11900
H  4.02500 57.76900 40.54000
H  2.63700 55.79500 42.15800
H  5.39500 57.58800 43.11600
H  3.86900 56.97300 43.48700
H  4.03800 58.61200 42.80300
H  1.43600 55.33300 40.07900
H  2.49900 56.35800 39.18300
H  1.56600 57.75200 41.48700
H  0.11900 57.01400 40.80500
H  1.05800 58.25200 39.82100
H  1.36700 50.32800 40.22600
H  1.37000 51.28800 41.73400
H  1.70000 49.50500 41.66900
H  6.56900 47.85200 41.52000
H  5.41700 44.92200 38.77600
H  6.73800 44.12700 39.61700
H  7.22300 45.14500 38.32700
Mg 16.39900 52.45800 25.21800
C  18.09700 51.00100 27.98100
C  13.67100 52.94900 27.29700
C  14.55200 53.27800 22.54000
C  19.02600 51.21700 23.20600
N  15.96500 52.09000 27.33400
C  16.85900 51.53100 28.30400
C  16.24500 51.71200 29.77400
C  14.79900 52.23400 29.52300
C  14.80700 52.45300 27.96600
C  13.59000 51.33900 29.90200
C  17.14100 52.69400 30.66000
C  17.32800 52.27600 32.09600
H  16.25000 51.30600 32.61400
N  14.36600 53.12600 24.95600
C  13.39400 53.21800 25.95000
C  12.18600 53.81800 25.26300
C  12.44800 53.83900 23.85400
C  13.82800 53.40800 23.74500
C  10.94200 54.12500 26.01900
C  11.53400 54.29900 22.71900
O  11.87000 54.33700 21.55900
C  10.13400 54.79300 22.97500
N  16.70400 52.17400 23.24100
C  15.82800 52.67000 22.33200
C  16.37400 52.76600 20.95800
C  17.79100 52.06200 21.03600
C  17.90500 51.85800 22.58100
C  15.49900 52.39100 19.71700
C  18.98200 52.89500 20.34900
C  19.86300 52.12100 19.37200
N  18.19800 51.37100 25.45200
C  19.16700 50.92400 24.57900
C  20.15400 50.15000 25.21800
C  19.75900 50.14300 26.55900
C  18.57100 50.87300 26.65400
C  21.28200 49.29300 24.57400
C  20.11700 49.70400 27.89400
O  21.04000 49.02300 28.36600
C  19.11500 50.32100 28.81200
C  18.45000 49.16800 29.58700
O  17.50200 48.45200 29.17500
O  18.99400 49.05500 30.90200
C  18.65400 47.93600 31.69600
H  12.79200 53.20000 27.89400
H  14.06600 53.64000 21.63200
H  19.89800 50.96000 22.60100
H  16.26100 50.72300 30.23200
H  14.60500 53.22000 29.94700
H  13.96300 50.37300 30.24200
H  12.95700 51.23800 29.02000
H  13.03300 51.77500 30.73200
H  16.62300 53.64300 30.79300
H  18.07100 52.84000 30.11000
H  17.38800 53.17000 32.71800
H  18.26600 51.72300 32.14400
H  10.17500 53.49000 25.57600
H  10.78900 55.17100 25.75400
H  11.04800 54.09500 27.10300
H  10.16200 55.69900 23.58200
H  9.50500 53.96700 23.30300
H  9.68700 55.12200 22.03700
H  16.74400 53.78900 20.88600
H  17.87600 51.03800 20.67300
H  14.57300 51.90800 20.03000
H  15.99800 51.79500 18.95300
H  15.13000 53.27000 19.18900
H  19.57400 53.32300 21.15800
H  18.63400 53.78200 19.81900
H  19.77800 51.03900 19.46800
H  20.88700 52.43500 19.57300
H  19.67100 52.38700 18.33300
H  22.11700 49.94100 24.30600
H  21.10000 48.84900 23.59500
H  21.62600 48.65700 25.38900
H  19.70700 50.90800 29.51300
H  17.57000 47.84300 31.75800
H  19.00500 48.08100 32.71800
H  19.13300 47.05100 31.27800

