158

Mg -1.10700 17.39100 26.08000
C  -1.45100 15.13100 28.93600
C  -1.89900 19.94100 28.15200
C  -0.89200 19.36800 23.39300
C  -0.90800 14.58200 24.00400
N  -1.53400 17.50900 28.34100
C  -1.53600 16.47800 29.29300
C  -1.95400 17.01800 30.65700
C  -2.01700 18.56200 30.37500
C  -1.87000 18.72100 28.83200
C  -3.30800 19.24800 30.92400
C  -1.02400 16.64100 31.86300
C  -1.05700 17.38500 33.18400
H  -1.23800 16.59300 34.42900
N  -1.35000 19.40200 25.83100
C  -1.70300 20.34200 26.81000
C  -1.68400 21.61600 26.20600
C  -1.28800 21.45100 24.94000
C  -1.09900 20.02700 24.61400
C  -2.11400 22.84600 27.01000
C  -0.99500 22.50300 23.86900
O  -0.77700 22.26600 22.73800
C  -1.05000 23.92200 24.28300
N  -0.91100 17.06200 24.01000
C  -0.83900 18.01900 23.06200
C  -0.69000 17.49500 21.62700
C  -0.47400 16.01200 21.97800
C  -0.82900 15.87600 23.39700
C  -1.97300 17.79000 20.72000
C  0.98300 15.43200 21.69000
C  2.17100 15.95200 22.60200
N  -1.21200 15.27100 26.36500
C  -1.08100 14.27100 25.40500
C  -1.00000 12.96200 26.02700
C  -1.17500 13.24700 27.43600
C  -1.23300 14.68100 27.58700
C  -0.90200 11.68100 25.32400
C  -1.32200 12.66000 28.69200
O  -1.29500 11.46400 29.01700
C  -1.46900 13.85100 29.72100
C  -0.41400 13.75700 30.63800
O  0.74700 14.09600 30.47200
O  -0.86200 13.14300 31.77200
C  0.21700 13.04200 32.79900
H  -2.17700 20.81500 28.74600
H  -0.87100 20.03500 22.52900
H  -0.70700 13.76400 23.30800
H  -2.92900 16.57000 30.85100
H  -1.11600 19.00700 30.79700
H  -3.80600 18.70800 31.72800
H  -3.98500 19.47900 30.10200
H  -3.02100 20.21400 31.33900
H  0.00900 16.68500 31.52100
H  -1.32300 15.60100 31.99000
H  -1.93500 18.02800 33.12900
H  -0.14800 17.98600 33.20600
H  -2.70000 23.54100 26.40900
H  -1.27500 23.41000 27.41800
H  -2.85400 22.56400 27.75900
H  -0.51200 24.09900 25.21400
H  -2.08600 24.25600 24.33100
H  -0.62700 24.56600 23.51200
H  0.25800 17.77900 21.16800
H  -1.17700 15.36400 21.45400
H  -2.74600 17.96000 21.47000
H  -2.35700 16.93900 20.15800
H  -1.74200 18.55300 19.97700
H  1.33500 15.54400 20.66400
H  0.93000 14.36100 21.88400
H  1.66100 16.61300 23.30300
H  2.85400 16.59800 22.05100
H  2.63000 15.10200 23.10600
H  -1.74200 11.41600 24.68300
H  -0.79400 10.89100 26.06700
H  -0.00000 11.80800 24.72500
H  -2.43400 13.82000 30.22700
H  -0.05400 13.71100 33.61500
H  1.27500 13.23800 32.62000
H  0.20300 12.08000 33.31100
Mg -1.58500 34.51100 26.70800
C  -3.28900 32.54300 28.99800
C  -0.85100 36.66500 29.24600
C  -0.14600 36.69400 24.45600
C  -2.76700 32.56500 24.23200
N  -2.18300 34.63400 28.90600
C  -2.76100 33.66200 29.63900
C  -2.59800 33.89700 31.14100
C  -1.84900 35.27600 31.22900
C  -1.59700 35.56300 29.69200
C  -2.60100 36.49100 31.93600
C  -1.68900 32.75300 31.80800
C  -2.16900 32.30200 33.23200
H  -1.13000 32.44500 34.38600
N  -0.47400 36.37400 26.88900
C  -0.31800 37.08400 28.00900
C  0.50000 38.25900 27.67600
C  0.75000 38.26900 26.30100
C  0.08000 37.07200 25.83300
C  1.03400 39.23800 28.74400
C  1.40300 39.42700 25.37900
O  1.25500 39.43700 24.14200
C  2.05100 40.60600 26.04400
N  -1.49300 34.73500 24.62600
C  -0.77100 35.60200 23.90300
C  -0.92600 35.34900 22.44600
C  -1.58300 33.94600 22.36300
C  -2.02800 33.73700 23.82400
C  -1.81900 36.48200 21.75400
C  -0.61400 32.81400 21.85800
C  0.61800 32.32300 22.69800
N  -2.86800 32.89300 26.58000
C  -3.27700 32.20000 25.49900
C  -4.10200 31.09000 25.76400
C  -4.08300 31.11600 27.18600
C  -3.35600 32.24100 27.62300
C  -4.70300 30.25300 24.79300
C  -4.56600 30.44500 28.37400
O  -5.23700 29.45800 28.58500
C  -4.05400 31.29200 29.59600
C  -5.15700 31.56800 30.63400
O  -6.11500 32.26500 30.39500
O  -4.83800 31.07700 31.86100
C  -5.86900 31.38000 32.83600
H  -0.57000 37.29500 30.09300
H  0.35200 37.28200 23.68200
H  -2.99600 31.73700 23.55800
H  -3.55700 33.95300 31.65600
H  -0.92100 35.19200 31.79500
H  -3.25000 36.83400 31.13000
H  -1.93400 37.23200 32.37700
H  -3.11700 36.10800 32.81600
H  -0.67100 33.13300 31.90100
H  -1.63500 31.88400 31.15200
H  -2.48800 31.28700 32.99400
H  -3.08800 32.80800 33.52800
H  0.67000 40.22500 28.46000
H  2.12200 39.19500 28.80500
H  0.61900 39.02000 29.72800
H  1.15800 41.13800 26.36900
H  2.51800 41.15100 25.22400
H  2.67500 40.22500 26.85200
H  0.01800 35.38100 21.90200
H  -2.52500 33.81200 21.83000
H  -1.27100 37.17800 21.11900
H  -2.28700 37.18900 22.44000
H  -2.58100 35.98100 21.15700
H  -0.37800 33.16900 20.85500
H  -1.24900 31.98200 21.55500
H  0.34400 31.35300 23.11400
H  0.88600 32.87000 23.60200
H  1.46600 32.22800 22.02000
H  -5.59200 29.79300 25.22300
H  -3.90600 29.55500 24.53700
H  -4.85000 30.88100 23.91400
H  -3.29400 30.72000 30.12900
H  -6.53400 30.52800 32.70000
H  -6.39700 32.32600 32.71900
H  -5.41200 31.35400 33.82600

