158

Mg 9.98100 47.36900 26.02800
C  8.02700 47.33500 28.92900
C  12.63300 48.77900 27.97200
C  11.92200 47.56600 23.29000
C  7.09600 46.86600 24.14100
N  10.18000 48.01200 28.12000
C  9.35000 47.71700 29.11600
C  9.84000 48.35100 30.37200
C  11.12700 49.12100 30.02900
C  11.34200 48.55300 28.62300
C  11.02100 50.67300 30.08100
C  10.10500 47.31400 31.56300
C  9.74500 47.69100 33.01300
H  9.87900 46.60000 34.07000
N  12.02800 47.96400 25.67700
C  12.92600 48.47800 26.64100
C  14.29000 48.43400 25.97200
C  14.09500 48.09800 24.57400
C  12.61000 47.90100 24.45300
C  15.59500 48.78100 26.76500
C  15.24300 47.75900 23.52600
O  14.98600 47.45300 22.34300
C  16.68800 47.82500 23.94200
N  9.51900 47.28800 24.01300
C  10.55500 47.24700 23.09400
C  10.01900 47.07900 21.65300
C  8.50100 46.67700 21.92400
C  8.34300 46.99500 23.46200
C  10.35600 48.31000 20.78000
C  8.21800 45.21800 21.57500
C  8.47900 44.13800 22.68600
N  7.90100 47.03600 26.43500
C  6.86500 46.87100 25.57000
C  5.65600 46.77900 26.36800
C  6.04800 46.87700 27.69100
C  7.46800 47.06400 27.69900
C  4.25300 46.64900 25.80700
C  5.59100 46.88600 29.08600
O  4.43800 46.65300 29.55800
C  6.90900 47.27500 29.91200
C  7.15800 46.13300 30.82400
O  7.72500 45.13300 30.48300
O  6.58700 46.42400 32.05600
C  6.50200 45.24200 32.89200
H  13.44200 49.13800 28.61200
H  12.47700 47.50800 22.35200
H  6.20000 46.74500 23.52900
H  9.06200 49.04000 30.70000
H  12.00400 48.82600 30.60600
H  11.41400 51.06100 29.14200
H  11.52500 51.12600 30.93500
H  10.02000 51.09000 30.18700
H  11.19100 47.23100 31.59700
H  9.75800 46.30200 31.35600
H  8.70100 48.00400 33.05100
H  10.41200 48.52800 33.21600
H  15.40200 48.94000 27.82600
H  15.86200 49.74500 26.33200
H  16.32700 47.97900 26.67200
H  16.72000 46.89300 24.50600
H  16.84300 48.71600 24.54900
H  17.50200 47.91800 23.22400
H  10.50900 46.21500 21.20400
H  7.74400 47.28500 21.42900
H  10.76300 49.12900 21.37300
H  9.49800 48.83400 20.35800
H  11.11600 48.05700 20.04100
H  8.75800 44.91000 20.68000
H  7.14400 45.08800 21.44000
H  8.93800 44.32700 23.65600
H  9.23300 43.49300 22.23500
H  7.55700 43.57200 22.81900
H  4.04300 45.59600 25.62100
H  4.27100 47.15100 24.84000
H  3.57000 47.17700 26.47400
H  6.82200 48.21300 30.46000
H  6.26900 44.36100 32.29500
H  5.62500 45.35500 33.53100
H  7.36500 45.28300 33.55600
Mg -6.44400 25.38900 25.82700
C  -4.60500 26.85800 28.33600
C  -7.60700 23.05000 28.04100
C  -7.88800 23.78000 23.24400
C  -4.90200 27.64900 23.63100
N  -5.97500 24.90800 27.90300
C  -5.36500 25.78100 28.77800
C  -5.74100 25.36200 30.29100
C  -6.40400 23.99000 30.08800
C  -6.67700 23.98100 28.59100
C  -5.58800 22.81000 30.60600
C  -6.72600 26.41200 30.88400
C  -6.36800 26.69900 32.36600
H  -5.87200 25.54000 33.32800
N  -7.63500 23.67100 25.67700
C  -8.04800 22.84100 26.74700
C  -8.96800 21.85800 26.21800
C  -9.05300 22.11600 24.81600
C  -8.12800 23.20200 24.47900
C  -9.61900 20.66700 26.95800
C  -9.97300 21.42000 23.78500
O  -9.85100 21.59400 22.58000
C  -11.05000 20.50900 24.26500
N  -6.37500 25.68800 23.73200
C  -7.14400 24.91300 22.88000
C  -6.98500 25.41100 21.45600
C  -6.09700 26.69800 21.58100
C  -5.81800 26.72600 23.10800
C  -6.38800 24.29200 20.47000
C  -6.73500 27.99500 20.96000
C  -5.98700 28.65500 19.82400
N  -5.06200 26.93800 25.96100
C  -4.49500 27.72900 24.96600
C  -3.58200 28.68800 25.49500
C  -3.66500 28.45200 26.86900
C  -4.44300 27.30600 27.09200
C  -2.80700 29.77300 24.79000
C  -3.17900 28.82000 28.23700
O  -2.36200 29.67800 28.49900
C  -3.83800 27.89600 29.25100
C  -2.82000 27.22300 30.06500
O  -1.81500 26.61800 29.68000
O  -3.14300 27.39800 31.41900
C  -2.21500 26.83000 32.38400
H  -8.12400 22.37600 28.72700
H  -8.40500 23.28100 22.42200
H  -4.37300 28.29400 22.92700
H  -4.83700 25.38400 30.90000
H  -7.37300 23.95200 30.58600
H  -5.23100 22.13200 29.83100
H  -6.26400 22.28500 31.28100
H  -4.70200 23.22000 31.09200
H  -7.75800 26.07200 30.96300
H  -6.73300 27.30800 30.26400
H  -7.31600 27.09800 32.72700
H  -5.59400 27.44400 32.18100
H  -9.46600 19.70600 26.46600
H  -10.66100 20.92700 27.14700
H  -9.19900 20.55100 27.95700
H  -10.78100 19.49200 24.55000
H  -11.71800 20.39400 23.41100
H  -11.61900 21.07300 25.00300
H  -7.99000 25.73000 21.18000
H  -5.22400 26.42800 20.98600
H  -7.21100 23.67400 20.11000
H  -5.63100 23.66400 20.94200
H  -5.92600 24.74800 19.59400
H  -6.85400 28.59400 21.86300
H  -7.73800 27.74200 20.61400
H  -5.09800 28.04600 19.66200
H  -5.73800 29.70000 20.00900
H  -6.58000 28.52900 18.91800
H  -3.44400 30.12000 23.97700
H  -1.90800 29.38900 24.30700
H  -2.61000 30.63600 25.42600
H  -4.48300 28.42600 29.95300
H  -1.38900 27.54100 32.40600
H  -1.89400 25.81900 32.13200
H  -2.65500 26.89900 33.37900

