158

Mg 24.77000 1.45200 29.67600
C  26.92500 1.23300 32.50500
C  22.07400 1.24400 31.96400
C  22.84500 1.06200 27.10000
C  27.65900 0.93100 27.64900
N  24.53300 1.20300 31.96400
C  25.59200 1.33000 32.88400
C  25.05600 1.54600 34.25900
C  23.53600 1.25400 34.09200
C  23.35500 1.28600 32.59000
C  22.93400 -0.02800 34.72100
C  25.35600 2.92100 35.03600
C  25.99900 2.81900 36.41800
H  25.55000 3.84500 37.51900
N  22.77600 1.31500 29.59900
C  21.79500 1.24500 30.61700
C  20.50200 1.12100 30.05300
C  20.72700 1.09200 28.61000
C  22.18600 1.18800 28.37100
C  19.22700 1.14700 30.85700
C  19.65800 0.93900 27.46300
O  19.94100 0.90700 26.30300
C  18.22200 0.61800 27.78800
N  25.24200 0.97000 27.62500
C  24.23300 0.99200 26.72300
C  24.67400 1.27300 25.28300
C  26.26500 1.23000 25.43600
C  26.43500 1.03700 26.97800
C  24.02100 0.43600 24.10600
C  26.90300 2.50100 24.85000
C  26.66700 3.82500 25.56000
N  26.88500 1.08400 29.97500
C  27.92000 0.84600 29.09500
C  29.17700 0.62700 29.83000
C  28.83600 0.85500 31.13400
C  27.44300 1.03800 31.19700
C  30.45700 0.47100 29.23800
C  29.38200 0.90500 32.48900
O  30.54800 0.79600 32.88700
C  28.14000 1.16200 33.39700
C  28.03400 0.00600 34.31200
O  28.04700 -1.13500 34.01300
O  28.08800 0.47500 35.60700
C  28.65500 -0.43300 36.64500
H  21.21000 1.16700 32.62800
H  22.22000 0.86400 26.22700
H  28.51900 1.06500 26.99000
H  25.48300 0.68600 34.77600
H  23.02700 2.04000 34.65000
H  22.73100 -0.87500 34.06500
H  21.96300 0.10100 35.20000
H  23.65300 -0.37300 35.46300
H  24.44500 3.51900 35.00300
H  26.09900 3.47100 34.45700
H  27.00900 3.16200 36.19600
H  25.79400 1.80900 36.77300
H  18.82000 2.14900 30.71900
H  19.25900 0.88100 31.91400
H  18.50000 0.42100 30.49200
H  18.20500 -0.28100 28.40400
H  17.63500 0.46100 26.88300
H  17.85800 1.52800 28.26500
H  24.34700 2.28900 25.06400
H  26.68700 0.29400 25.07000
H  24.71700 -0.22100 23.58300
H  23.66000 1.13800 23.35400
H  23.19400 -0.11700 24.55100
H  26.50700 2.60800 23.84000
H  27.96800 2.28600 24.75600
H  26.25900 3.64700 26.55500
H  25.92700 4.47700 25.09400
H  27.64300 4.27800 25.73300
H  30.61000 -0.26700 28.45000
H  31.16800 0.37600 30.05900
H  30.51600 1.46100 28.78700
H  28.25300 2.04700 34.02300
H  28.00000 -0.31400 37.50800
H  29.64000 0.01300 36.77800
H  28.68600 -1.46400 36.29100
Mg 49.80000 46.30600 41.98400
C  46.90500 48.06800 41.11700
C  48.56700 43.60300 40.26100
C  52.78200 44.89400 41.95500
C  51.20600 49.31800 43.17000
N  47.81600 45.88100 40.95200
C  46.79100 46.73000 40.72300
C  45.65500 46.01900 39.92800
C  46.33300 44.58400 39.75100
C  47.68900 44.63400 40.34200
C  45.47500 43.42600 40.26800
C  45.29900 46.71300 38.53300
C  43.97800 46.19000 37.88900
H  44.00500 45.02500 36.90100
N  50.49400 44.38100 41.43900
C  49.80700 43.41200 40.79900
C  50.64500 42.24100 40.65300
C  51.94700 42.61700 41.11000
C  51.78200 44.01200 41.57100
C  50.15800 40.85800 40.04000
C  53.09100 41.69100 41.24300
O  53.00500 40.49700 40.80200
C  54.37600 41.96400 41.95600
N  51.75700 47.08600 42.54900
C  52.84500 46.25200 42.36900
C  54.08800 47.07400 42.76800
C  53.58400 48.47100 43.18200
C  52.10000 48.30000 43.02900
C  55.08300 46.27700 43.65200
C  54.32600 49.72000 42.49700
C  55.71500 50.06700 43.16700
N  49.16000 48.27200 42.18600
C  49.88900 49.36000 42.69700
C  48.90600 50.50600 42.79600
C  47.76000 49.98200 42.21100
C  47.94100 48.63400 41.85800
C  49.09100 51.91200 43.31200
C  46.40900 50.31600 41.83000
O  45.76100 51.31200 41.95700
C  45.93600 49.12000 40.93900
C  44.67300 48.63300 41.45400
O  44.48900 48.14300 42.55100
O  43.73700 48.68700 40.47600
C  42.36400 48.42000 41.03400
H  48.11200 42.73500 39.77900
H  53.73500 44.36500 41.89000
H  51.66300 50.25700 43.49000
H  44.77400 46.05500 40.56800
H  46.42200 44.34500 38.69100
H  45.33300 42.73000 39.44100
H  44.49900 43.74800 40.63200
H  46.09100 42.90100 40.99900
H  46.12100 46.43400 37.87400
H  45.36900 47.79900 38.57700
H  43.46000 47.04300 37.45000
H  43.31500 45.80300 38.66200
H  50.78700 40.69100 39.16500
H  49.09400 40.80000 39.81200
H  50.25300 40.06900 40.78600
H  54.92500 41.02200 41.94400
H  54.15200 42.34200 42.95400
H  54.98000 42.62500 41.33600
H  54.62900 47.36600 41.86900
H  53.65800 48.61900 44.25900
H  54.48800 45.43800 44.01100
H  55.43400 46.81800 44.53000
H  55.85100 45.91800 42.96700
H  53.62200 50.54800 42.58500
H  54.53500 49.51500 41.44700
H  56.53900 50.11900 42.45600
H  55.96400 49.30200 43.90200
H  55.61300 51.02600 43.67500
H  50.01500 52.34500 42.92900
H  49.14300 51.85000 44.39900
H  48.29400 52.48700 42.84100
H  45.82400 49.49600 39.92200
H  42.24500 47.68100 41.82600
H  41.93300 47.92700 40.16200
H  41.91800 49.40200 41.19200

