158

Mg 28.54600 58.35300 42.81700
C  26.34300 56.34400 41.14500
C  31.13000 57.08100 41.00600
C  30.62400 61.07300 43.64100
C  26.03900 60.19200 44.15700
N  28.67200 56.81900 41.31300
C  27.67800 56.10000 40.72900
C  28.13200 54.95900 39.89100
C  29.74500 55.18900 39.95100
C  29.90100 56.41500 40.86300
C  30.64100 53.95000 40.28200
C  27.54200 55.22300 38.48400
C  26.77200 53.97800 37.86900
H  27.22800 53.58700 36.52000
N  30.66900 58.78900 42.64200
C  31.50800 58.09800 41.81400
C  32.81300 58.66000 41.90400
C  32.71000 59.89400 42.60600
C  31.31100 59.96900 43.05300
C  34.04300 58.24400 41.07200
C  33.92500 60.89200 42.82800
O  35.04100 60.62400 42.46900
C  33.78700 62.11800 43.61500
N  28.46100 60.42300 43.72000
C  29.37100 61.33700 44.00200
C  28.88400 62.60700 44.62200
C  27.42000 62.23100 44.95200
C  27.24100 60.85200 44.27100
C  29.61700 63.05400 45.96000
C  26.29700 63.23500 44.55300
C  25.40400 63.63400 45.73800
N  26.58300 58.27100 42.77600
C  25.64600 59.10900 43.34400
C  24.31800 58.57200 43.03700
C  24.53600 57.49800 42.20100
C  25.98100 57.39500 42.03900
C  23.02000 59.12000 43.57500
C  23.90800 56.44200 41.44300
O  22.73500 56.08400 41.45000
C  25.04200 55.62500 40.76700
C  24.93100 54.22600 41.31300
O  25.34200 53.80600 42.37300
O  24.28400 53.49800 40.36100
C  24.05600 52.08500 40.77600
H  31.89900 56.64000 40.36800
H  31.15800 61.95100 44.01000
H  25.25700 60.67800 44.74300
H  27.94400 54.02600 40.42300
H  30.11800 55.51400 38.98000
H  30.15500 52.97500 40.29700
H  31.10800 54.21900 41.22900
H  31.40400 53.75100 39.53000
H  28.35500 55.42900 37.78900
H  26.78200 56.00500 38.44600
H  25.70600 54.19800 37.80200
H  27.02200 53.19300 38.58300
H  33.99300 58.81500 40.14400
H  33.93300 57.21900 40.71800
H  34.99200 58.36600 41.59300
H  33.04500 62.88100 43.38300
H  34.76500 62.59600 43.55700
H  33.73500 61.93200 44.68700
H  28.67400 63.29200 43.80100
H  27.20500 61.98500 45.99200
H  29.40700 64.11400 46.10700
H  30.67200 62.93600 45.71100
H  29.29800 62.48400 46.83200
H  25.63000 62.76100 43.83300
H  26.63500 64.11700 44.00800
H  25.84600 64.26300 46.51000
H  25.07000 62.72200 46.23200
H  24.51400 64.15900 45.39100
H  23.03900 60.21000 43.58300
H  22.86100 58.79900 44.60500
H  22.23600 58.70400 42.94300
H  24.91300 55.56700 39.68600
H  23.81100 52.06200 41.83800
H  24.93300 51.49400 40.51000
H  23.21700 51.70700 40.19200
Mg -1.62100 34.25500 27.00600
C  -3.38900 32.44000 29.51600
C  -0.57700 36.42400 29.33100
C  -0.25800 35.85000 24.50600
C  -3.11500 32.01600 24.69900
N  -1.97900 34.37900 29.16200
C  -2.64200 33.47000 29.99900
C  -2.31100 33.84700 31.49500
C  -1.51400 35.16500 31.37000
C  -1.39400 35.42200 29.87000
C  -2.10100 36.42700 32.12800
C  -1.61000 32.67200 32.34000
C  -2.48800 32.02600 33.36100
H  -1.83100 32.00100 34.73100
N  -0.46100 35.85600 26.90400
C  -0.19500 36.63800 27.95700
C  0.60600 37.69700 27.51900
C  0.78400 37.56700 26.12400
C  -0.05600 36.39600 25.78500
C  1.22800 38.68000 28.51400
C  1.63000 38.32100 25.19700
O  1.82500 37.87100 24.06700
C  2.38400 39.50000 25.71400
N  -1.66600 33.88200 24.86900
C  -0.96600 34.72200 24.10500
C  -1.25500 34.38800 22.62400
C  -2.12700 33.11800 22.73600
C  -2.27000 32.92200 24.18900
C  -1.87200 35.52100 21.71900
C  -1.65500 31.88600 21.89100
C  -2.69500 31.27700 20.97100
N  -3.06100 32.72600 27.03200
C  -3.53500 31.86800 26.04500
C  -4.35500 30.83200 26.55200
C  -4.35900 31.01700 27.92500
C  -3.60000 32.20200 28.19000
C  -4.86400 29.63900 25.83700
C  -4.77300 30.39600 29.14500
O  -5.37200 29.32100 29.31900
C  -4.09400 31.28300 30.27100
C  -5.23300 31.76500 31.18200
O  -6.13300 32.53600 30.81100
O  -5.15300 31.11300 32.31700
C  -6.29000 31.26700 33.30900
H  -0.16400 37.08100 30.09900
H  0.09000 36.42900 23.64800
H  -3.42300 31.34400 23.89500
H  -3.30500 34.02400 31.90800
H  -0.47800 34.97500 31.64700
H  -2.33800 37.12500 31.32600
H  -1.33200 36.85900 32.76800
H  -3.08900 36.20600 32.53300
H  -0.74800 33.10500 32.84800
H  -1.26400 31.84400 31.72000
H  -2.61200 31.03000 32.93700
H  -3.48900 32.45400 33.41500
H  0.34600 39.11400 28.98500
H  1.78900 39.50800 28.08300
H  1.88300 38.19000 29.23500
H  2.89700 40.01000 24.89900
H  3.14700 39.09000 26.37600
H  1.87200 40.31000 26.23300
H  -0.28800 34.14600 22.18300
H  -3.11900 33.39200 22.37600
H  -2.29100 36.20500 22.45700
H  -2.70900 35.22400 21.08800
H  -1.05500 35.95500 21.14400
H  -1.25400 31.15200 22.58900
H  -0.91900 32.14500 21.13000
H  -2.52800 31.37200 19.89800
H  -3.66000 31.66300 21.29900
H  -2.83100 30.22900 21.23500
H  -4.15600 28.81200 25.78900
H  -5.12500 29.95600 24.82800
H  -5.80000 29.39700 26.34100
H  -3.36400 30.73700 30.86800
H  -5.86100 31.77900 34.17000
H  -6.61100 30.23400 33.44400
H  -7.24700 31.72200 33.05100

