158

Mg 16.99200 -1.33500 28.18800
C  15.80300 0.50100 30.91000
C  18.84200 -3.29600 30.46900
C  18.44500 -2.74200 25.59000
C  15.24400 0.74200 26.09600
N  17.17300 -1.42900 30.45900
C  16.68400 -0.51900 31.30900
C  17.11900 -0.77100 32.73000
C  18.13000 -1.99600 32.55800
C  18.10100 -2.29200 31.06200
C  19.58300 -1.83600 33.06300
C  15.90800 -1.19400 33.66200
C  16.16400 -1.23300 35.22900
H  17.44100 -0.55900 35.78700
N  18.31500 -2.86400 28.02400
C  18.95300 -3.63400 29.07900
C  19.68000 -4.67200 28.41700
C  19.63000 -4.42900 27.02900
C  18.81100 -3.26400 26.83000
C  20.31800 -5.79900 29.18400
C  20.39400 -5.24400 25.95100
O  20.25400 -5.04400 24.74900
C  21.28500 -6.29100 26.38600
N  17.08200 -0.92300 26.12200
C  17.71900 -1.64200 25.22400
C  17.36400 -1.37800 23.79800
C  16.29600 -0.30700 23.91600
C  16.12600 -0.23200 25.49400
C  18.57800 -1.08800 22.86800
C  15.00400 -0.53900 23.08200
C  13.91700 -1.35300 23.88700
N  15.73500 0.32300 28.39000
C  15.05900 1.01000 27.42900
C  14.22100 1.99500 28.05200
C  14.49300 1.86100 29.39700
C  15.36300 0.81100 29.57700
C  13.34200 2.95800 27.35500
C  14.24300 2.46100 30.69000
O  13.58600 3.41800 31.13300
C  15.08900 1.60400 31.74300
C  15.95800 2.49800 32.55200
O  17.10000 2.77700 32.30800
O  15.24800 3.13700 33.55600
C  16.00200 4.04400 34.40200
H  19.33600 -4.00500 31.13600
H  18.91200 -3.19600 24.71300
H  14.64900 1.44400 25.50800
H  17.72200 -0.00200 33.21300
H  17.76100 -2.88100 33.07700
H  19.81300 -2.67900 33.71600
H  19.64600 -0.85700 33.53800
H  20.28000 -1.97700 32.23700
H  15.55300 -2.14900 33.27500
H  15.09100 -0.47700 33.58700
H  15.99400 -2.24400 35.59900
H  15.30600 -0.68500 35.61800
H  21.36900 -5.52400 29.27600
H  20.27700 -6.77900 28.71000
H  19.71100 -5.90300 30.08400
H  21.82800 -6.57300 25.48400
H  20.65600 -7.07800 26.80300
H  21.96600 -5.84900 27.11400
H  16.97200 -2.34200 23.47400
H  16.74300 0.61500 23.54500
H  19.37000 -0.64100 23.46900
H  18.34100 -0.43900 22.02500
H  18.94100 -2.09500 22.66100
H  15.28100 -1.10900 22.19500
H  14.64000 0.41900 22.71200
H  13.51200 -0.75700 24.70500
H  14.34900 -2.23400 24.36200
H  13.04300 -1.61600 23.29100
H  12.73900 2.38100 26.65300
H  13.93700 3.66600 26.77900
H  12.73200 3.47300 28.09700
H  14.32500 1.18100 32.39500
H  15.23900 4.49800 35.03600
H  16.35800 4.90600 33.83900
H  16.75600 3.43400 34.90000
Mg -4.08500 25.83000 25.51800
C  -3.06200 27.19900 28.49500
C  -6.12300 23.59500 27.38000
C  -4.77100 24.04400 22.67800
C  -1.70600 27.67800 23.85100
N  -4.62600 25.46100 27.70600
C  -4.04800 26.19800 28.67600
C  -4.63700 25.82500 30.06600
C  -5.44300 24.54900 29.71400
C  -5.41000 24.52900 28.15900
C  -5.07200 23.21700 30.46200
C  -5.52500 26.91200 30.73900
C  -5.24100 27.34300 32.22000
H  -4.96800 26.27700 33.31100
N  -5.31500 24.11100 25.07600
C  -6.11700 23.37300 25.96100
C  -6.90900 22.37900 25.25600
C  -6.50900 22.47600 23.83200
C  -5.48300 23.58400 23.78700
C  -7.93100 21.49300 25.92400
C  -7.00100 21.74500 22.62000
O  -6.73000 22.09600 21.47900
C  -8.02000 20.58500 22.70400
N  -3.37500 25.89100 23.56600
C  -3.77700 25.03700 22.57300
C  -3.07000 25.32900 21.26400
C  -2.26500 26.61300 21.54500
C  -2.40100 26.75800 23.07900
C  -2.22200 24.12800 20.75700
C  -2.55800 27.93000 20.69600
C  -3.74900 28.81200 21.03000
N  -2.73300 27.26400 25.96400
C  -1.85500 27.99900 25.19800
C  -1.01400 28.76900 26.03300
C  -1.51900 28.56100 27.37000
C  -2.53400 27.61300 27.25600
C  0.09800 29.74300 25.63100
C  -1.36200 28.88400 28.73000
O  -0.51000 29.55900 29.36000
C  -2.36400 27.95600 29.54900
C  -1.54800 27.26000 30.52200
O  -1.14900 26.16300 30.40800
O  -1.38100 28.07500 31.59700
C  -0.90600 27.43300 32.82300
H  -6.61000 22.80900 27.96100
H  -4.78200 23.43000 21.77600
H  -0.88800 28.24600 23.40300
H  -3.75900 25.62300 30.67900
H  -6.49900 24.68900 29.94700
H  -4.70800 22.38500 29.86000
H  -6.01700 22.81200 30.82300
H  -4.42800 23.31000 31.33700
H  -6.57600 26.64700 30.85100
H  -5.46700 27.80000 30.11000
H  -5.98100 27.98500 32.69700
H  -4.38900 27.99100 32.01600
H  -7.46100 20.98300 26.76500
H  -8.23000 20.72100 25.21500
H  -8.82300 22.05700 26.19400
H  -9.02500 20.97400 22.86900
H  -7.83200 19.82500 23.46200
H  -8.04700 20.17900 21.69200
H  -3.77900 25.51800 20.45800
H  -1.19500 26.44200 21.43300
H  -1.22600 24.52700 20.56300
H  -2.69000 23.66700 19.88700
H  -2.07000 23.37700 21.53200
H  -2.60700 27.48700 19.70200
H  -1.64200 28.52000 20.71600
H  -4.22800 28.26200 21.84000
H  -4.41800 28.94800 20.18100
H  -3.35700 29.77200 21.36500
H  -0.38500 30.52400 25.04500
H  0.76400 29.18700 24.97100
H  0.69300 30.06100 26.48700
H  -3.08900 28.58600 30.06500
H  -1.18100 26.39200 32.99600
H  -1.29200 27.95100 33.70100
H  0.17700 27.36800 32.92700

