158

Mg 31.76500 58.50800 41.03500
C  28.96000 56.79500 39.29400
C  33.76700 55.99200 39.88000
C  34.29300 60.53300 41.74600
C  29.41100 61.14200 41.73900
N  31.38700 56.68100 39.68500
C  30.25900 56.20500 39.10900
C  30.62900 54.91000 38.29600
C  32.06700 54.62900 38.69000
C  32.44200 55.82500 39.49300
C  32.36100 53.24800 39.24000
C  30.28600 55.02800 36.82300
C  29.21100 54.14600 36.13700
H  28.29400 54.72700 35.02900
N  33.78200 58.26100 40.87400
C  34.47200 57.11500 40.43600
C  35.92200 57.42500 40.53200
C  36.08900 58.74800 41.06200
C  34.73900 59.24500 41.22200
C  36.92300 56.39900 40.09800
C  37.38400 59.44700 41.46500
O  38.51700 58.98600 41.38600
C  37.45900 60.78000 42.11800
N  31.83400 60.51600 41.71100
C  33.02300 61.13500 41.94100
C  32.83600 62.59000 42.44800
C  31.24400 62.72400 42.53400
C  30.77100 61.37100 41.96100
C  33.49300 62.93000 43.81700
C  30.58400 63.96400 41.88200
C  29.76500 64.86000 42.84200
N  29.53600 58.91400 40.75900
C  28.79000 60.05600 41.14100
C  27.41000 59.89700 40.53900
C  27.47400 58.58200 39.86800
C  28.75800 58.04700 40.05000
C  26.20800 60.72100 40.66000
C  26.65500 57.69000 39.10900
O  25.49500 57.76800 38.72600
C  27.57500 56.43500 38.74100
C  27.00700 55.23700 39.39900
O  27.46400 54.62500 40.37800
O  26.04300 54.65700 38.62400
C  25.35300 53.46600 39.17900
H  34.32200 55.11900 39.52900
H  35.08200 61.23400 42.02800
H  28.84300 62.02300 42.04400
H  29.99400 54.09000 38.63200
H  32.61900 54.86600 37.78100
H  32.57700 53.24500 40.30900
H  33.22900 52.79500 38.76200
H  31.48700 52.62500 39.04800
H  31.18700 54.96400 36.21300
H  29.91600 56.02100 36.56600
H  28.59100 53.78800 36.95800
H  29.75300 53.29800 35.71800
H  37.65000 57.05200 39.61500
H  36.45200 55.70000 39.40700
H  37.39300 55.82900 40.89900
H  38.51800 60.97100 42.29000
H  36.99800 60.70000 43.10300
H  37.12800 61.66700 41.57700
H  33.39200 63.12600 41.67900
H  30.91400 62.54600 43.55800
H  33.83800 62.08400 44.41000
H  32.88500 63.60100 44.42400
H  34.37800 63.53300 43.61800
H  29.99700 63.76400 40.98500
H  31.46600 64.51500 41.55600
H  28.87700 65.32700 42.41700
H  30.25600 65.76500 43.20000
H  29.34100 64.31900 43.68800
H  26.20200 61.26500 39.71500
H  26.28000 61.37300 41.53100
H  25.35800 60.03900 40.67500
H  27.59800 56.20300 37.67700
H  26.08000 52.66300 39.30400
H  24.46500 53.14600 38.63300
H  24.86500 53.67200 40.13100
Mg 1.85800 42.52000 26.02600
C  2.96300 43.03400 29.34200
C  -1.07800 41.22500 27.18800
C  0.92600 42.06500 22.74400
C  4.89600 43.76900 24.87600
N  1.00100 42.30000 28.03600
C  1.62800 42.62300 29.23900
C  0.64600 42.43500 30.38900
C  -0.64900 41.78100 29.67500
C  -0.23400 41.69600 28.19400
C  -1.07800 40.41300 30.35000
C  0.30300 43.64800 31.22000
C  0.69200 43.47700 32.78400
H  -0.41400 43.12200 33.75300
N  0.15500 41.80100 25.08200
C  -0.91200 41.22600 25.75400
C  -1.86100 40.67600 24.80600
C  -1.41100 41.06900 23.50400
C  -0.03700 41.73600 23.73100
C  -3.08500 39.93300 25.28600
C  -2.03900 40.84300 22.13800
O  -1.48200 41.14000 21.08400
C  -3.41800 40.11300 22.01400
N  2.86100 42.68000 24.06400
C  2.19000 42.53000 22.89000
C  3.06200 43.06300 21.73800
C  4.39600 43.70100 22.39100
C  4.07500 43.36500 23.85400
C  3.47800 41.91500 20.80800
C  4.50700 45.26600 22.17700
C  5.00000 45.69700 20.76900
N  3.64300 43.13500 26.85800
C  4.76500 43.65300 26.28900
C  5.73200 44.05000 27.28700
C  5.06700 43.72800 28.49500
C  3.78800 43.28000 28.17400
C  7.07700 44.68100 27.04200
C  5.11800 43.74000 29.96600
O  6.09700 44.07000 30.66200
C  3.81200 43.33900 30.60500
C  4.11200 42.15200 31.45400
O  4.45300 41.08800 31.02200
O  3.92900 42.43100 32.77300
C  4.20400 41.35100 33.68400
H  -1.95700 40.83300 27.70500
H  0.62200 41.82200 21.72400
H  5.84400 44.28000 24.69800
H  1.10500 41.69900 31.04800
H  -1.44200 42.52800 29.72400
H  -1.96100 40.60400 30.95900
H  -0.33800 39.81200 30.88000
H  -1.38300 39.80200 29.50000
H  -0.78200 43.74600 31.25800
H  0.79800 44.50100 30.75500
H  1.08500 44.43200 33.13400
H  1.35900 42.65300 33.03700
H  -4.00600 40.33100 24.85800
H  -3.32700 40.12700 26.33100
H  -3.06600 38.86400 25.07600
H  -4.19200 40.87500 22.09900
H  -3.49300 39.42900 22.86000
H  -3.53700 39.55000 21.08800
H  2.56000 43.87300 21.20900
H  5.28000 43.23200 21.95800
H  2.83500 41.03900 20.89300
H  4.41200 41.42200 21.07400
H  3.63100 42.30000 19.79900
H  4.99500 45.71500 23.04200
H  3.51100 45.63500 22.42200
H  4.16600 46.05500 20.16500
H  5.43200 44.87300 20.20100
H  5.72600 46.46100 21.04900
H  7.71700 44.54100 27.91300
H  6.91100 45.71600 26.74200
H  7.50200 44.19800 26.16200
H  3.49100 44.23100 31.14300
H  3.84300 40.38800 33.32200
H  3.69400 41.63700 34.60400
H  5.27900 41.22500 33.80500

