158

Mg 2.54600 -0.95000 44.55300
C  5.82100 -0.52600 43.35500
C  1.55600 1.53100 42.37200
C  -0.61700 -2.08600 44.88400
C  3.66200 -4.11400 45.81900
N  3.62400 0.37100 43.10100
C  4.96900 0.44200 42.76900
C  5.30200 1.44600 41.65200
C  3.96900 2.22100 41.51600
C  2.95100 1.36800 42.34300
C  3.95500 3.69100 42.21300
C  5.82800 0.69500 40.33900
C  7.01100 1.34500 39.72400
H  6.77300 1.87500 38.29000
N  0.77900 -0.27800 43.92100
C  0.56400 0.82400 43.08500
C  -0.82900 1.11800 42.96700
C  -1.53800 0.03500 43.55700
C  -0.46600 -0.84100 44.18900
C  -1.35200 2.21800 42.04400
C  -3.04700 -0.16800 43.65300
O  -3.79600 0.68600 43.21100
C  -3.72800 -1.38500 44.32800
N  1.62500 -2.88100 45.33600
C  0.27400 -3.01400 45.40400
C  -0.11300 -4.41900 46.13200
C  1.31500 -5.16200 46.15600
C  2.29000 -3.95500 45.81800
C  -0.73200 -4.16400 47.53800
C  1.47500 -6.35100 45.12800
C  2.04600 -7.63900 45.77500
N  4.36800 -2.07100 44.90800
C  4.67000 -3.31300 45.33400
C  6.13000 -3.48500 45.28600
C  6.61300 -2.46900 44.51700
C  5.47100 -1.60200 44.27400
C  6.78000 -4.76700 45.68800
C  7.80400 -1.90000 43.96800
O  8.95900 -2.33000 43.98200
C  7.33900 -0.60400 43.20900
C  8.10300 0.45400 43.99500
O  8.15300 0.46600 45.20700
O  8.79000 1.39200 43.21400
C  9.68600 2.36500 43.87900
H  1.32100 2.50000 41.92600
H  -1.59600 -2.56500 44.95800
H  3.97800 -5.11100 46.13400
H  6.03800 2.04100 42.19200
H  3.68400 2.26700 40.46400
H  3.35500 4.37600 41.61400
H  4.98500 4.03600 42.31300
H  3.58000 3.66800 43.23600
H  4.95400 0.65700 39.68800
H  6.00700 -0.33300 40.65400
H  7.73400 0.52900 39.70700
H  7.43000 2.14400 40.33600
H  -2.37000 2.01200 41.71300
H  -0.74900 2.21000 41.13600
H  -1.33400 3.22200 42.46700
H  -4.81700 -1.38100 44.29500
H  -3.38700 -1.46400 45.36000
H  -3.38900 -2.26800 43.78700
H  -0.85000 -5.03000 45.61100
H  1.52200 -5.44600 47.18800
H  -1.15100 -3.16000 47.60500
H  0.03500 -4.36500 48.28500
H  -1.50200 -4.91300 47.72300
H  2.05400 -6.05100 44.25400
H  0.50500 -6.55800 44.67500
H  2.17000 -7.61500 46.85800
H  3.08800 -7.84300 45.52800
H  1.48100 -8.53800 45.52700
H  6.40200 -5.51700 44.99300
H  6.45300 -4.91400 46.71700
H  7.85600 -4.59500 45.68400
H  7.66200 -0.62200 42.16800
H  8.97800 3.06200 44.32500
H  10.33000 2.87100 43.15900
H  10.37200 1.82800 44.53500
Mg 8.93800 3.63100 27.99900
C  10.06100 1.92100 30.86800
C  7.12000 5.86400 30.00800
C  7.47100 5.03400 25.27000
C  10.13100 1.06900 25.97900
N  8.58800 3.72900 30.11400
C  9.24600 3.02900 31.12400
C  9.08400 3.75800 32.42900
C  8.07900 4.89800 32.22400
C  7.87900 4.82400 30.67100
C  6.69400 4.80000 33.05000
C  10.40800 4.13600 33.18800
C  10.69400 3.54200 34.59000
H  11.37900 4.42400 35.67200
N  7.62500 5.34300 27.68300
C  7.00800 6.11100 28.60400
C  6.29600 7.19100 27.97600
C  6.27800 6.86400 26.62200
C  7.19600 5.74000 26.43500
C  5.58200 8.28200 28.72500
C  5.39800 7.45800 25.52100
O  5.38500 6.99000 24.42300
C  4.44600 8.68600 25.78100
N  8.92400 3.13900 25.93100
C  8.30500 3.94100 24.97600
C  8.29300 3.28600 23.60200
C  9.22500 2.04100 23.73100
C  9.40300 2.05700 25.29600
C  6.81600 2.89000 23.21800
C  10.53400 2.12200 22.97800
C  10.63300 1.17000 21.78700
N  9.94700 1.87500 28.31300
C  10.38100 0.94800 27.43500
C  11.02900 -0.09600 28.09900
C  10.93000 0.19400 29.44000
C  10.21600 1.41300 29.54300
C  11.67700 -1.26500 27.39000
C  11.36700 -0.15000 30.84500
O  12.00300 -1.06500 31.24900
C  10.73900 0.96800 31.78500
C  9.85700 0.28500 32.78500
O  8.79100 -0.22500 32.56000
O  10.38800 0.31500 34.06400
C  9.63200 -0.41400 35.07300
H  6.55100 6.44300 30.73800
H  7.13100 5.47400 24.33100
H  10.53000 0.24300 25.38800
H  8.66200 3.02100 33.11200
H  8.56200 5.84900 32.45000
H  6.44800 5.81400 33.36500
H  6.92400 4.23800 33.95500
H  5.87900 4.37700 32.46300
H  10.33800 5.21300 33.33800
H  11.26800 3.92300 32.55400
H  11.47400 2.78300 34.53900
H  9.77300 3.09400 34.96500
H  4.50000 8.21100 28.60600
H  5.92800 9.22300 28.29900
H  5.87100 8.35300 29.77300
H  3.78500 8.88400 24.93700
H  5.02500 9.58100 26.01000
H  3.80600 8.61900 26.66000
H  8.36000 4.04000 22.81800
H  8.72500 1.09500 23.52300
H  6.12900 3.26400 23.97800
H  6.68800 1.81000 23.15300
H  6.61500 3.40100 22.27700
H  11.32800 1.73600 23.61800
H  10.67300 3.09700 22.51300
H  11.03500 1.60300 20.87100
H  9.68700 0.72300 21.48000
H  11.27000 0.30800 21.98700
H  11.11500 -1.67600 26.55100
H  11.92600 -2.10900 28.03200
H  12.58300 -0.82100 26.97600
H  11.58500 1.42000 32.30200
H  10.13900 -1.34500 35.32400
H  8.61000 -0.64800 34.77500
H  9.49300 0.21600 35.95200

