158

Mg 46.61400 34.47300 28.08400
C  44.82800 32.82500 30.64900
C  47.25500 36.97200 30.29400
C  47.71400 36.34500 25.49900
C  45.53200 32.05300 25.84100
N  46.03700 34.80500 30.22600
C  45.45900 33.96200 31.10200
C  45.76300 34.45500 32.54400
C  46.06900 35.96400 32.36800
C  46.45600 35.93500 30.81000
C  44.78000 36.78700 32.50900
C  47.00900 33.72100 33.20800
C  46.96900 33.58400 34.74000
H  46.14100 34.62200 35.49800
N  47.50000 36.29500 27.87800
C  47.69700 37.18700 28.95500
C  48.42200 38.36300 28.50200
C  48.46200 38.21300 27.11500
C  47.89700 36.91100 26.77300
C  48.85000 39.49900 29.46500
C  48.93900 39.28300 26.13000
O  48.94800 39.13400 24.94500
C  49.39100 40.57700 26.69100
N  46.45700 34.27700 25.91400
C  46.93800 35.22900 25.10600
C  46.89900 34.73100 23.62400
C  46.09200 33.37800 23.77000
C  46.06300 33.15700 25.23000
C  46.37900 35.72800 22.59300
C  46.50400 32.17400 22.93000
C  45.55500 31.61000 21.87600
N  45.59800 32.67900 28.21800
C  45.15200 31.83900 27.23000
C  44.52000 30.70600 27.79000
C  44.39800 31.07000 29.08600
C  45.01600 32.28400 29.33800
C  44.01800 29.43600 27.14500
C  43.76700 30.70600 30.34600
O  43.12600 29.70800 30.63100
C  43.82100 31.93000 31.32100
C  44.05000 31.52800 32.68700
O  45.05500 31.01300 33.11900
O  42.96600 32.15500 33.35700
C  42.93300 32.03200 34.75200
H  47.35600 37.83100 30.96000
H  48.14300 37.07900 24.81300
H  45.19700 31.32300 25.10200
H  44.86200 34.32900 33.14400
H  46.87000 36.34000 33.00400
H  43.94000 36.16500 32.81700
H  44.54700 37.33100 31.59300
H  44.97300 37.58400 33.22800
H  47.96600 34.14100 32.89700
H  46.88600 32.73700 32.75600
H  47.99500 33.56100 35.10900
H  46.45000 32.66000 34.99500
H  48.96400 39.24600 30.51900
H  48.06400 40.25200 29.41400
H  49.82500 39.88100 29.16100
H  48.81000 41.03500 27.49200
H  49.65500 41.17000 25.81600
H  50.36900 40.32600 27.10000
H  47.92500 34.50100 23.33600
H  45.04800 33.65000 23.61300
H  47.19300 35.96600 21.90800
H  46.15400 36.65100 23.12600
H  45.53000 35.31100 22.05000
H  46.71400 31.39200 23.66000
H  47.49300 32.25200 22.47900
H  44.62500 32.16500 21.75300
H  45.27500 30.58100 22.10300
H  45.97700 31.70200 20.87600
H  44.58200 29.42900 26.21300
H  42.93100 29.43600 27.05700
H  44.44100 28.51800 27.55500
H  42.93800 32.56100 31.22300
H  42.78400 30.97900 34.99000
H  42.06700 32.44500 35.26900
H  43.81800 32.45800 35.22500
Mg -9.89700 39.60500 42.50900
C  -8.68700 36.52000 41.61400
C  -7.23200 41.11800 41.02300
C  -11.61100 42.60200 42.85000
C  -13.03800 37.91600 43.14700
N  -8.25100 38.86700 41.19600
C  -7.88100 37.56800 41.12300
C  -6.60200 37.39400 40.34000
C  -6.07900 38.87400 40.46300
C  -7.23800 39.71100 40.93900
C  -4.85000 38.99100 41.41800
C  -6.87400 36.85800 38.91400
C  -6.10500 35.50700 38.55500
H  -5.06400 35.59300 37.36800
N  -9.42000 41.63100 42.17400
C  -8.23100 42.01800 41.61000
C  -8.19700 43.43700 41.65400
C  -9.38700 43.91400 42.25100
C  -10.17200 42.68900 42.47800
C  -6.99900 44.24900 41.09700
C  -9.74700 45.42100 42.49500
O  -9.05800 46.37200 42.13900
C  -10.98300 45.76700 43.35100
N  -12.00200 40.18600 42.85900
C  -12.44000 41.48200 42.93900
C  -13.91500 41.56800 43.04700
C  -14.40400 40.07500 43.20300
C  -13.05800 39.35300 43.04100
C  -14.29100 42.44100 44.30300
C  -15.52100 39.51300 42.31400
C  -16.68900 38.94100 43.14100
N  -10.71800 37.65000 42.48300
C  -11.94600 37.11400 42.83800
C  -11.90700 35.70600 42.84100
C  -10.58300 35.38500 42.39000
C  -9.94900 36.59000 42.19000
C  -13.10300 34.77600 43.21000
C  -9.60000 34.33700 42.15700
O  -9.75500 33.09800 42.22300
C  -8.30400 34.98400 41.66600
C  -7.18600 34.69300 42.63000
O  -7.05000 35.23100 43.72100
O  -6.21900 33.82200 42.03600
C  -5.10000 33.63100 42.92800
H  -6.35500 41.66400 40.66900
H  -12.02800 43.60900 42.91300
H  -14.00500 37.42300 43.25900
H  -6.00200 36.68600 40.91300
H  -5.85900 39.22900 39.45700
H  -4.49000 37.96300 41.44000
H  -5.02900 39.44600 42.39300
H  -4.14200 39.57200 40.82700
H  -6.76300 37.54700 38.07700
H  -7.94000 36.65000 38.81400
H  -6.84100 34.74000 38.31500
H  -5.65000 34.96500 39.38400
H  -7.25800 45.27200 40.82200
H  -6.66500 43.82600 40.15000
H  -6.15300 44.37100 41.77400
H  -10.86200 46.76700 43.76700
H  -11.12700 45.01100 44.12300
H  -11.77500 45.68200 42.60700
H  -14.32400 41.98200 42.12600
H  -14.71500 39.91400 44.23500
H  -15.16000 42.03200 44.81900
H  -14.59400 43.45100 44.03000
H  -13.45500 42.40000 45.00200
H  -15.09800 38.63000 41.83600
H  -15.73900 40.31400 41.60700
H  -17.56200 39.11000 42.51100
H  -16.76200 39.40300 44.12600
H  -16.66800 37.85500 43.05300
H  -12.93600 34.31200 44.18200
H  -13.28100 33.93600 42.53900
H  -14.00000 35.39600 43.22500
H  -8.03200 34.65500 40.66400
H  -5.33800 33.02100 43.79900
H  -4.70100 34.58700 43.26900
H  -4.27000 33.17900 42.38400

