158

Mg 24.20400 -4.43900 45.27800
C  26.57900 -2.04300 44.02200
C  21.93100 -3.09400 43.26400
C  22.52200 -7.29000 45.57400
C  27.13900 -6.03100 46.73300
N  24.23000 -2.73100 43.80000
C  25.27600 -1.86100 43.54900
C  24.85600 -0.80800 42.39700
C  23.25900 -0.95200 42.45100
C  23.07200 -2.30900 43.18500
C  22.55300 0.16800 43.20500
C  25.38100 -1.25800 40.98300
C  25.91500 -0.09000 39.92600
H  25.52400 -0.25900 38.37800
N  22.37400 -5.04800 44.69500
C  21.58300 -4.33300 43.84900
C  20.27700 -4.94100 43.88300
C  20.45000 -6.20400 44.51900
C  21.83500 -6.28500 44.94600
C  19.01600 -4.46700 43.09700
C  19.35800 -7.28800 44.66600
O  18.23400 -7.13600 44.16600
C  19.56800 -8.62600 45.41800
N  24.77200 -6.37500 46.00000
C  23.86200 -7.38100 46.04900
C  24.32800 -8.61300 46.82100
C  25.83800 -8.28000 47.06600
C  25.96600 -6.79400 46.58000
C  23.42300 -8.94200 48.05200
C  26.83300 -9.18400 46.32000
C  28.25100 -9.34600 46.87400
N  26.39100 -4.12600 45.48100
C  27.41000 -4.78600 46.18700
C  28.67300 -4.16500 46.06100
C  28.38900 -3.07100 45.23500
C  27.01100 -3.10100 44.85000
C  29.95600 -4.61200 46.68500
C  28.88100 -1.83200 44.62100
O  29.93800 -1.26200 44.70700
C  27.81700 -1.29900 43.65500
C  27.68800 0.21600 43.66900
O  27.14800 0.89400 44.58500
O  28.35100 0.74000 42.56100
C  28.18400 2.16800 42.28600
H  21.15600 -2.80500 42.55000
H  22.03200 -8.26100 45.66600
H  27.95100 -6.55800 47.23800
H  25.21700 0.20300 42.58400
H  22.85100 -1.04200 41.44500
H  22.58800 1.03100 42.53900
H  22.98700 0.24300 44.20200
H  21.49500 -0.07700 43.29400
H  24.54100 -1.73200 40.47500
H  26.16900 -2.01000 41.02800
H  27.00000 -0.12500 40.02500
H  25.48000 0.85000 40.26700
H  18.75000 -5.12500 42.26900
H  19.32900 -3.57000 42.56200
H  18.19200 -4.35000 43.80100
H  19.85700 -8.30800 46.42000
H  20.29600 -9.22800 44.87400
H  18.66800 -9.23300 45.51400
H  24.26100 -9.47300 46.15400
H  26.11500 -8.05800 48.09700
H  23.98800 -9.15500 48.96000
H  22.70600 -9.72600 47.80800
H  22.69700 -8.21400 48.41300
H  27.02700 -8.77300 45.32900
H  26.45100 -10.19200 46.15700
H  29.03900 -9.05600 46.17900
H  28.40200 -10.36200 47.23800
H  28.48500 -8.73000 47.74200
H  30.71700 -3.83200 46.69700
H  30.39500 -5.53400 46.30600
H  29.84100 -4.71900 47.76400
H  28.19000 -1.66100 42.69700
H  27.74800 2.80300 43.05600
H  27.54100 2.25200 41.40900
H  29.12600 2.69200 42.12600
Mg 9.20000 47.56100 25.24700
C  6.94600 48.23300 27.87100
C  11.67700 49.09000 27.24700
C  11.23600 47.46500 22.65900
C  6.51400 46.88700 23.25900
N  9.35200 48.49500 27.36900
C  8.31700 48.47700 28.31500
C  8.78700 48.91400 29.71900
C  10.27800 49.39000 29.45500
C  10.46500 49.03000 27.97500
C  10.74000 50.79600 29.89100
C  8.54200 47.82300 30.80000
C  9.36000 47.73500 32.04100
H  8.77100 47.05100 33.29700
N  11.15000 48.06100 25.00800
C  12.00200 48.60600 25.95000
C  13.34100 48.66000 25.37400
C  13.25900 48.02500 24.15400
C  11.86300 47.83000 23.86900
C  14.64300 49.16000 26.11400
C  14.37800 47.71100 23.14500
O  14.17000 47.11700 22.10300
C  15.80900 48.17300 23.42000
N  8.95500 47.19300 23.23000
C  9.93200 47.10700 22.33800
C  9.49000 46.57300 20.97600
C  7.96100 46.28600 21.25600
C  7.77300 46.83500 22.63200
C  9.86600 47.54400 19.74300
C  7.49100 44.81400 21.11500
C  7.88700 43.76600 22.18600
N  7.12200 47.36000 25.53300
C  6.16500 47.20900 24.56400
C  4.85500 47.18100 25.19700
C  5.11000 47.52500 26.54300
C  6.52700 47.75700 26.66600
C  3.60100 46.80000 24.47500
C  4.50200 47.77100 27.82700
O  3.33500 47.69200 28.17400
C  5.61600 48.27700 28.71600
C  5.47100 47.42200 29.93900
O  5.96600 46.36400 30.08200
O  4.64500 48.13000 30.84500
C  4.65700 47.49800 32.18200
H  12.45100 49.36100 27.96900
H  11.84800 47.28500 21.77200
H  5.75200 46.74400 22.49000
H  8.24700 49.82300 29.98400
H  10.87500 48.72500 30.08000
H  9.94900 51.38600 30.35300
H  11.07100 51.34200 29.00700
H  11.52000 50.80800 30.65300
H  8.50900 46.83400 30.34200
H  7.61700 48.20100 31.23400
H  9.67700 48.71100 32.40900
H  10.25700 47.14900 31.84200
H  14.38400 49.73100 27.00500
H  15.30800 49.94600 25.75700
H  15.20100 48.27200 26.41100
H  16.07100 49.22500 23.53500
H  16.37400 47.80600 22.56300
H  16.21700 47.65300 24.28700
H  10.05800 45.64600 20.89500
H  7.36800 46.91900 20.59600
H  10.32400 48.41100 20.21900
H  9.01800 47.71600 19.07900
H  10.58900 47.10800 19.05400
H  7.86700 44.58500 20.11800
H  6.40400 44.76900 21.04000
H  8.47400 44.18800 23.00100
H  8.56200 43.01100 21.78300
H  6.94300 43.37100 22.56200
H  3.34300 45.75700 24.65600
H  3.76700 47.14700 23.45600
H  2.75800 47.34600 24.89900
H  5.39600 49.31100 28.98200
H  3.73500 47.80800 32.67400
H  5.53900 47.85400 32.71400
H  4.64000 46.41700 32.04200

