158

Mg 48.02800 35.41700 27.65000
C  46.34200 33.54000 30.13300
C  48.42200 37.95400 29.69700
C  49.72400 36.90000 25.15100
C  47.29800 32.68800 25.38900
N  47.44300 35.68800 29.66900
C  46.94700 34.76500 30.57900
C  47.03900 35.37500 32.00000
C  47.24100 36.82100 31.72800
C  47.81900 36.85400 30.32100
C  45.98000 37.74100 32.03300
C  48.14500 34.67800 32.79900
C  47.91200 34.41500 34.24600
H  46.91600 35.26700 35.05500
N  48.80400 37.21700 27.39100
C  48.87100 38.15100 28.40500
C  49.53300 39.34300 27.92000
C  50.09000 38.99000 26.62700
C  49.46800 37.69300 26.28700
C  49.78800 40.51100 28.79300
C  51.10500 39.66300 25.66400
O  51.49600 39.14000 24.64000
C  51.71800 40.98900 26.03200
N  48.17900 34.98300 25.47100
C  49.06100 35.68200 24.77800
C  49.37200 35.06800 23.37300
C  48.56900 33.65100 23.46500
C  47.97600 33.80200 24.87000
C  49.06000 35.90200 22.08900
C  49.52600 32.44000 23.33200
C  49.18300 31.43100 22.15500
N  46.93700 33.58600 27.63500
C  46.73500 32.54100 26.66600
C  45.93300 31.50800 27.25700
C  45.77100 31.85700 28.57700
C  46.40500 33.12500 28.79700
C  45.52700 30.23300 26.59300
C  45.10400 31.50000 29.83800
O  44.40900 30.56100 30.09000
C  45.21900 32.74700 30.76300
C  45.50900 32.36200 32.15000
O  46.40600 31.58600 32.48700
O  44.52200 32.81100 32.92900
C  44.49100 32.33100 34.32500
H  48.72900 38.65300 30.47800
H  50.41800 37.20400 24.36400
H  47.20200 31.80700 24.75100
H  46.05600 35.19800 32.43800
H  48.11600 37.17100 32.27500
H  45.71200 37.70400 33.08900
H  45.13400 37.28200 31.52200
H  45.96400 38.71400 31.54300
H  49.10600 35.14100 32.57700
H  48.39100 33.77100 32.24700
H  48.85100 34.44100 34.79900
H  47.57800 33.37800 34.28000
H  50.78100 40.94400 28.66700
H  49.61000 40.37800 29.86000
H  49.27000 41.39800 28.42800
H  50.90900 41.71600 25.95200
H  52.48100 41.22600 25.29100
H  52.31100 40.90500 26.94200
H  50.44300 34.87000 23.31800
H  47.78600 33.59100 22.70900
H  48.23700 35.42600 21.55800
H  49.93700 35.87900 21.44300
H  48.76900 36.87300 22.49000
H  49.59000 31.89500 24.27300
H  50.52500 32.79500 23.08000
H  48.40900 31.82700 21.49800
H  48.78600 30.53800 22.63700
H  50.08600 31.10200 21.64200
H  44.74300 29.79400 27.21100
H  46.35800 29.54900 26.42700
H  44.95900 30.57800 25.72800
H  44.29100 33.28000 30.55700
H  44.02100 31.35700 34.45600
H  43.79500 32.93900 34.90300
H  45.38400 32.34600 34.95000
Mg 0.87500 42.10600 26.28700
C  2.96900 42.13700 29.15200
C  -1.84400 41.65300 28.41100
C  -1.04200 41.88400 23.57800
C  3.74500 41.94500 24.25200
N  0.58400 42.01800 28.58900
C  1.62200 41.92100 29.53200
C  1.00900 41.93400 30.88800
C  -0.54500 41.73100 30.68600
C  -0.65200 41.77600 29.09200
C  -1.19100 40.51200 31.45700
C  1.38100 43.29200 31.65400
C  1.83300 43.14800 33.13700
H  1.37700 42.00800 34.03100
N  -1.18900 41.94600 25.99300
C  -2.11700 41.71200 26.99300
C  -3.41600 41.52900 26.40000
C  -3.22300 41.53300 24.94700
C  -1.78700 41.76300 24.75400
C  -4.71100 41.44800 27.16300
C  -4.28100 41.31500 23.89100
O  -3.99800 41.40300 22.68800
C  -5.66100 40.89400 24.29600
N  1.28400 41.87300 24.24400
C  0.30100 41.93300 23.27600
C  0.84100 41.85700 21.86900
C  2.36200 41.89000 22.08500
C  2.49300 41.89600 23.62800
C  0.40000 40.56300 21.04200
C  3.00800 43.07600 21.45300
C  2.41600 44.47300 21.62500
N  2.91500 42.18900 26.55900
C  3.99200 42.10700 25.64700
C  5.23800 42.32500 26.41500
C  4.87000 42.32500 27.72900
C  3.45100 42.25200 27.81100
C  6.69100 42.51300 25.88000
C  5.45300 42.55000 29.06600
O  6.64000 42.79600 29.47700
C  4.22900 42.29200 30.02100
C  4.61600 41.20400 30.88200
O  4.74100 40.02100 30.54400
O  4.89300 41.69300 32.22800
C  5.25500 40.68200 33.20500
H  -2.67700 41.40200 29.07100
H  -1.53600 41.92700 22.60500
H  4.63400 41.91700 23.61800
H  1.43700 41.07200 31.39900
H  -1.06500 42.62000 31.04100
H  -1.68800 39.74900 30.85800
H  -1.95400 41.02800 32.04000
H  -0.48000 40.07400 32.15800
H  0.57200 44.02000 31.72100
H  2.18300 43.86800 31.19300
H  1.50200 44.03800 33.67300
H  2.91800 43.21600 33.20900
H  -4.67500 41.59200 28.24300
H  -5.14900 40.46300 27.00200
H  -5.40500 42.15600 26.71100
H  -6.20600 41.70400 24.77900
H  -5.49200 40.04700 24.96000
H  -6.25400 40.62000 23.42300
H  0.37800 42.70600 21.36700
H  2.88600 41.04000 21.65000
H  -0.00300 39.74400 21.63800
H  1.25500 40.21700 20.46300
H  -0.42200 40.85800 20.39000
H  3.12500 42.79900 20.40600
H  4.02800 43.13200 21.83400
H  2.23100 44.89100 20.63600
H  3.23100 45.12800 21.93300
H  1.55000 44.49700 22.28600
H  6.76000 43.46400 25.35300
H  6.82100 41.71000 25.15400
H  7.38400 42.40800 26.71500
H  4.15200 43.14300 30.69800
H  6.17200 40.15500 32.93900
H  4.55400 39.84800 33.22400
H  5.31500 41.13900 34.19300

