158

Mg 36.24500 50.20100 25.04600
C  36.30000 48.11500 27.87900
C  35.31500 52.74500 27.01900
C  35.64700 52.06300 22.17600
C  36.99600 47.34800 23.13900
N  35.71100 50.33700 27.19600
C  36.05200 49.45800 28.22900
C  35.97700 50.13200 29.63300
C  35.47100 51.56100 29.28500
C  35.55400 51.60200 27.75300
C  34.17900 52.05300 29.85700
C  37.34100 50.02200 30.41400
C  37.36500 49.92600 31.93900
H  36.10600 49.50000 32.66700
N  35.62800 52.12600 24.64800
C  35.35200 53.06200 25.66600
C  35.14400 54.32000 25.06100
C  35.22200 54.16200 23.61200
C  35.47600 52.72700 23.41900
C  34.97400 55.59100 25.86800
C  35.09400 55.23500 22.52400
O  35.09100 54.93700 21.33100
C  34.98200 56.65800 22.88900
N  36.26100 49.74300 23.03100
C  36.02100 50.67400 22.01700
C  36.01700 49.99800 20.64600
C  36.81900 48.60900 20.94000
C  36.69900 48.48200 22.46300
C  34.64500 49.83600 19.91600
C  38.29900 48.55800 20.56400
C  38.96100 47.20700 20.11800
N  36.49400 48.12000 25.35300
C  36.80700 47.10000 24.50500
C  36.98500 45.84700 25.25800
C  36.79500 46.19100 26.58800
C  36.43700 47.59300 26.60700
C  37.26700 44.42700 24.65800
C  36.85100 45.67300 28.02500
O  37.22800 44.62400 28.49600
C  36.46800 46.93100 28.89000
C  35.27200 46.45300 29.56600
O  34.13900 46.81000 29.33700
O  35.60200 45.55700 30.58600
C  34.49500 45.37000 31.46500
H  35.11300 53.59400 27.67600
H  35.47400 52.68200 21.29400
H  37.25400 46.57100 22.41600
H  35.21500 49.65200 30.24800
H  36.27200 52.22500 29.61000
H  34.46900 52.77100 30.62300
H  33.54500 51.25800 30.25000
H  33.64500 52.62500 29.09800
H  37.99200 50.83200 30.08400
H  37.88100 49.11400 30.14600
H  37.62400 50.89000 32.37700
H  38.13100 49.16300 32.07900
H  35.78500 56.29400 25.67900
H  34.91200 55.40400 26.94000
H  34.08500 56.15000 25.57500
H  35.76900 56.98600 23.56800
H  34.01600 56.84700 23.35700
H  35.13300 57.15000 21.92900
H  36.69200 50.65300 20.09500
H  36.28500 47.82500 20.40100
H  34.57900 50.50900 19.06100
H  33.86800 50.12900 20.62200
H  34.47900 48.80900 19.59000
H  38.89900 48.69900 21.46300
H  38.44600 49.34500 19.82500
H  39.86600 47.33800 19.52400
H  38.23000 46.58100 19.60700
H  39.15100 46.62000 21.01700
H  37.90100 44.53200 23.77800
H  36.32500 44.01600 24.29600
H  37.59800 43.62000 25.31100
H  37.29700 47.25000 29.52200
H  34.17000 46.23600 32.04100
H  34.70100 44.67300 32.27700
H  33.59700 44.98900 30.97900
Mg -1.58000 34.43500 26.59400
C  -3.53000 32.76600 29.11000
C  -0.27600 36.33900 29.12300
C  -0.58400 36.76300 24.37400
C  -3.46900 32.90200 24.17500
N  -1.98500 34.54800 28.85600
C  -2.61300 33.64300 29.66600
C  -2.40000 33.90800 31.10300
C  -1.55100 35.22400 31.15900
C  -1.22000 35.40300 29.58400
C  -2.24500 36.49600 31.68100
C  -1.66600 32.66000 31.71400
C  -2.13300 32.27800 33.15400
H  -1.04600 32.38300 34.29300
N  -0.39300 36.24400 26.73800
C  0.04100 36.81200 27.86500
C  0.78600 37.99600 27.46700
C  0.60200 38.24800 26.09100
C  -0.20700 37.08500 25.68200
C  1.70400 38.74900 28.47900
C  1.13800 39.29800 25.19600
O  0.75000 39.43900 24.06000
C  2.13800 40.38500 25.65400
N  -2.01100 34.76400 24.56100
C  -1.41600 35.74900 23.87200
C  -1.67200 35.61600 22.27900
C  -2.51700 34.30100 22.17600
C  -2.67700 33.89000 23.68200
C  -2.34200 36.78000 21.46100
C  -1.84000 33.30200 21.29600
C  -0.87800 32.13000 21.75500
N  -3.15000 33.09300 26.63000
C  -3.73000 32.53900 25.48600
C  -4.67500 31.54500 25.91100
C  -4.60800 31.55200 27.36100
C  -3.66300 32.55400 27.68100
C  -5.71400 30.86800 25.13600
C  -5.12200 30.96300 28.57500
O  -5.91900 30.08900 28.73800
C  -4.40800 31.70500 29.77700
C  -5.44200 32.35500 30.53300
O  -6.08900 33.34300 30.22100
O  -5.50400 31.73600 31.77600
C  -6.61300 32.07100 32.70300
H  0.11100 36.94600 29.94400
H  -0.38600 37.49700 23.59100
H  -4.01900 32.33000 23.42600
H  -3.38500 33.99800 31.56000
H  -0.71100 34.95600 31.80000
H  -1.70300 36.87800 32.54600
H  -3.26800 36.24400 31.96100
H  -2.21800 37.31400 30.96100
H  -0.59700 32.83500 31.83200
H  -1.68400 31.77000 31.08400
H  -2.40400 31.22600 33.07200
H  -2.95300 32.96200 33.37300
H  1.75600 38.32700 29.48200
H  1.36500 39.76800 28.66000
H  2.69500 38.83200 28.03200
H  3.07600 39.98600 26.03900
H  1.70400 41.04100 26.40900
H  2.31100 41.05800 24.81400
H  -0.63100 35.50700 21.97400
H  -3.53500 34.45700 21.82200
H  -1.76800 36.97500 20.55500
H  -2.24800 37.72100 22.00400
H  -3.37500 36.61000 21.15700
H  -1.28300 33.95500 20.62400
H  -2.56600 32.84400 20.62500
H  -0.98700 31.26500 21.10100
H  -1.13300 31.87300 22.78400
H  0.18200 32.36700 21.67500
H  -5.22800 30.19900 24.42600
H  -6.36000 31.54700 24.57800
H  -6.42000 30.36500 25.79700
H  -3.89500 30.94500 30.36500
H  -7.51300 32.32700 32.14300
H  -6.21600 32.72800 33.47600
H  -6.77800 31.16300 33.28300

