158

Mg 47.63400 16.71700 29.07900
C  45.55800 16.22200 31.93700
C  49.95200 18.16300 31.04800
C  49.31700 17.39900 26.24000
C  44.78600 15.68200 27.13000
N  47.62200 17.12800 31.21600
C  46.73800 16.86500 32.23500
C  47.32500 17.20500 33.58900
C  48.46300 18.17800 33.16200
C  48.75700 17.78700 31.73100
C  48.21000 19.69300 33.35500
C  47.70900 15.85900 34.25100
C  47.49500 15.87100 35.71800
H  47.31000 17.26200 36.35400
N  49.33700 17.67300 28.73100
C  50.20300 18.21500 29.64800
C  51.32700 18.86100 29.00900
C  51.06600 18.65800 27.58600
C  49.83200 17.94700 27.45100
C  52.44200 19.38200 29.84600
C  51.88200 19.13200 26.40200
O  51.58400 19.09500 25.25700
C  53.22100 19.77500 26.68700
N  47.16900 16.54000 27.01800
C  48.06200 16.82300 26.06200
C  47.49400 16.54700 24.69600
C  46.04500 16.07100 24.95600
C  45.98200 16.06100 26.45600
C  47.57000 17.76000 23.75500
C  45.71200 14.73500 24.30600
C  44.53100 14.77200 23.28000
N  45.62300 15.90000 29.41000
C  44.63400 15.56100 28.59000
C  43.43600 15.13900 29.38400
C  43.81300 15.37000 30.68300
C  45.07600 15.91700 30.64000
C  42.15600 14.54300 28.93900
C  43.33900 15.21300 32.05200
O  42.37800 14.66500 32.46200
C  44.40200 15.89500 32.91700
C  43.69100 17.02600 33.62400
O  43.36300 18.08700 33.09000
O  43.66400 16.86200 35.01200
C  42.98300 17.96100 35.74600
H  50.75000 18.60800 31.64600
H  49.89600 17.45600 25.31600
H  43.90400 15.38700 26.55800
H  46.48000 17.62700 34.13300
H  49.42200 17.92000 33.61100
H  48.99900 20.09600 33.99100
H  47.25700 19.90800 33.83900
H  48.34700 20.25800 32.43300
H  48.73400 15.55000 34.04400
H  47.16800 14.97900 33.90300
H  48.33500 15.34800 36.17400
H  46.75900 15.16700 36.10500
H  52.08600 20.20800 30.46100
H  53.29100 19.71800 29.25200
H  52.70200 18.72100 30.67300
H  53.97700 19.08900 27.06600
H  53.22600 20.57000 27.43300
H  53.49600 20.20800 25.72500
H  48.09500 15.73900 24.28100
H  45.33900 16.81200 24.58200
H  48.38500 17.63400 23.04300
H  47.77100 18.66400 24.32900
H  46.65500 17.94400 23.19100
H  45.49500 14.02900 25.10700
H  46.60300 14.38800 23.78300
H  44.83200 15.11800 22.29100
H  43.82000 15.52000 23.63000
H  44.19600 13.74200 23.15200
H  42.26900 13.46100 28.87300
H  41.92100 14.79800 27.90600
H  41.33400 14.87100 29.57500
H  44.73000 15.24300 33.72600
H  41.91800 17.95600 35.51700
H  43.36400 18.97200 35.60700
H  43.12500 17.67300 36.78800
Mg 49.76200 46.05400 43.36400
C  46.59600 46.87600 42.12900
C  49.65500 43.05500 41.51200
C  53.12100 45.67900 43.77300
C  50.02400 49.42500 44.44100
N  48.31000 45.20000 41.85600
C  47.05200 45.63500 41.58600
C  46.33300 44.72400 40.67000
C  47.14000 43.38300 40.88800
C  48.48700 43.87000 41.47300
C  46.47600 42.22300 41.71400
C  46.15300 45.14200 39.14300
C  44.69800 44.86900 38.59200
H  44.68800 43.77000 37.52000
N  51.18300 44.60500 42.79700
C  50.88400 43.42600 42.09400
C  52.14300 42.65300 41.87700
C  53.18400 43.52900 42.38200
C  52.52800 44.68300 43.03100
C  52.33700 41.37500 41.16200
C  54.66800 43.20100 42.32900
O  55.02800 42.15300 41.82000
C  55.83200 44.05200 42.84700
N  51.39400 47.41800 43.92400
C  52.66300 46.95300 44.15900
C  53.46900 48.08500 44.82600
C  52.51000 49.30700 44.91600
C  51.19800 48.66000 44.51800
C  54.11100 47.65100 46.17000
C  52.81200 50.58300 44.00100
C  52.43700 51.90500 44.74500
N  48.54600 47.76000 43.38800
C  48.74400 49.02300 43.92000
C  47.52600 49.82700 43.76300
C  46.66600 48.99200 43.10400
C  47.35900 47.79200 42.88500
C  47.29400 51.27000 44.25400
C  45.27500 48.85400 42.59400
O  44.30200 49.64000 42.58800
C  45.22500 47.44100 41.90900
C  44.12500 46.75400 42.66100
O  44.01500 46.55200 43.85700
O  43.26100 46.17500 41.75400
C  42.32300 45.16300 42.31900
H  49.57600 42.02900 41.14500
H  54.18700 45.54400 43.97000
H  49.98500 50.40300 44.92600
H  45.31400 44.55400 41.01900
H  47.45600 42.90100 39.96400
H  47.13700 41.94000 42.53300
H  46.39400 41.30500 41.13200
H  45.56500 42.56300 42.20600
H  46.88800 44.63700 38.51700
H  46.33300 46.21700 39.12500
H  44.15300 45.77600 38.33100
H  44.11100 44.39500 39.37900
H  51.32800 41.08500 40.87100
H  52.60000 40.58600 41.86600
H  52.98700 41.44400 40.28900
H  56.81700 43.61400 42.68400
H  55.62000 44.19600 43.90700
H  55.76600 44.97900 42.27800
H  54.25100 48.28900 44.09500
H  52.46500 49.60100 45.96400
H  53.56800 48.04600 47.02800
H  55.16400 47.93000 46.12500
H  54.15500 46.56300 46.20900
H  52.38900 50.60100 42.99600
H  53.89600 50.68600 43.96200
H  53.34600 52.48800 44.89500
H  51.99300 51.67500 45.71400
H  51.55000 52.38700 44.33700
H  47.92800 51.96200 43.69900
H  47.62100 51.23900 45.29300
H  46.23200 51.47900 44.12100
H  45.03600 47.46600 40.83600
H  41.65000 45.75000 42.94300
H  42.84500 44.44700 42.95500
H  41.85000 44.74200 41.43200

