158

Mg 26.96200 50.11300 26.97100
C  24.91100 51.21100 29.73600
C  29.22300 48.98500 29.10700
C  29.11800 49.96700 24.39000
C  24.56700 51.63600 24.84500
N  27.07400 50.33500 29.15900
C  26.07900 50.60700 30.13700
C  26.64800 50.33700 31.57700
C  28.08700 49.61000 31.27500
C  28.12500 49.61800 29.73300
C  29.31200 50.33600 31.99100
C  25.69300 49.46600 32.48700
C  25.21300 50.11100 33.79600
H  25.30200 49.16400 34.99800
N  28.86400 49.51900 26.76900
C  29.62200 48.98800 27.74500
C  30.86700 48.37800 27.13900
C  30.78400 48.63500 25.77000
C  29.57000 49.45600 25.54900
C  31.97900 47.77000 27.99500
C  31.75300 48.30800 24.65500
O  31.63600 48.62500 23.44200
C  33.05000 47.57400 24.97000
N  26.89200 50.85400 24.96100
C  27.91300 50.55600 24.07600
C  27.45900 50.78100 22.61900
C  25.94100 51.01100 22.75300
C  25.76200 51.23100 24.27800
C  28.20000 51.95800 21.98800
C  25.04900 49.80100 22.23400
C  24.25200 49.95600 20.95100
N  25.00000 51.18400 27.15700
C  24.19300 51.69000 26.19200
C  22.96100 52.07200 26.82900
C  23.27400 51.97500 28.20900
C  24.47900 51.37100 28.30200
C  21.69700 52.43700 26.18500
C  22.65700 52.09500 29.51000
O  21.52700 52.50500 29.78900
C  23.63900 51.64100 30.55700
C  23.88100 52.66700 31.56300
O  24.84400 53.48300 31.57300
O  22.96900 52.52700 32.56500
C  23.09500 53.49500 33.71300
H  29.85400 48.44500 29.81600
H  29.80600 49.85700 23.54800
H  23.76600 51.97400 24.18400
H  26.82300 51.31900 32.01700
H  28.03800 48.58400 31.63800
H  29.00700 50.77800 32.93900
H  29.89600 51.00600 31.36000
H  30.03200 49.53900 32.18000
H  26.14900 48.49300 32.67200
H  24.81600 49.21500 31.88900
H  24.15600 50.31500 33.62700
H  25.63700 51.08700 34.03000
H  31.75200 48.06800 29.01800
H  32.95300 48.17300 27.71900
H  32.03700 46.69000 27.86400
H  32.97200 46.56700 25.37800
H  33.55300 48.22800 25.68200
H  33.61500 47.62600 24.03900
H  27.53700 49.85300 22.05300
H  25.51400 51.91900 22.32600
H  28.52900 51.59100 21.01500
H  29.07700 52.39400 22.46500
H  27.52600 52.79400 21.80400
H  24.41000 49.34800 22.99100
H  25.72600 48.99100 21.96400
H  24.52600 49.20700 20.20800
H  24.37600 51.00400 20.67600
H  23.20100 49.77700 21.17900
H  20.84200 52.34000 26.85500
H  21.58300 51.98500 25.19900
H  21.78400 53.50300 25.97800
H  23.21500 50.79500 31.09800
H  23.32700 52.92000 34.60900
H  22.12900 53.88400 34.03500
H  23.78500 54.33000 33.59300
Mg 10.30500 46.67200 25.06200
C  7.71000 47.01300 27.61700
C  12.46000 48.21500 27.29000
C  12.54100 46.72900 22.67000
C  7.72800 46.11300 22.76800
N  10.05500 47.58900 27.18400
C  8.99700 47.42600 28.04300
C  9.34200 48.01200 29.43000
C  10.74400 48.74500 29.19300
C  11.15800 48.15100 27.86800
C  10.72000 50.31400 29.16700
C  9.42600 46.85500 30.48000
C  9.54400 47.30500 31.89100
H  8.80100 46.52100 33.05500
N  12.30100 47.04400 25.05200
C  12.98400 47.62000 26.07100
C  14.37000 47.86000 25.71400
C  14.46500 47.33300 24.34300
C  13.06000 47.01500 23.95500
C  15.38300 48.59000 26.59200
C  15.66200 47.15300 23.45100
O  15.64200 46.50200 22.40100
C  17.02900 47.63900 23.89100
N  10.11400 46.57300 22.99400
C  11.19800 46.44300 22.22000
C  10.88000 45.97000 20.82900
C  9.31100 45.91000 20.83900
C  9.03800 46.23600 22.30100
C  11.43300 46.66100 19.53800
C  8.58100 44.65300 20.18900
C  7.72000 44.98500 18.91200
N  8.14600 46.52000 25.11000
C  7.29100 46.22400 24.07100
C  5.96300 46.09400 24.65600
C  6.05500 46.41100 26.02700
C  7.43100 46.60100 26.27100
C  4.76400 45.83000 23.84200
C  5.26600 46.47200 27.23800
O  4.07600 46.33600 27.35200
C  6.32200 46.88300 28.33900
C  6.33800 45.67200 29.27300
O  7.16000 44.79500 29.21400
O  5.37900 45.82900 30.31700
C  5.33800 44.96900 31.42800
H  13.20900 48.77800 27.85000
H  13.26700 46.65100 21.85800
H  7.06500 45.88900 21.93000
H  8.66000 48.79400 29.76200
H  11.51400 48.44800 29.90600
H  11.17700 50.73200 28.27100
H  11.10100 50.82600 30.05100
H  9.69600 50.65300 29.00700
H  10.31700 46.26900 30.25300
H  8.51900 46.26100 30.37100
H  9.24200 48.35200 31.91300
H  10.60700 47.13200 32.05700
H  14.97400 49.59000 26.74000
H  16.45500 48.65000 26.40500
H  15.33000 47.97700 27.49100
H  17.67300 47.69000 23.01300
H  17.47000 47.04800 24.69400
H  16.84800 48.66200 24.22000
H  11.30500 44.97000 20.74200
H  8.97700 46.83000 20.35900
H  12.09300 47.47800 19.83000
H  10.63600 47.07700 18.92300
H  12.04400 45.95800 18.97200
H  7.83800 44.36900 20.93400
H  9.38400 43.92200 20.09400
H  8.18100 44.45900 18.07600
H  7.50600 46.04400 18.76800
H  6.79800 44.44600 19.12800
H  4.85000 44.92800 23.23600
H  4.38500 46.63100 23.20800
H  3.97900 45.61600 24.56700
H  6.27200 47.84600 28.84900
H  5.82600 44.02600 31.18200
H  4.28000 44.72400 31.52600
H  5.72500 45.48600 32.30700

