158

Mg 0.87000 43.04100 26.03400
C  3.14500 43.38200 28.68800
C  -1.65600 42.46400 28.20400
C  -0.93800 42.06200 23.38700
C  3.65100 43.46900 23.78500
N  0.82000 42.78800 28.22200
C  1.84700 43.13000 29.10300
C  1.34000 43.00500 30.56300
C  -0.16500 42.58900 30.35100
C  -0.39000 42.69700 28.86500
C  -0.48100 41.24200 30.96000
C  1.48500 44.35100 31.33600
C  1.41000 44.28600 32.88900
H  1.32000 42.97400 33.72100
N  -1.05700 42.32800 25.82700
C  -2.02000 42.26300 26.86400
C  -3.28800 41.87600 26.29000
C  -3.08200 41.83300 24.86600
C  -1.65300 42.05400 24.63300
C  -4.51800 41.55900 27.15900
C  -4.12200 41.43400 23.77500
O  -3.83200 41.38900 22.58800
C  -5.56200 41.12600 24.12700
N  1.22700 42.88100 23.92400
C  0.38000 42.46500 23.04400
C  0.88900 42.45700 21.56100
C  2.24900 43.23900 21.79700
C  2.38300 43.27500 23.29100
C  0.94800 41.07600 20.81300
C  2.22500 44.65300 21.07000
C  1.74000 45.84700 22.02700
N  2.92800 43.52400 26.08700
C  3.90600 43.60900 25.10300
C  5.16900 43.84600 25.76000
C  4.92800 43.65800 27.13700
C  3.54000 43.51400 27.33400
C  6.48800 43.96800 25.04300
C  5.53200 43.57700 28.47600
O  6.70700 43.55800 28.70900
C  4.34800 43.50900 29.57400
C  4.55000 42.40300 30.53500
O  4.17800 41.29800 30.41100
O  5.14200 42.88500 31.62400
C  5.28900 41.97300 32.80300
H  -2.47300 42.38400 28.92400
H  -1.55500 41.89600 22.50100
H  4.47000 43.56700 23.06900
H  1.85800 42.19100 31.07100
H  -0.89600 43.22000 30.85700
H  -1.29100 40.79400 30.38500
H  -0.74100 41.30300 32.01700
H  0.39700 40.59700 30.94100
H  0.64700 44.97200 31.02100
H  2.35000 44.85300 30.90300
H  0.55200 44.91500 33.12900
H  2.33300 44.76200 33.21900
H  -4.72600 40.49400 27.25600
H  -5.42100 42.05400 26.80200
H  -4.34100 42.05700 28.11300
H  -6.18900 41.00300 23.24400
H  -5.97300 41.96400 24.69000
H  -5.65800 40.18000 24.66000
H  0.19500 42.98200 20.90500
H  3.02100 42.60100 21.36800
H  0.59200 40.30300 21.49300
H  2.00400 40.84500 20.67200
H  0.35100 40.99800 19.90500
H  1.71400 44.59700 20.10900
H  3.22800 45.05300 20.92000
H  2.57200 45.97500 22.72000
H  0.87900 45.62500 22.65700
H  1.46600 46.76300 21.50300
H  6.32700 44.08300 23.97100
H  7.10000 43.06800 25.10400
H  7.02800 44.88500 25.28100
H  4.43600 44.43300 30.14600
H  4.74100 41.03100 32.79800
H  4.94300 42.54600 33.66300
H  6.35300 41.74700 32.88100
Mg -11.62600 16.25400 42.39800
C  -8.61400 14.51900 41.76900
C  -10.28700 19.05600 41.15000
C  -14.73000 17.46900 42.26800
C  -13.01500 13.06500 43.01600
N  -9.77800 16.68600 41.34600
C  -8.67500 15.87100 41.32500
C  -7.47700 16.60100 40.68000
C  -7.95100 18.08600 40.64300
C  -9.40700 17.93800 41.01500
C  -7.03500 18.83600 41.69500
C  -7.11700 16.08700 39.26100
C  -5.57200 16.10700 38.90200
H  -4.95400 17.29800 38.20200
N  -12.42800 18.10800 41.78400
C  -11.65400 19.15700 41.31500
C  -12.52200 20.29000 41.17400
C  -13.85400 19.85100 41.51100
C  -13.73700 18.43300 41.93700
C  -11.97400 21.59300 40.85500
C  -15.19100 20.63900 41.30900
O  -15.14700 21.74600 40.76400
C  -16.45600 20.10500 41.71200
N  -13.61500 15.33400 42.31900
C  -14.65700 16.11000 42.40600
C  -15.95500 15.31400 42.71200
C  -15.43500 13.79800 42.69700
C  -13.90000 14.06000 42.68300
C  -16.75200 15.70300 44.04300
C  -15.97500 12.86500 41.48200
C  -16.51300 11.59000 42.06500
N  -10.94000 14.20400 42.59100
C  -11.61400 13.10300 42.88300
C  -10.61500 11.97300 42.95900
C  -9.41500 12.54100 42.57900
C  -9.69500 13.86300 42.28300
C  -10.92400 10.59500 43.50700
C  -8.07700 12.30700 42.31200
O  -7.41900 11.24500 42.43100
C  -7.45400 13.61700 41.81500
C  -6.39500 14.07500 42.76200
O  -6.35400 13.96700 43.98600
O  -5.28400 14.55700 42.12000
C  -4.20500 15.00100 43.06700
H  -9.79400 19.96100 40.78800
H  -15.72700 17.82500 42.53400
H  -13.48800 12.12400 43.30400
H  -6.53500 16.49400 41.21800
H  -7.84000 18.52600 39.65200
H  -7.67600 19.59700 42.14200
H  -6.16700 19.30600 41.23400
H  -6.70600 18.08400 42.41200
H  -7.59700 16.72000 38.51400
H  -7.36700 15.05000 39.04100
H  -5.42700 15.22300 38.28200
H  -4.97300 15.95800 39.80000
H  -12.69700 22.37400 41.08900
H  -11.75000 21.68700 39.79300
H  -11.09900 21.79200 41.47400
H  -17.23800 20.85600 41.59200
H  -16.35400 19.83000 42.76200
H  -16.63900 19.27300 41.03100
H  -16.64300 15.45500 41.87900
H  -15.67700 13.30900 43.64100
H  -17.78800 15.77200 43.71200
H  -16.51300 16.68200 44.45800
H  -16.64900 14.91700 44.79100
H  -15.07000 12.78800 40.87800
H  -16.71700 13.53700 41.05100
H  -15.78600 10.84100 41.75100
H  -17.53600 11.30500 41.82300
H  -16.36900 11.47000 43.13900
H  -11.83100 10.28300 42.99000
H  -11.20500 10.71000 44.55400
H  -10.23300 9.75300 43.46600
H  -7.08600 13.34900 40.82500
H  -4.56400 16.00500 43.29300
H  -3.34800 15.21400 42.42800
H  -3.97300 14.44200 43.97400

