158

Mg -1.27100 17.32800 25.94800
C  -1.65300 15.19600 28.60400
C  -2.34900 19.95100 27.95300
C  -1.18300 19.45300 23.22700
C  -0.81400 14.43700 23.78800
N  -1.85600 17.59500 28.13100
C  -1.89300 16.52200 29.01000
C  -2.52800 17.03300 30.33400
C  -3.20000 18.35000 29.81600
C  -2.37000 18.72300 28.62000
C  -4.76900 18.34500 29.48000
C  -1.51000 17.27400 31.48000
C  -2.14100 17.14700 32.86400
H  -1.25300 16.41400 33.92000
N  -1.63000 19.32900 25.62800
C  -2.00300 20.24600 26.59500
C  -1.93800 21.58400 26.11100
C  -1.49000 21.47100 24.78900
C  -1.44500 20.03600 24.45300
C  -2.14000 22.82500 26.89900
C  -1.16200 22.56100 23.81000
O  -0.89500 22.41600 22.62800
C  -1.04900 23.99100 24.25300
N  -1.07600 16.97000 23.75500
C  -1.04600 18.04700 22.90400
C  -0.78500 17.48700 21.45800
C  -0.41400 15.96800 21.73300
C  -0.87400 15.71000 23.16100
C  -2.03500 17.71200 20.56800
C  1.04200 15.51600 21.48100
C  2.20400 16.53900 21.78800
N  -1.37300 15.23300 26.09000
C  -1.04700 14.22900 25.17800
C  -1.13100 12.95000 25.95100
C  -1.40300 13.26700 27.25500
C  -1.42500 14.69200 27.30000
C  -1.09800 11.58200 25.40800
C  -1.60800 12.69900 28.52400
O  -1.47700 11.58500 28.85000
C  -1.90500 13.92700 29.44600
C  -1.18600 13.77300 30.76700
O  0.00400 13.89300 30.91400
O  -2.08400 13.42800 31.82000
C  -1.48300 13.01700 33.10600
H  -2.76900 20.74800 28.57100
H  -0.98800 20.02200 22.31600
H  -0.60900 13.50800 23.25100
H  -3.29300 16.31400 30.62700
H  -2.90700 19.18600 30.45100
H  -5.11000 17.41700 29.93800
H  -5.13100 18.53000 28.46800
H  -5.25300 19.22900 29.89600
H  -0.94300 18.19600 31.35300
H  -0.72400 16.53200 31.33800
H  -3.04500 16.55100 32.74100
H  -2.48000 18.10000 33.27100
H  -2.68000 22.50300 27.79000
H  -2.77500 23.57600 26.42900
H  -1.29900 23.49600 27.07700
H  -0.45400 24.09400 25.15900
H  -2.09800 24.23500 24.41900
H  -0.58900 24.64900 23.51600
H  0.00000 18.08400 20.99500
H  -1.07200 15.48700 21.00900
H  -1.78100 17.37800 19.56200
H  -2.33900 18.75900 20.58400
H  -2.82300 17.08500 20.98500
H  1.11300 15.27200 20.42100
H  1.19700 14.52900 21.91700
H  2.71900 16.77100 20.85600
H  2.96300 16.11600 22.44600
H  1.73900 17.46400 22.12900
H  -0.71800 11.04900 26.27900
H  -0.43800 11.54100 24.54100
H  -2.08200 11.23800 25.08800
H  -2.95700 13.95600 29.73000
H  -1.80300 13.60100 33.96900
H  -0.40000 12.89600 33.13000
H  -1.78100 11.97600 33.22800
Mg 26.06300 51.99500 25.87100
C  23.73500 52.96100 28.48400
C  28.23200 51.15000 28.28700
C  28.19300 51.30800 23.33500
C  23.74200 53.07700 23.41700
N  26.03200 52.30000 28.20800
C  24.98000 52.51700 29.04600
C  25.28300 52.18700 30.51900
C  26.70300 51.49800 30.41200
C  27.05600 51.67300 28.88700
C  27.78600 52.01600 31.36300
C  24.19600 51.16800 31.09600
C  23.18900 51.53900 32.11600
H  23.26900 50.93100 33.50200
N  28.00100 51.52400 25.82000
C  28.71900 51.09400 26.88700
C  30.01700 50.71500 26.46400
C  30.01400 50.68500 25.01300
C  28.69200 51.17600 24.64100
C  31.16600 50.38300 27.42300
C  31.06600 50.38600 23.94300
O  30.92800 50.46800 22.74300
C  32.42600 49.97900 24.44500
N  25.99500 52.30700 23.70800
C  27.03500 51.91300 22.92300
C  26.74900 52.32100 21.45600
C  25.19800 52.60900 21.43800
C  24.99300 52.72300 22.93200
C  27.72100 53.37000 20.83500
C  24.31900 51.51200 20.76700
C  23.18200 52.06800 19.87700
N  24.20300 52.88500 25.87400
C  23.33400 53.16200 24.80000
C  22.05300 53.57900 25.34300
C  22.21100 53.53700 26.73900
C  23.45300 53.08000 27.03400
C  20.90400 54.11000 24.55800
C  21.47600 53.86400 27.99900
O  20.34200 54.33000 28.17500
C  22.48200 53.55400 29.11000
C  22.72900 54.67300 29.96900
O  23.67900 55.42400 29.92900
O  21.76100 54.91700 30.87900
C  21.80700 56.20300 31.56500
H  28.90400 50.77900 29.06300
H  28.85800 51.01400 22.52000
H  22.96700 53.26600 22.67100
H  25.27500 53.08400 31.13800
H  26.68200 50.42200 30.58800
H  28.37700 51.18700 31.75200
H  27.39000 52.68600 32.12600
H  28.43700 52.64300 30.75300
H  24.66500 50.25600 31.46600
H  23.52500 50.85400 30.29700
H  22.16800 51.52100 31.73400
H  23.46900 52.56600 32.35100
H  30.97900 50.57100 28.48000
H  32.04500 50.97200 27.16000
H  31.43700 49.33300 27.31700
H  32.38700 49.30200 25.29800
H  32.93600 50.87400 24.80300
H  32.86800 49.45300 23.59900
H  26.91200 51.40000 20.89500
H  24.96200 53.59600 21.04000
H  28.51500 52.81300 20.33900
H  28.27700 53.90000 21.60900
H  27.31900 54.03400 20.07100
H  23.92400 50.84600 21.53300
H  25.02600 50.89200 20.21500
H  22.28900 51.58700 20.27600
H  23.24700 51.78100 18.82800
H  22.99300 53.13000 20.03100
H  20.80800 55.15200 24.86300
H  19.99800 53.56700 24.82700
H  21.13000 54.18500 23.49400
H  22.00900 52.78600 29.72300
H  22.59700 56.09500 32.30800
H  20.91300 56.52200 32.10100
H  22.28500 56.90300 30.88100

