158

Mg 47.12600 16.31900 28.26800
C  44.95300 15.80400 30.89600
C  49.21500 18.02800 30.25000
C  48.98300 17.08200 25.56900
C  44.75200 14.74100 26.13400
N  47.02300 16.81300 30.41500
C  46.14600 16.44900 31.33800
C  46.55400 16.83800 32.68500
C  47.79500 17.79500 32.40100
C  48.07400 17.52900 30.89900
C  47.68700 19.24700 32.81700
C  46.71900 15.52900 33.51700
C  47.76500 15.73200 34.59700
H  47.86400 17.00600 35.47900
N  48.96900 17.28100 27.96500
C  49.63300 17.93300 28.94100
C  50.93500 18.39900 28.41200
C  50.86900 18.18200 26.99400
C  49.54600 17.54500 26.77800
C  52.02700 19.09800 29.34300
C  51.79000 18.62500 25.93100
O  51.52000 18.49500 24.73100
C  53.09300 19.17700 26.36100
N  46.77200 16.07900 26.18200
C  47.78800 16.40700 25.31700
C  47.41200 15.98400 23.86200
C  46.13200 15.13100 24.12100
C  45.92000 15.30700 25.53700
C  47.24800 17.17500 22.86100
C  46.04300 13.69900 23.56000
C  44.82800 13.34800 22.55100
N  45.17300 15.51300 28.40900
C  44.35300 14.89700 27.43100
C  43.25100 14.25000 28.17100
C  43.42900 14.67000 29.45200
C  44.64600 15.35700 29.56400
C  42.13600 13.41900 27.54300
C  42.83200 14.66000 30.74400
O  41.84700 14.08800 31.20300
C  43.84600 15.25200 31.72000
C  43.13000 16.29100 32.57300
O  42.71700 17.33000 32.14100
O  43.01500 15.86300 33.87800
C  42.42100 16.74800 34.90400
H  49.83800 18.41400 31.05900
H  49.64900 17.24200 24.71800
H  43.98600 14.26500 25.51700
H  45.71600 17.41800 33.07200
H  48.67300 17.48300 32.96700
H  47.61400 19.93300 31.97300
H  48.65500 19.50000 33.24900
H  46.80200 19.46000 33.41800
H  47.08100 14.79700 32.79600
H  45.83700 15.11300 34.00500
H  48.77800 15.59900 34.21800
H  47.59200 14.91600 35.29800
H  53.05700 18.77200 29.20700
H  51.74600 18.68900 30.31300
H  52.02100 20.18500 29.25600
H  53.05700 20.16800 26.81300
H  53.61200 19.44700 25.44100
H  53.66200 18.36700 26.81800
H  48.09300 15.25300 23.42600
H  45.29500 15.68400 23.69400
H  47.58800 18.05700 23.40400
H  46.26500 17.22800 22.39300
H  47.94100 16.94000 22.05300
H  46.10700 12.93000 24.33100
H  46.91600 13.51400 22.93400
H  44.25600 14.25700 22.36400
H  44.29300 12.49900 22.97400
H  45.33100 13.08600 21.62000
H  42.16900 13.32800 26.45700
H  41.24800 13.97500 27.84500
H  41.90800 12.48000 28.04700
H  44.29000 14.43800 32.29200
H  41.48400 17.08700 34.46300
H  43.19200 17.50300 35.05900
H  42.40900 16.13400 35.80500
Mg 17.51900 52.04100 26.42300
C  19.22300 50.62600 28.99000
C  15.05300 53.27100 28.53900
C  15.71200 52.95400 23.73900
C  19.73700 50.37600 24.16300
N  17.21600 51.92800 28.55200
C  18.05900 51.30300 29.42600
C  17.46900 51.51400 30.86700
C  16.01200 52.01000 30.60000
C  16.02500 52.43700 29.15000
C  14.91400 50.92700 30.76800
C  18.19800 52.71000 31.55700
C  18.19300 52.75200 33.12300
H  17.08700 52.03700 33.93900
N  15.77300 53.22100 26.22600
C  14.98700 53.64600 27.17600
C  14.05800 54.62500 26.59300
C  14.08900 54.44100 25.17600
C  15.27100 53.53300 24.99400
C  13.16000 55.42900 27.52100
C  13.26600 55.04700 24.01500
O  13.55600 54.97700 22.82000
C  12.18000 55.99300 24.42400
N  17.61000 51.60800 24.33100
C  16.78400 52.15000 23.41000
C  17.17600 51.94700 21.93300
C  18.57600 51.23700 22.11400
C  18.64400 51.01000 23.57600
C  16.08700 51.25300 21.12600
C  19.81200 52.10900 21.62600
C  21.18300 51.41800 21.49000
N  19.13200 50.76700 26.54800
C  19.98200 50.29600 25.55000
C  20.98900 49.55400 26.20200
C  20.82600 49.77600 27.56400
C  19.64000 50.41000 27.73300
C  22.09100 48.78600 25.55800
C  21.40300 49.42300 28.85400
O  22.42000 48.84200 29.16000
C  20.34600 49.99300 29.91100
C  19.95200 49.00600 30.94300
O  19.63300 47.85200 30.67600
O  20.13600 49.51200 32.14200
C  19.81000 48.55300 33.25900
H  14.16900 53.51200 29.13300
H  15.24100 53.26200 22.80400
H  20.48000 49.87600 23.53900
H  17.24200 50.67600 31.52600
H  15.64700 52.81000 31.24400
H  13.97300 51.25500 31.21000
H  15.29400 50.08800 31.35200
H  14.78000 50.59800 29.73800
H  17.88100 53.68900 31.19800
H  19.21600 52.51300 31.22100
H  18.24200 53.79800 33.42300
H  19.07700 52.21700 33.47000
H  13.52600 55.41200 28.54800
H  12.15800 55.00600 27.59400
H  13.10000 56.48000 27.24100
H  12.62900 56.96300 24.63900
H  11.57800 55.68100 25.27600
H  11.53100 56.11500 23.55700
H  17.38300 52.94100 21.53900
H  18.61900 50.28500 21.58400
H  16.52300 50.36300 20.67100
H  15.66600 51.87100 20.33200
H  15.22800 50.96700 21.73300
H  19.96700 52.85600 22.40400
H  19.57000 52.63200 20.70100
H  21.77900 51.69600 22.35900
H  21.76300 51.80000 20.65000
H  21.16300 50.34300 21.31300
H  23.04600 49.09000 25.98700
H  22.01900 48.91600 24.47800
H  22.08900 47.70100 25.66000
H  20.80900 50.80500 30.47100
H  20.76000 48.36500 33.75800
H  19.21500 47.65600 33.08500
H  19.28600 49.07800 34.05800

