158

Mg 42.56800 41.55600 25.94600
C  41.70400 43.94800 28.34100
C  43.43400 39.39400 28.41400
C  43.76000 39.39500 23.54700
C  41.96400 43.91700 23.48400
N  42.78000 41.76200 28.09600
C  42.22600 42.77600 28.88800
C  42.26000 42.38600 30.36100
C  42.77900 40.91500 30.37900
C  43.07000 40.63000 28.85000
C  43.92700 40.70700 31.33100
C  40.93600 42.61500 31.09400
C  40.73800 42.02400 32.51400
H  40.27700 42.84700 33.68400
N  43.54600 39.62400 26.00100
C  43.62500 38.88200 27.11600
C  44.09600 37.52900 26.73900
C  44.20500 37.51700 25.29500
C  43.81000 38.89600 24.90300
C  44.26500 36.32300 27.70300
C  44.55500 36.37000 24.32200
O  44.65700 36.45500 23.13900
C  44.88600 35.04200 24.93200
N  42.91600 41.64000 23.84700
C  43.33600 40.64500 23.08300
C  43.29400 40.94000 21.59300
C  42.71600 42.38600 21.60400
C  42.51600 42.74700 23.10700
C  44.70700 40.79400 20.85300
C  41.36500 42.51400 20.82900
C  40.13800 41.87600 21.37000
N  41.99600 43.59000 25.82200
C  41.69200 44.37400 24.75600
C  41.36500 45.68800 25.25700
C  41.26700 45.59700 26.61600
C  41.63300 44.24000 26.93500
C  40.99400 46.87300 24.36000
C  40.84100 46.20600 27.87400
O  40.41500 47.30400 28.17700
C  41.14900 45.19600 29.00900
C  42.11400 45.76000 29.95400
O  43.27500 45.96500 29.77600
O  41.47100 46.08400 31.08100
C  42.27100 46.80800 32.14400
H  43.56200 38.73000 29.27100
H  44.05100 38.77200 22.69900
H  41.86200 44.60700 22.64400
H  42.83900 43.14200 30.89200
H  41.98600 40.23300 30.68700
H  44.81700 40.82800 30.71300
H  43.91600 39.68000 31.69600
H  43.86900 41.39500 32.17300
H  40.06500 42.38800 30.47800
H  40.84500 43.65300 31.41300
H  41.67600 41.55200 32.80600
H  39.92400 41.30300 32.43700
H  44.15200 36.71100 28.71500
H  45.26100 35.93400 27.49200
H  43.54300 35.50700 27.65800
H  44.07100 34.62300 25.52300
H  45.70000 35.28900 25.61300
H  45.33100 34.28900 24.28100
H  42.64200 40.25300 21.05300
H  43.39100 43.16300 21.24400
H  44.90700 41.70200 20.28300
H  44.49000 39.98000 20.16200
H  45.47500 40.41400 21.52700
H  41.52500 42.17500 19.80500
H  41.20700 43.59100 20.76100
H  39.26300 42.50800 21.21900
H  40.25100 41.59100 22.41600
H  40.14700 40.96400 20.77300
H  40.01400 47.32000 24.52600
H  41.11600 46.54800 23.32600
H  41.78600 47.60300 24.52800
H  40.26000 44.85600 29.54000
H  42.97000 47.49700 31.67200
H  42.70600 46.18300 32.92500
H  41.72600 47.60400 32.65100
Mg 17.24500 51.33100 26.35400
C  19.21800 49.90900 28.86600
C  14.95300 52.26000 28.81200
C  15.27900 52.44700 23.92700
C  19.34300 49.78300 23.95500
N  17.04700 50.99700 28.62700
C  18.01500 50.48700 29.38300
C  17.66700 50.60300 30.85300
C  16.23600 51.29700 30.86500
C  15.97600 51.48400 29.33900
C  15.19300 50.48600 31.66300
C  18.74200 51.48300 31.62500
C  18.33000 52.35600 32.85400
H  17.53800 51.55400 33.88400
N  15.43000 52.32000 26.38600
C  14.64900 52.67300 27.44500
C  13.51400 53.39900 26.96200
C  13.59700 53.51500 25.55400
C  14.78900 52.72700 25.18800
C  12.43400 54.02500 27.88100
C  12.70400 54.18300 24.59300
O  12.91900 54.16100 23.40400
C  11.41300 54.85400 25.08900
N  17.41900 51.19400 24.27000
C  16.45600 51.80200 23.50300
C  16.69100 51.50200 21.95600
C  18.06700 50.78700 21.90300
C  18.30100 50.57000 23.45300
C  15.45600 50.80100 21.32900
C  19.21400 51.54600 21.06500
C  20.18000 50.66200 20.24000
N  18.93000 50.13700 26.28100
C  19.73200 49.64600 25.30100
C  20.81300 48.86400 25.86900
C  20.60200 48.97500 27.22800
C  19.49600 49.78000 27.48600
C  21.91800 48.28900 25.12000
C  21.27100 48.63700 28.51800
O  22.34600 48.08000 28.72200
C  20.39100 49.31000 29.62900
C  20.08600 48.30300 30.66000
O  19.25600 47.36300 30.45800
O  20.91000 48.55300 31.73600
C  20.68500 47.64200 32.89600
H  14.18000 52.60800 29.50000
H  14.60900 52.73700 23.11500
H  19.95900 49.23100 23.24200
H  17.62100 49.59300 31.26200
H  16.32300 52.28100 31.32700
H  14.40500 50.06000 31.04200
H  14.69600 51.05800 32.44600
H  15.68100 49.69100 32.22500
H  19.41500 52.05700 30.98700
H  19.30700 50.69600 32.12400
H  17.94000 53.30100 32.47500
H  19.23300 52.42700 33.45900
H  12.34100 55.07900 27.61700
H  12.87100 54.18400 28.86700
H  11.44800 53.56800 27.96200
H  10.82800 54.11800 25.64000
H  10.75200 55.24900 24.31800
H  11.56700 55.68600 25.77700
H  16.66400 52.45600 21.43000
H  17.91700 49.78000 21.51400
H  14.62600 50.76700 22.03400
H  15.78100 49.78900 21.08600
H  15.06900 51.28600 20.43300
H  19.81200 52.21200 21.68700
H  18.66900 52.24800 20.43400
H  21.16500 51.01400 20.54500
H  20.08300 50.70900 19.15500
H  20.03200 49.65900 20.64000
H  21.53600 47.83400 24.20600
H  22.44000 47.52400 25.69500
H  22.65000 49.05100 24.85200
H  20.90500 50.11000 30.16300
H  19.65200 47.82600 33.19100
H  21.38700 48.00500 33.64700
H  20.93900 46.65900 32.49900

