158

Mg 25.21600 -8.58500 48.06600
C  27.46000 -6.21700 46.84100
C  23.05700 -7.66500 45.64700
C  23.10300 -10.99500 49.23700
C  27.68600 -9.73900 50.38600
N  25.31800 -7.23200 46.38900
C  26.27700 -6.31600 46.05900
C  25.88900 -5.34100 44.95300
C  24.40400 -5.83700 44.60400
C  24.25100 -7.00500 45.58100
C  23.35100 -4.69800 44.86000
C  26.80900 -5.37500 43.72600
C  27.46600 -3.97300 43.28600
H  27.30200 -3.60600 41.84800
N  23.36600 -9.35300 47.41100
C  22.66000 -8.80700 46.35300
C  21.49600 -9.62200 46.22000
C  21.39200 -10.49700 47.33500
C  22.64700 -10.35100 48.02900
C  20.58400 -9.43100 45.11600
C  20.17600 -11.33300 47.67700
O  19.14800 -11.41900 46.99700
C  20.16900 -12.11600 48.95500
N  25.39300 -10.24700 49.45700
C  24.29100 -10.94400 49.94200
C  24.61300 -11.81100 51.14000
C  26.14500 -11.64600 51.27600
C  26.47700 -10.47800 50.30900
C  23.74600 -11.44800 52.41400
C  27.08300 -12.88200 50.92400
C  28.08300 -13.45400 51.98900
N  27.08700 -8.06000 48.56900
C  27.98100 -8.66400 49.51200
C  29.23200 -7.90100 49.38900
C  29.03700 -6.89300 48.42300
C  27.73400 -7.08100 47.94400
C  30.52400 -8.30500 50.21600
C  29.58700 -5.71800 47.75300
O  30.57300 -5.14000 48.00400
C  28.55600 -5.19200 46.80300
C  28.08500 -3.92000 47.43400
O  27.37800 -3.84500 48.43000
O  28.51400 -2.97500 46.64100
C  28.14700 -1.60900 47.00300
H  22.23700 -7.42600 44.96700
H  22.38900 -11.65800 49.73100
H  28.44300 -10.24400 50.99000
H  25.87500 -4.35800 45.42400
H  24.33500 -6.21200 43.58200
H  23.84800 -3.76000 44.61400
H  22.89700 -4.81000 45.84400
H  22.52700 -4.84200 44.16100
H  26.34100 -5.71400 42.80200
H  27.54300 -6.13900 43.98600
H  28.54600 -3.95200 43.43300
H  27.15000 -3.15300 43.93200
H  19.79500 -10.17100 44.98500
H  21.08800 -9.44000 44.15000
H  19.96600 -8.54600 45.26600
H  20.96400 -12.85600 48.86400
H  19.19500 -12.59900 49.03400
H  20.30900 -11.39100 49.75600
H  24.40400 -12.82100 50.78700
H  26.40100 -11.21900 52.24500
H  24.32100 -10.75100 53.02400
H  23.58600 -12.41300 52.89500
H  22.82600 -10.98100 52.06300
H  27.61300 -12.55300 50.03000
H  26.44300 -13.73900 50.71500
H  27.87700 -14.44900 52.38400
H  28.35200 -12.75600 52.78300
H  28.99700 -13.56400 51.40500
H  30.37500 -8.21300 51.29200
H  31.41000 -7.71000 49.99600
H  30.84600 -9.32200 49.99100
H  28.93800 -5.12700 45.78400
H  28.80300 -1.17100 47.75600
H  27.13000 -1.42100 47.34800
H  28.21600 -0.96300 46.12800
Mg 46.91700 14.79600 28.73100
C  45.14400 14.65400 31.69400
C  49.11900 16.97300 30.14300
C  48.66600 14.70500 25.81000
C  44.35600 12.86400 27.20000
N  46.96400 15.91800 30.67800
C  46.26800 15.56800 31.80100
C  46.91300 16.11900 33.12700
C  47.98400 17.04400 32.52500
C  48.06500 16.63300 30.99000
C  47.74600 18.51800 32.68200
C  47.43800 14.98300 34.11300
C  47.11500 15.23300 35.61400
H  48.26100 15.08100 36.55600
N  48.61400 15.78000 28.08900
C  49.41400 16.59600 28.84500
C  50.66400 16.89300 28.15900
C  50.54200 16.25700 26.86100
C  49.25900 15.51700 26.85400
C  51.82800 17.61200 28.80600
C  51.52300 16.24300 25.69000
O  51.31600 15.59000 24.73100
C  52.74100 17.04400 25.78600
N  46.48500 14.08300 26.64500
C  47.44700 13.89300 25.74300
C  46.88400 13.20200 24.49200
C  45.61800 12.52300 25.01300
C  45.43800 13.22300 26.36000
C  46.78300 14.25400 23.28200
C  45.67900 10.93600 25.01900
C  47.02400 10.29800 25.52200
N  45.03200 14.07700 29.24700
C  44.10500 13.26000 28.57800
C  43.06700 12.80900 29.50300
C  43.42400 13.34900 30.74100
C  44.62900 14.05800 30.55600
C  41.80300 12.13900 28.99000
C  42.98600 13.39000 32.06500
O  41.99200 12.95200 32.62300
C  44.06300 14.30100 32.76800
C  43.44200 15.59400 33.24900
O  43.14800 16.63900 32.63300
O  43.27700 15.48500 34.64300
C  42.77000 16.65200 35.34600
H  49.88000 17.58700 30.62900
H  49.23700 14.63900 24.88100
H  43.71900 12.09100 26.76400
H  46.10700 16.71300 33.56000
H  48.94100 16.90400 33.02800
H  46.97600 18.67200 33.43800
H  47.44200 19.12500 31.83000
H  48.63500 19.07500 32.97600
H  48.52400 14.92000 34.04000
H  47.07600 13.99700 33.82400
H  46.32100 14.51400 35.81200
H  46.73000 16.23100 35.82400
H  52.76900 17.20900 28.43000
H  51.81500 17.50100 29.89100
H  51.74800 18.66500 28.54000
H  52.55300 18.09200 26.01900
H  53.17500 17.00400 24.78700
H  53.47500 16.69000 26.51000
H  47.61400 12.47300 24.13900
H  44.76700 12.80500 24.39300
H  46.78600 15.25100 23.72100
H  46.10800 13.92500 22.49200
H  47.80300 14.25800 22.89600
H  45.46900 10.51800 24.03500
H  44.84300 10.48700 25.55500
H  47.48400 11.06800 26.14200
H  47.63700 9.97100 24.68200
H  46.77600 9.35700 26.01200
H  41.72500 12.01100 27.91000
H  40.95200 12.71500 29.35300
H  41.70500 11.16800 29.47600
H  44.43200 13.70800 33.60500
H  41.68400 16.55800 35.36500
H  43.07500 17.63300 34.98200
H  43.06200 16.51700 36.38800

