158

Mg 46.87900 25.16300 28.88000
C  47.68800 27.44000 31.36600
C  46.25700 22.96200 31.16400
C  46.26900 23.00200 26.40000
C  48.48000 27.34300 26.41500
N  46.73800 25.25700 31.05500
C  47.02000 26.34400 31.85900
C  46.81500 26.06300 33.32500
C  46.49000 24.44800 33.29400
C  46.56000 24.16000 31.74900
C  47.29900 23.39500 34.11900
C  45.61300 26.78200 33.97900
C  45.88100 27.49100 35.32500
H  44.75400 27.53700 36.38000
N  46.32900 23.16000 28.84000
C  46.16700 22.39800 29.90800
C  45.70800 21.08500 29.47800
C  45.70900 21.09700 28.02600
C  46.01100 22.51100 27.70100
C  45.26500 20.05500 30.52000
C  45.45700 20.00400 26.95300
O  45.18500 20.15600 25.79600
C  45.36500 18.56600 27.35500
N  47.34100 25.17800 26.66600
C  46.79100 24.20600 25.92300
C  46.89600 24.55700 24.42200
C  47.58200 25.96800 24.45300
C  47.82300 26.23000 25.93100
C  47.57000 23.48000 23.44300
C  46.53000 26.92600 23.93400
C  47.05500 28.14800 23.21600
N  47.86100 26.97100 28.81900
C  48.52200 27.68200 27.84300
C  49.10400 28.86300 28.42500
C  48.74900 28.82900 29.75900
C  48.06200 27.63500 30.02900
C  49.85100 30.00400 27.68200
C  48.89200 29.56900 31.04500
O  49.43000 30.66400 31.20300
C  48.16600 28.74700 32.11400
C  49.19200 28.53800 33.18700
O  50.28400 28.05900 33.05900
O  48.74000 29.14600 34.32200
C  49.51600 28.95500 35.58500
H  46.06100 22.23200 31.95200
H  46.05100 22.32600 25.57000
H  48.93900 27.93800 25.62200
H  47.76900 26.28500 33.80400
H  45.43900 24.31700 33.54900
H  47.99900 22.85600 33.48000
H  46.69200 22.75300 34.75800
H  47.82400 24.04200 34.82200
H  44.78000 26.07900 33.97400
H  45.31700 27.56200 33.27800
H  46.09400 28.54900 35.17100
H  46.75500 27.02100 35.77600
H  45.86300 19.14500 30.55700
H  44.32900 19.60000 30.19400
H  45.01600 20.48900 31.48800
H  44.54000 18.26300 27.99900
H  46.30300 18.24700 27.81000
H  45.35600 17.83400 26.54700
H  45.86400 24.52500 24.07300
H  48.51100 25.95000 23.88300
H  47.42300 22.42200 23.66200
H  48.65700 23.56100 23.47000
H  47.21400 23.57400 22.41800
H  45.83100 27.33300 24.66500
H  45.91000 26.47200 23.16200
H  47.06100 29.04700 23.83300
H  46.40500 28.40000 22.37800
H  48.06800 27.96800 22.85500
H  49.46000 30.10900 26.67000
H  50.90900 29.74200 27.70700
H  49.72100 30.92700 28.24600
H  47.34800 29.33200 32.53400
H  48.94900 28.20800 36.14100
H  49.55600 29.93100 36.06900
H  50.50900 28.50900 35.53800
Mg -1.84500 34.60100 27.51000
C  -3.56600 32.82600 29.75400
C  -0.68200 36.72200 29.87600
C  -0.67800 36.72500 25.01700
C  -3.41300 32.71900 24.86200
N  -2.31500 34.92400 29.49100
C  -2.83200 33.88000 30.28800
C  -2.80500 34.27700 31.79700
C  -2.03500 35.67100 31.72400
C  -1.65900 35.80900 30.26100
C  -3.01100 36.87200 32.25600
C  -2.08000 33.19600 32.61500
C  -2.79300 32.68000 33.92700
H  -1.87400 32.56400 35.16100
N  -0.71600 36.34000 27.49400
C  -0.23600 37.01200 28.57800
C  0.75400 38.02300 28.26500
C  0.69600 38.05800 26.81900
C  -0.28500 37.02400 26.37200
C  1.54800 38.89500 29.27300
C  1.40300 39.13400 25.95000
O  1.38400 39.08000 24.71300
C  2.26200 40.18500 26.60600
N  -2.24500 34.83100 25.29400
C  -1.54700 35.72900 24.52100
C  -1.69900 35.48600 23.09000
C  -2.34500 34.10500 23.04500
C  -2.71200 33.85600 24.45000
C  -2.43100 36.63000 22.27200
C  -1.66900 32.90900 22.35500
C  -0.38100 32.42300 22.95400
N  -3.22900 33.01700 27.31000
C  -3.66400 32.29400 26.18400
C  -4.59600 31.22300 26.63800
C  -4.48700 31.34400 28.07600
C  -3.69000 32.45700 28.36200
C  -5.39000 30.31400 25.84400
C  -4.84900 30.74600 29.37300
O  -5.54400 29.73000 29.64100
C  -4.19800 31.64000 30.47200
C  -5.24800 32.04500 31.47300
O  -5.87500 33.06800 31.44400
O  -5.55000 31.00400 32.31000
C  -6.29800 31.35600 33.53900
H  -0.17600 37.16400 30.73600
H  -0.26400 37.36700 24.23700
H  -3.84900 32.05400 24.11400
H  -3.81000 34.31200 32.21700
H  -1.09800 35.63000 32.28000
H  -3.62200 37.30300 31.46300
H  -2.44500 37.68100 32.71900
H  -3.61700 36.48200 33.07400
H  -1.08400 33.53000 32.90500
H  -1.84800 32.27600 32.07900
H  -3.21100 31.70800 33.66500
H  -3.65000 33.32700 34.11800
H  1.57300 38.50000 30.28900
H  1.13600 39.89400 29.41600
H  2.57000 38.98100 28.90500
H  1.83500 40.73100 27.44700
H  2.54600 40.87400 25.81000
H  3.18500 39.64700 26.82500
H  -0.69800 35.37300 22.67400
H  -3.34700 34.28500 22.65500
H  -3.45100 36.47200 21.92400
H  -1.89800 36.84100 21.34500
H  -2.32500 37.52900 22.88000
H  -1.57100 33.23200 21.31900
H  -2.41800 32.12100 22.27600
H  0.27300 32.56100 22.09200
H  -0.51100 31.38700 23.26800
H  -0.17200 32.96300 23.87700
H  -4.84900 29.44600 25.46700
H  -5.60500 30.73100 24.86100
H  -6.27500 30.18300 26.46700
H  -3.54100 31.09400 31.14900
H  -5.90900 32.20000 34.10900
H  -6.20700 30.43500 34.11400
H  -7.33000 31.67500 33.39200

