158

Mg 44.43300 2.20500 47.27500
C  44.05200 5.51900 46.30300
C  41.31400 1.52900 46.10000
C  45.14600 -1.08800 47.56300
C  47.84400 2.87300 47.90900
N  42.80000 3.41600 46.49700
C  42.86600 4.73100 46.05400
C  41.60100 5.17500 45.39200
C  40.63300 3.91000 45.55300
C  41.61900 2.88100 46.12900
C  39.44800 4.04000 46.59300
C  41.82700 5.60200 43.90800
C  41.37600 7.00000 43.47500
H  40.20300 7.16500 42.43300
N  43.34100 0.43100 46.96500
C  42.03100 0.39100 46.47700
C  41.60600 -1.01400 46.35300
C  42.70500 -1.80000 46.82300
C  43.79900 -0.85700 47.17600
C  40.21700 -1.45000 45.88500
C  42.73100 -3.32900 46.96600
O  41.70700 -3.93400 46.72700
C  43.90400 -4.12600 47.33500
N  46.27100 1.02000 47.73600
C  46.21200 -0.25600 47.85800
C  47.60000 -0.91000 48.11100
C  48.53200 0.39300 47.95200
C  47.50700 1.54200 47.90300
C  47.78400 -1.71000 49.41700
C  49.56100 0.45100 46.83500
C  51.00600 0.11600 47.16800
N  45.66600 3.89900 47.22500
C  46.98200 4.00500 47.62400
C  47.35300 5.42000 47.51700
C  46.23500 6.02600 47.03400
C  45.26100 5.08700 46.85400
C  48.57500 6.03700 47.90800
C  45.70400 7.28700 46.57100
O  46.20900 8.40800 46.52100
C  44.25200 6.97400 46.01400
C  43.32000 7.81000 46.79700
O  42.90600 7.62500 47.88900
O  43.11600 8.99000 46.09600
C  42.49200 10.04500 46.86300
H  40.33100 1.31500 45.67600
H  45.42000 -2.12500 47.76900
H  48.90600 3.10500 48.01600
H  41.09800 6.04000 45.82500
H  40.08100 3.57100 44.67600
H  39.80500 4.03300 47.62300
H  38.65300 3.30900 46.44400
H  39.09000 5.06100 46.46300
H  41.41000 4.82800 43.26300
H  42.88000 5.38100 43.73600
H  42.21800 7.44800 42.94800
H  41.20200 7.67900 44.31000
H  40.20900 -2.19600 45.09000
H  39.69400 -0.56100 45.53200
H  39.63300 -1.71900 46.76500
H  44.26500 -3.81100 48.31400
H  44.67400 -4.12800 46.56400
H  43.46300 -5.12100 47.40800
H  47.67000 -1.59400 47.26600
H  49.07900 0.47600 48.89100
H  48.47000 -1.16700 50.06700
H  48.10700 -2.72500 49.18700
H  46.87200 -1.66300 50.01200
H  49.60400 1.42800 46.35500
H  49.15300 -0.29400 46.15200
H  51.62900 0.86100 46.67300
H  51.25500 -0.85300 46.73600
H  51.27500 0.11200 48.22500
H  49.43300 5.38300 48.06100
H  48.41900 6.65600 48.79200
H  48.72200 6.66800 47.03200
H  44.26000 7.28500 44.96900
H  42.89100 10.98400 46.47800
H  42.57800 9.89200 47.93900
H  41.44700 9.95200 46.56700
Mg -1.47300 34.44600 26.71300
C  -2.83300 32.82400 29.49500
C  0.12900 36.61900 28.71500
C  -0.71900 36.26100 23.94000
C  -3.41200 32.34000 24.70500
N  -1.59100 34.82100 28.88700
C  -1.99400 33.89600 29.82300
C  -1.56500 34.31900 31.24200
C  -0.63600 35.50700 30.97200
C  -0.65400 35.67300 29.43400
C  -1.05800 36.76000 31.75000
C  -0.78400 33.25600 32.05800
C  -1.40700 32.95100 33.39400
H  -0.40900 32.98400 34.57200
N  -0.36600 36.18900 26.34900
C  0.24100 36.92300 27.31900
C  1.02900 37.91400 26.69800
C  0.70700 37.93900 25.27400
C  -0.10200 36.73800 25.12200
C  1.79300 38.90500 27.50100
C  1.24000 38.78100 24.17800
O  0.92100 38.60400 23.00200
C  2.34000 39.79600 24.49700
N  -2.15900 34.43300 24.63200
C  -1.67100 35.31800 23.71300
C  -2.05600 34.87300 22.29000
C  -2.37800 33.38400 22.50100
C  -2.73500 33.36500 24.03900
C  -3.16200 35.71000 21.54300
C  -1.32600 32.34000 22.23300
C  0.15400 32.67000 22.51100
N  -2.85800 32.86700 26.92100
C  -3.58400 32.13400 26.07000
C  -4.41000 31.15900 26.72600
C  -4.13900 31.35200 28.12000
C  -3.19300 32.39200 28.17800
C  -5.37500 30.12800 26.17400
C  -4.39200 30.90100 29.44200
O  -5.13900 29.99600 29.86800
C  -3.62000 31.88000 30.39700
C  -4.62800 32.54800 31.20400
O  -5.23400 33.59500 30.94700
O  -4.76100 31.76600 32.37700
C  -5.71300 32.34800 33.33600
H  0.64200 37.30400 29.39300
H  -0.55500 36.80200 23.00500
H  -3.99100 31.70200 24.03200
H  -2.49600 34.50100 31.78000
H  0.39900 35.31500 31.25800
H  -0.19200 37.23800 32.20800
H  -1.78200 36.56500 32.54100
H  -1.58200 37.50200 31.14700
H  0.25900 33.53800 32.20900
H  -0.76600 32.39300 31.39300
H  -1.83000 31.94600 33.38200
H  -2.33200 33.47400 33.63800
H  1.19100 39.05800 28.39700
H  1.80600 39.89000 27.03300
H  2.82000 38.55500 27.60300
H  2.84800 39.92600 23.54100
H  3.04900 39.48400 25.26400
H  1.92500 40.74300 24.84200
H  -1.12100 34.89400 21.73000
H  -3.12300 33.12700 21.74700
H  -3.54700 36.41600 22.27800
H  -4.06300 35.23300 21.15700
H  -2.80400 36.35800 20.74300
H  -1.58000 32.18400 21.18400
H  -1.48800 31.45400 22.84600
H  0.44000 33.62400 22.95200
H  0.76600 32.56300 21.61600
H  0.47300 31.98200 23.29400
H  -5.33900 29.75900 25.14900
H  -6.41800 30.43100 26.26300
H  -5.33500 29.28300 26.86200
H  -3.01800 31.20800 31.00800
H  -5.78400 31.66000 34.17800
H  -6.64700 32.57600 32.82400
H  -5.14700 33.22900 33.63900

