158

Mg 46.03300 34.82700 28.22000
C  44.43300 32.80600 30.58800
C  46.07200 37.41000 30.46800
C  47.29200 36.93300 25.78700
C  45.84100 32.22700 25.88100
N  45.40500 35.00700 30.33700
C  44.85000 34.03100 31.12900
C  44.89500 34.47200 32.63100
C  45.10800 36.01900 32.47100
C  45.58500 36.16300 31.01800
C  43.79400 36.84100 32.69600
C  46.16200 33.77200 33.33100
C  46.19800 33.61600 34.86000
H  45.28500 34.59200 35.64600
N  46.78100 36.85400 28.20600
C  46.62100 37.79200 29.20900
C  47.21000 39.05900 28.85700
C  47.58100 38.91600 27.45600
C  47.23900 37.53100 27.09800
C  47.33800 40.23200 29.78200
C  48.29200 39.89100 26.46300
O  48.63000 39.50200 25.35600
C  48.52000 41.35600 26.90000
N  46.43800 34.60400 26.18000
C  46.87600 35.63500 25.45500
C  47.05000 35.19200 23.94100
C  46.71400 33.65200 23.98900
C  46.34600 33.41900 25.44900
C  46.37900 36.06600 22.87000
C  47.80600 32.64800 23.47800
C  47.47800 31.71100 22.30700
N  45.27900 32.89300 28.16500
C  45.36400 31.94900 27.16900
C  44.77000 30.70600 27.61100
C  44.38600 30.93900 29.00900
C  44.69700 32.30600 29.26900
C  44.73000 29.36500 26.84400
C  43.90400 30.39900 30.25000
O  43.53000 29.24600 30.46200
C  43.54500 31.65500 31.18600
C  43.85100 31.25800 32.58900
O  44.83400 30.73100 33.01400
O  42.82000 31.68200 33.36900
C  42.86500 31.28300 34.80400
H  46.08900 38.21800 31.20200
H  47.48500 37.55500 24.91000
H  45.83300 31.44800 25.11600
H  44.00300 34.17500 33.18200
H  45.82300 36.38000 33.21000
H  43.10300 36.27300 33.31900
H  43.20000 37.09100 31.81700
H  43.78300 37.77000 33.26700
H  47.11800 34.08900 32.91300
H  46.13500 32.77900 32.88400
H  47.24300 33.84500 35.06600
H  46.02400 32.57700 35.14200
H  46.66900 41.04800 29.50900
H  48.41800 40.37700 29.76700
H  47.15000 39.85700 30.78800
H  48.86500 41.30200 27.93200
H  47.56600 41.88400 26.92700
H  49.17800 41.84100 26.17900
H  48.11600 35.31200 23.74700
H  45.77200 33.39800 23.50500
H  47.17200 36.44500 22.22500
H  45.85600 36.92200 23.29600
H  45.66400 35.52200 22.25200
H  48.28300 32.04100 24.24700
H  48.66900 33.22100 23.13900
H  48.20700 31.90400 21.52100
H  46.45300 31.86700 21.96900
H  47.48500 30.63900 22.50100
H  45.41100 29.27400 25.99800
H  43.74200 29.13400 26.44600
H  44.97500 28.63500 27.61500
H  42.49800 31.86800 30.96800
H  43.48800 30.40500 34.97300
H  41.89800 31.25600 35.30700
H  43.21200 32.07800 35.46500
Mg 29.31800 58.73300 40.73700
C  26.12800 57.51800 39.74700
C  30.77700 56.00600 39.28900
C  32.30300 60.42300 40.78700
C  27.57700 61.83500 41.32500
N  28.53000 56.96900 39.70100
C  27.19900 56.68500 39.41900
C  27.14600 55.48700 38.38100
C  28.53900 54.82600 38.58900
C  29.39000 56.03400 39.12500
C  28.64400 53.60400 39.51500
C  26.78600 55.91700 36.89600
C  25.49800 55.27100 36.28200
H  25.66200 54.63300 34.84800
N  31.30600 58.20900 40.18600
C  31.74900 56.97200 39.71400
C  33.16700 56.94700 39.69200
C  33.63900 58.27800 40.08800
C  32.42200 59.03700 40.50000
C  33.85500 55.70600 39.24700
C  35.08500 58.64800 40.14500
O  35.87600 57.80900 39.86500
C  35.64900 59.99800 40.77200
N  29.83500 60.77500 40.95500
C  31.13800 61.19900 41.08800
C  31.21100 62.73000 41.38200
C  29.72600 63.01700 41.74700
C  28.96500 61.78200 41.29100
C  32.33200 63.16400 42.40500
C  29.21800 64.38000 41.11100
C  28.33500 65.31700 42.00100
N  27.28700 59.47600 40.91500
C  26.70700 60.76500 41.16100
C  25.25200 60.62200 41.27400
C  24.99000 59.35700 40.76100
C  26.27700 58.77200 40.44800
C  24.25600 61.72000 41.62400
C  23.90100 58.39300 40.49900
O  22.69700 58.54600 40.67700
C  24.59200 57.35100 39.66000
C  24.18200 56.11500 40.29900
O  24.41100 55.81900 41.47900
O  23.63000 55.26300 39.35800
C  23.10700 54.06100 39.96000
H  31.25400 55.05100 39.05800
H  33.25100 60.96300 40.75500
H  27.12600 62.79400 41.58700
H  26.39700 54.81300 38.79700
H  29.02100 54.46400 37.68100
H  29.41900 53.83000 40.24700
H  28.85200 52.68400 38.96800
H  27.67600 53.43600 39.98600
H  27.70800 55.78900 36.32800
H  26.58100 56.98600 36.83300
H  24.66800 55.97200 36.19200
H  25.09400 54.49800 36.93500
H  34.76800 56.05600 38.76500
H  33.21200 55.08800 38.62100
H  34.28600 55.06000 40.01300
H  35.38800 60.76600 40.04400
H  36.72700 59.94800 40.92700
H  35.08200 60.10600 41.69700
H  31.56400 63.27100 40.50400
H  29.56100 63.00100 42.82400
H  32.91100 63.90200 41.85000
H  32.84100 62.27200 42.76900
H  31.93000 63.75900 43.22600
H  28.48800 64.17700 40.32900
H  30.14400 64.92300 40.91900
H  28.04300 64.85500 42.94400
H  27.51200 65.59500 41.34300
H  28.98700 66.16200 42.22100
H  23.98400 62.17100 40.66900
H  24.74900 62.38500 42.33300
H  23.31300 61.33400 42.01000
H  24.25900 57.50200 38.63300
H  22.45300 54.24400 40.81300
H  23.88800 53.34500 40.21400
H  22.44100 53.65800 39.19700

