158

Mg 24.14600 -4.64300 45.99700
C  26.10700 -2.18400 44.64500
C  21.58500 -3.78200 43.95700
C  22.58500 -7.48600 46.85300
C  27.19600 -5.94500 47.57200
N  23.92700 -3.17700 44.62400
C  24.85300 -2.33300 44.12600
C  24.18400 -1.36200 43.11400
C  22.63800 -1.60700 43.20300
C  22.72800 -2.96000 43.91500
C  21.79200 -0.49100 43.88600
C  24.78600 -1.67600 41.70600
C  25.32100 -0.55400 40.82100
H  25.08700 -0.76200 39.32900
N  22.26200 -5.47300 45.53300
C  21.33100 -4.91900 44.66600
C  20.23800 -5.79200 44.50900
C  20.38800 -6.89900 45.41700
C  21.80800 -6.73100 45.95100
C  19.07800 -5.48500 43.64200
C  19.38600 -8.04600 45.74400
O  18.37000 -8.18900 45.10300
C  19.67700 -9.04800 46.76600
N  24.89500 -6.52200 46.94500
C  23.92500 -7.34200 47.41000
C  24.51900 -8.52100 48.21700
C  26.01800 -8.07500 48.38000
C  26.08400 -6.71500 47.62900
C  23.77000 -8.81500 49.54300
C  27.14100 -9.08000 47.81900
C  28.49100 -9.18300 48.64400
N  26.25900 -4.16200 46.20400
C  27.28900 -4.72400 46.88600
C  28.42400 -3.87600 46.73300
C  28.03800 -2.91700 45.83600
C  26.70000 -3.06800 45.55500
C  29.73400 -4.24700 47.31800
C  28.55500 -1.86600 44.92800
O  29.63700 -1.39900 44.79600
C  27.25500 -1.34300 44.16300
C  27.17000 0.17500 44.55600
O  26.47100 0.71400 45.43800
O  28.16600 0.82700 43.87200
C  28.39200 2.22700 44.15600
H  20.79400 -3.43700 43.28800
H  22.24200 -8.51800 46.95500
H  28.10600 -6.19700 48.12000
H  24.26000 -0.30000 43.34900
H  22.16400 -1.77700 42.23600
H  20.88700 -0.22000 43.34200
H  22.35100 0.43200 44.04000
H  21.62100 -0.88700 44.88600
H  23.96000 -2.21200 41.24100
H  25.57800 -2.42400 41.74000
H  26.36500 -0.52200 41.13300
H  24.68200 0.28200 41.10600
H  18.71200 -6.43200 43.24600
H  19.46700 -4.98200 42.75700
H  18.38400 -4.75700 44.06100
H  20.27900 -9.81800 46.28300
H  18.72100 -9.51900 46.99400
H  20.07000 -8.60100 47.67900
H  24.45100 -9.44900 47.64900
H  26.33500 -7.66900 49.34000
H  24.01700 -9.72400 50.09200
H  22.72400 -8.61300 49.31300
H  24.21100 -8.04400 50.17500
H  27.24600 -8.73100 46.79200
H  26.72700 -10.06700 47.61300
H  28.56700 -10.25100 48.84900
H  28.51200 -8.55800 49.53600
H  29.36900 -8.88400 48.07200
H  29.71500 -4.06700 48.39200
H  30.43800 -3.65400 46.73400
H  30.05200 -5.28000 47.17300
H  27.48900 -1.32000 43.09900
H  29.46000 2.28100 44.36700
H  27.79800 2.62900 44.97600
H  28.26000 2.68500 43.17500
Mg -6.47500 25.53200 26.02400
C  -4.64900 26.34600 28.83700
C  -8.32900 23.41900 27.86400
C  -7.34900 23.89600 23.09400
C  -4.01700 27.30100 24.11700
N  -6.40900 24.97800 28.06600
C  -5.78000 25.52300 29.04300
C  -6.24600 25.03900 30.39900
C  -7.31200 23.91800 30.12300
C  -7.35200 24.07400 28.58800
C  -6.78200 22.53000 30.38200
C  -6.89600 26.22200 31.16600
C  -6.96200 26.21500 32.65700
H  -6.35500 25.12300 33.49000
N  -7.72300 23.92000 25.56500
C  -8.43800 23.22000 26.49900
C  -9.25100 22.23800 25.75000
C  -9.03600 22.40300 24.38800
C  -7.94000 23.44000 24.32800
C  -10.00800 21.16000 26.46500
C  -9.54800 21.59700 23.14100
O  -9.06000 21.86600 22.03100
C  -10.50700 20.39900 23.25300
N  -5.64700 25.44400 23.92000
C  -6.30200 24.80300 22.93100
C  -5.74600 25.23100 21.60100
C  -4.71600 26.28500 21.92400
C  -4.76200 26.42400 23.42800
C  -5.12500 23.89300 20.92200
C  -4.85700 27.76100 21.22100
C  -3.69100 28.26600 20.30100
N  -4.78700 26.82200 26.37500
C  -3.96300 27.48100 25.53300
C  -3.04800 28.23000 26.32700
C  -3.18300 27.80600 27.65100
C  -4.25100 26.94700 27.58500
C  -1.94800 29.16300 25.74700
C  -2.69300 27.87400 29.03200
O  -1.71500 28.45900 29.58500
C  -3.67100 26.98400 29.86000
C  -2.84100 26.08100 30.72500
O  -2.33800 24.98800 30.41300
O  -2.75900 26.63200 31.94900
C  -1.93800 26.00000 32.97600
H  -9.06300 22.85500 28.44300
H  -7.73300 23.67100 22.09700
H  -3.41200 28.02200 23.56400
H  -5.43300 24.71400 31.04900
H  -8.30100 24.11700 30.53700
H  -5.88600 22.53700 31.00300
H  -6.49200 22.18800 29.38800
H  -7.44600 21.88600 30.95900
H  -7.94900 26.09500 30.91300
H  -6.59400 27.18100 30.74600
H  -8.02600 26.12700 32.87600
H  -6.59100 27.16400 33.04300
H  -10.92500 21.13100 25.87700
H  -10.27800 21.36200 27.50100
H  -9.53600 20.19400 26.28400
H  -10.10500 19.46000 23.63300
H  -10.75500 20.09200 22.23700
H  -11.31600 20.82700 23.84500
H  -6.54200 25.55100 20.92900
H  -3.76300 25.84500 21.63100
H  -5.73100 23.64300 20.05100
H  -5.27500 23.05700 21.60600
H  -4.09400 23.97800 20.57900
H  -5.01400 28.48200 22.02300
H  -5.79800 27.76800 20.67100
H  -4.17500 28.33900 19.32700
H  -3.01600 27.46600 19.99800
H  -3.16800 29.17800 20.59100
H  -2.26900 29.59900 24.80100
H  -1.03700 28.60700 25.52400
H  -1.77600 29.96600 26.46400
H  -4.18700 27.66900 30.53200
H  -0.92400 26.36800 32.82000
H  -1.95700 24.91300 32.90200
H  -2.21900 26.25800 33.99700

