158

Mg 36.40800 2.00200 30.07800
C  33.89900 2.72400 32.29400
C  38.62600 2.09900 32.60300
C  38.89000 1.39600 27.82600
C  34.10400 2.29100 27.47900
N  36.26400 2.45800 32.21400
C  35.11500 2.62800 32.94200
C  35.42200 2.65700 34.41900
C  36.96500 2.70700 34.48300
C  37.28300 2.46300 32.97600
C  37.54600 4.01900 34.95600
C  34.77200 1.48200 35.13000
C  34.62200 1.51900 36.67400
H  35.43400 2.56200 37.50900
N  38.51500 1.80400 30.22000
C  39.23600 1.80700 31.35700
C  40.57000 1.61900 31.09300
C  40.70100 1.32900 29.64900
C  39.33100 1.47400 29.18700
C  41.70500 1.79800 32.08000
C  41.89900 0.90500 28.69100
O  41.72900 0.54500 27.54500
C  43.29600 0.84600 29.32200
N  36.43900 1.69800 27.96000
C  37.59200 1.60300 27.27300
C  37.30600 1.58500 25.78100
C  35.77100 1.65500 25.64700
C  35.41000 1.92100 27.13700
C  38.04700 2.66100 25.02900
C  35.11400 0.33000 25.13700
C  33.89000 0.48100 24.18700
N  34.38100 2.35200 29.85900
C  33.59500 2.41900 28.80400
C  32.21300 2.73100 29.14700
C  32.26900 2.88500 30.59800
C  33.60000 2.63800 30.92500
C  31.20400 2.79100 28.17600
C  31.52200 3.11000 31.83100
O  30.31400 3.30700 32.02600
C  32.59400 3.08900 32.92300
C  32.59400 4.39800 33.60500
O  33.30100 5.31600 33.22600
O  31.74700 4.49000 34.68000
C  31.85800 5.75000 35.52800
H  39.30700 2.17500 33.45400
H  39.58400 1.32000 26.98700
H  33.41500 2.26200 26.63300
H  34.91800 3.50200 34.88800
H  37.23400 1.84100 35.08900
H  36.91600 4.50500 35.70000
H  37.63200 4.77400 34.17500
H  38.56800 4.01200 35.33200
H  35.45900 0.63900 35.05200
H  33.87800 1.13800 34.61100
H  34.80100 0.52600 37.08600
H  33.58300 1.65800 36.97100
H  42.00100 0.83100 32.48600
H  41.50600 2.48200 32.90500
H  42.59700 2.16800 31.57400
H  43.39500 0.18600 30.18400
H  43.60600 1.86600 29.55200
H  44.01100 0.58000 28.54300
H  37.70800 0.63600 25.42500
H  35.47500 2.48300 25.00200
H  38.60600 2.26200 24.18300
H  38.56900 3.37100 25.67100
H  37.30200 3.31600 24.57700
H  34.75700 -0.21600 26.01100
H  35.84200 -0.36800 24.72400
H  34.13200 0.12000 23.18700
H  33.69300 1.53400 23.98400
H  33.01700 -0.06000 24.55000
H  31.08200 1.86700 27.61200
H  31.43400 3.55800 27.43600
H  30.27800 3.08500 28.67200
H  32.40700 2.32000 33.67200
H  31.12900 6.46800 35.15000
H  32.85000 6.20000 35.48700
H  31.65300 5.66700 36.59500
Mg 9.61700 49.04200 24.11400
C  7.25100 49.70700 26.46900
C  12.13500 50.20500 26.39400
C  12.06500 48.48200 21.80900
C  7.20300 47.97400 21.89500
N  9.65600 50.05100 26.17700
C  8.51400 50.03400 26.97900
C  8.90600 50.46800 28.43800
C  10.38400 51.04900 28.21000
C  10.78000 50.35300 26.85800
C  10.51800 52.57400 28.24800
C  8.69500 49.31300 29.47500
C  9.38500 49.46200 30.88200
H  8.49000 49.55800 32.05200
N  11.76200 49.24500 24.16900
C  12.55300 49.63200 25.22000
C  13.92600 49.69400 24.81000
C  14.01000 49.27600 23.40500
C  12.55800 48.97300 23.07600
C  15.09900 50.04700 25.65700
C  15.20600 49.04300 22.53300
O  15.05500 48.91200 21.31600
C  16.57300 48.90100 23.05600
N  9.59600 48.37400 22.09900
C  10.73600 48.17100 21.40500
C  10.55000 47.56200 20.05000
C  8.94600 47.42100 20.00500
C  8.49600 47.97000 21.40800
C  11.15200 48.35200 18.94000
C  8.60000 45.90800 19.72300
C  8.44300 44.95100 20.92800
N  7.60300 48.87000 24.07900
C  6.72200 48.45100 23.14500
C  5.36900 48.55600 23.68800
C  5.54400 49.06800 24.98700
C  6.91100 49.21600 25.18600
C  4.11300 48.14800 22.96800
C  4.80000 49.47500 26.17300
O  3.60700 49.46100 26.43800
C  5.86100 49.75300 27.19200
C  5.72500 48.64600 28.20500
O  6.20100 47.50300 28.07500
O  5.12900 49.16700 29.34700
C  4.82600 48.15000 30.28200
H  12.80000 50.66200 27.12900
H  12.81400 48.23200 21.05500
H  6.55900 47.49600 21.15300
H  8.31000 51.29600 28.82200
H  11.02400 50.69500 29.01800
H  9.56200 53.09400 28.18700
H  11.25900 52.91100 27.52300
H  10.94800 52.90200 29.19400
H  9.11600 48.46000 28.94300
H  7.62000 49.26000 29.64200
H  10.02600 50.34400 30.86700
H  10.14100 48.67800 30.93000
H  14.82200 50.14400 26.70600
H  15.47200 51.02800 25.36000
H  15.90200 49.31900 25.53900
H  16.54800 48.01000 23.68300
H  16.84900 49.81900 23.57600
H  17.29100 48.74800 22.25000
H  11.11900 46.63900 20.15800
H  8.42400 47.96200 19.21600
H  11.29000 49.34500 19.36600
H  10.31300 48.34200 18.24400
H  12.09300 48.00900 18.51100
H  9.42500 45.50400 19.13500
H  7.67000 45.77900 19.16900
H  8.50200 45.42500 21.90700
H  9.13000 44.10500 20.92900
H  7.40500 44.62100 20.96900
H  3.47800 47.61200 23.67300
H  4.38300 47.38800 22.23500
H  3.54600 48.97200 22.53500
H  5.70900 50.76400 27.57000
H  4.17800 47.42100 29.79600
H  4.23100 48.56200 31.09700
H  5.74600 47.67800 30.62700

