158

Mg 8.12400 2.48900 28.40100
C  9.55800 1.03900 31.25900
C  6.48100 4.72700 30.36500
C  6.16100 3.32100 25.77000
C  9.35200 -0.31100 26.46000
N  7.93000 2.73900 30.62100
C  8.68700 2.09900 31.59200
C  8.54500 2.79300 32.93600
C  7.35200 3.83500 32.58800
C  7.24800 3.82700 31.09700
C  6.00400 3.53100 33.27600
C  9.79300 3.44000 33.56700
C  10.39800 2.76300 34.82100
H  10.79100 3.72800 35.89800
N  6.76700 4.04900 27.99400
C  6.21600 4.90900 28.93800
C  5.27100 5.78800 28.24300
C  5.23800 5.42800 26.85600
C  6.11500 4.28500 26.83500
C  4.47200 6.97200 28.93300
C  4.44600 6.04700 25.63000
O  4.47900 5.68300 24.46900
C  3.51100 7.26400 25.84800
N  7.85200 1.61900 26.38800
C  6.92500 2.17400 25.58400
C  7.13000 1.59300 24.12100
C  8.00500 0.35500 24.37900
C  8.39400 0.55700 25.84800
C  5.87700 1.12400 23.37500
C  9.07700 0.08900 23.26200
C  9.02800 -1.18400 22.37800
N  9.23900 0.77100 28.73600
C  9.65700 -0.23600 27.83600
C  10.48600 -1.20800 28.60600
C  10.48800 -0.70300 29.89300
C  9.70900 0.45900 29.94900
C  11.29800 -2.33400 28.02500
C  10.93400 -0.95900 31.31200
O  11.74200 -1.75300 31.80100
C  10.32400 0.15200 32.17600
C  9.43800 -0.58800 33.16100
O  8.31600 -1.00100 32.97800
O  10.12300 -0.63600 34.34600
C  9.38500 -1.41400 35.41200
H  6.09400 5.54000 30.98200
H  5.60800 3.63200 24.88100
H  9.73600 -1.05700 25.76000
H  8.20800 2.16400 33.76000
H  7.63700 4.79500 33.01800
H  6.09000 2.47300 33.52200
H  5.21800 3.47200 32.52300
H  5.78500 4.36700 33.94000
H  9.71100 4.51600 33.71900
H  10.57700 3.36400 32.81300
H  11.29100 2.25500 34.45500
H  9.75500 1.96800 35.19700
H  4.81800 7.94200 28.57600
H  4.85400 7.05400 29.95000
H  3.43100 6.89300 28.62000
H  2.75100 7.06100 26.60300
H  2.93900 7.55800 24.96800
H  4.10300 8.08900 26.24500
H  7.68300 2.23900 23.43900
H  7.34300 -0.50700 24.45800
H  5.07800 1.33800 24.08600
H  5.77300 0.10700 22.99900
H  5.72100 1.93500 22.66300
H  10.09300 0.20600 23.63800
H  9.03000 0.83500 22.46800
H  8.95300 -0.98700 21.30800
H  8.15900 -1.80400 22.59800
H  9.92800 -1.78900 22.48400
H  12.02400 -2.03600 27.26900
H  10.75200 -3.17600 27.59800
H  11.80800 -2.67400 28.92600
H  11.23200 0.62200 32.55300
H  8.88500 -2.27300 34.96500
H  8.60300 -0.83400 35.90000
H  9.98200 -1.85600 36.21000
Mg 53.26900 23.04700 44.37200
C  50.87000 25.46100 43.19000
C  51.34900 20.61400 43.22900
C  55.80200 21.06100 44.99600
C  55.36500 25.88300 44.94700
N  51.42700 23.11600 43.25700
C  50.48200 24.15900 42.95400
C  49.20100 23.60500 42.42500
C  49.35100 22.04400 42.81900
C  50.78600 21.92500 43.11200
C  48.41300 21.63200 44.01600
C  49.13700 23.83200 40.92500
C  50.42400 23.75100 40.10300
H  51.15400 22.31300 40.01900
N  53.51000 21.05000 44.24800
C  52.56900 20.17800 43.79900
C  53.12900 18.83700 43.78300
C  54.39600 18.96700 44.47300
C  54.59900 20.37300 44.62600
C  52.44200 17.71500 43.11300
C  55.28300 17.86500 44.87500
O  54.96800 16.71000 44.58900
C  56.53400 18.00400 45.69400
N  55.35200 23.47600 44.65500
C  56.12900 22.48000 45.07000
C  57.53800 22.96100 45.64900
C  57.40100 24.43200 45.40400
C  55.93900 24.57600 44.96500
C  57.74800 22.52700 47.18700
C  58.36400 25.01200 44.25800
C  58.16700 24.45900 42.89700
N  53.14900 25.22000 44.29800
C  54.01900 26.16900 44.72200
C  53.31600 27.47400 44.85500
C  52.14500 27.19000 44.13200
C  52.06700 25.85700 43.85600
C  53.87100 28.73700 45.55500
C  50.87100 27.79800 43.81100
O  50.46500 28.93600 44.02300
C  50.04600 26.77400 43.02600
C  50.09200 27.28200 41.66600
O  51.10000 27.60400 41.06500
O  48.85700 27.35500 41.12900
C  48.73500 27.65600 39.68600
H  50.65300 19.87900 42.81900
H  56.66700 20.48200 45.32700
H  56.05900 26.66800 45.25400
H  48.32600 24.08900 42.85900
H  49.12400 21.41100 41.96100
H  47.89100 20.75200 43.64100
H  47.75200 22.48400 44.17700
H  49.00200 21.39600 44.90300
H  48.72100 24.80700 40.67200
H  48.53100 23.04000 40.48600
H  51.16100 24.43200 40.52800
H  50.16800 24.19900 39.14300
H  51.89300 18.02400 42.22400
H  51.64600 17.31700 43.74200
H  53.08200 16.90300 42.76700
H  56.86000 16.98100 45.88300
H  56.38500 18.51500 46.64500
H  57.23700 18.50600 45.03000
H  58.32800 22.44200 45.10600
H  57.41700 24.97700 46.34800
H  57.37500 21.50900 47.29800
H  57.34900 23.33300 47.80300
H  58.80000 22.47800 47.46800
H  59.39300 24.75500 44.51000
H  58.33100 26.09700 44.15900
H  57.31800 23.77800 42.95100
H  59.08200 23.93700 42.61800
H  57.74800 25.14800 42.16400
H  53.49400 28.61200 46.57000
H  53.62100 29.73800 45.20400
H  54.96100 28.76200 45.54600
H  49.01200 26.59400 43.32300
H  49.61200 27.51100 39.05500
H  48.54000 28.72800 39.65000
H  47.92200 27.06400 39.26500

