158

Mg 1.64100 8.18500 25.52600
C  2.33500 10.29200 28.41000
C  1.54300 5.56800 27.56700
C  0.81100 6.33100 22.82500
C  1.82900 11.05700 23.53600
N  2.16000 7.94500 27.65800
C  2.20500 8.92200 28.71800
C  2.24700 8.25300 30.07900
C  2.30000 6.72000 29.66200
C  1.98700 6.73000 28.18700
C  3.60700 5.92900 30.01500
C  1.11700 8.72500 30.98900
C  1.33000 8.81400 32.42900
H  2.38000 7.91000 33.12500
N  1.07300 6.22900 25.24800
C  1.16400 5.33000 26.26700
C  0.69600 4.03700 25.70300
C  0.35300 4.30100 24.32500
C  0.77900 5.65700 24.08200
C  0.51500 2.69100 26.57400
C  -0.23400 3.33400 23.31600
O  -0.52600 3.73400 22.22900
C  -0.67300 1.88800 23.69800
N  1.53500 8.65300 23.53600
C  1.10900 7.67600 22.62200
C  0.84000 8.34500 21.21100
C  0.75700 9.84400 21.60100
C  1.49100 9.84900 22.98900
C  1.90800 8.10300 20.15200
C  -0.62600 10.35600 21.65700
C  -1.04900 10.98700 20.28300
N  2.01000 10.21200 25.89000
C  2.07200 11.24800 24.94000
C  2.36900 12.49800 25.63900
C  2.39300 12.17000 26.99600
C  2.29100 10.76400 27.09300
C  2.40300 13.89900 25.00900
C  2.64400 12.72000 28.29300
O  2.95200 13.85100 28.59100
C  2.52800 11.52600 29.28600
C  3.66700 11.50700 30.25600
O  4.72600 10.95500 29.96000
O  3.41700 12.17000 31.40300
C  4.39000 11.97700 32.46100
H  1.56300 4.65800 28.17000
H  0.58800 5.83100 21.88100
H  1.70000 11.95200 22.92400
H  3.26700 8.51900 30.35300
H  1.44800 6.18800 30.08700
H  4.40500 6.51200 30.47400
H  3.95300 5.34300 29.16300
H  3.33900 5.22300 30.80100
H  0.45600 7.86000 30.93900
H  0.68800 9.65200 30.60800
H  0.36300 8.71000 32.92000
H  1.68700 9.81000 32.68900
H  1.47100 2.18500 26.70200
H  -0.29900 2.07100 26.19700
H  0.28200 3.02200 27.58700
H  -1.61100 2.04100 24.23200
H  0.05300 1.29700 24.25600
H  -0.79000 1.35800 22.75300
H  -0.14400 7.95500 20.94800
H  1.45200 10.40000 20.97200
H  2.86800 8.20400 20.65800
H  1.68000 8.90100 19.44500
H  1.79900 7.13100 19.67000
H  -0.64300 11.03300 22.51100
H  -1.31600 9.57500 21.97600
H  -0.23400 10.86300 19.57000
H  -1.14900 12.06900 20.36500
H  -1.92700 10.50000 19.85700
H  1.36800 14.15700 24.78300
H  2.99200 13.80600 24.09700
H  2.73800 14.65900 25.71500
H  1.67400 11.68300 29.94600
H  5.42900 12.17900 32.19700
H  4.42000 10.96600 32.86600
H  4.08600 12.61100 33.29400
Mg 47.54300 44.86300 43.56100
C  44.10500 43.90000 43.38100
C  48.31400 41.55100 43.32100
C  50.55500 45.91700 43.02000
C  46.24900 48.22800 43.16400
N  46.31200 42.99800 43.53200
C  44.96000 42.79300 43.44400
C  44.53000 41.29500 43.50900
C  45.92900 40.62100 43.67200
C  46.90100 41.76700 43.39200
C  46.05700 40.08400 45.06600
C  43.97300 41.04800 41.95500
C  44.92700 41.37700 40.76600
H  44.87700 40.51100 39.47500
N  49.26900 43.84200 43.25200
C  49.35300 42.47900 43.25200
C  50.73000 42.12500 43.14600
C  51.43700 43.35400 42.81900
C  50.45300 44.46600 42.96700
C  51.26800 40.73300 43.00500
C  52.90700 43.48200 42.40300
O  53.65400 42.51800 42.29700
C  53.45800 44.79100 42.02000
N  48.26300 46.76100 43.04300
C  49.53100 46.91900 43.13100
C  49.91700 48.43900 43.31200
C  48.49300 49.15100 43.26900
C  47.60700 47.96900 43.06300
C  50.76100 48.82500 44.54600
C  48.37100 50.23800 42.11500
C  48.11600 51.67400 42.65000
N  45.62900 45.89600 43.42500
C  45.30500 47.26500 43.39000
C  43.87000 47.48100 43.45000
C  43.36200 46.17000 43.46300
C  44.45000 45.26700 43.37800
C  43.01900 48.82000 43.48300
C  42.11400 45.42700 43.48600
O  40.95700 45.77600 43.52300
C  42.58900 43.91000 43.37600
C  41.98800 43.16000 44.52800
O  42.07900 43.45500 45.71100
O  41.23800 42.10600 44.06400
C  40.47100 41.34000 45.05100
H  48.67900 40.52500 43.24100
H  51.54700 46.37100 42.98400
H  45.91500 49.26700 43.19900
H  43.79400 41.10500 44.29000
H  46.03600 39.77800 42.98900
H  46.04800 38.99600 45.12300
H  45.21200 40.40300 45.67700
H  46.96500 40.44500 45.54900
H  43.04200 41.58800 41.78400
H  43.63900 40.01100 41.97500
H  45.96900 41.42600 41.08400
H  44.65700 42.36300 40.38800
H  51.60200 40.44700 42.00800
H  50.61200 39.95500 43.39500
H  52.18300 40.66700 43.59300
H  52.75700 45.27900 41.34200
H  54.40500 44.69400 41.49000
H  53.57700 45.52700 42.81600
H  50.41200 48.74800 42.39100
H  48.30000 49.51300 44.27900
H  50.54400 49.82200 44.92900
H  51.78100 48.66400 44.19600
H  50.50400 48.12200 45.33900
H  47.50900 50.19300 41.45000
H  49.24200 50.11700 41.47200
H  49.10900 52.11500 42.56600
H  47.87400 51.68800 43.71300
H  47.36300 52.25900 42.12200
H  43.36000 49.41400 44.33100
H  41.98900 48.49300 43.62800
H  43.06800 49.35700 42.53500
H  42.28100 43.44900 42.43800
H  39.57900 41.88700 45.35300
H  41.15700 41.00800 45.83000
H  40.19500 40.41600 44.54300

