158

Mg 41.02100 7.79500 29.52100
C  42.92200 9.22400 32.08100
C  38.65000 6.80200 31.81800
C  39.54900 5.99500 27.12500
C  43.81600 8.03900 27.34700
N  40.86700 7.90700 31.74900
C  41.68500 8.73200 32.54700
C  41.03000 8.81000 33.96300
C  39.82000 7.86200 33.95300
C  39.75700 7.40000 32.43800
C  39.75300 6.64200 34.85000
C  40.72900 10.35900 34.16900
C  40.03500 10.72600 35.47400
H  40.75200 11.67200 36.45700
N  39.35800 6.61000 29.54600
C  38.41300 6.44800 30.50800
C  37.31200 5.70100 30.02700
C  37.51800 5.41500 28.66400
C  38.91100 5.93600 28.41000
C  36.09600 5.36000 30.93100
C  36.62000 4.72600 27.63300
O  36.98600 4.49600 26.45400
C  35.10300 4.44400 27.95800
N  41.58500 7.07500 27.48900
C  40.75300 6.41700 26.74500
C  41.31700 6.07000 25.39400
C  42.50100 7.05700 25.35200
C  42.72100 7.28900 26.83300
C  41.60100 4.64500 25.04900
C  42.23200 8.39600 24.58200
C  43.43500 9.38800 24.16200
N  42.95000 8.47700 29.63600
C  43.96800 8.47000 28.66400
C  45.07100 9.17300 29.17200
C  44.72500 9.45000 30.51800
C  43.45100 9.01500 30.74800
C  46.27600 9.66300 28.42600
C  45.15100 10.11100 31.77000
O  46.20100 10.65500 32.06700
C  43.98600 10.00900 32.85600
C  44.48800 9.31400 34.06400
O  44.92300 8.16300 34.04900
O  44.39700 10.08800 35.20700
C  44.38300 9.28500 36.45000
H  37.84300 6.69100 32.54600
H  39.07200 5.40800 26.33700
H  44.69300 8.13500 26.70300
H  41.76900 8.48400 34.69400
H  38.85400 8.35100 34.07500
H  39.97300 5.73800 34.28200
H  38.89700 6.59600 35.52400
H  40.54400 6.67600 35.59900
H  40.23200 10.80400 33.30800
H  41.64000 10.95500 34.22600
H  39.87400 9.77300 35.97700
H  39.15500 11.33400 35.26300
H  35.17100 5.75700 30.51400
H  36.15300 5.61200 31.99000
H  36.01200 4.27400 30.95600
H  35.07200 3.80800 28.84300
H  34.56700 3.95500 27.14400
H  34.55400 5.36900 28.13600
H  40.63300 6.44200 24.63100
H  43.31900 6.58300 24.81000
H  41.06500 3.86700 25.59300
H  42.66800 4.54900 25.24600
H  41.44900 4.51500 23.97700
H  41.64100 8.92800 25.32700
H  41.56700 8.07300 23.78100
H  43.39100 9.48900 23.07800
H  44.30900 8.85400 24.53600
H  43.33500 10.39200 24.57600
H  45.86700 9.90400 27.44500
H  47.01000 8.86500 28.31800
H  46.67100 10.62300 28.75900
H  43.79300 11.03700 33.16200
H  45.42900 9.13000 36.71700
H  43.81200 8.37000 36.29300
H  43.90200 9.78800 37.28800
Mg -10.09600 17.35300 42.49600
C  -6.71100 16.31100 42.18300
C  -9.08400 20.60900 41.85000
C  -13.33200 18.06600 42.21300
C  -10.92400 13.90500 42.60900
N  -8.07900 18.31700 42.03200
C  -6.83500 17.66700 41.97200
C  -5.67900 18.74100 41.73400
C  -6.54600 20.10900 41.90900
C  -7.96800 19.74200 41.95900
C  -6.17600 21.09000 43.09300
C  -4.86400 18.62200 40.39800
C  -5.60200 17.84900 39.26000
H  -5.05800 18.06500 37.82200
N  -11.08000 19.09400 42.11400
C  -10.47200 20.33600 41.83500
C  -11.42600 21.34600 41.64600
C  -12.69100 20.69000 41.91900
C  -12.44200 19.20000 42.11800
C  -11.10400 22.80500 41.27600
C  -14.05600 21.43700 41.97400
O  -14.08700 22.66300 41.81900
C  -15.34900 20.70700 42.21400
N  -11.87900 16.20200 42.35400
C  -13.10500 16.74600 42.28500
C  -14.23100 15.70500 42.30300
C  -13.47600 14.38300 42.58800
C  -12.02000 14.85200 42.41300
C  -15.37700 16.06500 43.35800
C  -13.94400 13.13500 41.83300
C  -15.19900 12.36300 42.32400
N  -9.09900 15.50900 42.49800
C  -9.62000 14.23900 42.63200
C  -8.53700 13.28200 42.81900
C  -7.39700 14.05100 42.59200
C  -7.79400 15.36900 42.40900
C  -8.70600 11.76400 42.89600
C  -5.97600 13.96400 42.49300
O  -5.27100 12.96900 42.46200
C  -5.46400 15.42200 42.28900
C  -4.44800 15.92100 43.35300
O  -3.31000 16.31200 43.06800
O  -4.99000 15.95200 44.63100
C  -4.38100 16.96300 45.52800
H  -8.87500 21.67000 41.69500
H  -14.37600 18.38100 42.25800
H  -11.14400 12.84400 42.74100
H  -5.01700 18.60500 42.58900
H  -6.50300 20.64500 40.96100
H  -7.02500 21.19300 43.76900
H  -6.01000 22.02900 42.56500
H  -5.33300 20.69600 43.66100
H  -3.93600 18.12800 40.68600
H  -4.68200 19.59200 39.93700
H  -6.61000 18.25800 39.32200
H  -5.61000 16.79100 39.52200
H  -10.34400 22.90500 40.50200
H  -10.68000 23.32600 42.13400
H  -11.96400 23.40200 40.97300
H  -15.49900 19.89000 41.50800
H  -16.23100 21.31800 42.02300
H  -15.53700 20.36200 43.23100
H  -14.69900 15.72200 41.31900
H  -13.51700 14.15100 43.65200
H  -15.03400 16.95700 43.88300
H  -15.41700 15.25400 44.08400
H  -16.32900 16.24800 42.86000
H  -13.11700 12.45400 41.63300
H  -14.15800 13.58300 40.86200
H  -16.07600 12.33800 41.67800
H  -15.64900 12.75600 43.23600
H  -14.88500 11.33600 42.51100
H  -7.81000 11.16800 43.06900
H  -9.12600 11.55700 41.91200
H  -9.37200 11.49900 43.71700
H  -4.89700 15.35000 41.36200
H  -4.00700 16.33700 46.33900
H  -5.14100 17.65500 45.89000
H  -3.60600 17.51700 44.99800

