158

Mg 49.31700 34.55100 26.30900
C  47.30800 33.49500 28.83900
C  49.41200 37.76400 27.54600
C  51.24100 35.35300 23.69000
C  48.89100 31.23900 24.81700
N  48.43400 35.48700 27.94900
C  47.68800 34.85900 28.91500
C  47.37200 35.91700 29.98500
C  47.92800 37.23400 29.52500
C  48.58300 36.78200 28.21300
C  46.82500 38.33600 29.38300
C  47.91700 35.52900 31.44000
C  46.81200 35.43400 32.58400
H  47.04500 36.15300 33.91900
N  50.24900 36.34900 25.69000
C  50.22000 37.53500 26.41200
C  50.99500 38.46800 25.61700
C  51.50400 37.77700 24.44900
C  51.01600 36.42700 24.55900
C  51.24700 39.89400 26.02400
C  52.50200 38.29500 23.38400
O  53.07400 37.56900 22.60300
C  52.84700 39.77700 23.23500
N  49.80400 33.50600 24.39100
C  50.79800 34.06900 23.59600
C  51.06600 33.26700 22.34800
C  50.37800 31.89600 22.78400
C  49.55500 32.22700 24.06800
C  50.61700 33.90700 21.00000
C  51.29000 30.74300 22.98900
C  51.18700 29.62200 21.99300
N  48.26900 32.75900 26.66900
C  48.20800 31.50000 26.03000
C  47.30100 30.65700 26.74900
C  46.90300 31.36100 27.88900
C  47.54800 32.55900 27.83100
C  46.95900 29.19500 26.43100
C  46.08800 31.33400 29.08900
O  45.26300 30.39700 29.46800
C  46.42000 32.69000 29.86300
C  47.00100 32.16400 31.14600
O  48.15000 31.72900 31.35000
O  46.00900 32.18400 32.07300
C  46.20900 31.68700 33.44300
H  49.60300 38.74000 27.99600
H  51.77500 35.65700 22.78700
H  48.75400 30.28600 24.30400
H  46.29100 36.01700 30.08500
H  48.69500 37.52200 30.24400
H  46.29800 38.34200 30.33700
H  46.08800 38.05700 28.63000
H  47.22800 39.34100 29.25200
H  48.66200 36.21100 31.84800
H  48.37500 34.55500 31.26800
H  46.56900 34.37700 32.68800
H  45.89000 35.87900 32.21100
H  50.99300 40.10400 27.06300
H  50.83700 40.68600 25.39700
H  52.32300 40.01900 25.89900
H  53.40100 39.93800 22.31000
H  53.45000 39.97000 24.12300
H  51.95800 40.40600 23.18200
H  52.15000 33.20400 22.44200
H  49.63000 31.61100 22.04400
H  51.48600 34.43900 20.61300
H  49.83600 34.64700 21.16800
H  50.11300 33.20400 20.33700
H  51.23300 30.34000 24.00000
H  52.27500 31.20800 22.93700
H  52.14500 29.31900 21.56900
H  50.59300 29.88300 21.11800
H  50.81200 28.73500 22.50300
H  46.28500 29.14500 25.57600
H  46.38900 28.74600 27.24400
H  47.87400 28.65900 26.18300
H  45.57300 33.36800 29.96900
H  46.43000 32.47900 34.15900
H  47.05700 31.00500 33.49800
H  45.30100 31.20500 33.80700
Mg -12.14700 16.38500 42.80800
C  -9.03800 14.83300 42.03300
C  -10.96900 19.18900 41.16000
C  -15.28400 17.52400 42.56100
C  -13.37800 13.13900 43.68200
N  -10.24100 16.86100 41.63900
C  -9.12300 16.15700 41.54800
C  -8.00600 16.97200 40.88800
C  -8.67400 18.36900 40.73800
C  -10.06600 18.10900 41.24700
C  -7.90900 19.47100 41.32300
C  -7.54200 16.24400 39.54600
C  -6.00300 16.12800 39.32700
H  -5.42600 16.62800 37.98500
N  -12.96400 18.15300 42.12100
C  -12.30300 19.19100 41.57900
C  -13.23900 20.31300 41.45200
C  -14.49200 19.88200 41.98000
C  -14.30400 18.46400 42.22400
C  -12.83600 21.64400 40.85400
C  -15.70900 20.73500 42.29200
O  -15.74500 21.90600 42.03200
C  -17.00100 20.26500 42.88800
N  -14.10000 15.42800 43.09300
C  -15.25000 16.16800 42.96100
C  -16.50300 15.30700 43.32400
C  -15.79300 13.90600 43.71500
C  -14.26300 14.17400 43.48200
C  -17.69500 15.80900 44.17800
C  -16.29700 12.71300 42.84000
C  -16.35600 11.32200 43.52300
N  -11.38400 14.38700 42.96200
C  -11.94200 13.25300 43.50800
C  -10.97000 12.15900 43.52100
C  -9.81700 12.83000 42.99800
C  -10.12500 14.14900 42.62000
C  -11.16000 10.79900 44.04400
C  -8.36600 12.63200 42.78200
O  -7.65500 11.67600 43.02900
C  -7.81900 13.90300 42.09800
C  -6.65900 14.49600 42.85500
O  -6.77700 15.19200 43.88000
O  -5.52000 14.20400 42.20700
C  -4.20500 14.42000 42.84100
H  -10.72900 20.11600 40.63700
H  -16.32100 17.85700 42.48100
H  -13.71700 12.20000 44.12500
H  -7.17400 16.99300 41.59200
H  -8.72200 18.68400 39.69500
H  -8.00100 20.48300 40.92900
H  -6.87700 19.14300 41.20200
H  -8.16600 19.52900 42.38100
H  -7.84000 16.76800 38.63700
H  -7.99700 15.25500 39.61300
H  -5.86300 15.05800 39.47900
H  -5.36300 16.54300 40.10600
H  -13.32500 21.81600 39.89500
H  -11.77100 21.73100 40.64000
H  -13.03200 22.46100 41.54800
H  -17.53100 19.87800 42.01700
H  -17.53200 21.14800 43.24300
H  -16.85500 19.63200 43.76300
H  -17.00400 15.00800 42.40300
H  -15.83000 13.66100 44.77600
H  -18.67500 15.76700 43.70200
H  -17.45800 16.86000 44.33800
H  -17.79900 15.29800 45.13500
H  -15.70300 12.54600 41.94100
H  -17.22600 12.80400 42.27700
H  -15.88500 10.61400 42.84200
H  -17.33500 10.95600 43.83200
H  -15.80300 11.28900 44.46200
H  -10.88000 10.75200 45.09700
H  -10.52600 10.08000 43.52400
H  -12.19400 10.49400 43.88500
H  -7.44900 13.49200 41.15900
H  -4.00200 14.03900 43.84200
H  -3.99200 15.48500 42.93000
H  -3.53000 13.97300 42.11100

