158

Mg 40.54200 41.09000 27.18300
C  40.10000 43.53700 29.77100
C  41.96800 39.05300 29.66800
C  41.31300 38.88100 24.82500
C  39.89100 43.44600 24.81100
N  40.78000 41.20900 29.52000
C  40.40100 42.26900 30.25700
C  40.64200 41.90300 31.78600
C  41.33700 40.44400 31.76600
C  41.35200 40.19600 30.25400
C  42.67700 40.38900 32.54200
C  39.34700 41.99300 32.61600
C  39.27700 41.16200 33.95200
H  38.53800 41.75800 35.21500
N  41.55200 39.26700 27.24000
C  41.97400 38.57100 28.33000
C  42.47300 37.25200 27.93300
C  42.15000 37.12100 26.57700
C  41.60200 38.45400 26.16300
C  43.18800 36.33300 28.80800
C  42.25300 35.93500 25.65000
O  41.93800 36.01300 24.47500
C  42.88800 34.67500 26.13300
N  40.85600 41.23300 25.06300
C  40.93000 40.09900 24.32200
C  40.71400 40.41400 22.76400
C  40.18400 41.89800 22.81600
C  40.34800 42.20200 24.28400
C  41.93200 40.23700 21.82000
C  38.78000 42.14400 22.24700
C  37.64800 41.61600 23.09400
N  40.10700 43.14900 27.23800
C  39.84000 43.91300 26.17900
C  39.39800 45.21100 26.67000
C  39.54900 45.12300 28.07200
C  39.96500 43.85200 28.37700
C  38.97300 46.34100 25.76500
C  39.45700 45.86100 29.25500
O  38.99100 46.99000 29.46800
C  39.86100 44.87100 30.43000
C  41.04700 45.31000 31.10300
O  42.05700 45.67200 30.59100
O  40.85800 45.22600 32.44100
C  41.96500 45.57200 33.35100
H  42.54100 38.32500 30.24500
H  41.39300 38.16300 24.00500
H  39.67300 44.19100 24.04300
H  41.35100 42.63400 32.17400
H  40.66100 39.69300 32.17500
H  43.51700 39.99000 31.97500
H  42.41300 39.67100 33.31800
H  43.02900 41.29000 33.04600
H  38.61700 41.64300 31.88600
H  39.06600 43.02900 32.80700
H  40.25600 40.83500 34.30300
H  38.64500 40.28700 33.80200
H  42.42300 35.66000 29.19500
H  43.80600 36.85200 29.54100
H  43.96700 35.77500 28.28700
H  42.84600 33.90500 25.36200
H  42.39600 34.29900 27.03000
H  43.96800 34.81100 26.19400
H  39.97400 39.63000 22.60200
H  40.84200 42.65000 22.38000
H  42.04000 41.11800 21.18600
H  41.69700 39.37000 21.20200
H  42.82700 40.21400 22.44200
H  38.80800 41.72100 21.24300
H  38.73900 43.22100 22.08400
H  37.36000 42.37100 23.82500
H  37.95600 40.78000 23.72200
H  36.82500 41.26300 22.47200
H  39.03800 46.01500 24.72700
H  39.60300 47.21200 25.94800
H  37.97500 46.66600 26.05800
H  39.06900 44.92900 31.17600
H  41.99100 46.63800 33.57700
H  42.89600 45.34200 32.83300
H  41.79300 45.01600 34.27300
Mg -1.60400 35.25300 27.01800
C  -3.42600 33.62600 29.69800
C  -0.48400 37.40500 29.34900
C  -0.05000 36.91000 24.50300
C  -3.06200 33.15700 24.75700
N  -2.14300 35.53600 29.21900
C  -2.78900 34.78000 30.16500
C  -2.50100 35.20800 31.55800
C  -1.64700 36.47100 31.36700
C  -1.36600 36.43500 29.89000
C  -2.44600 37.69400 31.73200
C  -1.64400 33.99300 32.25000
C  -2.25700 33.38300 33.54700
H  -1.48400 33.47400 34.92200
N  -0.53300 37.05400 26.89100
C  -0.11600 37.73700 27.99700
C  0.69200 38.88000 27.48400
C  0.78900 38.80900 26.05300
C  0.07800 37.56600 25.76300
C  1.35900 39.85600 28.36000
C  1.41500 39.79700 25.01900
O  1.30500 39.60300 23.82600
C  2.32900 40.80500 25.49800
N  -1.57500 35.02900 24.95600
C  -0.76600 35.78800 24.07500
C  -0.60200 35.13100 22.73100
C  -1.53900 33.83800 22.83100
C  -2.09000 34.03200 24.26100
C  -0.90300 35.99600 21.51900
C  -0.83600 32.43700 22.70800
C  0.44400 32.11900 23.51000
N  -2.96200 33.70900 27.13100
C  -3.45500 32.94800 26.10600
C  -4.12700 31.79000 26.67200
C  -4.08500 31.96500 28.07400
C  -3.41800 33.14300 28.30600
C  -4.66300 30.59200 25.81900
C  -4.48000 31.42600 29.38200
O  -5.12200 30.40600 29.65000
C  -4.06500 32.49700 30.47200
C  -5.17100 32.94300 31.32800
O  -5.79600 33.99000 31.29400
O  -5.28700 32.03700 32.33200
C  -6.04000 32.39100 33.54900
H  -0.03500 38.12400 30.03700
H  0.66000 37.33100 23.78700
H  -3.38300 32.44700 23.99100
H  -3.37800 35.18500 32.20600
H  -0.70000 36.42900 31.90500
H  -3.46600 37.42800 31.45500
H  -2.07900 38.51400 31.11500
H  -2.34400 37.94300 32.78800
H  -0.71200 34.48100 32.53700
H  -1.45800 33.16100 31.57100
H  -2.31600 32.31000 33.36400
H  -3.27000 33.72700 33.75700
H  2.41300 39.58300 28.40200
H  1.11600 39.72400 29.41400
H  1.07300 40.83500 27.97500
H  3.08500 40.37500 26.15600
H  1.78000 41.56400 26.05400
H  2.82700 41.24100 24.63100
H  0.44000 34.82600 22.63300
H  -2.28000 33.73400 22.03900
H  -1.45900 35.41400 20.78400
H  -0.06000 36.46300 21.00900
H  -1.55800 36.83000 21.76900
H  -0.54900 32.25900 21.67100
H  -1.64400 31.71000 22.79100
H  0.58000 31.11100 23.90300
H  0.63100 32.86500 24.28200
H  1.25900 32.36700 22.83000
H  -3.96400 30.33100 25.02500
H  -5.62400 30.78600 25.34200
H  -4.84500 29.76000 26.49900
H  -3.42500 31.89700 31.11800
H  -5.68000 33.29700 34.03800
H  -5.81200 31.59200 34.25400
H  -7.10000 32.27900 33.32400

