158

Mg 39.94600 8.84600 30.04800
C  41.32300 9.68000 33.05500
C  37.29000 7.18500 31.95100
C  38.41000 8.12200 27.17700
C  42.54800 10.13600 28.37300
N  39.41600 8.38100 32.29300
C  40.14300 8.92300 33.29600
C  39.36100 8.74500 34.61700
C  38.00200 8.08100 34.24100
C  38.26800 7.79900 32.76300
C  37.72100 6.72700 35.01800
C  39.05500 10.11500 35.34100
C  39.01700 10.04100 36.90000
H  39.59700 11.20300 37.76300
N  38.18700 7.69100 29.57400
C  37.25800 7.15100 30.50600
C  36.19700 6.61000 29.64300
C  36.50000 6.81600 28.31900
C  37.66200 7.66200 28.34300
C  35.04500 5.84800 30.15500
C  35.84000 6.30200 27.02000
O  36.18200 6.51200 25.81900
C  34.60400 5.38900 27.16800
N  40.43400 9.04100 28.08600
C  39.57600 8.82000 27.00700
C  40.23800 9.21900 25.64900
C  41.51900 9.90900 26.14100
C  41.56000 9.58700 27.56900
C  40.39000 8.01000 24.73500
C  41.61900 11.42500 25.83700
C  40.32200 12.26400 25.83000
N  41.63500 9.62700 30.50900
C  42.65900 10.14200 29.75400
C  43.72900 10.66800 30.58600
C  43.21800 10.58200 31.86300
C  41.93500 9.98600 31.78000
C  45.08100 11.12100 30.18300
C  43.47500 10.85800 33.31400
O  44.43400 11.41500 33.85800
C  42.27900 10.31800 34.08100
C  42.85800 9.39500 35.03000
O  43.74600 8.58800 34.79300
O  42.15700 9.40600 36.14200
C  42.58400 8.56100 37.23400
H  36.54100 6.59600 32.48500
H  37.90400 8.00000 26.21700
H  43.42500 10.46000 27.80900
H  39.90700 8.03100 35.23400
H  37.17300 8.77800 34.11500
H  37.95500 5.82800 34.44700
H  36.71200 6.81000 35.42100
H  38.43700 6.58600 35.82800
H  38.09500 10.60600 35.18000
H  39.82200 10.84100 35.06900
H  39.47100 9.13200 37.29800
H  37.94500 10.04400 37.09600
H  34.88700 6.14400 31.19200
H  35.33000 4.79800 30.20900
H  34.07200 6.11000 29.74000
H  34.63100 4.64800 27.96800
H  34.50000 4.86500 26.21800
H  33.69400 5.98200 27.25300
H  39.51200 9.93500 25.26400
H  42.39100 9.39400 25.73900
H  40.21300 7.10800 25.32100
H  41.42400 8.04200 24.39200
H  39.76100 8.04500 23.84500
H  42.08200 11.48100 24.85200
H  42.24400 12.02300 26.50000
H  40.58900 13.25700 26.19200
H  39.56400 11.93000 26.53800
H  39.98400 12.48100 24.81700
H  45.62800 10.42000 29.55100
H  45.58000 11.38300 31.11600
H  44.94200 12.13800 29.81900
H  41.81500 11.11500 34.66300
H  42.12100 7.61700 36.94800
H  42.11400 8.89800 38.15900
H  43.65500 8.65500 37.41500
Mg -10.00200 39.15000 42.09900
C  -8.69100 35.96800 41.01400
C  -7.00700 40.43500 40.70400
C  -11.29300 42.17400 42.38400
C  -13.04400 37.58700 42.75700
N  -8.06200 38.28300 40.91800
C  -7.75400 36.95600 40.71700
C  -6.42500 36.73100 39.99300
C  -5.87200 38.23900 40.00600
C  -7.02200 39.07200 40.57000
C  -4.49500 38.52500 40.64300
C  -6.52300 36.03800 38.60200
C  -5.45300 34.95000 38.27700
H  -4.50400 35.13900 37.01700
N  -9.26000 40.98900 41.69100
C  -7.99700 41.31500 41.19500
C  -7.89300 42.80200 41.14700
C  -9.14000 43.30300 41.60200
C  -9.95800 42.13400 41.98400
C  -6.73000 43.55900 40.55700
C  -9.52200 44.82900 41.71500
O  -8.62900 45.63600 41.39600
C  -10.86300 45.48300 42.16200
N  -11.89500 39.78800 42.61300
C  -12.16500 41.09800 42.75600
C  -13.61300 41.37100 43.13000
C  -14.18600 39.87000 43.29200
C  -13.01600 39.02700 42.78400
C  -13.88500 42.23500 44.33000
C  -15.48200 39.56400 42.53100
C  -16.76200 40.35000 43.04900
N  -10.76600 37.19600 42.00900
C  -12.07700 36.69100 42.28200
C  -12.02600 35.26400 42.15500
C  -10.70600 34.95400 41.69900
C  -10.00100 36.16400 41.56900
C  -13.23000 34.41900 42.47700
C  -9.82400 33.82600 41.35200
O  -10.05500 32.60900 41.31700
C  -8.51100 34.42400 40.88300
C  -7.41600 33.95400 41.73600
O  -7.46000 33.79400 42.97000
O  -6.43400 33.47800 40.91000
C  -5.22900 32.93700 41.54100
H  -6.04100 40.87300 40.44400
H  -11.90500 43.06300 42.55200
H  -13.96100 37.00200 42.85600
H  -5.83200 36.11100 40.66600
H  -5.86500 38.57300 38.96900
H  -4.54800 39.40800 41.28000
H  -3.75000 38.61800 39.85300
H  -4.14500 37.62700 41.15200
H  -6.39800 36.77400 37.80700
H  -7.47700 35.55100 38.40100
H  -6.05400 34.04300 38.21600
H  -4.85300 34.78300 39.17100
H  -7.05600 44.29400 39.82100
H  -5.86200 42.95800 40.28800
H  -6.26200 44.12400 41.36300
H  -11.66700 45.66100 41.44800
H  -10.57100 46.49100 42.45700
H  -11.23100 45.01700 43.07600
H  -14.17700 41.77600 42.29000
H  -14.36500 39.56900 44.32500
H  -12.96800 42.38700 44.89900
H  -14.70100 41.80900 44.91400
H  -14.11800 43.18200 43.84400
H  -15.87200 38.54700 42.53100
H  -15.41100 39.80100 41.46900
H  -17.65300 39.75400 42.84900
H  -16.94200 41.36800 42.70300
H  -16.75100 40.40700 44.13700
H  -13.81100 34.34300 41.55800
H  -13.94300 34.74800 43.23300
H  -12.96100 33.39100 42.72100
H  -8.23000 34.29800 39.83800
H  -4.45800 33.69700 41.67000
H  -4.61600 32.24300 40.96600
H  -5.52600 32.47900 42.48400

