158

Mg 41.58000 40.64000 27.04000
C  40.74500 43.05800 29.38800
C  42.40800 38.47700 29.63900
C  42.47600 38.43000 24.73000
C  41.13800 43.10200 24.56800
N  41.70900 40.76200 29.36500
C  41.06900 41.81400 30.00000
C  40.97700 41.44500 31.54000
C  41.55700 39.99700 31.58400
C  41.95800 39.71700 30.11100
C  42.66700 39.80700 32.61100
C  39.59900 41.58800 32.25500
C  39.54400 42.48100 33.51500
H  39.12000 41.80600 34.81200
N  42.35600 38.74000 27.16400
C  42.62000 38.01900 28.32000
C  43.09000 36.67100 27.99500
C  43.08700 36.60400 26.56400
C  42.64300 37.94500 26.09000
C  43.72700 35.70100 28.99400
C  43.33800 35.47200 25.65400
O  43.48900 35.53400 24.46500
C  43.49000 34.11800 26.29800
N  41.73900 40.73600 24.99400
C  42.00800 39.62900 24.16700
C  41.87800 39.99000 22.65300
C  41.16600 41.43300 22.72500
C  41.42200 41.81600 24.17800
C  43.25900 39.91000 21.84500
C  39.59600 41.41000 22.45000
C  38.77300 40.35300 23.25700
N  41.02500 42.59800 26.90600
C  40.87000 43.51900 25.88100
C  40.43500 44.77000 26.39400
C  40.39200 44.61100 27.72300
C  40.80400 43.32000 27.99900
C  40.26000 46.02900 25.48400
C  40.11000 45.33000 28.96100
O  39.77500 46.48800 29.21000
C  40.33700 44.34000 30.03200
C  41.42200 44.85700 30.92600
O  42.61100 44.55600 30.82200
O  40.88500 45.49000 32.00100
C  41.84200 45.93900 32.95400
H  42.52600 37.75600 30.45100
H  42.49800 37.76300 23.86500
H  41.01100 43.86900 23.80100
H  41.64900 42.19000 31.96600
H  40.75700 39.30200 31.84200
H  42.75600 38.77800 32.96000
H  42.62800 40.46400 33.48000
H  43.60900 40.04000 32.11500
H  39.20200 40.63700 32.61000
H  38.84100 41.90500 31.53800
H  38.85100 43.31500 33.40200
H  40.49200 42.99300 33.67700
H  44.68700 35.41100 28.56700
H  43.15500 34.80500 29.23500
H  44.06400 36.31100 29.83300
H  42.60400 34.07800 26.93200
H  44.44900 34.21600 26.80600
H  43.55200 33.27700 25.60600
H  41.12400 39.32900 22.22500
H  41.74800 42.18500 22.19100
H  43.98300 39.55700 22.58000
H  43.59200 40.92000 21.60800
H  43.16000 39.33700 20.92300
H  39.46700 41.21800 21.38500
H  39.09500 42.33400 22.73600
H  37.99100 39.98200 22.59500
H  38.33400 40.82800 24.13400
H  39.31500 39.46400 23.58100
H  41.13300 46.22400 24.86100
H  40.15200 46.80600 26.24000
H  39.44500 45.87400 24.77800
H  39.47600 44.32400 30.70000
H  42.59400 46.49100 32.39100
H  42.27900 45.06400 33.43600
H  41.23900 46.65300 33.51500
Mg 16.53900 51.39000 24.89700
C  18.05200 50.42000 27.88600
C  13.76600 52.37300 26.70800
C  14.99700 51.96100 21.98900
C  19.45500 50.40300 23.22500
N  16.03400 51.44100 27.02000
C  16.84900 51.04100 28.04600
C  16.19500 51.37800 29.42100
C  14.79000 51.92100 29.02800
C  14.86300 51.93200 27.50900
C  13.52300 51.13900 29.50900
C  17.16900 52.34800 30.27200
C  17.52500 51.87400 31.65400
H  16.39300 51.21700 32.51000
N  14.68100 52.19000 24.42500
C  13.61400 52.45700 25.31200
C  12.48900 52.88200 24.56300
C  12.83000 52.72200 23.15800
C  14.25400 52.31600 23.15500
C  11.20900 53.39500 25.19100
C  12.06100 53.02800 21.97000
O  12.45800 52.91500 20.78900
C  10.82200 53.79100 22.18200
N  17.10000 51.02700 22.90400
C  16.22800 51.41700 21.86500
C  16.90100 51.15800 20.51500
C  18.34700 50.80900 20.91300
C  18.36600 50.88000 22.45900
C  16.15300 49.98200 19.74100
C  19.47500 51.62500 20.22400
C  20.03200 50.98900 18.88600
N  18.33300 50.43800 25.35000
C  19.42700 50.11400 24.57300
C  20.49700 49.51000 25.42300
C  19.98500 49.66000 26.71700
C  18.71200 50.23200 26.64400
C  21.66900 48.77400 24.92700
C  20.35200 49.49700 28.11100
O  21.33500 49.05500 28.65600
C  19.09400 49.92000 28.93800
C  18.63000 48.71800 29.64800
O  17.92400 47.80500 29.13400
O  19.10200 48.83500 30.93600
C  18.87700 47.68200 31.76300
H  12.99800 52.83300 27.33400
H  14.51300 52.07400 21.01600
H  20.31400 50.06300 22.64200
H  16.19800 50.38000 29.85900
H  14.68600 52.94900 29.37300
H  12.95800 50.70100 28.68600
H  12.78700 51.74800 30.03300
H  13.82900 50.37300 30.22100
H  16.66300 53.30200 30.42300
H  18.13800 52.52400 29.80600
H  17.87700 52.76700 32.17100
H  18.35400 51.17400 31.55300
H  11.17300 53.10200 26.24000
H  10.27100 52.96800 24.83800
H  11.18500 54.47700 25.31200
H  9.94700 53.32600 22.63600
H  10.44500 54.03000 21.18700
H  11.12600 54.69900 22.70100
H  16.88300 52.03200 19.86500
H  18.55200 49.79500 20.57000
H  15.23300 49.59900 20.18200
H  16.80500 49.12900 19.55600
H  16.03600 50.41100 18.74600
H  20.14700 52.07900 20.95200
H  19.06100 52.56700 19.86400
H  19.63800 51.50200 18.00900
H  19.81200 49.92400 18.81200
H  21.11500 51.11000 18.86400
H  21.46900 47.78400 25.33900
H  22.53900 49.36600 25.21000
H  21.62000 48.65200 23.84500
H  19.42100 50.67200 29.65600
H  19.62800 47.69400 32.55300
H  18.89400 46.74500 31.20600
H  17.87600 47.79900 32.17900

