158

Mg 40.62600 9.65800 29.43600
C  42.40400 10.96500 32.22800
C  38.35100 8.34000 31.53100
C  39.26800 8.11200 26.82700
C  43.37800 10.50100 27.50200
N  40.55100 9.39600 31.66600
C  41.22000 10.20000 32.53500
C  40.68300 9.96100 33.93900
C  39.63100 8.78500 33.75000
C  39.38100 8.91800 32.22400
C  40.23200 7.40300 34.08000
C  40.01300 11.26000 34.60600
C  39.52700 11.02000 36.01900
H  40.01900 12.08800 36.95800
N  38.88100 8.57500 29.16400
C  38.07900 8.18500 30.17600
C  36.88500 7.49800 29.59600
C  37.07600 7.51100 28.16900
C  38.44900 8.02300 27.97600
C  35.74300 6.88100 30.40000
C  36.12900 7.10500 27.01000
O  36.54200 7.03600 25.83100
C  34.65400 6.74500 27.32300
N  41.31800 9.16900 27.55900
C  40.52000 8.62900 26.59300
C  41.25700 8.39200 25.23900
C  42.39400 9.47200 25.45800
C  42.36800 9.72000 26.92600
C  41.85100 6.94400 25.13400
C  42.22100 10.73000 24.62300
C  41.55800 11.94300 25.26400
N  42.49300 10.62300 29.72600
C  43.48100 10.97700 28.83100
C  44.56700 11.74400 29.45000
C  44.11300 11.80400 30.77900
C  42.84600 11.12800 30.89700
C  45.93200 12.16400 28.83800
C  44.54400 12.26400 32.09700
O  45.56000 12.86600 32.41800
C  43.37700 11.76600 33.09500
C  44.03900 10.91800 34.13100
O  44.57200 9.88200 33.95300
O  43.93800 11.52700 35.37600
C  44.30800 10.66900 36.50900
H  37.54400 8.04400 32.20400
H  38.73300 7.67900 25.97900
H  44.21200 10.89000 26.91400
H  41.42300 9.52800 34.61200
H  38.70800 8.97300 34.29900
H  40.12000 7.15700 35.13600
H  41.30800 7.56000 34.00500
H  39.95600 6.58700 33.41300
H  39.11900 11.51900 34.03900
H  40.72200 12.07800 34.47000
H  39.81000 10.00300 36.29300
H  38.44600 11.04100 35.88800
H  35.44100 5.88400 30.08000
H  34.84900 7.50100 30.47400
H  35.97700 6.71200 31.45100
H  34.05100 6.66400 26.42000
H  34.32400 7.60600 27.90400
H  34.52000 6.01800 28.12400
H  40.64200 8.59300 24.36200
H  43.36500 9.03700 25.22300
H  41.50000 6.43400 26.03100
H  42.93800 6.85900 25.15400
H  41.39100 6.50200 24.25100
H  41.69000 10.49600 23.70000
H  43.27300 10.93300 24.42200
H  40.89900 11.69500 26.09600
H  40.94500 12.28700 24.43100
H  42.28700 12.66200 25.63600
H  46.27100 12.90900 29.55700
H  45.95500 12.62700 27.85100
H  46.62300 11.33100 28.70700
H  42.90700 12.55600 33.68100
H  43.94200 9.64300 36.46600
H  43.91200 11.14800 37.40500
H  45.38600 10.58500 36.64800
Mg -5.62100 24.32500 26.24900
C  -4.20600 25.95400 28.91400
C  -7.58100 22.47700 28.23000
C  -6.73300 22.52900 23.49400
C  -3.48000 26.12400 24.16400
N  -5.73700 24.24100 28.34800
C  -5.08200 25.03400 29.31800
C  -5.61000 24.65500 30.73900
C  -6.42800 23.31900 30.43500
C  -6.61300 23.33900 28.91700
C  -5.62800 22.01900 30.88600
C  -6.46700 25.81300 31.41400
C  -6.38400 26.02700 33.01300
H  -5.67500 24.94800 33.80500
N  -6.98700 22.71200 25.89300
C  -7.74000 22.19700 26.85300
C  -8.72600 21.31500 26.22100
C  -8.58200 21.36700 24.82000
C  -7.40000 22.21700 24.69200
C  -9.75700 20.47700 27.01700
C  -9.32700 20.64500 23.63500
O  -9.05300 20.76100 22.49900
C  -10.50100 19.67000 23.90000
N  -5.07400 24.24400 24.18300
C  -5.68100 23.39700 23.27600
C  -4.92800 23.33800 21.98700
C  -4.12200 24.66600 22.11800
C  -4.24800 25.10500 23.55200
C  -4.08400 22.09300 21.90100
C  -4.47800 25.78100 21.08700
C  -3.37400 26.62300 20.38800
N  -4.10500 25.76800 26.37900
C  -3.29500 26.39400 25.49600
C  -2.42300 27.33000 26.19700
C  -2.79200 27.20900 27.50900
C  -3.80300 26.22200 27.56500
C  -1.38400 28.10100 25.54800
C  -2.50700 27.71000 28.81600
O  -1.78300 28.63300 29.22400
C  -3.41900 26.87900 29.76800
C  -2.53100 26.08700 30.70600
O  -2.11800 24.96800 30.51300
O  -2.52000 26.77400 31.88200
C  -1.70400 26.09200 32.94300
H  -8.12100 21.83300 28.92600
H  -6.98200 21.95100 22.60100
H  -2.84400 26.70200 23.49100
H  -4.76700 24.35000 31.35900
H  -7.43200 23.18200 30.83600
H  -5.19500 21.57300 29.99100
H  -6.17700 21.27800 31.46800
H  -4.74500 22.28100 31.46800
H  -7.51900 25.62100 31.20400
H  -6.17600 26.77400 30.98900
H  -7.39100 26.20200 33.39400
H  -5.84400 26.95100 33.21700
H  -9.55200 19.41100 26.92100
H  -10.71400 20.65500 26.52600
H  -9.77700 20.60100 28.10000
H  -11.06300 19.34200 23.02500
H  -11.20500 20.12300 24.59800
H  -10.15900 18.75600 24.38400
H  -5.58900 23.31500 21.12100
H  -3.08300 24.37100 21.97500
H  -3.17200 22.44000 21.41500
H  -4.46900 21.26500 21.30500
H  -3.74200 21.74700 22.87600
H  -5.15200 26.50400 21.54700
H  -4.97600 25.32400 20.23300
H  -3.69400 26.89200 19.38200
H  -2.42400 26.09800 20.29600
H  -3.27000 27.55600 20.94200
H  -1.54100 29.17900 25.51900
H  -1.24700 27.76900 24.51800
H  -0.45700 27.80600 26.04000
H  -4.04400 27.59600 30.30100
H  -0.75700 26.63000 32.97200
H  -1.55200 25.02400 32.79200
H  -2.19900 26.11100 33.91400

