158

Mg 36.00100 2.65800 30.65800
C  33.51200 3.56100 32.98200
C  38.29600 2.60800 33.33200
C  38.40300 2.04200 28.46800
C  33.63700 2.76300 28.07400
N  35.88600 3.17700 32.90700
C  34.77200 3.43700 33.67800
C  35.10600 3.46400 35.19400
C  36.65400 3.34600 35.23500
C  37.01700 3.00400 33.77500
C  37.38700 4.64300 35.63200
C  34.39400 2.26800 35.85400
C  34.33200 2.24800 37.38000
H  34.87100 3.39200 38.19300
N  38.09800 2.55600 30.86000
C  38.80900 2.47300 32.00100
C  40.24000 2.21400 31.70200
C  40.29100 1.95400 30.28100
C  38.91200 2.17300 29.81500
C  41.39300 2.13200 32.72700
C  41.44100 1.58800 29.42300
O  41.30900 1.36200 28.24300
C  42.85400 1.55500 30.02900
N  36.08000 2.53000 28.61200
C  37.21800 2.30400 27.93000
C  36.91900 2.04800 26.45300
C  35.40800 2.25900 26.28200
C  35.01200 2.51000 27.74900
C  37.80500 2.89600 25.48300
C  34.56800 1.13500 25.74300
C  33.52400 1.48000 24.67500
N  34.03600 3.17100 30.46400
C  33.20500 3.16800 29.33600
C  31.84400 3.52900 29.82600
C  31.91500 3.73000 31.21100
C  33.26300 3.44900 31.57600
C  30.50600 3.66000 28.99900
C  31.19500 4.01400 32.40600
O  29.99600 4.18500 32.54700
C  32.18200 3.88200 33.53900
C  32.18500 5.25000 34.11800
O  32.54400 6.24700 33.55000
O  31.80400 5.11900 35.44800
C  31.83100 6.35400 36.18900
H  39.04300 2.70100 34.12300
H  39.12500 1.78400 27.69100
H  32.98700 2.75800 27.19600
H  34.70700 4.33300 35.71900
H  36.91900 2.45600 35.80700
H  38.14700 4.39600 36.37400
H  36.80500 5.47500 36.02700
H  37.86700 5.06000 34.74600
H  34.92400 1.37100 35.53400
H  33.36800 2.18000 35.49700
H  34.82700 1.30300 37.60400
H  33.33300 2.03300 37.75800
H  41.80900 1.12700 32.80400
H  41.14400 2.55600 33.70000
H  42.14900 2.77400 32.27400
H  42.89500 0.84000 30.85100
H  43.32900 2.47700 30.36500
H  43.55600 1.21600 29.26800
H  37.11900 0.99300 26.27000
H  35.27200 3.14100 25.65600
H  38.28800 3.71500 26.01600
H  37.16700 3.30700 24.70000
H  38.56700 2.24400 25.05700
H  33.96200 0.69400 26.53400
H  35.26500 0.38000 25.37900
H  33.25400 2.51800 24.48500
H  32.62500 0.91300 24.92000
H  33.98600 1.08800 23.76900
H  30.67300 3.32000 27.97700
H  30.42800 4.74700 29.02800
H  29.67600 3.08700 29.41200
H  31.91000 3.16800 34.31600
H  31.11000 7.05300 35.76700
H  32.79900 6.85500 36.17900
H  31.56100 6.16900 37.22900
Mg 49.84000 44.91800 42.02500
C  46.56900 45.61400 41.26500
C  49.39200 41.74200 40.68700
C  53.21600 44.58000 42.02500
C  50.27300 48.34300 43.05600
N  48.20900 43.90400 41.00500
C  46.94000 44.38900 40.87400
C  46.16100 43.50900 39.91900
C  46.93400 42.15900 40.04400
C  48.32100 42.65700 40.49500
C  46.43000 41.12900 41.11500
C  46.14000 44.13700 38.44800
C  44.70200 44.24700 37.79200
H  44.32700 43.20400 36.73700
N  51.14300 43.33600 41.46600
C  50.74900 42.10900 41.08600
C  51.91100 41.25300 40.95500
C  53.05100 42.03300 41.31100
C  52.50200 43.38600 41.69600
C  51.90600 39.84700 40.40400
C  54.51800 41.58700 41.26200
O  54.79200 40.48900 40.79200
C  55.60700 42.44800 41.59800
N  51.48900 46.22800 42.59200
C  52.76200 45.87200 42.36200
C  53.78500 46.98400 42.83400
C  52.83300 48.08100 43.34300
C  51.41800 47.55300 42.96600
C  54.93400 46.47200 43.81800
C  53.28600 49.54400 42.88000
C  52.76000 50.77000 43.68800
N  48.70900 46.64300 42.19200
C  48.96400 47.93700 42.67300
C  47.75700 48.69200 42.72700
C  46.75700 47.84500 42.19100
C  47.36100 46.59700 41.89600
C  47.62400 50.12000 43.17900
C  45.28100 47.64800 41.88900
O  44.32000 48.34700 42.07800
C  45.17400 46.22200 41.09800
C  44.04100 45.46200 41.68600
O  44.10000 44.83300 42.74700
O  42.92200 45.58000 40.88200
C  41.72300 45.11700 41.63100
H  49.20100 40.70100 40.41800
H  54.30400 44.49700 41.96700
H  50.50100 49.27100 43.58500
H  45.15100 43.36300 40.30200
H  47.01500 41.66800 39.07400
H  46.05700 40.21100 40.66100
H  45.59400 41.51700 41.69700
H  47.21900 40.86000 41.81800
H  46.56400 43.36100 37.81100
H  46.70800 45.05600 38.30500
H  44.63000 45.20400 37.27500
H  43.95800 44.16100 38.58400
H  52.07400 39.78700 39.32800
H  50.90500 39.43000 40.51400
H  52.65600 39.29300 40.96800
H  55.52300 42.93700 42.56800
H  55.78700 43.17700 40.80800
H  56.55100 41.90400 41.60000
H  54.26500 47.39000 41.94400
H  52.77400 48.15100 44.43000
H  54.93700 46.99600 44.77400
H  55.94400 46.56200 43.41800
H  54.76600 45.41800 44.04100
H  53.00100 49.60200 41.82900
H  54.37100 49.59900 42.79100
H  53.49000 51.57900 43.68800
H  52.69600 50.53900 44.75200
H  51.77200 51.10300 43.37000
H  48.18500 50.29500 44.09700
H  46.58000 50.32200 43.42200
H  48.03100 50.87100 42.50300
H  44.96600 46.48800 40.06200
H  41.56300 45.66200 42.56100
H  41.73400 44.03100 41.71400
H  40.87600 45.45900 41.03600

