158

Mg 44.09600 4.01900 47.61700
C  41.64000 6.65900 47.12800
C  41.40700 1.80900 47.37300
C  46.27800 1.47200 47.41100
C  46.56500 6.32100 46.96000
N  41.75400 4.29000 47.29000
C  41.03800 5.46400 47.09600
C  39.55300 5.13100 46.89700
C  39.54000 3.56900 47.15200
C  41.02800 3.14700 47.28300
C  38.70300 3.11900 48.34900
C  39.09700 5.57400 45.49800
C  37.82100 6.44000 45.36200
H  37.88200 7.75200 44.43900
N  43.92300 1.87500 47.50800
C  42.72600 1.26800 47.41800
C  42.99600 -0.14600 47.45900
C  44.43400 -0.35600 47.54200
C  44.95500 0.99100 47.53500
C  41.97000 -1.28700 47.41900
C  45.13200 -1.71200 47.77200
O  44.48000 -2.74700 47.89400
C  46.62300 -1.75900 47.84300
N  46.07200 3.96100 47.23100
C  46.78600 2.79600 47.30900
C  48.32500 3.09300 47.24100
C  48.38700 4.63900 46.99300
C  46.90000 4.97500 46.98400
C  49.19600 2.54100 48.49700
C  49.18400 5.11600 45.78100
C  50.35500 4.31100 45.27600
N  44.17200 6.13500 47.25200
C  45.27500 6.86800 47.07300
C  44.87000 8.32700 47.01900
C  43.44300 8.25500 47.10900
C  43.04600 6.93600 47.12300
C  45.73700 9.55800 46.87600
C  42.23500 9.02700 47.07500
O  42.12700 10.24200 46.87000
C  41.01400 8.02200 47.02100
C  40.06500 8.27300 48.13900
O  39.98000 7.58800 49.18200
O  39.21600 9.23500 47.82500
C  38.09200 9.50500 48.73400
H  40.63600 1.06100 47.18100
H  47.07200 0.72600 47.34100
H  47.37900 7.04800 46.90900
H  38.80000 5.54200 47.57000
H  39.18700 3.05700 46.25700
H  37.68700 3.48400 48.19800
H  39.09400 3.56400 49.26400
H  38.57300 2.05400 48.53900
H  38.95700 4.63900 44.95700
H  39.87200 6.08900 44.93000
H  37.52700 6.79900 46.34900
H  37.01400 5.84400 44.93700
H  40.96900 -0.85600 47.45000
H  42.00000 -1.91900 48.30600
H  42.02000 -1.89000 46.51200
H  47.03500 -1.24800 46.97300
H  46.88400 -2.81800 47.82300
H  47.05700 -1.35200 48.75600
H  48.71400 2.56500 46.37000
H  48.71500 5.08900 47.93000
H  49.83900 1.73300 48.14900
H  48.65300 1.97200 49.25100
H  49.62900 3.44700 48.92200
H  49.44500 6.12700 46.09600
H  48.55400 5.14900 44.89200
H  51.24400 4.93600 45.35900
H  50.18000 4.00900 44.24300
H  50.43000 3.35800 45.80000
H  46.19500 9.95500 47.78200
H  45.13000 10.35700 46.45000
H  46.53200 9.37600 46.15300
H  40.41400 8.22600 46.13400
H  38.37600 9.34000 49.77400
H  37.31600 8.79200 48.45900
H  37.74700 10.53500 48.64900
Mg 4.47900 54.70400 40.76900
C  4.70700 51.18500 40.00300
C  7.32300 55.16600 39.31200
C  3.63200 57.97900 40.61900
C  1.11200 53.97700 41.83700
N  5.67100 53.32900 39.43700
C  5.70400 51.97400 39.44000
C  7.07100 51.46900 38.97300
C  8.03900 52.71900 39.11100
C  6.90300 53.85100 39.24800
C  8.87700 52.62300 40.39900
C  7.02800 50.90000 37.48800
C  6.14000 51.57300 36.43800
H  6.50800 51.25400 34.95900
N  5.38100 56.43700 40.05700
C  6.62400 56.39100 39.51300
C  7.11200 57.75700 39.51000
C  5.96300 58.55000 39.77000
C  4.84200 57.67900 40.10100
C  8.59800 58.14400 39.08800
C  5.86400 60.02500 39.59500
O  6.86400 60.64000 39.17900
C  4.74800 60.99000 39.98400
N  2.52400 55.78400 41.04400
C  2.59800 57.13200 41.11200
C  1.30500 57.72600 41.72700
C  0.49500 56.45700 42.02400
C  1.39300 55.32500 41.56100
C  1.56100 58.68200 42.99000
C  -0.88200 56.39300 41.37100
C  -2.08500 57.08600 41.96500
N  3.14200 52.91500 40.98200
C  1.80500 52.84800 41.47400
C  1.53300 51.46200 41.66300
C  2.64300 50.75900 41.06900
C  3.56000 51.71400 40.65700
C  0.31300 51.01700 42.32100
C  3.16800 49.46000 40.84000
O  2.74600 48.36200 41.18400
C  4.56000 49.69500 40.06400
C  4.54500 49.04400 38.67900
O  3.90000 49.34300 37.68900
O  5.26500 47.89600 38.64600
C  5.31000 46.96500 37.48300
H  8.38400 55.35400 39.13500
H  3.40700 59.03000 40.81200
H  0.15500 53.86100 42.34900
H  7.37600 50.66700 39.64500
H  8.52900 52.84400 38.14500
H  8.47300 53.29500 41.15700
H  9.92600 52.81400 40.17400
H  8.88000 51.59300 40.75500
H  6.79600 49.84000 37.59000
H  8.04300 50.98900 37.10200
H  6.08100 52.65800 36.52200
H  5.12300 51.20000 36.55200
H  9.26100 57.38600 39.50500
H  8.82300 59.15700 39.42100
H  8.82900 58.19100 38.02400
H  5.16400 61.99700 40.02800
H  4.46600 60.76300 41.01200
H  3.90500 61.05100 39.29500
H  0.84200 58.35300 40.96500
H  0.38000 56.36700 43.10500
H  2.53800 58.67000 43.47500
H  0.96400 58.28300 43.81000
H  1.30700 59.71900 42.77300
H  -1.21000 55.35800 41.46800
H  -0.79800 56.69100 40.32600
H  -1.76200 57.30900 42.98100
H  -3.00700 56.50400 41.97700
H  -2.28000 58.00500 41.41300
H  0.02400 51.64300 43.16500
H  0.44300 50.06200 42.83000
H  -0.56000 51.06500 41.67100
H  5.33000 49.13200 40.59000
H  5.32300 47.55100 36.56400
H  4.45700 46.29100 37.40100
H  6.28200 46.47700 37.55900

