158

Mg 53.58400 24.61800 44.41700
C  50.75700 26.68500 43.95000
C  51.60400 21.85800 43.95700
C  56.39400 22.83400 44.27900
C  55.51100 27.57900 44.86500
N  51.51100 24.32600 43.77200
C  50.52800 25.27700 43.56900
C  49.15000 24.70800 43.27600
C  49.39300 23.27300 43.67900
C  50.93900 23.13900 43.82400
C  48.50300 22.70200 44.91700
C  48.58600 24.91600 41.80800
C  49.71900 25.37300 40.86000
H  49.18100 25.71500 39.49600
N  53.94300 22.60600 44.07700
C  53.03100 21.66100 43.98100
C  53.69200 20.34500 43.96700
C  55.07700 20.61900 43.89000
C  55.20100 22.04900 44.10600
C  52.95400 19.01400 44.03000
C  56.21700 19.65600 43.60400
O  55.88400 18.45500 43.44300
C  57.67700 19.97500 43.61500
N  55.73500 25.17300 44.54000
C  56.67100 24.22800 44.40800
C  58.06500 24.80500 44.68400
C  57.69800 26.35200 44.54700
C  56.19300 26.37800 44.72100
C  58.41600 24.31100 46.13700
C  58.25500 26.96100 43.22200
C  59.56900 27.69700 43.31600
N  53.26300 26.73300 44.38800
C  54.10900 27.78500 44.76500
C  53.28700 29.02300 44.93900
C  51.98400 28.58300 44.59000
C  52.01000 27.23800 44.33700
C  53.90300 30.35700 45.33800
C  50.63300 29.03100 44.37300
O  50.16900 30.17700 44.49400
C  49.73600 27.86200 44.00100
C  49.00100 28.13100 42.73500
O  49.58700 28.49700 41.70800
O  47.62600 28.10900 42.88000
C  46.84800 28.33700 41.53400
H  50.98300 20.96000 43.92300
H  57.32200 22.25900 44.32100
H  55.95000 28.57000 45.00000
H  48.42900 25.19400 43.93200
H  49.04600 22.58900 42.90500
H  49.05900 22.11500 45.64800
H  47.75000 22.04100 44.48700
H  47.99700 23.49100 45.47400
H  47.67500 25.50700 41.71200
H  48.24600 23.92700 41.50000
H  50.50000 24.61300 40.83700
H  50.22100 26.23700 41.29500
H  52.50500 18.71200 43.08400
H  52.27000 19.02100 44.87800
H  53.70400 18.23600 44.17700
H  58.19500 19.03800 43.41400
H  57.82400 20.32200 44.63800
H  57.89400 20.75200 42.88100
H  58.72300 24.46700 43.88400
H  58.12100 26.98000 45.33100
H  58.57000 25.21400 46.72800
H  59.30300 23.67800 46.16200
H  57.64700 23.82400 46.73600
H  57.49500 27.56500 42.72800
H  58.45400 26.21500 42.45200
H  59.48500 28.68600 42.86400
H  60.26600 27.08300 42.74400
H  59.86300 27.77400 44.36300
H  53.17600 31.16700 45.28900
H  54.73600 30.68600 44.71700
H  54.40900 30.26400 46.29900
H  49.00200 27.68100 44.78600
H  46.51800 27.32500 41.30000
H  47.35200 28.84600 40.71200
H  45.86100 28.74600 41.74800
Mg 46.35400 34.87100 27.67100
C  44.92400 33.13000 30.33200
C  46.98300 37.53400 29.95300
C  47.85700 36.67100 25.17800
C  45.58000 32.34200 25.51300
N  46.10700 35.26500 29.87000
C  45.38900 34.43200 30.69600
C  45.46900 34.92600 32.09800
C  45.66300 36.49600 31.95000
C  46.28800 36.45600 30.49300
C  44.34200 37.33800 32.04800
C  46.67000 34.26700 32.85800
C  46.42800 33.99900 34.38200
H  45.42400 34.88300 35.13500
N  47.34600 36.77300 27.59700
C  47.44900 37.66000 28.63000
C  48.09200 38.85000 28.06800
C  48.46800 38.65100 26.74600
C  47.92100 37.28900 26.46400
C  48.50500 40.04600 28.86200
C  49.22600 39.54900 25.66600
O  49.35800 39.18100 24.48600
C  49.56200 40.96100 26.00800
N  46.62700 34.46400 25.61600
C  47.27500 35.35000 24.83400
C  47.35600 34.77800 23.38800
C  46.43400 33.47000 23.42200
C  46.16900 33.36200 24.91300
C  47.05600 35.85200 22.33500
C  47.01100 32.12200 22.78400
C  46.21400 31.42400 21.61600
N  45.52700 33.12500 27.85400
C  45.32900 32.16600 26.91800
C  44.82800 30.92700 27.53800
C  44.63300 31.32500 28.87700
C  45.09500 32.59100 29.05100
C  44.62800 29.62600 26.87600
C  44.19600 30.75900 30.16900
O  43.79600 29.68900 30.54200
C  44.14300 32.01800 31.05300
C  44.67800 31.71600 32.41000
O  45.72900 31.19000 32.69500
O  43.72400 32.00200 33.31400
C  43.88900 31.45100 34.67100
H  47.30400 38.27200 30.69100
H  48.29900 37.30900 24.41000
H  45.23500 31.51300 24.89200
H  44.54300 34.81500 32.66200
H  46.37000 37.04000 32.57600
H  43.58100 36.59100 32.27100
H  44.12800 37.85300 31.11100
H  44.39200 38.03300 32.88600
H  47.55400 34.90500 32.85000
H  47.01000 33.41900 32.26400
H  47.34500 34.32700 34.87100
H  46.37500 32.92900 34.58200
H  49.41400 39.66200 29.32600
H  47.84500 40.18500 29.71900
H  48.72100 40.94800 28.29000
H  50.30300 40.98400 26.80700
H  48.61600 41.43600 26.26700
H  50.05400 41.45700 25.17100
H  48.35600 34.41700 23.14600
H  45.47100 33.73800 22.98600
H  46.35800 35.49400 21.57900
H  47.94600 36.11700 21.76400
H  46.59100 36.78500 22.65200
H  47.25700 31.34600 23.50900
H  47.96400 32.37400 22.32000
H  46.84900 31.25900 20.74500
H  45.34400 31.94100 21.21200
H  45.91200 30.42800 21.93900
H  45.45300 29.35300 26.21800
H  43.74000 29.57600 26.24600
H  44.54600 28.79300 27.57400
H  43.08400 32.27300 31.08100
H  44.89800 31.18900 34.99000
H  43.31800 30.54200 34.86100
H  43.49900 32.20500 35.35500

