158

Mg -11.62200 37.46800 42.38300
C  -9.70800 34.74000 40.93800
C  -9.13800 39.50200 41.15100
C  -13.69800 39.98100 42.88500
C  -14.14700 35.11600 43.19000
N  -9.67400 37.17200 41.16600
C  -9.09400 35.99600 40.70900
C  -7.79300 36.21200 39.98000
C  -7.51700 37.68000 40.49100
C  -8.86200 38.19100 40.97400
C  -6.40200 37.75700 41.59300
C  -8.02600 36.03100 38.40800
C  -7.03900 35.18000 37.63600
H  -5.90200 35.82500 36.81800
N  -11.46100 39.56200 42.11700
C  -10.32500 40.23100 41.62000
C  -10.58100 41.60500 41.60900
C  -11.88500 41.84900 42.17800
C  -12.44200 40.44000 42.36900
C  -9.60800 42.69400 41.22100
C  -12.53000 43.12900 42.49100
O  -11.98900 44.15700 42.12500
C  -13.80900 43.27700 43.26800
N  -13.68400 37.52100 42.75200
C  -14.26600 38.68700 43.07700
C  -15.71700 38.47000 43.41000
C  -15.85600 36.93100 43.51600
C  -14.54000 36.48400 43.08200
C  -16.12300 39.18500 44.74900
C  -17.13100 36.42700 42.82200
C  -17.07900 36.35900 41.31400
N  -11.83100 35.37000 42.24800
C  -12.91000 34.62700 42.65600
C  -12.65900 33.24100 42.34000
C  -11.40300 33.26100 41.66100
C  -10.93800 34.52900 41.66200
C  -13.58500 32.01200 42.44400
C  -10.41600 32.39800 41.05100
O  -10.42100 31.18900 40.86500
C  -9.31500 33.36500 40.42700
C  -8.04800 32.77300 40.86400
O  -7.10800 32.61300 40.09800
O  -8.10000 32.32600 42.18800
C  -6.78800 32.39600 42.91300
H  -8.35300 40.18200 40.81300
H  -14.27200 40.83700 43.24600
H  -14.89300 34.32900 43.31500
H  -7.17100 35.43600 40.42500
H  -7.14500 38.25100 39.64100
H  -5.88800 36.80200 41.69800
H  -6.70300 38.22900 42.52800
H  -5.57100 38.32100 41.16900
H  -7.96000 36.96700 37.85300
H  -8.99900 35.56000 38.26700
H  -7.64800 34.49900 37.04100
H  -6.59300 34.47900 38.34100
H  -9.24600 43.23200 42.09700
H  -10.09600 43.36700 40.51700
H  -8.72600 42.28100 40.73000
H  -14.03600 44.29600 43.58400
H  -13.71900 42.61900 44.13200
H  -14.63200 42.92800 42.64500
H  -16.21700 38.77500 42.49000
H  -15.91800 36.53200 44.52800
H  -16.27800 40.25200 44.58600
H  -15.38000 39.23400 45.54400
H  -16.92800 38.61100 45.20800
H  -18.02200 36.95800 43.15800
H  -17.25000 35.38000 43.10300
H  -17.43000 35.36000 41.05400
H  -16.09500 36.50700 40.86900
H  -17.71900 37.14700 40.91700
H  -13.17400 31.08600 42.04100
H  -14.45000 32.32700 41.86100
H  -13.77400 31.58900 43.43100
H  -9.31600 33.29900 39.33900
H  -6.24800 31.46300 43.07500
H  -7.03100 32.65900 43.94200
H  -6.13400 33.14200 42.46100
Mg -12.57700 15.98500 41.40700
C  -9.41500 14.30400 41.10300
C  -11.11600 18.66000 39.80100
C  -15.59000 17.27100 41.18400
C  -13.98700 12.72400 41.64100
N  -10.48700 16.46400 40.59100
C  -9.39000 15.60700 40.51900
C  -8.14500 16.27400 39.89800
C  -8.75500 17.73700 39.56100
C  -10.21800 17.63100 40.04300
C  -7.94900 18.86200 40.29500
C  -7.64400 15.50000 38.60700
C  -6.14200 15.15000 38.62300
H  -5.42500 15.64900 37.37100
N  -13.25400 17.84000 40.84400
C  -12.53500 18.76900 40.20600
C  -13.43400 19.91100 40.00800
C  -14.67100 19.57600 40.58000
C  -14.52000 18.19800 40.90100
C  -12.92100 21.25200 39.51900
C  -15.89700 20.42800 40.86400
O  -15.88600 21.58300 40.52800
C  -17.11600 20.01000 41.70900
N  -14.56400 15.08700 41.21100
C  -15.66300 15.90400 41.28900
C  -16.95100 15.05700 41.35500
C  -16.38500 13.60500 41.38700
C  -14.85400 13.82900 41.45600
C  -17.88600 15.38300 42.58800
C  -17.01500 12.61800 40.34400
C  -18.21400 11.79300 40.82500
N  -11.89200 13.97000 41.56100
C  -12.57100 12.74800 41.64800
C  -11.62600 11.69400 41.92600
C  -10.38000 12.26400 41.73400
C  -10.60100 13.65400 41.51000
C  -12.07800 10.30100 42.17700
C  -8.95400 11.91600 41.52900
O  -8.34200 10.86800 41.49500
C  -8.32600 13.26600 41.21800
C  -7.25000 13.62600 42.15000
O  -7.46700 13.96200 43.33800
O  -5.98800 13.57500 41.51900
C  -4.79600 13.80100 42.34400
H  -10.81100 19.53400 39.22200
H  -16.58800 17.68800 41.03800
H  -14.32000 11.68600 41.70000
H  -7.32800 16.22800 40.61800
H  -8.56500 17.89700 38.50000
H  -6.95400 18.49100 40.54200
H  -8.48000 19.02400 41.23300
H  -7.97500 19.85700 39.85000
H  -7.67300 16.14700 37.73000
H  -8.26700 14.61000 38.52200
H  -5.94900 14.08700 38.76600
H  -5.65900 15.61800 39.48000
H  -12.23600 21.05500 38.69400
H  -12.53200 21.85800 40.33700
H  -13.73000 21.79600 39.03300
H  -17.55700 20.87600 42.20300
H  -16.58500 19.40400 42.44300
H  -17.87000 19.45200 41.15300
H  -17.52200 15.10000 40.42800
H  -16.58300 13.17400 42.36900
H  -18.51200 16.27300 42.53500
H  -17.18300 15.39000 43.42200
H  -18.50900 14.49800 42.71500
H  -16.22200 11.94600 40.01500
H  -17.46500 13.20400 39.54200
H  -19.06000 12.17300 40.25100
H  -18.43900 11.77800 41.89100
H  -17.98700 10.79000 40.46300
H  -12.53600 9.91600 41.26600
H  -12.96100 10.31900 42.81600
H  -11.26000 9.64300 42.46900
H  -7.83400 13.11500 40.25700
H  -5.10000 14.25200 43.28800
H  -4.21000 14.40700 41.65200
H  -4.15000 12.95500 42.57900

