158

Mg 16.89200 -2.19000 27.92300
C  15.72300 0.00000 30.44300
C  19.14900 -3.55600 30.11000
C  18.13800 -3.96100 25.42200
C  14.70300 -0.55000 25.67100
N  17.37200 -1.81300 30.02100
C  16.77000 -0.87500 30.89600
C  17.37800 -0.96100 32.28500
C  18.51000 -2.09600 32.18300
C  18.43800 -2.48000 30.64500
C  19.96000 -1.52500 32.55800
C  16.27100 -1.33600 33.27700
C  16.32000 -1.04800 34.76800
H  17.57300 -0.31400 35.29500
N  18.35000 -3.64000 27.77300
C  19.07500 -4.13500 28.84200
C  19.83900 -5.28600 28.36300
C  19.50200 -5.46400 26.97900
C  18.60900 -4.35000 26.68800
C  20.88900 -6.15900 29.08800
C  20.12800 -6.45200 25.91000
O  19.97500 -6.34700 24.69800
C  20.96900 -7.64100 26.34500
N  16.50000 -2.34900 25.81700
C  17.24400 -3.02400 24.99300
C  17.01500 -2.59400 23.51700
C  15.68800 -1.81400 23.70100
C  15.63200 -1.51800 25.14000
C  18.19300 -1.78300 22.99200
C  14.49200 -2.64600 23.12100
C  13.66700 -1.91400 21.99600
N  15.57100 -0.56700 27.98200
C  14.70900 -0.03600 27.02900
C  13.84100 0.94500 27.57400
C  14.29300 1.11500 28.85000
C  15.18200 0.06500 29.09800
C  12.75700 1.72100 26.95000
C  14.09400 1.82500 30.11700
O  13.27500 2.68900 30.44600
C  15.08200 1.13300 31.15600
C  16.06500 2.18100 31.78300
O  17.23500 2.30600 31.45200
O  15.44700 2.79000 32.83700
C  16.31400 3.75800 33.56600
H  19.79100 -4.01900 30.86200
H  18.57000 -4.52100 24.58900
H  13.92600 -0.16700 25.00600
H  17.71600 0.00500 32.66000
H  18.32200 -3.01400 32.73800
H  19.99600 -0.47700 32.85500
H  20.66900 -1.78100 31.77000
H  20.34800 -2.05100 33.43100
H  16.22900 -2.42500 33.25000
H  15.25000 -1.10300 32.97500
H  16.16700 -1.91400 35.41200
H  15.46100 -0.40900 34.97200
H  20.46500 -7.16000 29.16500
H  21.13400 -5.72800 30.05900
H  21.86600 -6.29600 28.62300
H  21.74400 -7.47300 27.09300
H  21.45100 -8.12900 25.49800
H  20.30500 -8.42400 26.71300
H  16.85700 -3.46500 22.88100
H  15.74900 -0.82700 23.24200
H  18.78400 -2.47800 22.39500
H  18.74800 -1.51100 23.88900
H  17.97000 -0.93900 22.33900
H  13.72500 -2.79500 23.88100
H  14.80600 -3.63000 22.77300
H  14.10700 -0.93800 21.79300
H  12.62600 -1.85300 22.31200
H  13.67300 -2.41200 21.02600
H  12.31200 1.25500 26.07200
H  13.21700 2.63600 26.57800
H  11.95300 1.84600 27.67600
H  14.38700 0.67600 31.86000
H  16.74300 4.36600 32.77000
H  17.04700 3.20000 34.14800
H  15.63200 4.32700 34.19700
Mg 46.34300 17.34300 28.70400
C  44.48700 16.76200 31.54700
C  48.57800 19.19400 30.59300
C  47.74500 18.59400 25.87800
C  43.81900 15.92100 26.85900
N  46.51100 17.86800 30.91000
C  45.65300 17.52800 31.84900
C  46.12300 17.95200 33.22700
C  47.36600 18.80600 32.93900
C  47.49600 18.64600 31.36900
C  47.28400 20.27000 33.38300
C  46.43600 16.62700 34.08900
C  46.71400 16.90900 35.54600
H  46.50600 18.35100 36.09400
N  48.05700 18.70200 28.30100
C  48.84300 19.33300 29.23100
C  49.88800 20.00700 28.54800
C  49.65100 19.83200 27.13400
C  48.44900 19.08900 27.01500
C  50.87500 20.79100 29.24800
C  50.37900 20.50500 25.93700
O  50.05000 20.28000 24.78400
C  51.65300 21.41600 26.27800
N  45.85800 17.35500 26.75000
C  46.56300 17.89800 25.73900
C  45.94500 17.67200 24.32500
C  45.09700 16.43400 24.74000
C  44.85400 16.57500 26.20800
C  45.38300 19.05800 23.64000
C  45.61700 15.00900 24.23100
C  46.28700 14.19600 25.32400
N  44.53300 16.49000 29.08500
C  43.63700 15.85800 28.23400
C  42.62400 15.22700 28.99300
C  42.88500 15.60000 30.35500
C  44.06300 16.31100 30.32700
C  41.53500 14.51100 28.43600
C  42.46700 15.51400 31.74700
O  41.51000 14.89800 32.18300
C  43.45200 16.35100 32.56300
C  42.76400 17.51000 33.16900
O  42.23000 18.40900 32.57900
O  42.70100 17.31800 34.54700
C  41.87700 18.27300 35.23600
H  49.21400 19.83200 31.21000
H  48.17500 18.86800 24.91200
H  43.11400 15.39800 26.20900
H  45.27300 18.57300 33.51100
H  48.27300 18.36100 33.34800
H  47.33500 20.96600 32.54600
H  48.19300 20.41100 33.96900
H  46.35900 20.56900 33.87600
H  47.29900 16.15400 33.62200
H  45.58500 15.94600 34.05700
H  47.74400 16.71200 35.84300
H  46.10000 16.21900 36.12300
H  51.87200 20.40000 29.04500
H  50.74400 20.78100 30.33000
H  50.76900 21.84400 28.98800
H  52.21600 20.84900 27.02100
H  51.33800 22.37400 26.69200
H  52.12000 21.58900 25.30800
H  46.80300 17.27000 23.78600
H  44.21700 16.64300 24.13200
H  44.32200 18.96300 23.40600
H  45.92800 19.24400 22.71500
H  45.51000 19.84900 24.37900
H  46.40200 15.20000 23.49900
H  44.82600 14.46800 23.71200
H  45.73300 13.26000 25.40400
H  46.40600 14.52200 26.35700
H  47.32700 14.07700 25.02200
H  40.81700 15.07100 27.83700
H  41.06000 13.90700 29.20900
H  42.01100 13.86100 27.70200
H  43.87200 15.65400 33.28800
H  40.85800 18.01000 34.95400
H  42.09700 19.27400 34.86300
H  42.15200 18.26500 36.29000

