158

Mg 44.32900 4.24800 47.16300
C  42.52000 7.37600 47.27200
C  41.48000 2.60200 46.87600
C  46.13300 1.58100 46.15500
C  47.20000 6.30100 46.84700
N  42.26400 4.95300 46.98500
C  41.73000 6.24200 47.25100
C  40.24200 6.13100 47.43800
C  39.91900 4.62100 47.29400
C  41.29500 4.00100 47.16400
C  39.08000 3.96900 48.41500
C  39.58100 6.95400 46.30100
C  40.20500 7.25600 44.89100
H  39.38900 6.99800 43.58500
N  43.83900 2.29100 46.67100
C  42.63000 1.82200 46.68900
C  42.64100 0.39500 46.31800
C  44.00200 0.08400 45.99700
C  44.72500 1.34800 46.26100
C  41.37900 -0.37600 46.15900
C  44.56400 -1.23000 45.41700
O  43.82000 -2.16700 45.12600
C  46.08500 -1.48100 45.16200
N  46.27600 3.99300 46.61800
C  46.84500 2.81100 46.31700
C  48.35400 2.81300 46.46900
C  48.72700 4.24500 46.83000
C  47.32300 4.90400 46.77500
C  49.04800 1.70400 47.45600
C  49.76000 4.93100 45.91100
C  51.07300 5.39700 46.56900
N  44.84500 6.45600 47.04400
C  46.03100 7.05000 46.98800
C  45.81300 8.44700 47.11100
C  44.42900 8.69900 47.29100
C  43.89600 7.40800 47.20400
C  46.92400 9.49900 47.19400
C  43.36300 9.63200 47.67000
O  43.28600 10.82500 47.89700
C  42.08300 8.78800 47.68500
C  41.61100 8.70400 49.13900
O  42.06100 7.96500 49.99400
O  40.51400 9.53500 49.25600
C  39.79400 9.41900 50.54100
H  40.56700 2.00200 46.87000
H  46.80300 0.77200 45.85600
H  48.09900 6.91800 46.91800
H  40.02900 6.53400 48.42900
H  39.28000 4.44300 46.42900
H  38.21500 4.62400 48.52200
H  39.73300 3.78900 49.26800
H  38.61300 3.03300 48.10900
H  39.28200 7.89600 46.76000
H  38.63400 6.46400 46.07400
H  41.10100 6.64400 44.79000
H  40.57700 8.27600 44.98600
H  41.27400 -1.19400 46.87200
H  41.60100 -0.93000 45.24600
H  40.45900 0.16100 45.93000
H  46.87000 -1.33700 45.90500
H  46.20600 -1.00300 44.19000
H  46.00900 -2.55200 44.97500
H  48.68300 2.72300 45.43300
H  49.02300 4.22800 47.87900
H  48.37700 0.93200 47.83400
H  49.46500 2.24600 48.30500
H  49.91900 1.24500 46.98700
H  49.38300 5.83600 45.43400
H  50.11900 4.21100 45.17500
H  51.90600 4.70100 46.47400
H  50.99600 5.72900 47.60400
H  51.43400 6.33600 46.15100
H  47.00100 9.66100 48.26900
H  46.60600 10.42100 46.70800
H  47.83100 9.12800 46.71600
H  41.25700 9.07100 47.03200
H  38.95300 10.10200 50.42300
H  40.24400 9.83900 51.44100
H  39.40800 8.43100 50.78900
Mg 27.16100 50.48200 26.07600
C  25.07900 51.51400 28.68600
C  29.50600 49.71700 28.40600
C  29.28300 49.98300 23.47200
C  24.69200 51.47300 23.82900
N  27.14900 50.42200 28.34500
C  26.27500 51.00400 29.17500
C  26.64700 50.76300 30.66200
C  28.24300 50.39900 30.48600
C  28.33600 50.19500 29.01100
C  29.09700 51.59900 30.99800
C  25.80300 49.64800 31.34800
C  25.22600 50.05800 32.71600
H  25.47800 49.17900 33.95300
N  29.07600 49.86600 25.93900
C  29.89000 49.60300 27.04300
C  31.20900 49.15800 26.57400
C  31.22000 49.23100 25.14500
C  29.80900 49.73700 24.81000
C  32.38100 48.83300 27.50200
C  32.27700 48.81700 24.14800
O  32.14000 49.00200 22.92600
C  33.61500 48.25800 24.55100
N  27.06600 50.77900 23.88500
C  28.01800 50.40600 23.06100
C  27.50200 50.19600 21.60900
C  25.99500 50.55800 21.81100
C  25.92800 51.00100 23.23800
C  28.22600 50.99200 20.51400
C  24.88800 49.60300 21.27200
C  23.99800 50.15200 20.13200
N  25.37400 51.41400 26.16900
C  24.39300 51.72700 25.20400
C  23.20900 52.32700 25.76000
C  23.40300 52.19800 27.09800
C  24.72500 51.62300 27.30900
C  22.00300 52.87700 25.05000
C  22.78600 52.48700 28.43100
O  21.69300 52.86100 28.85000
C  23.86100 52.02600 29.48700
C  24.26800 53.21200 30.37600
O  25.15900 53.95300 30.11500
O  23.69200 53.13800 31.60900
C  23.88000 54.29600 32.54500
H  30.36600 49.49200 29.04000
H  29.98200 49.72800 22.67400
H  23.86600 51.62800 23.13100
H  26.34600 51.62400 31.26000
H  28.43000 49.50400 31.07900
H  29.92400 51.76000 30.30700
H  29.40900 51.35900 32.01500
H  28.45000 52.46900 30.88700
H  26.44000 48.78000 31.51700
H  24.97100 49.30700 30.73200
H  24.14700 50.02900 32.56300
H  25.45300 51.07800 33.02500
H  33.13100 48.11900 27.16000
H  31.99000 48.63800 28.50000
H  32.94100 49.76700 27.54000
H  34.23300 48.80700 25.26100
H  34.14400 48.06500 23.61800
H  33.51300 47.27900 25.02100
H  27.56700 49.12000 21.44500
H  25.84000 51.49400 21.27500
H  29.06800 51.57400 20.89000
H  27.51700 51.49300 19.85400
H  28.62200 50.17200 19.91500
H  24.14700 49.45400 22.05700
H  25.36700 48.69700 20.89900
H  24.26800 51.10900 19.68600
H  22.93100 50.25000 20.32900
H  24.06800 49.51500 19.25000
H  22.34500 52.98600 24.02100
H  21.85000 53.87800 25.45200
H  21.12400 52.24300 24.94000
H  23.59900 51.24600 30.20100
H  24.12700 55.22600 32.03200
H  24.63600 54.15200 33.31700
H  22.95900 54.50900 33.08700

