158

Mg 2.05700 -1.50700 44.27000
C  5.47300 -0.93200 43.23800
C  1.08700 0.90600 42.13200
C  -1.13800 -2.68400 44.51500
C  3.07800 -4.03700 46.30900
N  3.17400 -0.28400 42.76900
C  4.51800 -0.14800 42.55300
C  4.84200 0.95700 41.51600
C  3.41200 1.60600 41.36900
C  2.47900 0.73200 42.24500
C  3.39200 3.12700 41.74000
C  5.41500 0.43600 40.16400
C  6.57100 1.13000 39.39800
H  6.29700 1.57700 37.89300
N  0.19500 -0.94900 43.46400
C  0.00100 0.13600 42.67600
C  -1.40900 0.29500 42.45400
C  -2.08000 -0.77700 43.10000
C  -1.03800 -1.48300 43.76200
C  -1.97400 1.49500 41.60800
C  -3.62600 -1.09500 43.09300
O  -4.35800 -0.31000 42.50200
C  -4.23700 -2.28900 43.70500
N  1.09500 -3.28700 45.12200
C  -0.21400 -3.52500 45.16200
C  -0.58600 -4.72600 46.10200
C  0.85600 -5.05200 46.67100
C  1.75300 -4.06800 46.00300
C  -1.66300 -4.37200 47.21400
C  1.25100 -6.52000 46.38800
C  2.18100 -7.16700 47.34000
N  3.91400 -2.25900 44.89600
C  4.13900 -3.27100 45.71200
C  5.55500 -3.47400 45.84900
C  6.08700 -2.57900 44.86900
C  5.04300 -1.87400 44.28900
C  6.29700 -4.50800 46.78000
C  7.35900 -2.01200 44.31700
O  8.52400 -2.21000 44.64100
C  6.90700 -0.99500 43.19600
C  7.59100 0.32900 43.44300
O  8.61700 0.53700 42.77100
O  7.21700 1.12500 44.52200
C  8.31600 1.87200 45.15600
H  0.86100 1.80400 41.55200
H  -2.06500 -3.23800 44.67000
H  3.27200 -4.83400 47.03000
H  5.44200 1.69300 42.05200
H  3.13900 1.56600 40.31500
H  2.57400 3.36700 42.41900
H  3.23100 3.80500 40.90200
H  4.19300 3.50700 42.37500
H  4.61100 0.33500 39.43400
H  5.74500 -0.57200 40.41400
H  7.44900 0.50200 39.24900
H  7.00000 1.90300 40.03500
H  -2.87800 1.25100 41.05100
H  -1.20400 1.74900 40.87900
H  -2.27200 2.27700 42.30700
H  -3.90200 -2.42400 44.73400
H  -4.05800 -3.07100 42.96700
H  -5.32700 -2.31400 43.71600
H  -1.02900 -5.47200 45.44200
H  0.85700 -4.98100 47.75900
H  -2.37600 -5.18500 47.34900
H  -2.24600 -3.52200 46.85800
H  -1.29000 -4.24800 48.23000
H  1.65900 -6.55400 45.37700
H  0.29600 -7.04500 46.41800
H  1.73500 -8.13500 47.56800
H  2.39700 -6.64200 48.27000
H  3.05400 -7.33800 46.71000
H  7.16100 -3.98400 47.18600
H  6.57800 -5.39500 46.21200
H  5.56200 -4.77700 47.53800
H  7.19900 -1.46000 42.25500
H  8.69200 2.61800 44.45600
H  9.14900 1.18100 45.29200
H  8.06100 2.34200 46.10600
Mg 7.53600 3.07400 27.95700
C  8.93000 1.83600 30.82300
C  5.92700 5.38000 29.76900
C  5.87500 4.04500 25.03500
C  9.30800 0.71100 26.08300
N  7.36000 3.52000 30.02700
C  8.03400 2.86900 31.07400
C  7.73400 3.56200 32.38300
C  6.75200 4.70900 32.00600
C  6.65200 4.50800 30.54400
C  5.32400 4.69400 32.70900
C  9.00100 4.06700 33.16800
C  9.17600 3.71900 34.75300
H  9.56200 4.80100 35.73900
N  6.06900 4.44700 27.50700
C  5.64200 5.39600 28.39300
C  4.74000 6.30000 27.68000
C  4.61500 5.93700 26.36500
C  5.53100 4.77900 26.24300
C  4.04100 7.36400 28.43000
C  3.81500 6.56600 25.22500
O  3.66800 6.04700 24.16000
C  3.05700 7.74300 25.53700
N  7.49600 2.32100 25.86400
C  6.73500 2.94800 24.87700
C  6.96100 2.21500 23.54600
C  8.26500 1.43700 23.85400
C  8.32600 1.42500 25.38700
C  5.83400 1.21500 23.14200
C  9.54900 2.05300 23.23400
C  10.30300 1.08000 22.33900
N  8.89700 1.54700 28.31200
C  9.57400 0.71700 27.50200
C  10.49200 -0.13600 28.25900
C  10.31700 0.38400 29.59500
C  9.32100 1.35300 29.54700
C  11.46400 -1.21400 27.80700
C  10.70000 0.15100 30.99500
O  11.43800 -0.60400 31.56800
C  9.80900 1.16200 31.83600
C  9.04200 0.33100 32.76000
O  8.11500 -0.34300 32.45300
O  9.69900 0.21100 33.98700
C  9.07000 -0.54900 35.03100
H  5.64100 6.15000 30.49000
H  5.57600 4.36100 24.03400
H  10.06900 0.22000 25.47200
H  7.09900 2.87800 32.94600
H  7.21200 5.69700 32.00100
H  4.71900 4.00600 32.11900
H  4.93000 5.70900 32.66300
H  5.27700 4.35600 33.74500
H  8.85200 5.14400 33.24200
H  9.98000 4.04800 32.68900
H  10.03300 3.04700 34.81000
H  8.37200 3.08700 35.12900
H  4.51900 8.32400 28.23700
H  4.04200 7.01700 29.46300
H  2.99300 7.45300 28.14300
H  2.35900 7.45100 26.32100
H  2.47500 8.01300 24.65600
H  3.73100 8.54900 25.82700
H  6.99400 2.94000 22.73300
H  8.16700 0.42700 23.45900
H  5.00000 1.23200 23.84400
H  6.11300 0.16100 23.14000
H  5.30700 1.43900 22.21400
H  10.24000 2.37400 24.01500
H  9.25200 2.94800 22.68800
H  10.74900 1.52300 21.44900
H  9.61000 0.30000 22.02500
H  11.18700 0.66300 22.82300
H  11.58200 -1.15900 26.72400
H  11.06700 -2.19000 28.08400
H  12.38400 -1.00700 28.35300
H  10.45300 1.83500 32.40300
H  9.95100 -1.01400 35.47400
H  8.32800 -1.30600 34.77500
H  8.58100 0.06800 35.78400

