158

Mg 54.88800 25.59900 44.67800
C  52.05500 27.49800 43.93600
C  53.01700 22.74000 43.80600
C  57.64100 23.73200 44.97300
C  56.74500 28.53500 45.01500
N  52.74400 25.23800 43.90400
C  51.73000 26.16100 43.71600
C  50.43600 25.47600 43.16300
C  50.73600 23.95600 43.49900
C  52.28400 23.93800 43.80000
C  49.95500 23.42100 44.78700
C  50.31700 25.62800 41.62500
C  48.92900 25.42100 40.99300
H  48.82500 24.61100 39.70600
N  55.26900 23.49300 44.46300
C  54.37900 22.55800 44.05700
C  55.01300 21.26900 43.99200
C  56.44500 21.46100 44.35400
C  56.48800 22.92900 44.66100
C  54.27300 19.96500 43.75000
C  57.51800 20.40800 44.26800
O  57.19800 19.27600 43.92700
C  58.90500 20.66300 44.70200
N  56.94500 26.05800 44.90400
C  57.92200 25.11500 45.15700
C  59.30700 25.77700 45.40500
C  58.93400 27.28700 45.53000
C  57.43000 27.33000 45.13800
C  60.17600 25.12700 46.51400
C  59.77900 28.22200 44.68900
C  60.21500 29.53500 45.27300
N  54.55100 27.55500 44.56700
C  55.36100 28.60400 44.81700
C  54.46200 29.78200 44.92200
C  53.20800 29.44500 44.44700
C  53.30100 28.03800 44.32500
C  54.87900 31.10700 45.34300
C  51.84400 29.96200 44.22800
O  51.29200 31.03900 44.47100
C  51.05300 28.70200 43.78900
C  50.71700 29.01500 42.36000
O  51.47200 29.25800 41.47200
O  49.30800 29.08500 42.24600
C  48.85700 29.53200 40.94000
H  52.42300 21.87000 43.51600
H  58.52600 23.09500 45.02700
H  57.12500 29.51900 45.29600
H  49.52500 25.84400 43.63400
H  50.42000 23.42500 42.60100
H  49.22900 24.14100 45.16400
H  50.65000 23.19700 45.59600
H  49.42600 22.54200 44.41800
H  51.02800 24.89700 41.24200
H  50.68500 26.58900 41.26600
H  48.68000 26.45000 40.73400
H  48.17700 25.11100 41.71800
H  54.31600 19.78800 42.67500
H  53.23400 19.88600 44.06900
H  54.87100 19.20500 44.25400
H  59.54300 21.26000 44.05000
H  59.38800 19.72100 44.95900
H  58.76900 21.19300 45.64500
H  59.81600 25.64600 44.45000
H  59.11700 27.64200 46.54400
H  60.98900 24.50600 46.13700
H  59.56700 24.68400 47.30200
H  60.57600 25.95000 47.10600
H  59.33100 28.48500 43.73000
H  60.66900 27.72000 44.31100
H  61.29900 29.53700 45.15500
H  59.97600 29.78000 46.30700
H  59.77900 30.31600 44.65000
H  54.28900 31.86200 44.82400
H  55.94100 31.33600 45.24700
H  54.64400 31.24700 46.39800
H  50.16200 28.62400 44.41200
H  49.57900 30.15000 40.40600
H  47.87200 29.98300 41.06400
H  48.75500 28.64300 40.31900
Mg 47.57300 24.96100 27.94200
C  48.64500 27.50600 30.11100
C  46.42800 23.11800 30.60300
C  46.82400 22.44900 25.89900
C  49.50200 26.51700 25.47100
N  47.38100 25.37700 30.15000
C  47.98700 26.43200 30.82100
C  47.78000 26.25000 32.30100
C  47.08500 24.81100 32.46100
C  46.96900 24.37000 31.00900
C  47.86100 23.83000 33.29300
C  46.92400 27.35500 32.93900
C  47.32300 27.92800 34.32600
H  46.22100 27.85800 35.37600
N  46.67500 23.08900 28.18800
C  46.34400 22.46400 29.38600
C  45.81600 21.11000 29.10500
C  45.84200 20.94600 27.70100
C  46.44000 22.18700 27.19000
C  45.51500 20.13100 30.22100
C  45.40100 19.74500 26.94700
O  45.66100 19.69400 25.72900
C  44.65100 18.65200 27.62800
N  48.09500 24.51400 25.93900
C  47.49800 23.50900 25.24800
C  47.90800 23.44200 23.78400
C  48.64800 24.81400 23.63300
C  48.78300 25.33400 25.09200
C  48.72400 22.19900 23.47000
C  47.88900 25.96000 22.89700
C  48.90900 26.89500 22.16600
N  48.80900 26.71900 27.69600
C  49.45900 27.26700 26.65200
C  50.15300 28.49300 26.95300
C  49.77200 28.67400 28.33700
C  49.01900 27.56700 28.75800
C  50.98900 29.42000 26.20200
C  49.90100 29.52300 29.52700
O  50.48600 30.60800 29.62500
C  49.20400 28.75000 30.70900
C  50.22400 28.57000 31.77600
O  51.26400 27.93300 31.68900
O  49.72900 29.21200 32.84400
C  50.61400 29.09700 34.03500
H  46.03400 22.56100 31.45500
H  46.58600 21.71800 25.12300
H  50.00200 27.01500 24.63900
H  48.79600 26.23500 32.69500
H  46.12300 24.90300 32.96700
H  48.50600 24.36300 33.99200
H  48.45900 23.11700 32.72600
H  47.05800 23.33600 33.84000
H  45.86100 27.11600 32.94500
H  46.93000 28.26800 32.34500
H  47.60300 28.96700 34.14800
H  48.17200 27.38700 34.74400
H  44.53700 19.71400 29.98000
H  45.64000 20.48800 31.24400
H  46.22100 19.30400 30.28600
H  44.09700 18.06500 26.89600
H  43.85000 19.09700 28.21800
H  45.36100 18.11100 28.25400
H  47.10500 23.45400 23.04700
H  49.63800 24.78400 23.18000
H  49.70100 22.37000 23.01900
H  48.21700 21.48800 22.81800
H  49.02200 21.72100 24.40300
H  47.31900 26.57700 23.59200
H  47.32800 25.51600 22.07400
H  49.92400 26.67700 22.49800
H  48.69400 27.94300 22.37500
H  48.81600 26.77200 21.08700
H  51.88200 28.88100 25.88900
H  51.39600 30.27400 26.74300
H  50.40300 29.71900 25.33300
H  48.42600 29.44100 31.03200
H  50.36600 30.01700 34.56400
H  51.69700 29.18600 33.95700
H  50.46200 28.23100 34.68000

