158

Mg 8.18000 3.63900 27.31600
C  9.43600 1.98900 30.20600
C  6.50100 5.79700 29.48600
C  6.74400 4.84700 24.59200
C  9.67900 1.06400 25.31600
N  7.94000 3.76300 29.58800
C  8.62900 3.09900 30.51800
C  8.43100 3.73600 31.89900
C  7.41600 4.90200 31.62600
C  7.27800 4.79400 30.10500
C  5.99500 4.72200 32.24500
C  9.81500 4.25500 32.56200
C  10.11700 3.71100 33.93300
H  10.54200 4.67000 35.08400
N  6.91100 5.15000 27.05200
C  6.38200 5.95400 28.04000
C  5.48900 6.89000 27.42800
C  5.52600 6.58500 26.01800
C  6.38400 5.48400 25.79300
C  4.63900 7.75800 28.26500
C  4.75100 7.29900 24.89900
O  4.83100 7.03300 23.71100
C  3.82100 8.45100 25.23200
N  8.15000 3.08700 25.23500
C  7.46600 3.72900 24.29800
C  7.71100 3.19500 22.87800
C  8.65000 1.97400 23.16700
C  8.88600 2.04400 24.65200
C  6.45200 2.83800 22.04800
C  9.91300 1.95200 22.18000
C  9.64900 1.39800 20.77800
N  9.33000 1.90400 27.64300
C  9.83400 0.97700 26.78200
C  10.61000 -0.04800 27.53700
C  10.52800 0.33300 28.84300
C  9.79900 1.57100 28.89700
C  11.09900 -1.32300 27.05700
C  10.93600 -0.02100 30.16000
O  11.49900 -0.97100 30.62100
C  10.34200 1.08600 31.09600
C  9.55600 0.41400 32.14300
O  8.40700 -0.01600 31.99900
O  10.09100 0.52900 33.35900
C  9.41100 0.06200 34.57600
H  5.88200 6.43800 30.11700
H  6.14900 5.07200 23.70400
H  10.00000 0.25500 24.65600
H  7.99900 3.01400 32.59200
H  7.77700 5.90800 31.83800
H  5.23000 4.34400 31.56600
H  5.69900 5.74200 32.48900
H  6.00600 4.04300 33.09800
H  9.90400 5.34000 32.51600
H  10.56500 3.92500 31.84300
H  10.94300 3.01000 33.81300
H  9.34900 3.08000 34.38100
H  5.07700 7.96700 29.24200
H  3.63700 7.33600 28.34200
H  4.45600 8.69800 27.74500
H  3.04400 8.20700 25.95700
H  3.29400 8.72700 24.31900
H  4.38300 9.32100 25.57100
H  8.37300 3.96500 22.48000
H  8.05000 1.08900 22.95900
H  5.51900 2.96800 22.59600
H  6.44900 1.79500 21.72900
H  6.35000 3.53100 21.21400
H  10.68200 1.37100 22.68800
H  10.16100 3.00000 22.00900
H  10.32700 0.57400 20.55500
H  9.76900 2.18400 20.03200
H  8.64300 0.99400 20.67100
H  11.04400 -1.61100 26.00700
H  10.79400 -2.20800 27.61500
H  12.18100 -1.38700 27.17200
H  11.19800 1.56600 31.57000
H  8.99800 0.89900 35.14000
H  10.07800 -0.49500 35.23500
H  8.61200 -0.66700 34.43900
Mg -1.38400 34.28100 28.10300
C  -3.16000 32.55700 30.47100
C  -0.26600 36.44300 30.63300
C  0.32200 36.00000 25.64200
C  -2.79600 32.22400 25.57200
N  -1.73700 34.38600 30.28100
C  -2.46400 33.56700 31.03700
C  -2.32400 33.89700 32.56700
C  -1.59700 35.26300 32.55900
C  -1.11700 35.35100 31.07800
C  -2.62700 36.43100 32.90900
C  -1.53000 32.83200 33.42400
C  -2.36300 32.22100 34.57800
H  -1.51600 32.07500 35.84500
N  -0.10700 36.02400 28.12500
C  0.11900 36.83000 29.26500
C  0.98000 37.85500 28.82700
C  1.29900 37.69000 27.47400
C  0.51900 36.55100 26.98800
C  1.33300 38.87000 29.88100
C  2.25800 38.53300 26.56900
O  2.33400 38.31200 25.36400
C  3.03800 39.64700 27.17400
N  -1.22100 34.19800 25.90800
C  -0.38400 34.89600 25.18300
C  -0.44800 34.42300 23.71600
C  -1.18000 33.06000 23.80000
C  -1.79500 33.12700 25.19300
C  -1.14100 35.42300 22.78500
C  -0.39000 31.69400 23.64200
C  0.73000 31.43900 24.68100
N  -2.73100 32.74900 27.98400
C  -3.28000 32.07000 26.94000
C  -4.21400 31.07800 27.39100
C  -4.07800 31.10600 28.79000
C  -3.26000 32.20900 29.09400
C  -5.03900 30.19800 26.57000
C  -4.49500 30.47900 30.06900
O  -5.23600 29.56000 30.39600
C  -3.95900 31.40200 31.15900
C  -5.17800 31.89100 31.95700
O  -6.14800 32.48300 31.41400
O  -5.07700 31.52400 33.24200
C  -6.20000 31.82900 34.17000
H  0.06200 36.98300 31.52300
H  0.98800 36.45000 24.90300
H  -3.20300 31.55000 24.81500
H  -3.37000 33.94900 32.86900
H  -0.76300 35.36000 33.25400
H  -3.01000 36.89200 31.99900
H  -2.02300 37.15400 33.45800
H  -3.42000 36.01000 33.52700
H  -0.59600 33.28100 33.76100
H  -1.25000 32.03000 32.74200
H  -2.76500 31.23900 34.32800
H  -3.14900 32.94500 34.79300
H  0.74600 39.77400 29.71900
H  2.38700 39.07400 29.69000
H  1.19500 38.59400 30.92600
H  3.53300 40.40000 26.56000
H  3.80300 39.19100 27.80200
H  2.30200 40.19600 27.76200
H  0.59200 34.25400 23.43700
H  -2.03200 32.96500 23.12700
H  -0.60700 35.51800 21.84000
H  -1.26200 36.42700 23.19100
H  -2.14500 35.14800 22.46100
H  0.05200 31.74800 22.64700
H  -0.97600 30.77500 23.65300
H  0.89500 30.45400 25.11800
H  0.74300 32.15100 25.50700
H  1.67000 31.62000 24.16000
H  -5.72000 30.76800 25.93800
H  -5.63700 29.68500 27.32400
H  -4.38100 29.52100 26.02600
H  -3.30500 30.88700 31.86300
H  -6.57300 30.91200 34.62700
H  -7.00300 32.37900 33.68100
H  -5.85500 32.49400 34.96200

