158

Mg 17.92600 -0.22300 28.13900
C  16.51800 2.00800 30.50700
C  19.49100 -1.82500 30.88900
C  19.58200 -1.95400 25.88500
C  16.49000 1.70400 25.64500
N  17.96300 0.10300 30.48700
C  17.23600 1.04700 31.18100
C  17.42900 0.79300 32.68200
C  18.66600 -0.18500 32.74100
C  18.74800 -0.69400 31.27900
C  20.02700 0.52000 33.24500
C  16.04100 0.24200 33.33300
C  15.85700 0.65200 34.81500
H  17.11300 0.98800 35.55400
N  19.33100 -1.77800 28.36100
C  19.72300 -2.33600 29.55900
C  20.59800 -3.50200 29.17200
C  20.72300 -3.56400 27.72800
C  19.86300 -2.38300 27.24100
C  21.32400 -4.32900 30.22100
C  21.51700 -4.49800 26.77900
O  21.41800 -4.49400 25.57600
C  22.31200 -5.59200 27.42600
N  17.85900 -0.26100 26.02900
C  18.74900 -0.99400 25.30000
C  18.83100 -0.45100 23.85000
C  17.80100 0.67600 23.80600
C  17.27300 0.68200 25.23400
C  20.23800 -0.03500 23.25800
C  16.72700 0.34900 22.67700
C  17.06400 0.37500 21.25100
N  16.68200 1.44200 28.07800
C  16.18800 2.07600 26.97600
C  15.27700 3.16700 27.42900
C  15.43000 3.18600 28.81500
C  16.31300 2.14900 29.14900
C  14.50700 4.16600 26.57900
C  15.05800 3.92900 29.99500
O  14.41000 4.99400 30.06100
C  15.73500 3.13900 31.23300
C  16.69900 4.15700 31.74500
O  17.79500 4.31400 31.24700
O  16.30600 4.54300 33.04000
C  17.41900 5.28700 33.70400
H  19.77700 -2.49300 31.70400
H  20.16500 -2.55000 25.18000
H  16.01200 2.29300 24.85900
H  17.79000 1.74700 33.06700
H  18.42500 -1.01700 33.40300
H  19.83700 1.42200 33.82700
H  20.65800 0.67600 32.37000
H  20.65100 -0.21700 33.75100
H  16.20500 -0.82900 33.44800
H  15.18700 0.36100 32.66500
H  15.37900 -0.19500 35.30600
H  15.18900 1.50800 34.90800
H  22.29200 -4.61700 29.81100
H  20.75900 -5.24900 30.37300
H  21.61600 -3.76000 31.10400
H  22.92500 -6.18200 26.74500
H  21.72200 -6.24600 28.06800
H  23.09300 -5.22600 28.09300
H  18.51500 -1.32600 23.28300
H  18.30900 1.61900 23.60500
H  20.20900 0.92800 22.74800
H  20.39700 -0.82500 22.52400
H  21.00300 -0.00600 24.03400
H  15.86600 1.00800 22.79500
H  16.43500 -0.66900 22.93500
H  16.65700 1.27200 20.78600
H  16.61500 -0.47000 20.72800
H  18.14500 0.48100 21.16300
H  14.93700 3.97900 25.59500
H  14.85400 5.15500 26.87700
H  13.41700 4.14700 26.55800
H  15.08300 2.93600 32.08300
H  17.48600 5.03600 34.76300
H  17.24000 6.34100 33.48900
H  18.43300 5.07300 33.36600
Mg 48.05400 15.90400 29.16600
C  45.76000 15.55900 31.71100
C  50.05900 17.71600 31.29600
C  50.08700 16.54100 26.54400
C  45.54200 14.56600 26.94000
N  47.88600 16.62100 31.29700
C  46.90000 16.26800 32.15600
C  47.35700 16.46600 33.61600
C  48.46400 17.53500 33.40000
C  48.88000 17.32100 31.95100
C  47.89800 18.97200 33.57400
C  47.93000 15.11800 34.18700
C  47.95900 14.89200 35.74500
H  48.01500 16.16200 36.68200
N  49.82300 16.90000 28.92000
C  50.50800 17.56100 29.93700
C  51.84900 17.96500 29.47800
C  51.89100 17.64500 28.07500
C  50.53400 17.00200 27.78800
C  52.88000 18.67800 30.23100
C  52.99900 17.84000 27.04300
O  52.94300 17.43800 25.91800
C  54.23000 18.71400 27.36700
N  47.77200 15.76400 27.06300
C  48.78400 16.06300 26.21300
C  48.27400 15.76400 24.76700
C  47.03400 14.90500 24.88400
C  46.75700 15.09100 26.40800
C  48.05900 17.09400 24.01700
C  47.27900 13.38400 24.50600
C  46.22100 12.82400 23.50500
N  46.11300 15.10900 29.24400
C  45.25400 14.60000 28.31600
C  44.04600 14.20200 28.94900
C  44.20400 14.50800 30.30800
C  45.46600 15.06200 30.45300
C  42.86800 13.59900 28.23000
C  43.59100 14.46400 31.59800
O  42.44800 14.07200 31.86000
C  44.59200 15.19100 32.58300
C  43.90900 16.35600 33.25900
O  43.24900 17.23200 32.76100
O  44.18100 16.20300 34.61300
C  43.41700 17.18800 35.42900
H  50.84600 18.12300 31.93500
H  50.77600 16.64900 25.70500
H  44.91100 14.01300 26.24100
H  46.50000 16.80300 34.19900
H  49.22000 17.45100 34.18100
H  48.59700 19.53600 34.19100
H  46.85100 18.96400 33.87700
H  47.91700 19.48100 32.61000
H  48.96600 15.05700 33.85500
H  47.51300 14.25500 33.66600
H  48.85700 14.32100 35.97800
H  47.15800 14.27000 36.14600
H  53.79900 18.10600 30.10500
H  52.75900 18.70800 31.31400
H  52.94400 19.74500 30.01500
H  53.74800 19.67000 27.56900
H  54.77900 18.77100 26.42700
H  54.84400 18.23300 28.12900
H  49.04300 15.20300 24.23600
H  46.21300 15.35600 24.32600
H  47.07800 17.09900 23.54300
H  48.76400 17.10800 23.18600
H  48.21100 17.87500 24.76300
H  47.26300 12.74000 25.38500
H  48.24700 13.41300 24.00600
H  45.30300 13.40700 23.42200
H  45.85400 11.88300 23.91500
H  46.72100 12.77700 22.53700
H  42.88600 12.51500 28.33800
H  42.80300 13.64800 27.14300
H  41.93000 13.97000 28.64300
H  45.02900 14.45900 33.26200
H  42.52600 16.63100 35.71800
H  43.27600 18.17900 34.99800
H  43.89300 17.36300 36.39300

