158

Mg -1.88300 18.13800 27.09900
C  -2.21500 16.04400 29.64300
C  -2.62000 20.85000 29.12100
C  -2.19600 20.17300 24.38100
C  -1.50300 15.38500 24.76200
N  -2.37100 18.40100 29.23100
C  -2.25300 17.35600 30.09800
C  -2.32200 17.89700 31.56200
C  -2.79800 19.45700 31.29100
C  -2.69800 19.59500 29.75500
C  -4.17600 19.67100 31.87500
C  -1.01600 17.84300 32.39000
C  -1.20100 17.27800 33.76700
H  -0.09800 17.39400 34.76700
N  -2.18000 20.25800 26.82600
C  -2.43600 21.20200 27.79500
C  -2.27900 22.54600 27.19500
C  -2.17900 22.33000 25.78100
C  -2.19000 20.85500 25.59700
C  -2.53500 23.82900 28.04900
C  -1.95600 23.27800 24.68400
O  -1.78500 22.93900 23.51800
C  -2.14300 24.72100 24.97700
N  -1.93900 17.79800 24.91100
C  -2.09100 18.84000 24.10300
C  -1.93100 18.30300 22.64600
C  -1.40900 16.83800 22.71200
C  -1.60600 16.64900 24.18500
C  -3.32100 18.45200 21.88000
C  0.12900 16.56600 22.23700
C  1.21600 17.28400 23.06900
N  -1.84300 16.11800 27.10300
C  -1.70900 15.09200 26.16300
C  -1.85000 13.82900 26.81500
C  -2.05700 14.14900 28.17900
C  -2.01000 15.52800 28.33800
C  -1.95100 12.50300 26.21300
C  -2.28100 13.59100 29.47200
O  -2.36000 12.44800 29.74900
C  -2.32000 14.74400 30.50000
C  -1.27300 14.62400 31.54900
O  -0.10900 15.02300 31.39700
O  -1.74500 13.92200 32.56300
C  -0.85400 13.62000 33.68900
H  -2.66100 21.67600 29.83400
H  -2.23200 20.72500 23.44000
H  -1.51800 14.50500 24.11700
H  -3.06000 17.42300 32.21000
H  -2.15100 20.11100 31.87500
H  -4.10500 20.16700 32.84200
H  -4.74400 18.74400 31.95900
H  -4.67600 20.27500 31.11800
H  -0.56900 18.82500 32.54500
H  -0.30700 17.23700 31.82600
H  -1.38100 16.22000 33.57500
H  -2.11500 17.67000 34.21300
H  -2.63200 24.79200 27.54800
H  -1.67300 23.80700 28.71600
H  -3.41400 23.80500 28.69300
H  -1.90400 25.39400 24.15400
H  -1.36900 24.99700 25.69400
H  -3.16300 24.90100 25.31500
H  -1.15000 18.98300 22.30600
H  -2.02600 16.11400 22.18100
H  -4.15300 18.43400 22.58400
H  -3.19500 17.62900 21.17700
H  -3.28400 19.39200 21.32900
H  0.21400 16.84400 21.18600
H  0.39900 15.51100 22.20300
H  1.81600 17.91700 22.41600
H  1.95300 16.63300 23.54000
H  0.80000 17.81900 23.92200
H  -1.52400 12.52700 25.21000
H  -3.02500 12.32500 26.16700
H  -1.52600 11.71200 26.83100
H  -3.28800 14.67500 30.99600
H  0.00900 14.26300 33.86100
H  -0.51000 12.60400 33.49400
H  -1.52400 13.60400 34.54900
Mg 0.96000 42.94200 25.90200
C  3.17600 42.84100 28.72800
C  -1.59600 42.59200 28.18000
C  -1.06900 43.00500 23.32800
C  3.68100 43.50100 23.89700
N  0.83800 42.54000 28.19800
C  1.83600 42.66300 29.13000
C  1.22700 42.62500 30.49700
C  -0.21200 42.12700 30.28300
C  -0.35300 42.43400 28.76700
C  -0.57600 40.66700 30.70000
C  1.40900 44.10100 31.13500
C  1.21900 44.29800 32.62300
H  0.85400 43.00500 33.35400
N  -1.00300 42.93000 25.86500
C  -1.93200 42.80600 26.82900
C  -3.24600 42.80900 26.31100
C  -3.14000 43.06800 24.91400
C  -1.65300 43.02400 24.62500
C  -4.50200 42.49000 27.20100
C  -4.25400 43.26600 23.90200
O  -4.01800 43.47500 22.79000
C  -5.71200 43.14500 24.32500
N  1.20700 42.93400 23.81900
C  0.23600 43.00300 22.93000
C  0.79800 43.10600 21.56000
C  2.27100 43.73300 21.76200
C  2.43100 43.32500 23.29000
C  0.92300 41.74300 20.79600
C  2.24200 45.27500 21.68900
C  3.45500 45.96200 20.96500
N  3.00300 42.97400 26.15600
C  4.00200 43.32800 25.27800
C  5.24500 43.51200 25.92600
C  5.02500 43.29500 27.28200
C  3.62300 43.14200 27.42500
C  6.55200 44.00700 25.26000
C  5.59400 43.30400 28.62100
O  6.68100 43.66800 29.02200
C  4.43200 43.04800 29.57700
C  4.61100 41.84500 30.41700
O  4.74300 40.72000 30.07000
O  4.72700 42.28900 31.66700
C  5.04200 41.39100 32.77000
H  -2.46200 42.31100 28.78400
H  -1.68900 43.18200 22.44700
H  4.40500 43.83900 23.15200
H  1.78500 41.91200 31.10300
H  -0.87200 42.81800 30.80700
H  0.21000 40.25100 31.33000
H  -0.64900 40.14400 29.74600
H  -1.51800 40.66800 31.24900
H  0.71400 44.75200 30.60500
H  2.40300 44.40000 30.80100
H  0.42400 45.04000 32.68900
H  2.16900 44.72800 32.94000
H  -5.28200 42.06900 26.56700
H  -4.90000 43.30400 27.80700
H  -4.35200 41.71100 27.94900
H  -5.87400 43.85900 25.13300
H  -6.00300 42.10400 24.46500
H  -6.30900 43.49200 23.48200
H  0.25900 43.84500 20.96800
H  3.05500 43.28200 21.15400
H  1.99000 41.53200 20.73200
H  0.37900 41.70600 19.85200
H  0.47800 41.04300 21.50300
H  2.14500 45.82900 22.62300
H  1.40500 45.61900 21.08200
H  3.13800 46.60900 20.14700
H  4.13300 45.21400 20.55400
H  4.02800 46.56700 21.66800
H  6.51800 44.26400 24.20100
H  7.19000 43.12700 25.17200
H  7.08900 44.77500 25.81700
H  4.37100 43.93100 30.21200
H  4.87500 41.90200 33.71800
H  6.11200 41.20400 32.67100
H  4.46400 40.49300 32.55000

