158

Mg 35.62800 1.87100 30.45500
C  33.33600 3.10200 32.79900
C  38.06100 2.21000 32.80700
C  38.03300 1.03900 28.12300
C  33.26100 2.16800 28.01800
N  35.69200 2.47200 32.54200
C  34.60600 2.91900 33.34000
C  34.95600 3.06700 34.85200
C  36.46300 3.06600 34.71800
C  36.77500 2.52900 33.27500
C  37.17400 4.48200 35.03800
C  34.24400 2.01900 35.76000
C  33.78600 2.41100 37.16100
H  34.47900 3.56800 37.88400
N  37.75200 1.57700 30.47900
C  38.51100 1.69000 31.58000
C  39.84500 1.20000 31.27600
C  39.88300 0.88300 29.88900
C  38.56800 1.16400 29.40200
C  40.96000 1.08800 32.27900
C  41.00300 0.18200 29.09600
O  41.01000 -0.02700 27.83500
C  42.14300 -0.38500 29.85800
N  35.63500 1.61200 28.40300
C  36.75300 1.31200 27.66500
C  36.36500 1.02000 26.17800
C  34.76700 1.16600 26.15800
C  34.52900 1.66100 27.60600
C  37.07300 1.90000 25.18800
C  34.06000 -0.18100 25.78400
C  32.76800 0.00200 25.04700
N  33.66400 2.44400 30.35500
C  32.83500 2.51700 29.31600
C  31.53000 3.00100 29.77500
C  31.66500 3.24900 31.14900
C  33.02500 2.92000 31.44300
C  30.36200 3.18300 28.92200
C  31.01700 3.74700 32.28200
O  29.89900 4.15300 32.61000
C  32.08100 3.67000 33.42500
C  32.26000 5.09700 33.80900
O  33.17800 5.86700 33.47700
O  31.23900 5.39000 34.67200
C  31.18600 6.67800 35.33700
H  38.80800 2.29500 33.59800
H  38.67200 0.63500 27.33500
H  32.54300 2.23500 27.19800
H  34.53500 4.00500 35.21400
H  36.77700 2.30900 35.43700
H  37.73400 4.74300 34.14000
H  37.90200 4.32800 35.83400
H  36.56300 5.37100 35.19800
H  34.83300 1.10200 35.74500
H  33.34100 1.64100 35.28100
H  33.67400 1.52700 37.78900
H  32.76900 2.75800 36.97800
H  41.79200 1.67100 31.88500
H  41.19100 0.05400 32.53500
H  40.62100 1.49000 33.23400
H  42.80900 0.32100 30.35300
H  42.74500 -0.88400 29.09800
H  41.80500 -1.21000 30.48500
H  36.68600 -0.00100 25.97500
H  34.55000 1.93900 25.42000
H  38.05900 1.43500 25.16000
H  37.27200 2.84800 25.68900
H  36.57700 2.13200 24.24600
H  33.79700 -0.80100 26.64100
H  34.75700 -0.87700 25.31700
H  32.96600 -0.56500 24.13700
H  32.49600 1.04000 24.85900
H  31.94700 -0.35800 25.66700
H  30.60500 3.37700 27.87700
H  29.75800 3.94800 29.40900
H  29.73400 2.29900 29.04000
H  31.65800 3.18600 34.30500
H  32.20000 6.84100 35.70200
H  30.42500 6.72600 36.11600
H  30.91100 7.46900 34.64000
Mg -0.19800 42.62500 26.35600
C  2.04100 42.77400 29.04900
C  -2.76400 42.02100 28.56400
C  -2.20200 42.04500 23.75900
C  2.55100 43.02000 24.21800
N  -0.30800 42.40800 28.61800
C  0.70900 42.61600 29.49000
C  0.10000 42.87000 30.95500
C  -1.39500 42.49200 30.69800
C  -1.51900 42.32300 29.20400
C  -1.80900 41.18100 31.41900
C  0.41700 44.25800 31.48600
C  0.86000 44.33700 33.00800
H  0.66800 43.09500 33.86100
N  -2.16700 42.19300 26.15000
C  -3.12200 42.00700 27.16900
C  -4.43000 41.85800 26.62700
C  -4.26500 41.85600 25.17600
C  -2.82700 42.00600 24.99900
C  -5.73500 41.66000 27.46400
C  -5.28100 41.72100 24.13700
O  -5.00100 41.58200 22.96200
C  -6.74600 41.77100 24.46100
N  0.19700 42.43000 24.28000
C  -0.82100 42.20600 23.40800
C  -0.28500 42.29000 21.92300
C  1.21900 42.68100 22.06700
C  1.35600 42.70200 23.62700
C  -0.54500 40.88100 21.27600
C  1.48200 44.10900 21.37700
C  0.97800 45.30800 22.19900
N  1.86300 42.81700 26.55200
C  2.84700 43.03500 25.58900
C  4.13200 43.24000 26.21600
C  3.85300 43.02800 27.59300
C  2.48000 42.85300 27.73100
C  5.39700 43.64100 25.60100
C  4.49400 42.90200 28.85400
O  5.68200 42.88400 29.11600
C  3.32100 42.75000 29.85700
C  3.52400 41.38300 30.49000
O  2.70700 40.49800 30.33100
O  4.42900 41.42200 31.46200
C  4.15900 40.51400 32.59900
H  -3.60100 42.04000 29.26400
H  -2.73100 42.06400 22.80400
H  3.42900 43.28900 23.62600
H  0.58400 42.06600 31.50800
H  -2.10300 43.26900 30.98400
H  -1.12200 40.88200 32.21100
H  -1.87200 40.24900 30.85700
H  -2.73600 41.38500 31.95300
H  -0.45000 44.88400 31.27700
H  1.24500 44.54800 30.83900
H  0.24400 45.16200 33.36500
H  1.86900 44.72400 33.15100
H  -6.13200 42.67200 27.54300
H  -5.53400 41.22500 28.44300
H  -6.39300 40.90800 27.02700
H  -7.34000 42.02800 23.58400
H  -6.80000 42.45000 25.31200
H  -7.13500 40.77500 24.67100
H  -0.81800 42.98000 21.27000
H  1.90700 41.99700 21.57000
H  0.35200 40.41300 20.87000
H  -1.16200 41.11000 20.40700
H  -1.13900 40.20800 21.89400
H  0.99000 44.09800 20.40400
H  2.52200 44.19400 21.06400
H  1.76000 46.02900 22.44000
H  0.46300 44.88800 23.06200
H  0.24200 45.66800 21.48000
H  5.39900 44.72300 25.73700
H  5.37500 43.37900 24.54400
H  6.32900 43.21100 25.96700
H  3.38300 43.50000 30.64500
H  4.12200 39.44700 32.38000
H  3.19200 40.77900 33.02600
H  4.86500 40.73100 33.40100

