158

Mg 44.39900 4.15300 47.11300
C  42.63300 7.16500 47.50400
C  41.44400 2.67500 46.32400
C  46.10100 1.33900 46.37400
C  47.31200 6.07300 46.90100
N  42.28100 4.93000 46.78000
C  41.76800 6.14300 47.05700
C  40.24400 6.19200 46.70200
C  39.93300 4.70900 46.28200
C  41.26900 4.08100 46.58500
C  38.60700 4.11100 47.00000
C  39.91200 7.12000 45.53200
C  40.74800 7.14800 44.16700
H  39.97400 6.96500 42.85200
N  43.81500 2.19400 46.56800
C  42.54400 1.80000 46.32100
C  42.54700 0.41300 45.97400
C  43.84800 -0.11600 45.90000
C  44.68000 1.13900 46.27300
C  41.26000 -0.37000 45.60300
C  44.36300 -1.49000 45.64800
O  43.55800 -2.42500 45.50800
C  45.80800 -1.83100 45.69300
N  46.34700 3.80200 46.48700
C  46.84000 2.50300 46.48300
C  48.40300 2.55000 46.41200
C  48.75500 4.01000 46.68500
C  47.42900 4.69400 46.66000
C  49.08200 1.49500 47.35500
C  49.72100 4.64800 45.58400
C  51.13100 4.70900 46.15900
N  44.92300 6.20600 47.18400
C  46.12000 6.80700 47.14000
C  45.98300 8.24700 47.42500
C  44.59600 8.44300 47.57900
C  44.01800 7.16300 47.37100
C  47.09600 9.26900 47.62400
C  43.54300 9.44100 47.79200
O  43.60300 10.66300 47.89800
C  42.25000 8.58200 47.67300
C  41.54100 8.78400 48.91200
O  41.52900 8.07800 49.95000
O  40.91600 10.03200 48.81700
C  40.15700 10.48000 49.92900
H  40.52400 2.12100 46.12600
H  46.74000 0.45600 46.31500
H  48.16800 6.74200 47.00400
H  39.69900 6.59800 47.55400
H  39.74800 4.48700 45.23100
H  38.07900 4.80300 47.65600
H  38.86900 3.24500 47.60900
H  37.82100 3.94200 46.26300
H  39.95300 8.13500 45.92600
H  38.88500 7.00500 45.18400
H  41.45300 6.31700 44.14600
H  41.41800 8.00700 44.17300
H  40.27100 0.03500 45.81700
H  41.21300 -1.38500 45.99700
H  41.31800 -0.38600 44.51500
H  46.05000 -2.89200 45.63800
H  46.03600 -1.42500 46.67900
H  46.39200 -1.31700 44.93000
H  48.67400 2.29300 45.38900
H  48.98100 4.13800 47.74400
H  48.35900 1.12100 48.08000
H  49.93000 1.79400 47.97100
H  49.38200 0.57900 46.84600
H  49.32500 5.59400 45.21400
H  49.67700 4.07900 44.65500
H  51.73800 3.91500 45.72500
H  51.09600 4.47500 47.22300
H  51.59800 5.64600 45.85500
H  47.89500 9.13600 46.89500
H  47.64600 9.10500 48.55100
H  46.68900 10.27900 47.57300
H  41.75700 9.02200 46.80600
H  39.67400 9.63300 50.41600
H  39.45600 11.26900 49.65200
H  40.88800 10.87600 50.63300
Mg 6.54800 53.68600 41.68900
C  5.68200 50.37400 41.12300
C  9.56100 53.21500 40.19400
C  7.00500 56.96100 41.86000
C  3.13900 54.21000 42.69900
N  7.41200 52.00900 40.59400
C  6.96200 50.75000 40.62500
C  7.86600 49.84100 39.72700
C  9.18400 50.63700 39.98400
C  8.70500 52.11100 40.30500
C  10.16300 50.20500 41.03500
C  7.47800 49.59400 38.24300
C  6.48700 50.53200 37.66400
H  6.23600 50.52100 36.14100
N  8.09100 54.94600 41.19500
C  9.26900 54.55900 40.58400
C  10.16500 55.66700 40.60800
C  9.45000 56.77600 41.13600
C  8.08000 56.27600 41.45000
C  11.61300 55.50700 40.23300
C  10.00500 58.16700 41.34900
O  11.00600 58.62200 40.77800
C  9.24800 59.05600 42.36200
N  5.23700 55.41800 41.97900
C  5.75100 56.71600 42.15200
C  4.65700 57.67700 42.84000
C  3.44300 56.66600 43.07000
C  3.98100 55.34100 42.52300
C  5.10500 58.37700 44.16400
C  2.00200 56.97900 42.51600
C  1.65700 58.47600 42.31700
N  4.74700 52.53800 41.84800
C  3.51500 52.86500 42.39900
C  2.66100 51.61500 42.51200
C  3.54900 50.62600 42.00300
C  4.73600 51.21600 41.62500
C  1.32500 51.53800 43.16300
C  3.61100 49.16700 41.69200
O  2.80700 48.28700 41.85400
C  5.10800 48.97600 41.28600
C  4.97000 48.12000 40.04300
O  4.33500 48.34900 39.08500
O  5.48900 46.89400 40.30000
C  5.24400 45.79000 39.34900
H  10.57800 52.96400 39.88300
H  7.10500 58.04700 41.91500
H  2.19200 54.36300 43.22100
H  8.00700 48.89300 40.24500
H  9.77400 50.69100 39.06900
H  9.62400 49.48700 41.65300
H  10.43200 51.10500 41.58800
H  10.98300 49.67500 40.55000
H  7.09600 48.57500 38.29400
H  8.31500 49.72300 37.55600
H  6.85700 51.50700 37.98000
H  5.53500 50.51200 38.19400
H  11.71500 55.40600 39.15300
H  12.13900 54.74400 40.80600
H  12.13600 56.43400 40.46800
H  9.87600 59.88700 42.68500
H  8.88000 58.42400 43.17000
H  8.39200 59.51400 41.86700
H  4.47900 58.56000 42.22600
H  3.39800 56.46400 44.14000
H  5.03300 59.45800 44.04800
H  6.15700 58.11900 44.28400
H  4.57100 58.12200 45.08000
H  1.25800 56.51900 43.16700
H  1.80900 56.41300 41.60400
H  0.62300 58.68700 42.58700
H  1.91600 58.83500 41.32000
H  2.37800 59.07500 42.87400
H  0.62100 52.18900 42.64600
H  1.25500 51.68400 44.24100
H  0.90800 50.54200 43.01500
H  5.65900 48.43000 42.05200
H  5.55700 44.79200 39.65700
H  5.89300 46.08300 38.52400
H  4.24700 45.73800 38.91300

