158

Mg 2.00400 -0.52900 44.32600
C  5.36800 -0.29300 43.32200
C  1.30700 2.09000 42.23900
C  -1.26600 -1.11300 44.69300
C  2.79700 -3.46000 46.03700
N  3.22000 0.78300 43.09400
C  4.54000 0.65700 42.77200
C  5.01800 1.68100 41.72400
C  3.69900 2.61700 41.55600
C  2.65400 1.81000 42.37800
C  3.86600 4.12400 41.85400
C  5.57800 1.12000 40.36100
C  6.84200 1.88500 39.79000
H  6.70800 2.56400 38.37700
N  0.21700 0.41200 43.62200
C  0.19600 1.51900 42.78900
C  -1.18100 1.79500 42.52100
C  -1.96900 0.88400 43.25500
C  -1.01300 -0.01800 43.91500
C  -1.65200 2.89200 41.69300
C  -3.50700 0.80500 43.20700
O  -4.18100 1.59800 42.60600
C  -4.19600 -0.43800 43.72300
N  0.99100 -2.13700 45.11400
C  -0.35200 -2.06200 45.24100
C  -0.98500 -3.18700 46.18800
C  0.33200 -4.08200 46.43100
C  1.44900 -3.15700 45.88200
C  -1.68000 -2.76000 47.50500
C  0.25400 -5.56500 45.89200
C  0.52600 -6.71700 46.91100
N  3.77300 -1.65300 44.82400
C  3.94700 -2.75300 45.55300
C  5.41200 -3.07500 45.53100
C  6.00600 -2.21500 44.65500
C  4.96100 -1.30200 44.26500
C  6.06200 -4.14600 46.27000
C  7.27500 -1.78900 44.13700
O  8.36400 -2.29300 44.17400
C  6.83400 -0.48800 43.16000
C  7.58800 0.64500 43.74200
O  7.34100 1.23200 44.75200
O  8.70800 0.95600 43.01900
C  9.19400 2.34800 43.14600
H  1.21000 2.90800 41.52200
H  -2.25500 -1.35500 45.08800
H  2.91500 -4.28800 46.74000
H  5.72900 2.29000 42.28100
H  3.26800 2.63000 40.55500
H  4.82600 4.60000 41.65500
H  3.51200 4.32400 42.86600
H  3.17000 4.59300 41.15900
H  4.77100 1.14500 39.62800
H  5.76900 0.04700 40.40000
H  7.75500 1.29100 39.83200
H  7.02400 2.70300 40.48700
H  -0.94800 3.13100 40.89700
H  -1.72100 3.84000 42.22800
H  -2.55900 2.69500 41.12200
H  -5.17200 -0.57600 43.25700
H  -4.32800 -0.26100 44.79000
H  -3.69900 -1.40000 43.60300
H  -1.67800 -3.76300 45.57500
H  0.55400 -4.10600 47.49800
H  -1.99700 -1.74100 47.28300
H  -1.04900 -2.72900 48.39400
H  -2.45600 -3.48900 47.74000
H  0.91000 -5.61500 45.02300
H  -0.75400 -5.77200 45.53100
H  1.28500 -7.37900 46.49400
H  -0.31600 -7.32700 47.23600
H  0.82100 -6.17600 47.81100
H  6.25500 -5.03100 45.66400
H  5.71700 -4.48700 47.24600
H  7.00400 -3.68300 46.56500
H  7.19700 -0.71000 42.15600
H  8.43500 3.00900 43.56400
H  9.57700 2.65800 42.17400
H  10.00200 2.28200 43.87400
Mg 25.82200 51.00000 26.57500
C  23.82700 52.33800 29.00500
C  28.15100 50.11000 29.12400
C  28.16500 50.37600 24.17700
C  23.74700 52.44300 24.21000
N  25.87900 51.23700 28.74500
C  24.94000 51.76000 29.53900
C  25.27800 51.45700 30.99400
C  26.78700 51.09900 31.02400
C  26.97500 50.77100 29.51500
C  27.86700 52.17500 31.36600
C  24.30600 50.48000 31.83100
C  23.93800 51.01100 33.16500
H  25.17300 51.02500 34.11200
N  27.78800 50.23200 26.66400
C  28.61100 49.89900 27.79000
C  29.84500 49.29000 27.35000
C  29.80500 49.37500 25.92200
C  28.53200 49.99800 25.54000
C  30.99300 48.85600 28.34700
C  30.86500 48.92200 24.91600
O  30.71300 49.13700 23.68200
C  31.95000 47.93800 25.32100
N  25.95700 51.42600 24.52700
C  26.94500 51.03500 23.71200
C  26.65200 51.50100 22.26900
C  25.21500 51.98500 22.29300
C  24.92200 51.99600 23.76700
C  27.88400 52.38600 21.73200
C  24.14900 51.09200 21.51400
C  23.94100 51.47900 20.10800
N  24.06700 52.09700 26.54800
C  23.32400 52.59100 25.54400
C  22.09100 53.35500 26.06100
C  22.24400 53.20900 27.45700
C  23.43400 52.48100 27.65200
C  21.02900 54.09600 25.21700
C  21.67300 53.49800 28.78300
O  20.60000 53.97100 29.07500
C  22.76900 53.00700 29.78700
C  23.24700 54.06900 30.67400
O  24.04300 54.89500 30.37700
O  22.49600 54.14700 31.80100
C  22.58100 55.35500 32.58900
H  28.80900 49.83500 29.95100
H  28.81000 50.19400 23.31500
H  23.10100 52.92200 23.47200
H  25.24200 52.42300 31.49900
H  26.96500 50.19600 31.60800
H  28.37500 52.51700 30.46500
H  28.59900 51.68000 32.00400
H  27.41200 53.04600 31.83900
H  24.75000 49.48700 31.89700
H  23.34800 50.42700 31.31400
H  23.15400 50.37500 33.57500
H  23.67100 52.06100 33.04500
H  31.94200 49.27300 28.00900
H  31.05600 47.76700 28.34800
H  30.86200 49.07000 29.40700
H  32.83400 48.34800 25.81000
H  32.26200 47.48500 24.38000
H  31.50000 47.24900 26.03500
H  26.70300 50.58500 21.68100
H  25.01400 53.01200 21.98600
H  28.05900 51.88100 20.78100
H  28.79700 52.53900 22.30700
H  27.50700 53.36100 21.42300
H  23.14700 51.00600 21.93400
H  24.53800 50.08200 21.63800
H  24.68600 50.94100 19.52200
H  24.00300 52.53300 19.83900
H  22.99900 51.03300 19.78600
H  20.61500 53.37200 24.51500
H  21.44800 54.89200 24.60200
H  20.28100 54.48300 25.91000
H  22.18600 52.32400 30.40400
H  22.51600 55.14100 33.65600
H  21.70800 55.94400 32.30700
H  23.40500 56.02900 32.35900

