158

Mg 26.71300 50.88500 26.33100
C  25.09000 52.21100 29.11100
C  29.23200 50.17800 28.41000
C  28.51600 50.06900 23.70100
C  24.37300 52.53100 24.24000
N  26.97700 50.95500 28.63300
C  26.19300 51.46200 29.56000
C  26.80500 51.21400 30.94000
C  28.25700 50.76700 30.65200
C  28.16500 50.63300 29.15400
C  29.31600 51.85800 31.16700
C  26.10600 50.07900 31.76000
C  25.48600 50.49900 33.07100
H  26.21500 51.18800 34.19500
N  28.64000 50.04200 26.08000
C  29.51900 49.85400 27.09100
C  30.65400 49.14900 26.55800
C  30.40400 48.90800 25.14300
C  29.18900 49.74500 24.90400
C  31.69700 48.43100 27.46500
C  31.20000 48.14900 24.06400
O  30.85500 48.09500 22.89300
C  32.51300 47.51700 24.51600
N  26.55800 51.41000 24.23500
C  27.38400 50.80200 23.35600
C  26.98800 51.11600 21.87500
C  25.47500 51.68400 22.05800
C  25.40600 51.81700 23.59400
C  27.95100 51.84900 20.94000
C  24.37300 50.76300 21.39500
C  23.68400 51.29600 20.11500
N  25.07600 52.17900 26.49700
C  24.13100 52.70900 25.61100
C  23.09800 53.28000 26.34500
C  23.44000 53.09000 27.68200
C  24.65200 52.42600 27.75600
C  21.91100 53.99100 25.76100
C  23.02400 53.42000 29.08000
O  22.03600 54.08700 29.49300
C  24.00000 52.82100 29.99400
C  24.53200 53.95800 30.86800
O  25.54200 54.56300 30.71200
O  23.71800 53.99500 31.99500
C  24.24000 54.68500 33.18500
H  30.07600 50.01200 29.08400
H  29.09500 49.71100 22.84700
H  23.50900 52.84400 23.65000
H  26.70600 52.11000 31.55300
H  28.60200 49.92400 31.25100
H  29.82300 52.33900 30.33000
H  30.07100 51.33900 31.75800
H  28.89200 52.57500 31.87100
H  26.80400 49.31700 32.10700
H  25.29600 49.61100 31.20200
H  25.15300 49.52700 33.43400
H  24.58100 51.06400 32.84700
H  32.61100 48.95900 27.19400
H  31.86300 47.38500 27.20400
H  31.42700 48.65800 28.49600
H  33.04600 48.29300 25.06500
H  33.00300 47.27000 23.57400
H  32.38700 46.62200 25.12500
H  26.86500 50.14700 21.39200
H  25.29900 52.67300 21.63700
H  28.70900 52.28200 21.59300
H  27.42800 52.71500 20.53600
H  28.41300 51.14800 20.24400
H  23.58300 50.64800 22.13700
H  24.80500 49.78400 21.18700
H  23.99300 50.65000 19.29300
H  23.96200 52.32300 19.87900
H  22.59800 51.20600 20.15900
H  21.15800 53.98100 26.54900
H  21.54300 53.55200 24.83400
H  22.31200 55.00200 25.69200
H  23.53200 52.01100 30.55300
H  24.30400 55.74500 32.93700
H  25.22500 54.23800 33.31400
H  23.70300 54.45100 34.10400
Mg 17.01700 52.86600 26.64600
C  18.88000 51.35800 28.96500
C  14.96200 53.91400 29.26900
C  14.88200 54.34800 24.40700
C  19.01500 51.86200 24.11200
N  16.80000 52.50000 28.82100
C  17.81800 52.03100 29.56600
C  17.62100 52.29800 31.14500
C  16.15100 52.63700 31.18900
C  15.91100 53.02100 29.69000
C  15.37300 51.47300 31.60800
C  18.59100 53.35700 31.71900
C  18.88600 53.36600 33.30900
H  17.84500 52.53500 34.11400
N  15.12300 53.96900 26.76400
C  14.61300 54.43800 27.97700
C  13.62600 55.44100 27.73400
C  13.49200 55.49500 26.30900
C  14.47500 54.61000 25.72400
C  13.00100 56.20300 28.91800
C  12.52500 56.34700 25.45600
O  12.58600 56.23100 24.28700
C  11.66500 57.43900 25.99700
N  16.86300 52.91200 24.49600
C  15.90200 53.58300 23.83600
C  16.24100 53.64500 22.36700
C  17.67400 53.01400 22.27400
C  17.91200 52.60000 23.72200
C  15.20400 52.92600 21.31900
C  18.70300 54.00800 21.54400
C  19.23600 55.14500 22.41100
N  18.61600 51.77100 26.51300
C  19.42000 51.47600 25.38500
C  20.54900 50.79500 25.85400
C  20.42500 50.74000 27.22400
C  19.17200 51.30600 27.55200
C  21.70000 50.28700 25.06600
C  21.07000 50.25600 28.38600
O  22.05200 49.57700 28.48300
C  20.12600 50.73300 29.66300
C  19.82300 49.59700 30.52500
O  19.42400 48.51300 30.22400
O  20.04500 49.98400 31.81800
C  19.93400 48.94500 32.89000
H  14.38300 54.42100 30.04400
H  14.16900 54.68900 23.65400
H  19.80700 51.53400 23.43500
H  17.69400 51.37700 31.72200
H  16.11300 53.49700 31.85700
H  15.69400 51.02500 32.54800
H  15.49600 50.80600 30.75500
H  14.36700 51.81300 31.85300
H  18.19900 54.30500 31.35200
H  19.59200 53.23600 31.30300
H  18.94800 54.39100 33.67400
H  19.86400 52.99500 33.61700
H  13.58400 57.03000 29.32400
H  12.72500 55.49000 29.69500
H  12.00900 56.57400 28.65800
H  10.87000 56.93600 26.54600
H  11.34900 58.03900 25.14300
H  12.28100 58.04000 26.66600
H  16.15700 54.70400 22.12200
H  17.54000 52.07200 21.74300
H  14.53100 52.21300 21.79400
H  15.77100 52.38100 20.56400
H  14.66200 53.72000 20.80300
H  18.13400 54.53000 20.77500
H  19.56700 53.49600 21.12000
H  18.53000 55.25800 23.23300
H  19.27900 56.12200 21.92900
H  20.22400 54.88400 22.78900
H  21.62000 50.77500 24.09500
H  21.68900 49.20700 24.92400
H  22.60200 50.62000 25.57900
H  20.66500 51.48800 30.23400
H  19.04900 49.20100 33.47100
H  20.82900 49.01900 33.50700
H  19.93500 47.91600 32.52900

