158

Mg 39.95400 8.20500 29.25200
C  41.74800 9.85300 31.86300
C  37.48400 7.35300 31.52600
C  38.38200 6.80700 26.71300
C  42.75300 8.84400 27.17000
N  39.78600 8.52900 31.51800
C  40.59000 9.23800 32.33400
C  39.92700 9.34300 33.73200
C  38.67300 8.36000 33.63900
C  38.59500 8.13100 32.07500
C  38.89900 7.08200 34.49200
C  39.69300 10.76800 34.30800
C  38.68400 10.83600 35.48300
H  39.07200 11.64600 36.73600
N  38.15600 7.22800 29.16400
C  37.30300 6.97100 30.18400
C  36.17300 6.29900 29.56700
C  36.37400 6.16300 28.16800
C  37.66600 6.77900 27.93900
C  34.88200 6.06600 30.28600
C  35.53700 5.43900 27.16600
O  35.89200 5.33200 25.99000
C  34.38300 4.57600 27.62900
N  40.50400 7.82200 27.23300
C  39.60800 7.27000 26.38200
C  40.12700 7.33200 24.87200
C  41.60300 7.96600 25.15400
C  41.69600 8.17700 26.63100
C  40.31500 5.94100 24.28600
C  41.66800 9.34900 24.32900
C  40.55300 10.39600 24.69500
N  41.85000 9.03400 29.49100
C  42.78200 9.25600 28.49500
C  43.89200 10.00200 29.11100
C  43.48100 10.35600 30.39800
C  42.22900 9.71000 30.58000
C  45.19800 10.28100 28.41600
C  43.84900 11.11300 31.58600
O  44.86300 11.72500 31.85000
C  42.70500 10.82400 32.62900
C  43.44200 10.23300 33.79700
O  44.19600 9.30000 33.78700
O  43.26200 11.19700 34.77300
C  44.06600 10.93800 36.01300
H  36.70700 7.12000 32.25800
H  37.93300 6.47800 25.77300
H  43.49900 9.16200 26.43900
H  40.77200 8.91600 34.27200
H  37.76000 8.87500 33.93600
H  39.68300 7.28500 35.22200
H  39.26500 6.25300 33.88600
H  37.92700 6.95500 34.96700
H  39.28100 11.39700 33.51900
H  40.63700 11.14300 34.70500
H  38.44700 9.81900 35.79400
H  37.71000 11.15400 35.10900
H  34.72300 6.57400 31.23700
H  34.76300 5.00200 30.48900
H  34.05000 6.36500 29.64900
H  34.77700 4.01700 28.47900
H  34.16300 3.95500 26.76100
H  33.52900 5.18800 27.91800
H  39.55200 7.89000 24.13300
H  42.43200 7.36800 24.77700
H  39.92000 5.21500 24.99600
H  41.39000 5.77900 24.20500
H  39.74400 5.80400 23.36700
H  41.78500 9.08600 23.27800
H  42.60500 9.78900 24.66900
H  39.85200 10.04900 25.45500
H  39.95900 10.63000 23.81200
H  41.13200 11.27700 24.97300
H  46.03200 10.14100 29.10400
H  45.10900 11.25900 27.94400
H  45.25700 9.51600 27.64200
H  42.13700 11.73800 32.80000
H  43.59000 11.36100 36.89700
H  45.08500 11.32400 35.96500
H  44.11100 9.87000 36.22200
Mg 30.13100 59.88400 39.95000
C  27.19700 58.23500 38.50300
C  31.98700 57.20600 38.93300
C  33.00800 61.78700 40.33600
C  28.28200 62.85400 39.93300
N  29.63300 57.97700 38.75200
C  28.40400 57.51500 38.35500
C  28.61000 56.23300 37.66800
C  30.00700 55.70300 38.13700
C  30.64500 57.07200 38.63400
C  30.15800 54.56800 39.05500
C  28.51300 56.36800 36.09500
C  27.44100 55.60400 35.33200
H  26.59700 56.44700 34.35700
N  32.17800 59.46000 39.86500
C  32.74600 58.33500 39.37300
C  34.20500 58.40100 39.45100
C  34.48800 59.64400 40.10900
C  33.15400 60.38600 40.13200
C  35.20400 57.38100 38.90100
C  35.89000 60.08300 40.57000
O  36.90100 59.49700 40.36100
C  36.04500 61.37900 41.36400
N  30.52400 61.97500 40.29000
C  31.80500 62.50200 40.28600
C  31.79200 64.04000 40.40700
C  30.24300 64.28700 40.65300
C  29.67100 62.99200 40.29300
C  32.67800 64.67800 41.48100
C  29.77000 65.46100 39.73800
C  29.09400 66.66100 40.41200
N  28.11800 60.47000 39.47700
C  27.51700 61.66700 39.62300
C  26.02800 61.47200 39.34900
C  25.93100 60.10900 39.01700
C  27.21400 59.59800 39.04500
C  24.97100 62.53700 39.38100
C  24.92400 59.08200 38.64500
O  23.71300 59.14800 38.64500
C  25.72300 57.85000 38.25200
C  25.31300 56.77200 39.17600
O  25.77000 56.50400 40.26300
O  24.20300 56.16100 38.54500
C  23.65800 55.00500 39.23400
H  32.64300 56.36200 38.71100
H  33.75100 62.58600 40.37900
H  27.72000 63.78600 40.01300
H  27.76100 55.66500 38.04800
H  30.64400 55.41500 37.30100
H  30.65100 53.72100 38.57800
H  29.12000 54.31700 39.27300
H  30.70800 54.65700 39.99200
H  29.45000 55.96600 35.71000
H  28.39100 57.40500 35.78400
H  26.78100 55.30700 36.14700
H  27.89300 54.76300 34.80600
H  35.70400 57.93800 38.10900
H  34.67300 56.57200 38.39800
H  35.90500 56.85500 39.54900
H  37.09600 61.51500 41.61700
H  35.35400 61.46600 42.20300
H  35.89500 62.21300 40.67900
H  32.20900 64.40800 39.47000
H  30.01000 64.45400 41.70500
H  33.51900 65.28700 41.14700
H  33.04900 63.92500 42.17700
H  32.09400 65.42600 42.01700
H  29.08200 65.07100 38.98800
H  30.63800 65.84200 39.20000
H  29.91900 67.36800 40.32800
H  28.89500 66.62100 41.48300
H  28.18100 66.92100 39.87700
H  24.20300 62.32700 38.63600
H  25.31000 63.55400 39.18600
H  24.38700 62.56000 40.30100
H  25.37900 57.61700 37.24400
H  22.82500 54.61900 38.64600
H  23.13200 55.19100 40.17100
H  24.36500 54.19900 39.43300

