158

Mg 47.02800 16.55500 28.92100
C  44.94100 15.84300 31.75300
C  49.19700 18.21700 31.03100
C  48.60700 17.61500 26.23900
C  44.57200 15.12900 26.90500
N  47.00700 16.92300 31.16000
C  46.10700 16.48500 32.10100
C  46.58700 16.88600 33.52900
C  47.80700 17.79300 33.21400
C  48.05700 17.63600 31.71400
C  47.67400 19.25900 33.48700
C  46.92200 15.63700 34.28700
C  47.60800 15.87500 35.63000
H  47.34600 17.06100 36.47300
N  48.66200 17.69500 28.62500
C  49.49100 18.17900 29.62200
C  50.63900 18.81000 29.04100
C  50.42300 18.78600 27.64600
C  49.22200 17.99900 27.43100
C  51.84400 19.31000 29.81200
C  51.31300 19.32000 26.56600
O  50.99600 19.25200 25.36500
C  52.61900 19.99300 26.87400
N  46.78100 16.26800 26.86100
C  47.56000 16.82900 25.90900
C  47.16200 16.38500 24.48000
C  45.82100 15.60500 24.75400
C  45.70100 15.58700 26.28400
C  47.04600 17.63800 23.53000
C  45.64700 14.18400 24.05000
C  45.88200 12.88600 24.84200
N  45.17400 15.61500 29.24000
C  44.30400 15.08000 28.27600
C  43.18200 14.55100 28.95200
C  43.35100 14.83800 30.35400
C  44.61200 15.47400 30.45700
C  41.92400 14.08200 28.29700
C  42.72500 14.86300 31.61200
O  41.64500 14.56400 32.02700
C  43.79700 15.38800 32.56600
C  43.22800 16.61400 33.31300
O  42.89600 17.64400 32.76700
O  43.01600 16.43000 34.64700
C  42.58600 17.60400 35.35700
H  49.87000 18.72700 31.72300
H  49.20300 17.82200 25.34700
H  43.93100 14.57100 26.22000
H  45.82800 17.49300 34.02300
H  48.65200 17.45500 33.81400
H  48.20500 19.47300 34.41500
H  46.64200 19.55700 33.67600
H  48.16000 19.82500 32.69300
H  47.58800 14.97700 33.73000
H  45.96500 15.15200 34.47900
H  48.68900 15.75200 35.56000
H  47.20900 15.15200 36.34100
H  52.05300 20.32000 29.46200
H  52.69100 18.69900 29.50100
H  51.69900 19.36800 30.89100
H  53.09900 20.25800 25.93200
H  53.29200 19.29400 27.37100
H  52.43100 20.94800 27.36400
H  47.92700 15.76300 24.01600
H  44.95800 16.21300 24.48400
H  47.71700 17.56400 22.67500
H  47.38300 18.52100 24.07300
H  46.02900 17.75900 23.15700
H  46.30600 14.02300 23.19600
H  44.61800 14.30000 23.71000
H  46.10000 13.13200 25.88100
H  46.74200 12.29800 24.51900
H  45.04900 12.18700 24.76400
H  41.69800 14.54100 27.33500
H  41.15000 14.34900 29.01700
H  41.92800 12.99400 28.21900
H  44.04000 14.60100 33.28000
H  41.67600 17.94100 34.86100
H  43.32400 18.40500 35.38400
H  42.44700 17.29300 36.39200
Mg 27.29900 49.67400 26.92000
C  25.33800 50.70100 29.54400
C  29.82300 49.06300 29.13900
C  29.23200 48.89800 24.33100
C  24.74500 50.64500 24.69400
N  27.56400 50.01400 29.14100
C  26.60000 50.33400 30.03600
C  27.03200 50.06400 31.50300
C  28.56000 49.79100 31.29400
C  28.68200 49.67000 29.77600
C  29.59600 50.75400 31.93700
C  26.24100 48.86000 32.22300
C  25.49000 49.21100 33.44600
H  26.29400 49.49300 34.75900
N  29.29800 49.04800 26.73600
C  30.15200 48.82600 27.78500
C  31.42500 48.41200 27.24900
C  31.29900 48.58600 25.84900
C  29.91600 48.87200 25.55500
C  32.58300 47.94200 28.09000
C  32.40000 48.45100 24.75800
O  32.24600 48.58800 23.54300
C  33.71700 47.99800 25.16700
N  26.97200 49.84900 24.80700
C  27.97300 49.40200 23.97800
C  27.51600 49.33100 22.54000
C  26.00600 49.65300 22.68700
C  25.95100 50.20800 24.07200
C  28.21600 50.32800 21.60100
C  25.01300 48.49600 22.44400
C  25.14800 47.17100 23.29700
N  25.46100 50.48500 27.06000
C  24.47500 50.74100 26.07800
C  23.32700 51.36700 26.70700
C  23.61200 51.34900 28.08100
C  24.91300 50.79600 28.20600
C  22.03700 51.81800 26.00900
C  23.07900 51.69900 29.36600
O  22.11000 52.36700 29.63900
C  24.15300 51.13400 30.41100
C  24.36500 52.17700 31.50600
O  25.22000 53.06200 31.49400
O  23.61800 51.90500 32.61000
C  23.86500 52.77300 33.76600
H  30.66900 48.75900 29.76000
H  29.81400 48.50200 23.49600
H  24.04100 50.94800 23.91600
H  26.92000 50.98300 32.07900
H  28.87700 48.86500 31.77300
H  30.33300 50.24500 32.55800
H  29.00100 51.36400 32.61700
H  30.13100 51.34100 31.19100
H  26.99500 48.20200 32.65400
H  25.72000 48.10200 31.63700
H  24.70100 48.46400 33.54000
H  24.98900 50.15400 33.22800
H  33.44400 48.58500 27.90300
H  32.77200 46.90400 27.81800
H  32.34200 47.79900 29.14400
H  34.24500 48.69900 25.81300
H  34.30500 47.79200 24.27200
H  33.73600 47.07500 25.74700
H  27.69100 48.30300 22.22300
H  25.63800 50.42900 22.01500
H  27.41700 50.86200 21.08800
H  28.99600 49.91800 20.96000
H  28.66600 51.01400 22.31900
H  25.10100 48.28900 21.37800
H  24.00800 48.85200 22.66900
H  26.16900 46.81600 23.43700
H  24.52000 46.43200 22.79900
H  24.75000 47.39800 24.28700
H  22.03000 52.90500 25.93800
H  21.08300 51.61000 26.49300
H  21.91800 51.35100 25.03100
H  23.59300 50.32000 30.87100
H  23.00600 53.41500 33.95600
H  24.82200 53.29100 33.82300
H  23.96600 52.11900 34.63200

