158

Mg 41.22600 40.92400 26.39600
C  40.78300 43.42800 28.85100
C  42.26400 38.74900 28.86500
C  41.69200 38.73900 24.11600
C  40.44300 43.32000 23.98400
N  41.41500 41.07700 28.63000
C  41.26700 42.20600 29.38200
C  41.33500 41.79800 30.83100
C  42.18900 40.50100 30.82300
C  42.01000 40.02300 29.36300
C  43.77700 40.67100 31.06600
C  39.94000 41.63500 31.61600
C  39.56300 42.70400 32.69800
H  39.05000 42.25400 34.05900
N  41.80300 39.00900 26.50700
C  42.18500 38.26300 27.52900
C  42.52000 36.91300 27.12600
C  42.34200 36.85000 25.71400
C  41.98100 38.19200 25.35400
C  42.99000 35.77300 28.05800
C  42.56500 35.67700 24.73100
O  42.48900 35.82900 23.48200
C  42.92900 34.35300 25.23900
N  41.19000 41.05800 24.34900
C  41.37100 39.95100 23.61900
C  41.34400 40.21400 22.14800
C  40.79600 41.67600 22.06600
C  40.81200 42.08900 23.57100
C  42.68800 40.02600 21.42700
C  39.32800 41.74300 21.53700
C  38.33700 40.84900 22.33000
N  40.63800 42.96500 26.34100
C  40.32300 43.84800 25.28300
C  39.83400 45.06300 25.80200
C  39.93700 44.94900 27.19300
C  40.53800 43.72800 27.48400
C  39.24300 46.17400 24.97300
C  39.71900 45.60700 28.44700
O  39.27600 46.70300 28.66800
C  40.31800 44.66800 29.58500
C  41.38800 45.43900 30.31300
O  42.60500 45.29200 30.10500
O  40.85800 46.25900 31.28000
C  41.72000 46.79400 32.33000
H  42.52200 38.06300 29.67500
H  41.75000 38.02500 23.29200
H  40.12600 43.95800 23.15700
H  41.82300 42.55600 31.44200
H  41.82700 39.77500 31.55100
H  44.02800 41.72900 31.13800
H  44.35600 40.39600 30.18500
H  43.91800 40.12300 31.99800
H  39.95300 40.73200 32.22600
H  39.11800 41.58600 30.90200
H  38.68000 43.22100 32.32300
H  40.40200 43.37700 32.87100
H  42.33600 34.90700 27.95800
H  43.17100 36.05100 29.09600
H  43.95200 35.47700 27.63900
H  43.94700 34.50600 25.59800
H  42.89400 33.52100 24.53600
H  42.21500 34.06100 26.00900
H  40.61100 39.44400 21.91000
H  41.44000 42.30600 21.45200
H  43.44000 40.26100 22.18000
H  42.82700 40.75200 20.62700
H  42.77700 39.05300 20.94300
H  39.00700 41.54000 20.51600
H  39.15800 42.81700 21.61300
H  38.92900 40.21500 22.99100
H  37.87600 40.10000 21.68500
H  37.57500 41.44200 22.83600
H  38.71200 45.77400 24.11000
H  40.07300 46.86500 24.82900
H  38.46800 46.62800 25.59200
H  39.53200 44.39600 30.28900
H  42.08100 45.91400 32.86300
H  41.11200 47.52200 32.86700
H  42.53500 47.31200 31.82300
Mg 0.19500 43.84700 26.93600
C  2.62700 43.83500 29.55900
C  -2.12100 43.11800 29.33800
C  -1.89800 43.25400 24.42200
C  2.88100 44.47200 24.66100
N  0.34800 43.63900 29.24300
C  1.34600 43.63000 30.10300
C  0.79300 43.62600 31.56100
C  -0.63700 43.06600 31.36800
C  -0.83400 43.16600 29.89500
C  -1.00800 41.70300 31.94000
C  0.88600 45.02300 32.27700
C  1.41300 44.99800 33.66400
H  0.93000 43.78700 34.53300
N  -1.79000 43.42200 26.87700
C  -2.54200 43.19800 27.97600
C  -3.93400 43.10500 27.50100
C  -3.89700 42.88400 26.04800
C  -2.49100 43.20700 25.73600
C  -5.12900 42.92600 28.44700
C  -5.03400 42.44000 25.21700
O  -4.85100 42.09200 24.06000
C  -6.47500 42.17800 25.72300
N  0.50100 43.90400 24.89300
C  -0.55300 43.60400 24.03300
C  -0.18100 43.62100 22.58200
C  1.25400 44.38400 22.67400
C  1.62800 44.22500 24.14900
C  -0.29800 42.27000 21.88400
C  1.17600 45.95300 22.27800
C  2.03200 46.34600 21.06000
N  2.29900 44.07000 27.05200
C  3.24300 44.28000 26.03600
C  4.56600 44.31100 26.59700
C  4.30300 44.15700 27.98000
C  2.98900 44.09400 28.17900
C  5.82300 44.44900 25.86500
C  4.99500 44.00600 29.26100
O  6.18100 43.90100 29.49000
C  3.94100 43.94900 30.35100
C  4.16000 42.79500 31.27800
O  4.07900 41.64900 30.86600
O  4.65000 43.09600 32.52600
C  4.95900 41.89400 33.36200
H  -2.91000 42.81500 30.02900
H  -2.55500 42.93600 23.60900
H  3.65900 44.74300 23.94400
H  1.43800 42.91000 32.07100
H  -1.32600 43.80400 31.78000
H  -0.50600 40.93800 31.34800
H  -2.09800 41.70600 31.91500
H  -0.61300 41.70600 32.95600
H  -0.06100 45.56000 32.31200
H  1.46800 45.63900 31.59100
H  1.27500 45.91800 34.23300
H  2.47800 44.78000 33.59100
H  -5.85900 43.73500 28.41700
H  -4.82200 42.65200 29.45700
H  -5.60000 42.02000 28.06600
H  -6.42300 41.24200 26.27900
H  -7.07500 42.14900 24.81400
H  -6.90800 42.99100 26.30600
H  -0.90200 44.25300 22.06400
H  1.94700 43.86900 22.00800
H  -0.63200 42.47800 20.86800
H  -0.91900 41.54100 22.40500
H  0.71300 41.93100 21.65800
H  1.49700 46.54100 23.13800
H  0.14800 46.19100 22.00400
H  1.32500 46.78700 20.35600
H  2.50000 45.46800 20.61600
H  2.76000 47.12100 21.29800
H  5.77100 43.95500 24.89500
H  6.68900 44.22300 26.48800
H  5.79200 45.51000 25.61900
H  4.01400 44.83900 30.97600
H  5.84700 41.32800 33.08000
H  4.08700 41.24100 33.35700
H  5.00200 42.25400 34.39000

