158

Mg 48.66500 35.56100 28.45200
C  46.92000 33.65700 30.68600
C  48.87900 38.16000 30.87500
C  49.86500 37.66900 26.10100
C  47.86000 33.29600 25.91600
N  47.96000 35.87100 30.43700
C  47.40100 34.87300 31.16700
C  47.64300 35.19500 32.64600
C  47.65000 36.78600 32.63000
C  48.21200 37.00500 31.21200
C  46.26600 37.52000 32.71600
C  48.94700 34.58100 33.20500
C  49.31900 34.69400 34.70300
H  48.32100 35.32300 35.74200
N  49.40800 37.50300 28.46800
C  49.43200 38.33900 29.55800
C  50.17200 39.63500 29.16400
C  50.56900 39.43500 27.78800
C  49.97000 38.11100 27.42300
C  50.53100 40.76700 30.08000
C  51.22600 40.44600 26.80600
O  51.53400 40.24900 25.60300
C  51.45500 41.90200 27.24400
N  48.80200 35.51600 26.32500
C  49.37900 36.48900 25.59400
C  49.34600 36.12800 24.14600
C  48.93400 34.62300 24.10500
C  48.51000 34.45900 25.54100
C  48.42700 37.09300 23.35000
C  50.20800 33.75300 23.76500
C  50.71000 33.79800 22.30800
N  47.66100 33.81800 28.25400
C  47.52500 32.93500 27.24600
C  46.90600 31.69300 27.70700
C  46.62200 31.88500 29.10600
C  47.07000 33.23500 29.32100
C  46.51300 30.50200 26.83100
C  46.03900 31.34200 30.32500
O  45.38400 30.29600 30.56900
C  46.09800 32.54400 31.27300
C  46.46200 32.12700 32.61000
O  47.21500 31.23900 32.86900
O  45.70200 32.81400 33.49200
C  45.71200 32.34000 34.92700
H  49.13700 38.91100 31.62400
H  50.21000 38.32400 25.29800
H  47.72100 32.55100 25.13000
H  46.77000 34.85300 33.20200
H  48.24600 37.21600 33.43500
H  46.14600 38.15400 31.83800
H  46.17100 38.04500 33.66600
H  45.41700 36.85800 32.88800
H  49.75900 34.99800 32.60800
H  49.08600 33.53400 32.93700
H  50.27400 35.17600 34.91100
H  49.43400 33.70600 35.14800
H  50.13200 41.76600 29.90300
H  51.60400 40.82800 30.26000
H  50.14700 40.68500 31.09700
H  52.02600 42.44500 26.49000
H  52.13300 41.86200 28.09700
H  50.53700 42.39800 27.56000
H  50.38500 36.17100 23.81900
H  48.17300 34.26400 23.41100
H  47.76300 37.66000 24.00300
H  47.80400 36.52700 22.65800
H  49.09800 37.73400 22.78000
H  49.92700 32.73000 24.01300
H  50.94900 34.10100 24.48400
H  50.45600 34.67000 21.70500
H  50.29500 32.97000 21.73400
H  51.77800 33.59000 22.23600
H  45.82700 30.75700 26.02300
H  46.23200 29.66500 27.46900
H  47.49400 30.25900 26.42200
H  45.04700 32.83100 31.31400
H  45.51300 33.18000 35.59300
H  46.68200 31.90600 35.17000
H  44.92400 31.63900 35.20100
Mg 0.79500 42.10000 26.45200
C  2.28100 42.23600 29.50200
C  -2.23100 41.43700 28.11000
C  -0.68600 41.68000 23.46500
C  3.86300 42.70400 24.94500
N  0.15400 41.83000 28.59800
C  0.89100 42.04200 29.68000
C  0.05200 42.02100 30.92600
C  -1.39400 41.61300 30.56700
C  -1.16400 41.62000 29.01300
C  -1.96900 40.31200 31.26500
C  0.14000 43.39300 31.79500
C  0.07500 43.38300 33.35100
H  -0.35400 42.01200 34.09500
N  -1.09200 41.42300 25.92900
C  -2.18900 41.28900 26.68300
C  -3.27700 40.82400 25.87400
C  -2.90500 41.01000 24.52900
C  -1.50500 41.42800 24.58400
C  -4.63000 40.36000 26.42400
C  -3.79400 40.80600 23.22800
O  -3.36600 40.86700 22.08700
C  -5.23800 40.37200 23.41300
N  1.45700 42.29800 24.50400
C  0.69500 41.98700 23.43600
C  1.32800 42.16500 22.09900
C  2.74700 42.49700 22.51300
C  2.73500 42.62000 24.07900
C  1.24200 40.90500 21.16200
C  3.44700 43.62200 21.76700
C  3.29500 43.63300 20.20700
N  2.72900 42.44300 27.05900
C  3.93600 42.71000 26.35600
C  5.06400 42.77800 27.21400
C  4.41400 42.53200 28.50900
C  3.03200 42.39000 28.32000
C  6.47900 42.86500 26.88700
C  4.71000 42.34900 29.91600
O  5.77200 42.29500 30.51400
C  3.29700 42.27000 30.66900
C  3.37900 41.06600 31.48500
O  3.16100 39.94000 31.13700
O  3.90400 41.36200 32.78700
C  4.17800 40.25300 33.74200
H  -3.22900 41.29100 28.53000
H  -1.24900 41.56800 22.53700
H  4.82400 42.96100 24.49300
H  0.53200 41.17300 31.41400
H  -2.06500 42.45700 30.72900
H  -2.93600 40.61200 31.67000
H  -1.34800 39.96000 32.08900
H  -2.25000 39.62800 30.46500
H  -0.69600 43.98400 31.42100
H  1.09000 43.86600 31.54200
H  -0.69800 44.12500 33.55000
H  1.05200 43.71600 33.70400
H  -5.06000 39.43600 26.03700
H  -5.31100 41.20900 26.36100
H  -4.57300 40.20400 27.50100
H  -5.69900 41.06200 24.12000
H  -5.32900 39.31300 23.65500
H  -5.84100 40.51100 22.51500
H  1.04600 43.13000 21.67800
H  3.43200 41.69600 22.23500
H  0.68500 41.26200 20.29500
H  0.59700 40.21200 21.70200
H  2.16200 40.36600 20.93500
H  4.50100 43.58000 22.04100
H  2.93200 44.46200 22.23100
H  3.08000 44.64600 19.87000
H  2.42300 43.04000 19.93000
H  4.15000 43.24600 19.65400
H  6.86600 41.85100 26.78900
H  7.03300 43.32100 27.70800
H  6.59600 43.41900 25.95600
H  3.18800 43.14900 31.30600
H  5.25600 40.13200 33.84700
H  3.59300 39.35700 33.53200
H  3.72500 40.73400 34.60900

