158

Mg 35.44700 2.52400 30.26100
C  32.83300 3.57400 32.48500
C  37.63200 2.86200 32.83900
C  37.83600 1.96900 28.07500
C  33.03300 2.66800 27.69700
N  35.23000 3.13700 32.38400
C  34.03400 3.30700 33.07000
C  34.31200 3.26400 34.57200
C  35.85200 3.38300 34.62200
C  36.27400 3.04500 33.24500
C  36.39100 4.75400 35.13900
C  33.86300 1.98500 35.26800
C  33.99700 2.08700 36.77800
H  34.60800 3.20900 37.55500
N  37.50600 2.50800 30.43700
C  38.24700 2.58800 31.59500
C  39.63300 2.29900 31.30200
C  39.72300 2.05000 29.88100
C  38.32300 2.17700 29.36500
C  40.67000 2.10000 32.35400
C  40.91900 1.58300 28.99200
O  40.85100 1.44400 27.78000
C  42.27600 1.30000 29.62300
N  35.46400 2.35800 28.15200
C  36.55800 2.03500 27.50600
C  36.32100 1.76900 26.03100
C  34.71800 1.99900 25.93700
C  34.36100 2.32600 27.35000
C  37.14800 2.58300 24.97500
C  34.01700 0.72800 25.37500
C  33.31800 0.90100 23.93500
N  33.30900 2.90500 30.04900
C  32.47000 3.01100 28.94200
C  31.10900 3.38400 29.31800
C  31.26300 3.68700 30.73100
C  32.56500 3.39900 31.09800
C  29.94300 3.55500 28.38500
C  30.55100 4.12500 31.96800
O  29.44500 4.65200 32.02100
C  31.47000 3.88900 33.16000
C  31.51800 5.09100 34.03400
O  31.90900 6.22200 33.72400
O  31.06500 4.78800 35.33700
C  31.00500 5.83200 36.40400
H  38.45400 2.89700 33.55800
H  38.51300 1.46200 27.38400
H  32.34400 2.65900 26.84900
H  33.85200 4.05000 35.17200
H  36.31300 2.57100 35.18500
H  35.65100 5.55000 35.21200
H  37.03100 5.06800 34.31500
H  37.04800 4.52300 35.97700
H  34.62700 1.29500 34.91000
H  32.83600 1.73600 34.99900
H  34.24700 1.07100 37.08500
H  32.94200 2.11300 37.05200
H  40.96500 1.05100 32.36900
H  40.26900 2.29000 33.34900
H  41.58500 2.68700 32.27900
H  42.78800 2.21600 29.92100
H  42.79400 0.68100 28.89200
H  42.19800 0.66900 30.50800
H  36.53500 0.70700 25.91300
H  34.36000 2.80000 25.29000
H  36.59100 3.24100 24.30900
H  37.80500 1.96300 24.36500
H  37.71800 3.23900 25.63300
H  33.31700 0.49800 26.17700
H  34.73200 -0.09400 25.33900
H  32.28100 0.59800 24.08100
H  33.78300 0.17000 23.27300
H  33.38900 1.85900 23.42000
H  29.98700 2.82100 27.58000
H  30.09200 4.54600 27.95700
H  28.99100 3.34900 28.87500
H  31.01800 3.03700 33.66800
H  31.14900 5.41400 37.40000
H  30.04100 6.28500 36.63700
H  31.68700 6.66700 36.24600
Mg 40.91400 9.25000 29.50700
C  42.60400 10.53000 32.32900
C  38.83500 7.73200 31.71800
C  39.39500 7.83800 26.97100
C  43.44100 10.34600 27.50400
N  40.71200 9.21300 31.83200
C  41.46300 9.81600 32.70800
C  40.97500 9.75800 34.15800
C  39.83600 8.70400 33.92300
C  39.78300 8.48100 32.42400
C  40.09100 7.38500 34.66300
C  40.64000 11.07400 34.78700
C  40.12600 10.76300 36.19000
H  40.47700 11.71700 37.28200
N  39.29200 7.94400 29.33900
C  38.58300 7.46600 30.37500
C  37.44000 6.75000 29.83300
C  37.50600 6.88400 28.44600
C  38.80000 7.55300 28.16500
C  36.34200 6.04200 30.64100
C  36.43500 6.44900 27.42300
O  36.67600 6.66500 26.27600
C  35.08500 6.11900 27.79900
N  41.43500 9.01600 27.59800
C  40.60000 8.46400 26.67400
C  41.05500 8.68100 25.25000
C  42.44800 9.37000 25.34800
C  42.44800 9.62400 26.89700
C  41.09900 7.33600 24.36600
C  42.56600 10.61000 24.35500
C  41.87700 11.94100 24.75400
N  42.73500 10.21100 29.79800
C  43.64300 10.66000 28.84700
C  44.69700 11.28800 29.53300
C  44.35000 11.35500 30.93400
C  43.14200 10.60800 31.02900
C  45.71400 11.91200 28.87400
C  44.78800 11.80400 32.24400
O  45.70500 12.45100 32.69000
C  43.66400 11.28800 33.12300
C  44.28000 10.64400 34.32700
O  44.80400 9.54200 34.42300
O  44.13500 11.48700 35.46900
C  44.54700 10.91700 36.76200
H  38.15500 7.13300 32.32700
H  38.72600 7.60100 26.14100
H  44.29200 10.60400 26.87000
H  41.77400 9.26200 34.70900
H  38.89500 9.16500 34.22300
H  39.87500 6.55600 33.99000
H  39.43000 7.27900 35.52300
H  41.10200 7.25700 35.05000
H  39.84600 11.59700 34.25400
H  41.44700 11.77100 35.01200
H  40.53400 9.76700 36.35900
H  39.03600 10.74300 36.16800
H  36.24900 5.09200 30.11400
H  35.46500 6.68400 30.73100
H  36.73700 5.70000 31.59700
H  34.43400 6.29900 26.94400
H  34.67600 6.66400 28.65000
H  35.20500 5.06300 28.04200
H  40.23500 9.28100 24.85600
H  43.19700 8.60500 25.14500
H  41.10800 6.44200 24.98800
H  41.88800 7.27800 23.61700
H  40.13100 7.18400 23.88900
H  42.11800 10.39700 23.38400
H  43.64400 10.75500 24.28900
H  41.01100 12.06700 24.10500
H  42.47400 12.83100 24.56000
H  41.44200 12.01100 25.75100
H  45.44000 12.21700 27.86400
H  46.58300 11.27300 28.71700
H  46.11600 12.78800 29.38300
H  43.17700 12.14800 33.58300
H  45.49900 10.39100 36.68900
H  43.80300 10.47800 37.42600
H  44.77300 11.80500 37.35200

