158

Mg 8.68700 3.48500 27.77700
C  10.18200 2.31700 30.74300
C  6.67800 5.55400 29.83300
C  7.12600 4.26600 25.04300
C  10.67300 1.12300 26.11200
N  8.44800 3.77500 30.05300
C  9.21700 3.22900 31.04900
C  8.76000 3.74700 32.49200
C  7.50800 4.61300 32.20100
C  7.48700 4.63700 30.59500
C  6.11800 4.17000 32.81800
C  9.91200 4.54000 33.28700
C  10.13400 4.10600 34.75200
H  10.74900 5.06000 35.73000
N  7.16000 4.73000 27.49300
C  6.47000 5.55800 28.40100
C  5.52700 6.36200 27.63700
C  5.63400 5.96600 26.26800
C  6.61400 4.94000 26.20400
C  4.61900 7.30200 28.47000
C  4.85200 6.53200 25.06300
O  4.89500 6.17500 23.90000
C  3.78800 7.60600 25.28000
N  8.90400 2.81300 25.81900
C  8.12500 3.32800 24.86300
C  8.40700 2.65100 23.54600
C  9.62900 1.77000 23.86400
C  9.78300 1.90700 25.34300
C  7.27400 1.90200 22.83000
C  11.03800 2.06100 23.14800
C  11.92800 3.21400 23.67600
N  10.21500 2.02200 28.25600
C  10.87400 1.16200 27.46900
C  11.74100 0.31700 28.31300
C  11.61700 0.82400 29.57400
C  10.57700 1.77200 29.51400
C  12.73600 -0.77300 27.74400
C  11.98000 0.67900 30.97300
O  12.81200 -0.04900 31.48200
C  11.09500 1.64500 31.74500
C  10.31100 0.91700 32.77300
O  9.18000 0.46700 32.54600
O  11.03000 0.75500 33.93100
C  10.22400 0.02600 34.87200
H  6.08700 6.28800 30.38500
H  6.70900 4.56300 24.07900
H  11.32600 0.41400 25.59900
H  8.39800 2.88400 33.05100
H  7.63700 5.55600 32.73400
H  6.15600 3.31700 33.49600
H  5.28900 3.93800 32.14900
H  5.67000 4.98300 33.39000
H  9.54900 5.56500 33.20900
H  10.80200 4.51400 32.65900
H  10.77400 3.24700 34.55200
H  9.23800 3.68700 35.21200
H  4.06500 7.96100 27.80200
H  5.18800 8.05100 29.02000
H  3.89200 6.72600 29.04300
H  3.13600 7.37800 26.12300
H  3.21000 7.77600 24.37100
H  4.36300 8.52900 25.35600
H  8.89200 3.41600 22.93900
H  9.41700 0.72800 23.62300
H  6.74000 1.27100 23.54100
H  7.68500 1.17400 22.13100
H  6.56600 2.62700 22.42700
H  10.77900 2.32500 22.12300
H  11.64600 1.15600 23.14900
H  11.47700 3.81800 24.46400
H  12.26800 3.78800 22.81500
H  12.88400 2.86100 24.06300
H  13.34200 -0.31900 26.96000
H  12.09100 -1.54200 27.31800
H  13.39700 -1.21200 28.49000
H  11.76000 2.36300 32.22400
H  10.82700 -0.11600 35.76900
H  9.97600 -0.92800 34.40500
H  9.27800 0.53600 35.05100
Mg 9.25700 47.90000 25.70300
C  6.75900 48.16400 28.08500
C  11.38300 49.43900 27.98800
C  11.64200 47.50600 23.55400
C  6.82900 47.23700 23.27700
N  9.04800 48.81200 27.68200
C  8.01100 48.55100 28.53600
C  8.36400 48.88800 30.05800
C  9.72900 49.62700 29.85800
C  10.07800 49.26800 28.39900
C  9.75600 51.06100 30.24300
C  8.44500 47.68000 31.04100
C  9.17800 47.68700 32.33300
H  8.56500 47.08800 33.55500
N  11.29700 48.32700 25.80800
C  11.99900 48.97200 26.78100
C  13.34600 49.12600 26.34300
C  13.51900 48.43200 25.10000
C  12.11200 48.03800 24.77600
C  14.43800 49.87000 27.16300
C  14.65700 48.19200 24.18900
O  14.54600 47.74300 23.04000
C  16.02000 48.38200 24.68700
N  9.23900 47.62800 23.71100
C  10.37900 47.37500 23.07400
C  10.21700 47.04700 21.58300
C  8.68300 46.96100 21.49700
C  8.19700 47.30600 22.93300
C  10.85800 48.08300 20.55100
C  8.03800 45.61600 21.08900
C  8.63900 44.33800 21.75100
N  7.17500 47.66800 25.65400
C  6.32300 47.33300 24.56200
C  4.97400 47.31200 25.12800
C  5.11900 47.57800 26.47400
C  6.47400 47.81800 26.78000
C  3.76200 47.05600 24.34000
C  4.33400 47.78600 27.68000
O  3.13200 47.80900 27.84600
C  5.37200 48.15500 28.79400
C  5.32800 47.11000 29.79800
O  5.84800 45.99300 29.68800
O  4.59900 47.56900 30.85900
C  4.47200 46.73000 32.11200
H  12.06500 49.88300 28.71600
H  12.37000 47.26800 22.77500
H  6.13200 46.97800 22.47700
H  7.54400 49.55800 30.31800
H  10.46400 49.26300 30.57700
H  10.40300 51.59300 29.54600
H  10.21300 51.25400 31.21300
H  8.81600 51.60600 30.15800
H  8.99100 46.94800 30.44600
H  7.44200 47.33200 31.28700
H  9.33000 48.76300 32.41700
H  10.16600 47.25000 32.18500
H  13.91700 50.49700 27.88600
H  15.04300 50.48600 26.49800
H  15.21100 49.25500 27.62400
H  16.77600 48.18400 23.92800
H  16.24300 47.75200 25.54800
H  16.07000 49.44700 24.91700
H  10.78900 46.12000 21.62500
H  8.30200 47.78100 20.88900
H  11.46500 48.85100 21.02900
H  10.21200 48.63300 19.86700
H  11.47600 47.47200 19.89300
H  8.23400 45.63600 20.01700
H  6.95200 45.68900 21.14500
H  7.84500 43.87800 22.34000
H  9.57100 44.35200 22.31700
H  8.86100 43.72500 20.87800
H  3.93400 47.38700 23.31600
H  2.90100 47.59500 24.73400
H  3.50100 46.00000 24.26700
H  5.20600 49.14700 29.21400
H  4.47200 45.67000 31.85800
H  3.54200 46.93500 32.64100
H  5.36400 46.94300 32.70100

