158

Mg 54.14600 23.12900 44.92200
C  51.70300 25.41100 43.61200
C  52.26000 20.55000 43.74200
C  56.66600 21.09700 45.36400
C  56.04700 25.89900 45.84600
N  52.16000 23.06900 43.76700
C  51.29400 24.09900 43.39600
C  50.24900 23.51500 42.50000
C  50.22500 22.03200 43.07500
C  51.65300 21.82900 43.47800
C  49.22600 21.91000 44.31800
C  50.46000 23.62400 40.93900
C  49.28100 24.10300 40.05900
H  49.02700 23.44900 38.62800
N  54.47000 21.05900 44.57000
C  53.52900 20.12700 44.16300
C  54.06900 18.78700 44.19800
C  55.44100 18.91000 44.53600
C  55.61200 20.37500 44.87400
C  53.32000 17.50500 43.84800
C  56.43600 17.85000 44.58000
O  56.18800 16.66400 44.35300
C  57.81800 18.11700 44.84400
N  56.16200 23.48900 45.32900
C  56.94800 22.43800 45.59600
C  58.31400 22.83400 46.16600
C  58.21000 24.38900 46.22600
C  56.69700 24.63100 45.83900
C  58.68700 22.23600 47.51900
C  59.25200 25.06500 45.28300
C  60.65400 25.34200 45.92400
N  53.92900 25.15000 44.91500
C  54.73600 26.16600 45.41400
C  54.08900 27.47600 45.29900
C  52.91400 27.19200 44.55000
C  52.84600 25.77700 44.36500
C  54.74100 28.83700 45.70000
C  51.75400 27.75400 43.88600
O  51.38200 28.95800 43.81100
C  50.92400 26.59700 43.26100
C  51.00900 26.93400 41.79400
O  52.01500 26.90000 41.05500
O  49.83400 27.47800 41.35200
C  49.81300 28.26700 40.12800
H  51.60100 19.74000 43.42200
H  57.58400 20.52800 45.52500
H  56.68600 26.74200 46.11500
H  49.29900 24.03100 42.63900
H  50.01800 21.24500 42.35000
H  48.75600 22.86700 44.54500
H  49.65400 21.56900 45.26000
H  48.40800 21.33100 43.89100
H  50.81000 22.66300 40.56300
H  51.27500 24.32100 40.74100
H  49.32100 25.17300 39.85300
H  48.41300 23.97200 40.70500
H  53.58400 17.25600 42.82000
H  52.25100 17.69000 43.95200
H  53.52600 16.65200 44.49600
H  58.10600 18.98300 44.24800
H  58.30100 17.19700 44.51400
H  57.94700 18.27000 45.91500
H  59.08800 22.46800 45.49200
H  58.30200 24.74900 47.25000
H  58.06000 21.41900 47.87600
H  58.55600 22.90300 48.37200
H  59.69000 21.81500 47.45700
H  58.74500 25.98100 44.98200
H  59.37600 24.48300 44.36900
H  61.46500 25.05400 45.25600
H  60.70200 24.80300 46.87000
H  60.76100 26.41600 46.08100
H  55.82600 28.83400 45.60100
H  54.37600 29.14200 46.68000
H  54.33200 29.59400 45.03100
H  49.90000 26.69600 43.62000
H  49.15100 29.13300 40.14800
H  49.36600 27.68600 39.32100
H  50.79600 28.64200 39.84300
Mg 35.75000 48.96500 25.76000
C  36.29900 47.01500 28.67700
C  34.44500 51.40600 27.73800
C  34.65700 50.49700 22.96500
C  36.75200 46.24800 23.94500
N  35.40000 49.17200 28.01600
C  35.74800 48.24800 29.02400
C  35.45600 48.82500 30.45800
C  34.73400 50.20000 30.08900
C  34.87800 50.29200 28.52600
C  33.26100 50.27700 30.57300
C  36.74300 48.91900 31.31000
C  36.79800 48.24200 32.62400
H  37.04100 49.21500 33.73200
N  34.83000 50.86800 25.36200
C  34.47300 51.72000 26.33000
C  33.93300 52.88800 25.64300
C  33.85900 52.68200 24.25600
C  34.42700 51.29600 24.09200
C  33.33400 54.06800 26.43700
C  33.22400 53.53300 23.18000
O  33.20200 53.16000 21.99400
C  32.76300 54.92700 23.57600
N  35.77000 48.50700 23.75100
C  35.30700 49.28100 22.79700
C  35.56200 48.73600 21.41900
C  36.42600 47.41600 21.69800
C  36.38000 47.39900 23.28200
C  34.19600 48.38100 20.79800
C  37.98300 47.50700 21.16900
C  38.54500 46.36700 20.46000
N  36.46600 47.03400 26.16300
C  36.80300 46.02700 25.31900
C  37.15100 44.93700 26.08200
C  36.98000 45.23800 27.43700
C  36.57100 46.53100 27.40100
C  37.52800 43.59700 25.50600
C  37.03700 44.71600 28.80700
O  37.33600 43.65000 29.29400
C  36.50000 45.83900 29.62900
C  35.20100 45.29600 30.36300
O  34.05400 45.25400 29.94800
O  35.59500 45.19000 31.68400
C  34.63100 44.64200 32.62400
H  34.09000 52.24100 28.34400
H  34.47400 51.05700 22.04600
H  37.16200 45.43300 23.34400
H  34.84200 48.05800 30.93000
H  35.36000 50.99200 30.50000
H  33.12900 49.47800 31.30300
H  32.58700 50.07900 29.73900
H  33.12600 51.20000 31.13600
H  36.96700 49.98000 31.41800
H  37.52300 48.49100 30.68000
H  37.52800 47.43300 32.65700
H  35.89600 47.64800 32.76400
H  33.81100 55.04600 26.37200
H  33.26900 53.86400 27.50600
H  32.32500 54.17100 26.03900
H  33.53300 55.30400 24.24900
H  31.84200 54.91000 24.15800
H  32.53600 55.43200 22.63700
H  36.08800 49.51200 20.86300
H  35.94900 46.51700 21.30800
H  33.29200 48.43000 21.40600
H  34.22900 47.42500 20.27500
H  34.01500 49.04700 19.95400
H  38.60100 47.79900 22.01800
H  38.05600 48.44100 20.61200
H  37.85500 45.54400 20.26900
H  39.32900 45.97600 21.10800
H  38.88700 46.69600 19.47800
H  37.56800 42.82500 26.27400
H  38.53300 43.62000 25.08400
H  36.87400 43.29500 24.68700
H  37.18800 46.14200 30.41800
H  34.01300 45.43600 33.04400
H  35.10900 44.19900 33.49700
H  33.89800 43.99700 32.13800

