158

Mg -1.41600 16.73000 26.12400
C  -1.85400 14.64000 28.84600
C  -2.43600 19.31400 27.96400
C  -1.63800 18.57400 23.33700
C  -1.46400 13.80900 23.99500
N  -2.14000 16.89000 28.11300
C  -2.15100 15.96700 29.11300
C  -2.48600 16.55300 30.50000
C  -3.01100 17.98400 30.09100
C  -2.62300 18.10600 28.59500
C  -4.50700 18.17300 30.35600
C  -1.27400 16.45500 31.52700
C  -1.12600 17.41700 32.66000
H  -0.65500 16.71400 33.92300
N  -1.59000 18.73700 25.70600
C  -1.98100 19.67400 26.65600
C  -1.83200 21.00300 26.02800
C  -1.54400 20.78000 24.62500
C  -1.58300 19.30600 24.51100
C  -1.92600 22.37600 26.84600
C  -1.30500 21.77300 23.50300
O  -1.06700 21.37200 22.34300
C  -1.22200 23.28600 23.70700
N  -1.61500 16.27500 24.05800
C  -1.52500 17.26200 23.09400
C  -1.51500 16.67900 21.67400
C  -1.28600 15.16700 21.92300
C  -1.50000 15.02300 23.42100
C  -2.92700 16.95500 20.90200
C  0.20700 14.64000 21.57800
C  1.37000 15.50300 22.17600
N  -1.53200 14.63900 26.33400
C  -1.55500 13.60500 25.39700
C  -1.47500 12.40700 26.06100
C  -1.52400 12.72700 27.43400
C  -1.64000 14.11000 27.55900
C  -1.48400 11.05400 25.55400
C  -1.69000 12.19500 28.78300
O  -1.74800 11.07100 29.17800
C  -1.74600 13.42400 29.80900
C  -0.56700 13.47300 30.71500
O  0.46100 14.00500 30.42400
O  -0.90700 12.87100 31.93700
C  0.04600 12.91000 33.04500
H  -2.70000 20.17200 28.58600
H  -1.64800 19.03300 22.34600
H  -1.24200 12.87300 23.47900
H  -3.27900 15.90500 30.87300
H  -2.35000 18.73200 30.52800
H  -4.98400 17.19400 30.40700
H  -4.87400 18.83000 29.56700
H  -4.68700 18.52000 31.37300
H  -0.38100 16.46500 30.90200
H  -1.36300 15.47800 32.00200
H  -2.02000 18.00900 32.85800
H  -0.34800 18.15900 32.48000
H  -0.98600 22.92400 26.78100
H  -2.17900 22.21000 27.89300
H  -2.60800 23.01400 26.28400
H  -2.11600 23.70400 24.17000
H  -1.09700 23.80400 22.75600
H  -0.34000 23.55100 24.28900
H  -0.67800 17.17200 21.18000
H  -1.95000 14.43600 21.46100
H  -3.43000 15.99300 20.79600
H  -2.68000 17.42400 19.95000
H  -3.45900 17.67200 21.52700
H  0.21900 14.74600 20.49300
H  0.27500 13.57700 21.80900
H  1.65600 16.13400 21.33500
H  2.23600 14.94200 22.52700
H  1.14800 16.13400 23.03600
H  -2.37200 10.58200 25.97400
H  -0.72800 10.50200 26.11100
H  -1.42800 10.98600 24.46700
H  -2.72500 13.40000 30.28800
H  0.28900 13.95000 33.26000
H  1.02300 12.51500 32.76500
H  -0.38300 12.48300 33.95100
Mg -11.05800 17.17500 43.02100
C  -7.67000 17.88900 43.35900
C  -11.58000 20.45000 42.44600
C  -14.07300 16.26000 41.85100
C  -10.15800 13.67700 42.87300
N  -9.73200 18.89300 42.87900
C  -8.39900 19.02400 43.18900
C  -7.89900 20.43400 42.98800
C  -9.27000 21.24000 43.21800
C  -10.28600 20.15300 42.89800
C  -9.46200 21.76100 44.64600
C  -7.18100 20.69100 41.65700
C  -5.63200 20.98300 41.75100
H  -5.15900 21.57100 40.44900
N  -12.69500 18.21800 42.35500
C  -12.68100 19.55100 42.17200
C  -13.97500 19.92800 41.69700
C  -14.77300 18.72800 41.63700
C  -13.82900 17.67600 41.92000
C  -14.45500 21.37700 41.49600
C  -16.30900 18.60600 41.14400
O  -16.92100 19.61800 40.76400
C  -16.85700 17.27500 40.81600
N  -11.95800 15.22400 42.34400
C  -13.29000 15.17600 42.14300
C  -13.74900 13.68200 42.09200
C  -12.42000 12.96000 41.95500
C  -11.40700 14.03500 42.44300
C  -14.60700 13.28300 43.37700
C  -12.03600 12.50500 40.45400
C  -12.30500 11.05800 39.94200
N  -9.36500 15.99400 43.28100
C  -9.14700 14.60700 43.28200
C  -7.73000 14.30200 43.65900
C  -7.13100 15.56300 43.63600
C  -8.14600 16.59300 43.47100
C  -7.04200 12.99100 43.83000
C  -5.83400 16.18400 43.72900
O  -4.66500 15.80500 43.82800
C  -6.21000 17.77000 43.76900
C  -5.90800 18.40900 45.06900
O  -6.50900 18.24500 46.15400
O  -4.92800 19.27600 44.87000
C  -4.56200 19.96700 46.05100
H  -11.71100 21.51800 42.26100
H  -15.10200 15.89600 41.80700
H  -9.94100 12.60800 42.84000
H  -7.23700 20.67200 43.82000
H  -9.28700 22.08400 42.52900
H  -9.94200 22.74000 44.63400
H  -8.54000 21.99200 45.18000
H  -10.02200 21.16100 45.36200
H  -7.64700 21.55300 41.18000
H  -7.31900 19.79600 41.05000
H  -5.05900 20.06000 41.84200
H  -5.27900 21.61900 42.56200
H  -13.62500 22.02900 41.76600
H  -15.36500 21.62800 42.04100
H  -14.67900 21.46600 40.43300
H  -16.31500 16.69300 40.07000
H  -17.88300 17.37900 40.46100
H  -16.95900 16.61300 41.67600
H  -14.29900 13.47200 41.17500
H  -12.27100 12.10900 42.62000
H  -13.99100 12.62500 43.99000
H  -15.47600 12.66800 43.14300
H  -14.84100 14.22800 43.86800
H  -11.03500 12.84000 40.18500
H  -12.73700 13.03200 39.80700
H  -11.44000 10.67400 39.40300
H  -13.16900 11.06400 39.27700
H  -12.50300 10.43400 40.81400
H  -7.61000 12.14600 43.43900
H  -6.96000 12.84200 44.90600
H  -6.06100 12.89000 43.36500
H  -5.62900 18.21500 42.96100
H  -3.51500 20.24200 45.92500
H  -4.60600 19.43900 47.00400
H  -5.27100 20.79200 46.12500

