158

Mg 1.82700 -2.64100 44.34800
C  5.39700 -2.47000 43.82800
C  1.60000 0.19900 42.33900
C  -1.33500 -3.32700 44.05200
C  2.38600 -5.86900 45.71600
N  3.44100 -1.26700 43.26100
C  4.83900 -1.42700 43.14000
C  5.41000 -0.36800 42.15700
C  4.17400 0.50900 41.75200
C  2.94200 -0.19400 42.50100
C  4.31800 2.03700 42.05300
C  6.27600 -1.02900 40.94100
C  7.62900 -0.43000 40.58500
H  7.68800 0.86600 39.83000
N  0.22800 -1.61600 43.51300
C  0.38400 -0.43300 42.78000
C  -0.94000 0.03000 42.43800
C  -1.91000 -0.94100 42.83400
C  -1.03100 -1.97500 43.54000
C  -1.03500 1.44200 41.87300
C  -3.39900 -0.87700 42.66300
O  -3.96800 0.04200 42.10000
C  -4.30500 -1.79900 43.30000
N  0.75100 -4.35900 44.84000
C  -0.58100 -4.34600 44.67600
C  -1.16100 -5.67200 45.16600
C  0.04700 -6.57900 45.46600
C  1.11400 -5.57400 45.34000
C  -2.28700 -5.45100 46.32800
C  0.23900 -7.79300 44.52700
C  0.65800 -9.15000 45.28900
N  3.48200 -3.83600 44.93600
C  3.57400 -5.13000 45.35800
C  4.97000 -5.49900 45.59400
C  5.65800 -4.42700 45.13500
C  4.74900 -3.49300 44.55000
C  5.44400 -6.81200 46.15600
C  7.04500 -4.03800 44.91500
O  8.02000 -4.56500 45.23000
C  6.92500 -2.78200 43.85800
C  7.68900 -1.59100 44.31700
O  7.30600 -0.64300 44.97000
O  8.98200 -1.63100 43.80300
C  9.77700 -0.43700 43.91200
H  1.51400 1.04500 41.65500
H  -2.35700 -3.67900 43.89700
H  2.55200 -6.87600 46.10300
H  6.09300 0.28400 42.70200
H  3.84600 0.48700 40.71300
H  5.33800 2.29600 42.33700
H  3.61700 2.28000 42.85100
H  3.99800 2.63200 41.19800
H  5.64200 -1.02900 40.05400
H  6.46600 -2.07800 41.16700
H  8.12200 -1.18300 39.97000
H  8.27600 -0.30100 41.45200
H  -2.07100 1.64100 41.59800
H  -0.46300 1.42000 40.94600
H  -0.54100 2.18100 42.50500
H  -5.37900 -1.65200 43.19000
H  -3.91800 -1.98400 44.30300
H  -4.13500 -2.70700 42.72100
H  -1.64800 -6.04800 44.26600
H  0.00400 -6.90800 46.50400
H  -2.67100 -4.44000 46.19000
H  -1.86300 -5.35400 47.32700
H  -3.01600 -6.25100 46.19800
H  1.05500 -7.58700 43.83400
H  -0.69900 -8.01200 44.01700
H  -0.11800 -9.91500 45.24700
H  0.84600 -9.14300 46.36200
H  1.60500 -9.44200 44.83500
H  5.57700 -6.75400 47.23600
H  6.44800 -7.02400 45.78800
H  4.71200 -7.58000 45.90900
H  7.26000 -3.07700 42.86300
H  10.32900 -0.44900 44.85200
H  9.15800 0.45500 43.82500
H  10.61300 -0.46900 43.21200
Mg 0.54700 43.28400 25.89900
C  2.56300 43.73200 28.71700
C  -1.92500 42.06200 27.95300
C  -1.15100 42.38100 23.19600
C  3.26000 44.29600 23.92800
N  0.41600 43.03800 28.07400
C  1.26700 43.37800 29.03900
C  0.62600 43.32600 30.42800
C  -0.85200 42.79000 30.10900
C  -0.82200 42.63600 28.59200
C  -1.37700 41.57000 30.84800
C  0.67900 44.65100 31.16900
C  0.95100 44.52700 32.69400
H  0.84400 43.21500 33.34900
N  -1.30100 42.39300 25.63000
C  -2.14500 42.00800 26.59200
C  -3.26100 41.23100 26.00500
C  -3.02900 41.31400 24.59200
C  -1.78700 42.09100 24.42400
C  -4.38100 40.58600 26.84500
C  -3.86500 40.78000 23.50600
O  -3.47100 40.96400 22.35000
C  -5.16600 40.03000 23.76000
N  0.92100 43.42000 23.83300
C  0.10500 42.91100 22.89300
C  0.75100 43.09100 21.48300
C  2.05400 43.86900 21.70000
C  2.11800 43.89100 23.24200
C  1.03200 41.71800 20.75300
C  2.13700 45.25000 20.97900
C  1.86800 46.52500 21.86700
N  2.50700 43.92000 26.23800
C  3.50800 44.23500 25.30900
C  4.77200 44.31100 26.03000
C  4.39700 44.11800 27.38600
C  3.00600 43.93400 27.45200
C  6.13400 44.62800 25.43000
C  4.96300 43.98100 28.63900
O  6.15300 43.88900 28.88200
C  3.80900 43.82200 29.58300
C  3.93700 42.57000 30.38800
O  3.50800 41.48200 29.95400
O  4.34100 42.80100 31.70800
C  4.58000 41.58300 32.53700
H  -2.73600 41.86500 28.65600
H  -1.56700 42.15700 22.21100
H  4.17200 44.47200 23.35300
H  1.24400 42.62300 30.98700
H  -1.56800 43.60000 30.24700
H  -0.59200 41.05900 31.40500
H  -1.67100 40.85200 30.08200
H  -2.26800 41.81800 31.42500
H  -0.25200 45.19600 31.00800
H  1.48400 45.24600 30.73900
H  0.23700 45.22100 33.13700
H  1.93500 44.97600 32.83300
H  -4.77400 41.12100 27.71000
H  -4.17700 39.52800 27.00800
H  -5.28100 40.59500 26.23000
H  -5.45000 39.52000 22.84000
H  -5.91800 40.72000 24.14400
H  -5.25200 39.24400 24.51000
H  0.00700 43.59200 20.86500
H  2.94700 43.30400 21.43500
H  1.06300 40.92500 21.50100
H  2.01600 41.73200 20.28500
H  0.33100 41.33200 20.01300
H  1.37000 45.14200 20.21100
H  3.10000 45.41100 20.49500
H  1.67400 47.30000 21.12600
H  2.71900 46.79200 22.49300
H  0.95900 46.43500 22.46200
H  6.09300 44.62700 24.34100
H  6.75100 43.78600 25.74400
H  6.59200 45.52800 25.84100
H  3.82000 44.69600 30.23400
H  5.65700 41.41700 32.51000
H  4.08600 40.63400 32.33100
H  4.37900 41.82000 33.58200

