158

Mg 16.96500 -1.68200 28.12200
C  15.96700 0.79500 30.36500
C  18.89200 -3.11800 30.52000
C  18.49600 -3.47200 25.66000
C  15.44500 0.28800 25.46700
N  17.22400 -1.26000 30.24700
C  16.62500 -0.25800 30.95000
C  16.91500 -0.42800 32.48800
C  18.15000 -1.43500 32.41500
C  18.06500 -2.01000 30.97600
C  19.57400 -0.78900 32.67000
C  15.72500 -1.00000 33.32400
C  15.78100 -0.56400 34.83500
H  17.09000 -0.10900 35.50200
N  18.31100 -3.23200 28.11100
C  18.99700 -3.65500 29.21600
C  19.87400 -4.67600 28.75500
C  19.71600 -4.87600 27.35400
C  18.84900 -3.80000 26.97100
C  20.83200 -5.42600 29.67400
C  20.37100 -5.89000 26.36900
O  20.27900 -5.88500 25.16700
C  21.14700 -7.02900 26.95300
N  16.95500 -1.57800 25.92900
C  17.66700 -2.45100 25.17700
C  17.44200 -2.20700 23.68600
C  16.31400 -1.12700 23.70000
C  16.22700 -0.79000 25.17800
C  18.74500 -1.74400 22.95900
C  14.99400 -1.60500 23.04500
C  14.02200 -2.28400 23.99300
N  15.84900 0.15500 27.87300
C  15.23800 0.77200 26.78800
C  14.48200 1.95000 27.25600
C  14.82800 2.01200 28.65900
C  15.61100 0.91400 28.98600
C  13.76300 2.80200 26.29200
C  14.64400 2.74800 29.83400
O  14.09800 3.86400 29.99600
C  15.15900 1.85900 31.06000
C  15.96400 2.82800 31.79200
O  16.86300 3.43900 31.28800
O  15.39200 3.04700 33.09000
C  16.12400 3.92700 33.95400
H  19.46100 -3.57200 31.33500
H  19.04600 -3.95700 24.85100
H  15.04700 0.90300 24.65700
H  17.25600 0.47700 32.99100
H  18.05800 -2.20000 33.18600
H  20.09900 -1.56200 33.23100
H  19.53700 0.16700 33.19200
H  20.10700 -0.69000 31.72500
H  15.71800 -2.08300 33.19900
H  14.82000 -0.56600 32.89700
H  15.43800 -1.46100 35.34900
H  15.05900 0.23200 35.01800
H  21.86300 -5.33800 29.33000
H  20.62600 -6.47900 29.86600
H  20.79100 -4.93100 30.64400
H  20.48700 -7.56400 27.63600
H  22.02000 -6.62700 27.46800
H  21.40500 -7.73700 26.16500
H  17.04500 -3.15100 23.31300
H  16.63500 -0.22600 23.17700
H  18.56500 -1.28300 21.98800
H  19.41400 -2.59100 22.81000
H  19.21900 -0.87200 23.41100
H  15.31300 -2.27700 22.24900
H  14.48800 -0.73200 22.63200
H  13.24300 -1.58200 24.29100
H  14.52600 -2.66000 24.88300
H  13.61700 -3.14600 23.46300
H  13.72900 2.47300 25.25400
H  14.45100 3.64600 26.25600
H  12.81300 3.13900 26.70800
H  14.36300 1.53000 31.72800
H  16.18800 3.49000 34.95000
H  15.59100 4.87700 34.00600
H  17.13200 4.12500 33.59000
Mg 1.27800 41.16200 26.74400
C  3.28000 41.99300 29.41300
C  -1.09700 40.06000 29.02200
C  -0.66000 40.26900 24.06900
C  3.82800 42.10200 24.54900
N  1.05700 41.13300 28.97200
C  2.00900 41.52800 29.84300
C  1.52300 41.62200 31.21300
C  0.21000 40.77600 31.16600
C  -0.02000 40.70300 29.64600
C  0.41000 39.38600 31.74600
C  1.27500 43.14000 31.66500
C  1.82600 43.46000 33.03200
H  1.58900 42.39800 34.12800
N  -0.60000 40.27600 26.55700
C  -1.41100 39.80600 27.60500
C  -2.45100 38.90600 27.02200
C  -2.27600 38.97700 25.58200
C  -1.11100 39.90300 25.36700
C  -3.37900 38.16500 27.91300
C  -3.03600 38.14300 24.49800
O  -2.79600 38.19400 23.28100
C  -4.19000 37.22700 24.99800
N  1.41600 41.41300 24.65200
C  0.49500 41.01000 23.78700
C  0.99800 41.30700 22.35600
C  2.43400 41.91500 22.52100
C  2.56300 41.80100 24.00300
C  0.96700 40.06900 21.34900
C  2.67200 43.35800 22.01400
C  2.18900 44.54600 22.86700
N  3.18400 41.91800 26.87700
C  4.17000 42.18400 25.94000
C  5.29300 42.79600 26.56600
C  5.02100 42.67100 27.95000
C  3.71000 42.17100 28.11100
C  6.51100 43.40600 25.95200
C  5.64600 42.78100 29.24100
O  6.79000 43.06100 29.56400
C  4.48600 42.38300 30.24700
C  4.91700 41.15000 30.99300
O  5.04100 39.94700 30.63100
O  5.24100 41.47600 32.26800
C  5.35900 40.40500 33.17600
H  -1.81600 39.53200 29.65300
H  -1.36400 40.01400 23.27400
H  4.61600 42.37700 23.84500
H  2.33800 41.12100 31.73500
H  -0.57800 41.23800 31.76000
H  -0.38100 38.95300 32.35900
H  1.32800 39.33000 32.33100
H  0.55600 38.66000 30.94600
H  0.18700 43.19000 31.70300
H  1.73800 43.82800 30.95700
H  1.47700 44.44400 33.34700
H  2.89500 43.65200 32.94100
H  -3.45100 37.07900 27.84400
H  -4.36500 38.51800 27.61200
H  -3.35200 38.60600 28.90900
H  -3.87100 36.30500 25.48300
H  -4.77100 36.97700 24.11000
H  -4.76000 37.95900 25.57000
H  0.32100 42.06100 21.95500
H  3.14300 41.20900 22.08900
H  0.43400 39.16700 21.64900
H  1.98300 39.70700 21.19400
H  0.46900 40.42300 20.44600
H  2.22500 43.45700 21.02500
H  3.75900 43.44200 22.02800
H  3.03400 45.09200 23.28800
H  1.65400 44.21600 23.75800
H  1.56200 45.23400 22.30100
H  6.35200 43.75700 24.93200
H  7.36300 42.73700 26.07700
H  6.87300 44.22700 26.57000
H  4.38700 43.25700 30.89100
H  6.32600 39.90700 33.11500
H  4.56700 39.65600 33.14200
H  5.29400 40.85500 34.16700

