158

Mg 23.78700 -5.26900 45.95200
C  26.05800 -2.93900 44.45500
C  21.48400 -4.26800 43.65000
C  21.96100 -7.88300 46.89100
C  26.63700 -6.66900 47.64300
N  23.80100 -3.74300 44.36000
C  24.79800 -2.88500 43.84700
C  24.31100 -2.19600 42.54100
C  22.80800 -2.43800 42.54300
C  22.65800 -3.56800 43.62500
C  21.96800 -1.15800 42.86400
C  25.04600 -2.74200 41.26000
C  25.89900 -1.88000 40.33500
H  25.62700 -1.81200 38.82000
N  21.88000 -5.96400 45.34800
C  21.06800 -5.32100 44.46500
C  19.77900 -6.01400 44.49500
C  19.91200 -7.08000 45.50200
C  21.28000 -7.04300 45.98200
C  18.57400 -5.61200 43.76300
C  18.73000 -8.00800 45.90200
O  17.60600 -7.97400 45.36900
C  18.86100 -9.02300 46.98700
N  24.15500 -6.92400 47.18400
C  23.20500 -7.88900 47.40100
C  23.77500 -9.01900 48.32700
C  25.28300 -8.58400 48.57200
C  25.33200 -7.27700 47.81700
C  22.90200 -9.32500 49.60000
C  26.37400 -9.66700 48.20100
C  27.59600 -9.46400 49.06200
N  25.84500 -4.83500 46.20600
C  26.83300 -5.47700 46.96800
C  28.08700 -4.80900 46.73400
C  27.87000 -3.83100 45.80500
C  26.49300 -3.84300 45.47200
C  29.31100 -5.21600 47.39600
C  28.46000 -2.81900 45.02300
O  29.60100 -2.32900 45.03300
C  27.33600 -2.21100 44.08200
C  27.27300 -0.74400 44.09200
O  26.80400 -0.09100 45.01600
O  27.76900 -0.24000 42.90600
C  27.78800 1.24000 42.80500
H  20.69500 -3.87100 43.00800
H  21.29400 -8.69200 47.19500
H  27.53500 -7.09100 48.09800
H  24.52200 -1.13500 42.67500
H  22.41700 -2.78400 41.58600
H  21.61800 -1.36900 43.87500
H  21.23300 -1.10800 42.06100
H  22.54700 -0.27000 43.12000
H  24.32900 -3.43200 40.81600
H  25.76700 -3.46900 41.63500
H  26.89600 -2.31800 40.36300
H  25.82800 -0.85300 40.69500
H  17.77400 -5.26100 44.41400
H  18.16200 -6.47300 43.23600
H  18.85800 -4.82100 43.06900
H  19.30500 -8.57500 47.87600
H  19.38600 -9.91300 46.63900
H  17.87500 -9.34600 47.32000
H  23.66000 -9.95000 47.77200
H  25.37800 -8.22400 49.59600
H  21.95400 -8.83300 49.37900
H  23.33000 -8.96800 50.53700
H  22.73200 -10.40100 49.62300
H  26.68700 -9.65300 47.15700
H  25.99000 -10.63700 48.51600
H  27.63100 -10.14500 49.91200
H  27.58300 -8.49600 49.56200
H  28.52800 -9.60900 48.51500
H  29.17400 -5.37200 48.46600
H  30.09900 -4.46300 47.36100
H  29.59500 -6.13000 46.87500
H  27.70900 -2.50200 43.10100
H  28.66600 1.62800 42.28900
H  27.75900 1.67900 43.80200
H  26.98700 1.57900 42.14700
Mg 16.84300 52.24800 26.44100
C  18.53800 50.72400 29.20600
C  14.35300 53.15600 28.51200
C  15.07100 53.20500 23.73200
C  19.32900 50.74900 24.32700
N  16.60900 52.09000 28.56500
C  17.44500 51.49200 29.51300
C  17.00100 51.94100 30.91900
C  15.53600 52.43600 30.72000
C  15.49900 52.61600 29.18600
C  14.37900 51.58600 31.23700
C  18.01500 52.86000 31.58000
C  18.27500 52.55000 33.08600
H  17.29000 51.50700 33.79100
N  15.08500 53.18800 26.18900
C  14.18000 53.49300 27.15000
C  13.07800 54.25600 26.59200
C  13.24300 54.28900 25.16100
C  14.53800 53.56800 24.97700
C  11.81900 54.65700 27.32000
C  12.45400 54.86500 24.05500
O  12.80700 54.81800 22.85900
C  11.03700 55.46600 24.30000
N  17.19600 52.02900 24.39300
C  16.29200 52.55000 23.45400
C  16.77900 52.35400 22.04200
C  18.17700 51.60600 22.21200
C  18.26100 51.47500 23.76000
C  15.78200 51.53500 21.21700
C  19.41900 52.18200 21.54300
C  20.05800 53.49300 22.19100
N  18.53600 50.94900 26.57300
C  19.44800 50.42300 25.65500
C  20.40100 49.55900 26.27200
C  20.00500 49.59200 27.65100
C  19.00300 50.53800 27.83400
C  21.52900 48.77500 25.70200
C  20.43600 49.14200 28.98600
O  21.23600 48.33400 29.40200
C  19.56600 49.94800 30.03200
C  18.89200 49.05500 31.05300
O  17.82900 48.50300 30.89100
O  19.78900 48.80100 32.05100
C  19.43400 47.82600 33.07800
H  13.58100 53.36600 29.25600
H  14.52200 53.53500 22.84700
H  19.84600 50.27700 23.48900
H  17.02500 50.96900 31.41200
H  15.50300 53.38600 31.25400
H  14.74600 50.65500 31.66900
H  13.61200 51.37900 30.49100
H  13.83000 52.19000 31.96000
H  17.69900 53.87300 31.33400
H  18.94900 52.66000 31.05400
H  18.30000 53.54100 33.53900
H  19.29200 52.17300 33.19600
H  11.06800 53.89700 27.10400
H  11.42400 55.57400 26.88400
H  12.03400 54.81700 28.37700
H  11.11600 56.40600 24.84500
H  10.57500 54.70300 24.92600
H  10.37700 55.59400 23.44200
H  17.07200 53.27400 21.53600
H  18.05300 50.58000 21.86700
H  14.90100 52.05400 20.83800
H  15.39200 50.73200 21.84300
H  16.19900 51.25100 20.25100
H  19.10300 52.41900 20.52700
H  20.11900 51.35500 21.42700
H  19.40700 54.15400 22.76400
H  20.51600 54.05500 21.37700
H  20.88600 53.26900 22.86300
H  21.43300 48.86400 24.62000
H  21.48200 47.71400 25.94900
H  22.38200 49.25900 26.17700
H  20.24200 50.60500 30.58000
H  18.37000 47.92900 33.29000
H  20.10600 48.02200 33.91400
H  19.67500 46.82600 32.71600

