158

Mg 25.21600 -8.58500 48.06600
C  27.46000 -6.21700 46.84100
C  23.05700 -7.66500 45.64700
C  23.10300 -10.99500 49.23700
C  27.68600 -9.73900 50.38600
N  25.31800 -7.23200 46.38900
C  26.27700 -6.31600 46.05900
C  25.88900 -5.34100 44.95300
C  24.40400 -5.83700 44.60400
C  24.25100 -7.00500 45.58100
C  23.35100 -4.69800 44.86000
C  26.80900 -5.37500 43.72600
C  27.46600 -3.97300 43.28600
H  27.30200 -3.60600 41.84800
N  23.36600 -9.35300 47.41100
C  22.66000 -8.80700 46.35300
C  21.49600 -9.62200 46.22000
C  21.39200 -10.49700 47.33500
C  22.64700 -10.35100 48.02900
C  20.58400 -9.43100 45.11600
C  20.17600 -11.33300 47.67700
O  19.14800 -11.41900 46.99700
C  20.16900 -12.11600 48.95500
N  25.39300 -10.24700 49.45700
C  24.29100 -10.94400 49.94200
C  24.61300 -11.81100 51.14000
C  26.14500 -11.64600 51.27600
C  26.47700 -10.47800 50.30900
C  23.74600 -11.44800 52.41400
C  27.08300 -12.88200 50.92400
C  28.08300 -13.45400 51.98900
N  27.08700 -8.06000 48.56900
C  27.98100 -8.66400 49.51200
C  29.23200 -7.90100 49.38900
C  29.03700 -6.89300 48.42300
C  27.73400 -7.08100 47.94400
C  30.52400 -8.30500 50.21600
C  29.58700 -5.71800 47.75300
O  30.57300 -5.14000 48.00400
C  28.55600 -5.19200 46.80300
C  28.08500 -3.92000 47.43400
O  27.37800 -3.84500 48.43000
O  28.51400 -2.97500 46.64100
C  28.14700 -1.60900 47.00300
H  22.23700 -7.42600 44.96700
H  22.38900 -11.65800 49.73100
H  28.44300 -10.24400 50.99000
H  25.87500 -4.35800 45.42400
H  24.33500 -6.21200 43.58200
H  23.84800 -3.76000 44.61400
H  22.89700 -4.81000 45.84400
H  22.52700 -4.84200 44.16100
H  26.34100 -5.71400 42.80200
H  27.54300 -6.13900 43.98600
H  28.54600 -3.95200 43.43300
H  27.15000 -3.15300 43.93200
H  19.79500 -10.17100 44.98500
H  21.08800 -9.44000 44.15000
H  19.96600 -8.54600 45.26600
H  20.96400 -12.85600 48.86400
H  19.19500 -12.59900 49.03400
H  20.30900 -11.39100 49.75600
H  24.40400 -12.82100 50.78700
H  26.40100 -11.21900 52.24500
H  24.32100 -10.75100 53.02400
H  23.58600 -12.41300 52.89500
H  22.82600 -10.98100 52.06300
H  27.61300 -12.55300 50.03000
H  26.44300 -13.73900 50.71500
H  27.87700 -14.44900 52.38400
H  28.35200 -12.75600 52.78300
H  28.99700 -13.56400 51.40500
H  30.37500 -8.21300 51.29200
H  31.41000 -7.71000 49.99600
H  30.84600 -9.32200 49.99100
H  28.93800 -5.12700 45.78400
H  28.80300 -1.17100 47.75600
H  27.13000 -1.42100 47.34800
H  28.21600 -0.96300 46.12800
Mg 53.35900 24.45700 45.11000
C  50.52400 26.41700 44.17300
C  51.76700 21.72400 43.72100
C  56.24600 22.67400 45.43200
C  54.87300 27.31700 46.15800
N  51.48700 24.15600 43.98900
C  50.44100 25.04800 43.83200
C  49.20700 24.44100 43.16500
C  49.47000 22.94700 43.48700
C  51.00200 22.90000 43.78300
C  48.50400 22.29100 44.52300
C  49.18500 24.77400 41.69200
C  47.68000 24.88400 41.10900
H  46.98000 23.56400 40.70000
N  53.97600 22.48200 44.52400
C  53.09100 21.51400 44.08800
C  53.74200 20.23300 44.05000
C  55.07800 20.43500 44.50000
C  55.20900 21.89100 44.75900
C  53.08100 18.89500 43.85500
C  56.13500 19.33200 44.80800
O  55.99200 18.14600 44.48500
C  57.42600 19.62500 45.39000
N  55.30400 24.94700 45.70500
C  56.26900 24.03000 45.80200
C  57.62800 24.72800 46.17900
C  57.21800 26.23200 46.38900
C  55.68000 26.14700 46.07100
C  58.14500 24.12300 47.47900
C  57.98000 27.32200 45.57300
C  58.52700 28.48500 46.47100
N  52.78100 26.43500 45.32900
C  53.56300 27.47600 45.74600
C  52.76800 28.66300 45.85800
C  51.54300 28.32000 45.18100
C  51.65800 26.91900 44.88100
C  53.13500 29.95500 46.42500
C  50.20400 28.76800 44.81600
O  49.67200 29.88700 45.01900
C  49.51000 27.62200 44.06800
C  49.17500 28.08700 42.67800
O  49.95100 28.13200 41.71400
O  47.87900 28.38200 42.63000
C  47.24500 28.48300 41.35600
H  51.26800 20.76700 43.55400
H  57.05700 22.02700 45.77400
H  55.26800 28.25500 46.55500
H  48.25800 24.72800 43.61700
H  49.27800 22.34800 42.59700
H  48.55900 21.22500 44.74400
H  47.54200 22.71000 44.22900
H  48.78300 22.69900 45.49500
H  49.64200 23.91900 41.19400
H  49.73700 25.65700 41.37100
H  47.68500 25.55200 40.24700
H  46.98100 25.18100 41.89100
H  53.67700 18.40900 43.08400
H  52.05500 18.94500 43.48900
H  53.03100 18.20500 44.69800
H  58.10300 18.77400 45.46600
H  57.37700 19.99500 46.41400
H  57.90900 20.35000 44.73500
H  58.41600 24.62900 45.43300
H  57.28500 26.56300 47.42500
H  59.12200 23.70900 47.23100
H  57.42500 23.40100 47.86100
H  58.19300 24.87700 48.26500
H  57.32900 27.77700 44.82600
H  58.80900 26.87400 45.02400
H  58.54400 29.40400 45.88400
H  59.56000 28.24500 46.72200
H  57.96300 28.54700 47.40100
H  54.01300 29.95200 47.07200
H  52.27200 30.40500 46.91600
H  53.48500 30.44100 45.51400
H  48.57100 27.25400 44.48000
H  46.59200 27.62000 41.22900
H  47.98000 28.55100 40.55300
H  46.60500 29.36500 41.35300

