158

Mg 49.36400 47.29400 42.28900
C  46.03600 47.32900 41.46800
C  49.84100 44.32400 40.63800
C  52.61800 47.79500 42.59600
C  48.99300 50.84000 43.25300
N  48.00900 46.05200 41.07400
C  46.65600 46.22100 40.99100
C  46.12300 45.03100 40.11200
C  47.31200 43.95100 40.09100
C  48.46100 44.81700 40.64800
C  47.02000 42.57600 40.92600
C  45.71900 45.58400 38.68900
C  44.48800 44.91900 38.04300
H  44.98100 43.91700 36.92500
N  50.94500 46.16500 41.82100
C  50.94100 44.94800 41.16600
C  52.27000 44.44200 41.14000
C  53.10600 45.46000 41.70000
C  52.20600 46.53600 42.12300
C  52.72300 43.17700 40.58300
C  54.63000 45.30200 41.87400
O  55.29200 44.30300 41.47800
C  55.42600 46.26600 42.87100
N  50.67400 49.05200 42.91400
C  51.98200 48.92200 42.95800
C  52.66600 50.24800 43.22900
C  51.50700 51.27700 43.28100
C  50.29400 50.37400 43.15900
C  53.70900 50.36200 44.37700
C  51.46000 52.48300 42.38200
C  51.30600 53.79900 43.22100
N  47.83500 48.78200 42.51800
C  47.79500 50.14900 42.87500
C  46.45600 50.64200 42.68200
C  45.72100 49.56600 42.21000
C  46.61300 48.43100 42.09300
C  45.97000 51.96300 43.05100
C  44.40600 49.17500 41.84200
O  43.37200 49.88000 41.84200
C  44.58000 47.65000 41.51400
C  43.81800 46.87000 42.58000
O  44.03900 47.08400 43.77300
O  43.11500 45.87400 41.98300
C  42.44900 44.81700 42.78700
H  49.93200 43.30200 40.26400
H  53.69800 47.93900 42.52500
H  48.77000 51.88600 43.47200
H  45.23000 44.72700 40.65800
H  47.43300 43.69200 39.03900
H  46.80000 41.71400 40.29700
H  46.08600 42.70500 41.47400
H  47.88600 42.30700 41.53000
H  46.62100 45.48200 38.08500
H  45.60900 46.65800 38.83800
H  43.88100 45.74400 37.66900
H  43.79100 44.32500 38.63400
H  51.95500 42.61800 40.04800
H  53.10300 42.52600 41.37000
H  53.48000 43.39000 39.82800
H  55.73800 47.17600 42.35900
H  56.31800 45.73100 43.19800
H  54.86500 46.49200 43.77800
H  53.15900 50.28300 42.25800
H  51.41800 51.61200 44.31400
H  54.62600 50.88700 44.10900
H  54.02800 49.36600 44.68300
H  53.25700 50.83500 45.24800
H  50.58300 52.37100 41.74400
H  52.35200 52.28800 41.78600
H  51.34800 53.69100 44.30400
H  50.26100 54.07600 43.08200
H  51.97300 54.53800 42.77800
H  46.39500 52.25500 44.01200
H  44.89900 51.92900 43.25200
H  46.39500 52.77000 42.45400
H  44.02000 47.29700 40.64800
H  43.23500 44.22300 43.25400
H  42.01600 44.09700 42.09300
H  41.77700 45.19800 43.55600
Mg 29.89200 57.58300 39.33500
C  27.13200 55.50100 38.54000
C  31.94500 55.09200 38.27100
C  32.35100 59.84500 39.25800
C  27.61200 60.30700 40.00000
N  29.44300 55.51400 38.43100
C  28.31400 54.81900 38.33200
C  28.59500 53.33500 38.11300
C  30.18000 53.25000 38.20200
C  30.58500 54.71100 38.31400
C  30.70300 52.33200 39.39800
C  27.99900 52.81700 36.85600
C  28.60900 53.28500 35.52000
H  27.70100 54.03700 34.51600
N  31.97100 57.44600 38.86500
C  32.65100 56.30300 38.54800
C  34.08000 56.54300 38.40000
C  34.21900 57.94100 38.68700
C  32.82600 58.55700 38.98200
C  35.03800 55.56500 37.90300
C  35.63200 58.67400 38.67500
O  36.70300 58.16000 38.34000
C  35.76300 60.12500 39.01900
N  29.99800 59.74500 39.79400
C  31.15800 60.38800 39.63600
C  30.95200 61.96500 39.72500
C  29.47900 61.98700 40.34300
C  28.98800 60.60000 39.99300
C  32.01500 62.69200 40.65000
C  28.58400 63.08400 39.78600
C  29.03900 64.58400 39.67000
N  27.77800 57.91500 39.32800
C  27.01000 59.05900 39.62900
C  25.61600 58.64900 39.50100
C  25.64900 57.26100 39.04600
C  26.95700 56.90000 38.95900
C  24.45300 59.49100 39.91300
C  24.74300 56.14900 38.72700
O  23.50100 56.08300 38.74600
C  25.65800 54.95900 38.34300
C  25.23500 53.75200 39.11700
O  25.63300 53.38900 40.23200
O  24.31200 53.04100 38.33800
C  23.54400 51.98300 39.03800
H  32.60200 54.23900 38.08800
H  33.16800 60.55900 39.13600
H  26.83500 60.99200 40.34700
H  28.26500 52.72900 38.95700
H  30.50800 52.76700 37.28200
H  29.96600 51.61800 39.76500
H  31.21900 53.00000 40.08700
H  31.55000 51.84200 38.91900
H  26.92700 53.01200 36.80600
H  28.08700 51.73400 36.93600
H  29.17400 52.48100 35.04800
H  29.35600 54.04400 35.75000
H  36.11100 55.75900 37.90300
H  34.85700 55.29800 36.86200
H  34.89900 54.58800 38.36600
H  36.72700 60.40300 39.44500
H  35.03900 60.03500 39.82900
H  35.44400 60.72300 38.16600
H  30.97900 62.42900 38.73900
H  29.44500 62.07200 41.42900
H  32.78200 62.14700 41.20000
H  31.33400 63.20200 41.33200
H  32.47700 63.52700 40.12400
H  27.68200 63.12200 40.39700
H  28.29700 62.76900 38.78300
H  29.81200 64.85100 40.39100
H  28.24700 65.32500 39.77400
H  29.53500 64.79700 38.72400
H  23.69300 58.94500 40.47200
H  24.01000 59.78500 38.96200
H  24.70900 60.31200 40.58300
H  25.52400 54.63000 37.31200
H  24.21600 51.12500 39.03300
H  22.62000 51.73700 38.51600
H  23.34800 52.18900 40.09100

