158

Mg 25.73800 1.74700 29.55400
C  27.75300 1.15500 32.49100
C  23.14300 2.12800 31.53400
C  23.89100 1.66100 26.76300
C  28.58600 0.57300 27.63800
N  25.55900 1.65400 31.77300
C  26.42100 1.53500 32.82000
C  25.75300 1.70700 34.21200
C  24.31800 1.72300 33.79800
C  24.29900 1.86900 32.23800
C  23.36300 0.56900 34.40100
C  26.22500 3.00400 35.07400
C  26.65500 2.72700 36.41500
H  26.57600 3.73000 37.54000
N  23.74800 2.18000 29.18200
C  22.83200 2.32100 30.12900
C  21.53500 2.55200 29.49000
C  21.71500 2.35100 28.07800
C  23.15500 1.96900 27.99300
C  20.32500 2.96500 30.27100
C  20.74500 2.45900 26.91600
O  21.12300 2.27700 25.76500
C  19.32500 2.76000 27.14200
N  26.14300 1.02300 27.58200
C  25.21800 1.27200 26.56800
C  25.87100 1.23900 25.14500
C  27.40300 1.09600 25.47300
C  27.40900 0.79700 26.97000
C  25.23700 0.19600 24.10400
C  28.28900 2.29800 24.95500
C  28.82700 2.23000 23.58600
N  27.73000 0.98700 29.96600
C  28.75000 0.61300 29.07500
C  29.99800 0.47100 29.84400
C  29.61300 0.61800 31.14500
C  28.25400 0.87200 31.22500
C  31.33900 0.04700 29.23400
C  30.13100 0.50000 32.52200
O  31.24600 0.24900 32.99700
C  28.92300 0.96900 33.39800
C  28.72000 -0.05600 34.46800
O  27.90500 -0.92900 34.55200
O  29.64700 0.20100 35.45800
C  29.51200 -0.58700 36.66100
H  22.26600 1.86200 32.12800
H  23.31900 1.79600 25.84200
H  29.40900 0.36400 26.95100
H  25.94300 0.83800 34.84200
H  23.87700 2.63300 34.20400
H  23.96800 -0.30400 34.64900
H  22.56200 0.28800 33.71700
H  23.01900 0.96600 35.35600
H  25.47500 3.79500 35.06400
H  27.11500 3.19500 34.47400
H  27.72900 2.68000 36.23500
H  26.39100 1.72300 36.74800
H  19.98300 3.95600 29.97200
H  20.62800 2.90200 31.31600
H  19.42400 2.36800 30.12900
H  18.77800 2.52900 26.22800
H  19.06300 3.77700 27.43100
H  18.92500 2.01200 27.82800
H  25.61600 2.17900 24.65700
H  27.74000 0.23100 24.90300
H  24.22400 -0.07000 24.40600
H  25.87300 -0.68000 23.98200
H  25.13200 0.69100 23.13800
H  29.00800 2.69100 25.67400
H  27.50200 3.02900 24.76800
H  28.60300 1.28200 23.09700
H  29.89200 2.44100 23.68200
H  28.50000 3.14200 23.08600
H  31.35400 -0.74100 28.48100
H  31.87700 -0.39900 30.07100
H  31.99600 0.86900 28.95000
H  29.04000 1.89200 33.96600
H  28.45800 -0.62900 36.93400
H  30.19100 -0.14700 37.39200
H  29.87000 -1.58500 36.40900
Mg 43.15500 41.88200 25.67700
C  42.35500 44.41900 28.00000
C  44.32700 39.97500 28.26100
C  44.27500 39.69300 23.42900
C  42.68800 44.27800 23.20700
N  43.18700 42.14600 27.90500
C  42.84000 43.24900 28.63500
C  43.00100 43.11000 30.05900
C  43.81900 41.76900 30.12400
C  43.80200 41.23300 28.67600
C  45.25600 41.93600 30.60700
C  41.75500 43.21900 31.02200
C  41.70000 42.27100 32.23500
H  40.74200 42.74100 33.37700
N  43.95100 39.94300 25.87300
C  44.41400 39.37500 27.02900
C  44.95200 38.06900 26.70500
C  44.85100 37.90200 25.27100
C  44.33800 39.21400 24.81800
C  45.59500 37.14100 27.69800
C  45.25500 36.69400 24.33700
O  45.10900 36.84900 23.12500
C  45.77800 35.47200 24.80600
N  43.43400 41.99900 23.59200
C  43.88800 40.95100 22.90000
C  44.01400 41.30900 21.36200
C  43.42400 42.76500 21.32400
C  43.04100 42.98300 22.83900
C  45.46800 41.08000 20.79300
C  42.23900 42.82200 20.30700
C  40.87300 42.39700 20.87600
N  42.59900 43.91900 25.57000
C  42.41100 44.75200 24.46000
C  41.96200 46.06400 24.90400
C  41.82900 45.91200 26.25500
C  42.24700 44.60300 26.62300
C  41.84000 47.25900 24.05100
C  41.41600 46.60500 27.44800
O  41.06700 47.79400 27.63900
C  41.65000 45.60500 28.64000
C  42.45400 46.34800 29.66200
O  43.64100 46.58200 29.50000
O  41.72000 46.61600 30.78000
C  42.55600 47.03200 31.88300
H  44.81600 39.39500 29.04600
H  44.63700 39.09000 22.59400
H  42.52700 44.95400 22.36400
H  43.55500 44.00300 30.34600
H  43.38500 41.09200 30.85900
H  45.61000 42.92600 30.89500
H  45.92900 41.62000 29.81000
H  45.45700 41.23500 31.41800
H  40.83700 42.99800 30.47800
H  41.75800 44.28000 31.27100
H  42.66400 41.93400 32.61600
H  41.24100 41.38800 31.79000
H  46.55100 36.88400 27.24100
H  45.01200 36.23300 27.85300
H  45.80000 37.50500 28.70500
H  45.63300 34.67800 24.07400
H  45.17000 35.25200 25.68400
H  46.81100 35.58700 25.13600
H  43.30900 40.69900 20.79700
H  44.07200 43.55200 20.93700
H  46.06700 40.31900 21.29200
H  46.05000 42.00200 20.82600
H  45.44700 40.74000 19.75800
H  42.42100 42.18300 19.44300
H  42.11600 43.85800 19.99300
H  40.29300 43.31600 20.96300
H  40.92600 41.84300 21.81300
H  40.46900 41.64400 20.20100
H  41.56900 46.94800 23.04200
H  42.80500 47.75700 24.13800
H  40.94600 47.78000 24.39300
H  40.68500 45.38200 29.09400
H  42.07700 47.88400 32.36800
H  43.55000 47.42500 31.66900
H  42.63500 46.20600 32.59000

