158

Mg 46.79500 16.81600 28.30200
C  45.38100 16.58400 31.51500
C  49.35400 18.62900 29.73000
C  47.69700 17.73700 25.22300
C  43.80700 15.53700 26.95900
N  47.22200 17.57100 30.42900
C  46.67300 17.12500 31.59900
C  47.41400 17.53800 32.84700
C  48.68500 18.22500 32.23100
C  48.37300 18.14900 30.64100
C  49.04600 19.65100 32.72800
C  47.69000 16.26100 33.78000
C  47.24600 16.32400 35.23300
H  46.97400 17.68300 35.88400
N  48.31100 17.95000 27.54300
C  49.29900 18.51100 28.27900
C  50.19100 19.15900 27.36400
C  49.68100 19.01700 26.08200
C  48.46300 18.29600 26.28000
C  51.43300 19.78000 27.84000
C  50.27400 19.53200 24.74500
O  49.89900 19.21900 23.60900
C  51.43800 20.53700 24.75300
N  45.81000 16.73500 26.33700
C  46.53100 17.02600 25.20100
C  45.71800 16.64100 23.97200
C  44.48300 15.89600 24.58700
C  44.70500 16.02900 26.05000
C  45.27000 17.86300 22.99900
C  44.46500 14.40900 24.07000
C  43.38200 14.12300 22.91300
N  44.93600 16.09100 29.04600
C  43.86600 15.61100 28.40000
C  42.84400 15.31900 29.34400
C  43.38000 15.66600 30.62800
C  44.70900 16.11100 30.37300
C  41.55000 14.63800 29.09000
C  43.09300 15.69200 32.00400
O  42.06800 15.36500 32.61600
C  44.42000 16.32400 32.70000
C  43.92700 17.51100 33.49000
O  43.63500 18.62100 33.00300
O  43.66500 17.12800 34.80700
C  42.91700 18.02500 35.62000
H  50.16600 19.13500 30.25500
H  48.10900 17.89800 24.22400
H  42.91900 15.12000 26.47900
H  46.92400 18.36500 33.36000
H  49.55900 17.58500 32.34700
H  48.41000 19.89000 33.58000
H  48.63900 20.30000 31.95300
H  50.11100 19.86500 32.82600
H  48.72600 15.92300 33.81600
H  47.17800 15.43300 33.29000
H  48.05200 15.83400 35.77900
H  46.33600 15.73200 35.33500
H  51.54500 19.67500 28.91900
H  51.34500 20.80100 27.46800
H  52.24500 19.25200 27.33900
H  52.30800 20.03000 25.16800
H  51.23900 21.35700 25.44300
H  51.65800 20.99300 23.78700
H  46.38600 15.96700 23.43600
H  43.57600 16.40800 24.26500
H  44.20200 18.08300 23.00900
H  45.49400 17.53400 21.98500
H  45.75500 18.81200 23.22800
H  44.26600 13.66300 24.83900
H  45.48900 14.18400 23.77300
H  42.68600 14.96100 22.88300
H  42.86100 13.17100 23.02000
H  43.79300 14.26900 21.91400
H  40.95900 15.41900 28.61200
H  41.15100 14.28900 30.04200
H  41.67600 13.76400 28.45000
H  44.93400 15.63500 33.37000
H  42.97300 19.03600 35.21600
H  43.35300 18.08200 36.61800
H  41.87700 17.72000 35.73900
Mg 5.21700 53.90800 42.41400
C  4.58500 50.33600 41.63000
C  8.30500 53.42700 41.33200
C  5.57300 57.19500 42.74800
C  1.84400 54.06800 43.44600
N  6.24100 52.08900 41.40300
C  5.88700 50.77500 41.32900
C  7.05000 49.98000 40.77200
C  8.30100 50.96700 40.90300
C  7.56100 52.25300 41.16300
C  9.39900 50.64700 41.97900
C  6.88600 49.56200 39.30900
C  6.16000 50.37700 38.17800
H  7.02200 50.62500 36.90700
N  6.81300 55.13600 42.15800
C  8.01800 54.77400 41.76600
C  8.89400 55.83800 41.77100
C  8.08800 56.95400 42.13600
C  6.73300 56.45800 42.33100
C  10.33500 55.79900 41.26800
C  8.62000 58.38400 42.34200
O  9.78200 58.63000 41.94900
C  7.90700 59.49400 43.03100
N  3.81600 55.40400 42.88800
C  4.29200 56.67200 43.07700
C  3.15700 57.58300 43.51500
C  1.95100 56.63300 43.47700
C  2.54200 55.23800 43.29100
C  3.41000 58.34400 44.85900
C  0.76400 56.98800 42.40900
C  -0.06700 58.26500 42.78300
N  3.55800 52.50300 42.48500
C  2.32400 52.78500 43.02500
C  1.53700 51.56700 43.11800
C  2.40600 50.56900 42.56200
C  3.62300 51.20200 42.20800
C  -0.00600 51.57100 43.51000
C  2.53300 49.16700 42.22000
O  1.71800 48.28100 42.31800
C  3.88700 48.98600 41.60300
C  3.89300 48.33100 40.26700
O  3.34300 48.79700 39.29200
O  4.52900 47.12500 40.33600
C  4.62400 46.34000 39.12700
H  9.37800 53.28600 41.19100
H  5.81300 58.21600 43.05100
H  0.81400 54.22900 43.77100
H  7.20500 49.06600 41.34600
H  8.78300 51.16000 39.94500
H  9.05600 49.78400 42.55100
H  9.62500 51.47200 42.65400
H  10.28700 50.38300 41.40500
H  6.28900 48.65700 39.42200
H  7.82200 49.16700 38.91300
H  5.89600 51.35700 38.57500
H  5.24500 49.98200 37.73700
H  11.00400 56.47900 41.79600
H  10.41800 56.00800 40.20200
H  10.82700 54.84800 41.47300
H  8.62600 60.31000 43.09800
H  7.63300 59.23600 44.05400
H  7.03100 59.75100 42.43500
H  3.08200 58.37900 42.77500
H  1.45100 56.55000 44.44300
H  3.96900 59.27100 44.73100
H  3.90400 57.63600 45.52400
H  2.51200 58.60800 45.41700
H  0.18800 56.12600 42.07400
H  1.34500 57.45400 41.61300
H  0.05200 58.48600 43.84400
H  -1.12500 58.06700 42.61100
H  0.28400 59.09700 42.17300
H  -0.35500 50.69400 42.96500
H  -0.58000 52.48000 43.33100
H  -0.12200 51.24400 44.54300
H  4.29800 48.28200 42.32700
H  4.32300 46.84800 38.21100
H  4.00500 45.44300 39.14700
H  5.64400 46.04400 38.88300

