158

Mg 52.81000 23.57200 44.73400
C  50.22500 25.84000 43.78600
C  50.94700 21.12500 43.68900
C  55.60500 21.62600 44.79200
C  54.80600 26.37800 45.52500
N  50.79000 23.61300 43.79500
C  49.95700 24.57900 43.37600
C  48.75000 23.95800 42.66300
C  48.84800 22.43800 43.09200
C  50.26600 22.35500 43.54000
C  47.94500 22.09000 44.36500
C  48.59600 24.14900 41.12000
C  49.97700 24.26200 40.40500
H  49.89800 24.48200 38.88300
N  53.15400 21.63500 44.42800
C  52.22700 20.75400 43.99300
C  52.81600 19.45700 43.90300
C  54.16300 19.52900 44.33200
C  54.35700 21.01700 44.49100
C  52.00400 18.26200 43.54700
C  55.11100 18.36300 44.62800
O  54.87800 17.27600 44.12000
C  56.43700 18.50500 45.32000
N  55.03400 24.00400 44.81000
C  55.90100 23.03300 44.95200
C  57.29100 23.61200 45.36200
C  56.92500 24.99200 45.88300
C  55.52700 25.17500 45.36600
C  58.05200 22.75400 46.36000
C  57.95900 26.04300 45.44400
C  58.46600 27.08000 46.51800
N  52.62400 25.68600 44.68000
C  53.42300 26.66700 45.21400
C  52.62300 27.91700 45.41500
C  51.37800 27.62300 44.86000
C  51.39400 26.24700 44.44800
C  53.05400 29.14900 46.09800
C  50.03600 28.15600 44.56000
O  49.67300 29.30600 44.66500
C  49.25500 27.03000 43.81400
C  48.89000 27.48000 42.53400
O  49.65400 27.41900 41.59400
O  47.55300 27.94900 42.48200
C  47.20100 28.32800 41.20500
H  50.30000 20.31500 43.34600
H  56.41800 20.91500 44.95700
H  55.27100 27.16100 46.12700
H  47.88700 24.47600 43.08100
H  48.58500 21.85700 42.20800
H  48.53700 21.63500 45.15900
H  47.19300 21.37000 44.04300
H  47.50100 23.01300 44.73700
H  47.89900 24.98300 41.04000
H  48.00800 23.29500 40.78400
H  50.69000 23.46700 40.62400
H  50.41300 25.19400 40.76400
H  52.32800 18.03700 42.53100
H  50.95200 18.44200 43.77100
H  52.31900 17.37900 44.10300
H  56.38500 19.22200 46.14000
H  57.31600 18.85600 44.77900
H  56.72200 17.50000 45.63200
H  57.90900 23.78200 44.48000
H  56.75000 25.02300 46.95900
H  58.75500 23.27800 47.00800
H  58.71300 22.03000 45.88300
H  57.31400 22.24500 46.98000
H  57.62300 26.45700 44.49300
H  58.78100 25.37400 45.18900
H  59.43300 26.74800 46.89500
H  57.67600 27.03600 47.26700
H  58.65800 28.08100 46.13000
H  54.04400 29.44400 45.74900
H  53.05500 28.98800 47.17600
H  52.32800 29.92400 45.85600
H  48.28400 26.88400 44.28700
H  47.32700 29.41100 41.23200
H  46.19100 27.91900 41.20500
H  47.81000 27.86000 40.43200
Mg 46.82600 24.39700 28.53400
C  47.70300 26.81000 31.04500
C  45.95600 22.30900 31.07300
C  46.67400 22.01300 26.29900
C  48.40200 26.39900 26.21700
N  46.78700 24.61400 30.81600
C  47.09500 25.71000 31.67100
C  46.71700 25.41900 33.10000
C  46.37500 23.89200 33.06300
C  46.22400 23.59900 31.56200
C  47.39800 22.92600 33.81100
C  45.72400 26.42500 33.76400
C  46.15800 27.28400 34.93200
H  45.11300 27.56800 35.99900
N  46.17300 22.52900 28.63500
C  45.91600 21.87900 29.80400
C  45.57300 20.50300 29.44000
C  45.65300 20.40500 27.96500
C  46.23100 21.66400 27.56000
C  44.93500 19.51400 30.35900
C  45.35600 19.19900 27.00700
O  45.40700 19.22500 25.80300
C  44.92000 17.81700 27.52200
N  47.58600 24.18300 26.50100
C  47.23000 23.18600 25.81700
C  47.60000 23.28100 24.36200
C  48.02800 24.78200 24.20900
C  47.93500 25.18800 25.75300
C  48.64400 22.14700 23.89700
C  47.18600 25.61000 23.16600
C  45.76300 26.17100 23.52900
N  47.84900 26.22100 28.58400
C  48.35000 26.94200 27.52300
C  48.78300 28.24600 27.93300
C  48.57900 28.15700 29.30000
C  47.98800 26.97700 29.65100
C  49.47900 29.30400 27.18700
C  48.93000 28.90300 30.49600
O  49.67300 29.88100 30.59500
C  48.28700 28.06600 31.71000
C  49.32300 27.70900 32.81000
O  50.25900 26.99400 32.69300
O  49.03300 28.44200 33.94000
C  49.88400 28.22000 35.12800
H  45.86200 21.61300 31.90900
H  46.47800 21.31200 25.48500
H  48.74500 27.21700 25.58000
H  47.69000 25.64000 33.53800
H  45.36000 23.80200 33.45000
H  46.99300 22.47800 34.71800
H  48.24100 23.53300 34.14200
H  47.81600 22.16500 33.15200
H  44.96600 25.80300 34.23900
H  45.40200 26.96600 32.87400
H  46.48500 28.20400 34.44700
H  47.08200 26.81300 35.26800
H  45.34200 18.50400 30.30800
H  43.88400 19.51800 30.06900
H  45.09800 19.78600 31.40200
H  44.14300 18.04000 28.25300
H  45.75800 17.41000 28.08800
H  44.30800 17.25400 26.81800
H  46.63400 23.23600 23.86100
H  49.09600 24.83000 23.99700
H  49.54000 22.58600 23.45800
H  48.15800 21.67300 23.04400
H  48.99300 21.36000 24.56600
H  47.12400 24.99400 22.26900
H  47.75000 26.51200 22.93200
H  45.06200 25.90400 22.73900
H  45.94200 27.24300 23.60000
H  45.44400 25.57700 24.38600
H  49.45900 28.96900 26.15000
H  50.49900 29.50600 27.51400
H  48.99000 30.27400 27.27900
H  47.35900 28.51100 32.07000
H  49.69100 27.21400 35.50000
H  49.65500 28.99400 35.86100
H  50.92200 28.27400 34.79900

