158

Mg 49.26100 46.14400 42.65300
C  45.74300 46.23500 41.66100
C  49.41300 42.95300 41.51200
C  52.55200 46.30300 42.94100
C  48.96700 49.60000 43.13100
N  47.72600 44.76000 41.77400
C  46.40900 44.95900 41.50100
C  45.82900 43.59600 41.04600
C  46.97500 42.56200 41.11500
C  48.11900 43.45600 41.60300
C  46.84600 41.39700 42.14200
C  44.89600 43.52300 39.76000
C  45.57800 43.82900 38.34800
H  45.50500 42.65400 37.35300
N  50.77500 44.70700 42.44200
C  50.64500 43.42300 42.02300
C  51.90400 42.77500 41.93900
C  52.86600 43.69600 42.36700
C  52.05800 44.97600 42.67300
C  51.93200 41.28000 41.55000
C  54.33600 43.50400 42.40100
O  54.78400 42.38400 42.22400
C  55.27400 44.55600 42.66900
N  50.55100 47.78800 43.02700
C  51.90200 47.59800 43.07300
C  52.61800 49.00600 43.16500
C  51.41700 50.01400 43.04000
C  50.24600 49.06800 43.13400
C  53.46200 49.19100 44.41300
C  51.46900 50.79400 41.70500
C  51.47300 52.32600 41.79100
N  47.61700 47.61500 42.67300
C  47.69200 48.97900 42.88900
C  46.37400 49.59700 42.76000
C  45.56300 48.51500 42.35800
C  46.38400 47.38000 42.30000
C  45.93800 51.07100 42.91600
C  44.24400 48.17400 41.93800
O  43.25800 48.81800 41.90900
C  44.30700 46.70200 41.37500
C  43.32900 45.82900 42.18000
O  42.38200 45.15400 41.67400
O  43.66300 45.78800 43.48000
C  42.83800 44.92700 44.41900
H  49.49600 41.93200 41.13300
H  53.60100 46.60300 42.97700
H  48.79900 50.65100 43.37800
H  45.14400 43.46700 41.88400
H  47.26700 42.31000 40.09500
H  45.85900 41.33000 42.60000
H  47.45900 41.56100 43.02800
H  47.06100 40.43800 41.67000
H  44.11600 44.26500 39.93000
H  44.42500 42.54100 39.78400
H  46.58700 44.22200 38.47300
H  45.01000 44.65200 37.91600
H  52.38600 41.30100 40.55900
H  51.01500 40.73100 41.33500
H  52.45400 40.73400 42.33400
H  55.01000 45.34400 41.96300
H  56.25300 44.16000 42.40400
H  55.11000 44.93100 43.68000
H  53.27900 49.02700 42.29800
H  51.29200 50.65900 43.90900
H  54.51400 49.06800 44.15300
H  53.09400 48.51500 45.18400
H  53.42900 50.16700 44.89700
H  50.55900 50.55600 41.15400
H  52.30700 50.43100 41.11000
H  50.58900 52.76400 41.32800
H  52.27400 52.65300 41.12900
H  51.67600 52.60800 42.82400
H  45.23200 51.39300 42.15100
H  46.82400 51.69800 43.01400
H  45.43700 51.17700 43.87900
H  44.00200 46.58400 40.33500
H  43.12300 45.11600 45.45400
H  42.81000 43.84900 44.26100
H  41.78600 45.15300 44.24100
Mg 1.89500 41.57900 26.56100
C  3.99800 41.86100 29.28600
C  -0.55700 40.57400 28.63500
C  -0.01100 40.98500 23.76700
C  4.41400 42.70400 24.47800
N  1.63200 41.69600 28.78300
C  2.65900 41.66200 29.67400
C  2.15000 41.79100 31.10600
C  0.70900 41.20200 30.86100
C  0.53100 41.11800 29.34500
C  0.42300 39.88600 31.66200
C  2.25500 43.22200 31.81000
C  2.49200 43.17000 33.37000
H  2.05300 41.86400 34.13000
N  -0.00500 40.86300 26.22600
C  -0.81800 40.39300 27.19800
C  -1.91300 39.69000 26.64700
C  -1.87400 39.90100 25.25600
C  -0.62400 40.61200 24.99000
C  -3.02400 39.00900 27.50500
C  -2.81700 39.51100 24.19700
O  -2.45500 39.56000 22.95900
C  -4.18400 38.96500 24.53500
N  2.24500 41.62800 24.29400
C  1.27900 41.34700 23.36100
C  1.67100 41.68100 21.90700
C  3.10800 42.33900 22.17000
C  3.30900 42.27000 23.71500
C  1.81500 40.38400 20.96400
C  3.30300 43.76600 21.67300
C  2.23500 44.81800 21.99800
N  3.87100 42.10300 26.81600
C  4.77800 42.61500 25.85200
C  6.05200 42.73300 26.54300
C  5.77300 42.47600 27.90100
C  4.47500 42.12500 27.98000
C  7.36200 42.93600 25.88400
C  6.42800 42.30800 29.18000
O  7.57100 42.35200 29.53300
C  5.22300 42.09000 30.15200
C  5.52400 40.99300 31.14600
O  5.94300 39.86900 30.86600
O  5.29900 41.31000 32.44400
C  5.43900 40.20400 33.40400
H  -1.37200 40.31900 29.31500
H  -0.52800 40.84500 22.81500
H  5.20900 43.09200 23.83800
H  2.69800 41.12300 31.77100
H  -0.00900 41.96900 31.15400
H  -0.34500 40.00900 32.42500
H  1.27100 39.69800 32.32200
H  0.29100 39.07300 30.94800
H  1.29300 43.73100 31.76700
H  2.97000 43.80700 31.23100
H  1.87200 43.94400 33.82300
H  3.53400 43.43900 33.54300
H  -3.65200 38.24300 27.05000
H  -3.54900 39.87600 27.90700
H  -2.37400 38.55800 28.25400
H  -4.61100 39.47900 25.39600
H  -3.93800 37.91600 24.69300
H  -4.92500 39.05900 23.74100
H  0.86700 42.34300 21.58300
H  3.91300 41.71300 21.78700
H  1.03700 40.32700 20.20200
H  1.83100 39.49700 21.59700
H  2.80200 40.39900 20.50200
H  3.34300 43.66900 20.58800
H  4.29400 44.05300 22.02300
H  2.82000 45.66400 22.36100
H  1.55300 44.48500 22.78000
H  1.61100 45.25700 21.22000
H  8.08200 42.17700 26.18900
H  7.68200 43.96200 26.06500
H  7.28500 42.80000 24.80500
H  5.10400 42.96600 30.79000
H  4.66800 39.44400 33.27900
H  5.23800 40.70300 34.35200
H  6.46800 39.84300 33.38300

