158

Mg -1.90200 34.58500 27.24400
C  -3.44500 32.60400 29.89000
C  -0.55400 36.52600 29.84000
C  -0.07500 36.01900 24.88400
C  -3.15500 32.29900 24.98100
N  -2.15500 34.65600 29.63500
C  -2.64600 33.67000 30.41100
C  -2.37200 33.95200 31.92900
C  -1.72700 35.36900 31.86100
C  -1.47600 35.58900 30.42100
C  -2.48900 36.59200 32.51600
C  -1.57400 32.80300 32.52900
C  -1.00600 32.95800 33.99500
H  -1.52900 32.05500 35.03300
N  -0.75100 36.13100 27.27500
C  -0.22900 36.76200 28.43500
C  0.69000 37.74800 27.93000
C  0.69600 37.75700 26.46000
C  -0.14000 36.65700 26.11000
C  1.49300 38.59800 28.86700
C  1.42200 38.70900 25.49600
O  1.38200 38.58500 24.27400
C  2.37900 39.87600 25.94600
N  -1.76100 34.33700 25.08300
C  -0.82300 34.95400 24.36300
C  -0.61300 34.25500 22.97000
C  -1.75900 33.18900 23.03900
C  -2.25200 33.23700 24.50800
C  -0.77500 35.22500 21.71300
C  -1.26000 31.80900 22.62200
C  -0.16000 31.11400 23.47800
N  -3.15500 32.98000 27.31500
C  -3.61700 32.16900 26.31000
C  -4.54800 31.16700 26.89200
C  -4.47500 31.40800 28.22900
C  -3.55800 32.42500 28.44500
C  -5.37100 30.15800 26.19200
C  -5.07700 30.86000 29.45600
O  -5.90800 30.02000 29.63400
C  -4.34600 31.59100 30.57400
C  -5.39400 32.14800 31.54000
O  -6.32900 32.86200 31.28100
O  -5.13400 31.69400 32.81000
C  -6.07500 32.00900 33.83900
H  -0.06400 37.14000 30.59800
H  0.77000 36.34400 24.27300
H  -3.55200 31.52900 24.31500
H  -3.22600 33.83700 32.59500
H  -0.81200 35.21600 32.43300
H  -3.55300 36.37500 32.41800
H  -2.44600 37.49700 31.90900
H  -2.20600 36.89000 33.52500
H  -0.77700 32.64500 31.80200
H  -2.18900 31.90900 32.42800
H  -1.33400 33.91100 34.41100
H  0.08100 32.88500 34.02800
H  1.67600 38.10400 29.82100
H  0.91800 39.50100 29.07300
H  2.45900 38.85000 28.43000
H  2.89100 40.44500 25.16900
H  3.15900 39.35300 26.49900
H  1.79100 40.52600 26.59300
H  0.34300 33.76900 23.16700
H  -2.55400 33.49200 22.35800
H  0.13100 35.35700 21.12000
H  -1.08900 36.20600 22.06800
H  -1.53200 34.87100 21.01300
H  -0.99400 31.73600 21.56700
H  -2.09600 31.11200 22.66300
H  0.00500 31.61300 24.43300
H  0.74700 31.06100 22.87600
H  -0.45900 30.10200 23.74900
H  -6.45200 30.22600 26.31900
H  -5.05100 29.17400 26.53600
H  -5.10000 30.09000 25.13900
H  -3.84400 30.83300 31.17500
H  -6.87700 32.65600 33.48400
H  -5.39200 32.49500 34.53500
H  -6.54300 31.07400 34.14700
Mg -5.48600 25.24200 26.44000
C  -4.06300 26.34000 29.39400
C  -7.03300 22.66200 28.29300
C  -6.12600 23.53500 23.55000
C  -3.30900 27.33100 24.61800
N  -5.48000 24.53900 28.62900
C  -5.00200 25.36200 29.64000
C  -5.62000 24.78600 30.98200
C  -6.07500 23.31100 30.67400
C  -6.23000 23.47900 29.09900
C  -5.14000 22.14500 31.07200
C  -6.81400 25.68300 31.45400
C  -6.71400 26.11200 33.02000
H  -5.93800 25.09800 33.95000
N  -6.71800 23.65400 25.97500
C  -7.31500 22.77900 26.87800
C  -8.10400 21.82600 26.11400
C  -7.75900 21.96500 24.79000
C  -6.79900 23.07500 24.69800
C  -9.07000 20.79900 26.77400
C  -8.25700 21.18700 23.55900
O  -7.82700 21.31000 22.42500
C  -9.29100 20.04400 23.72400
N  -4.88600 25.42900 24.35800
C  -5.32000 24.65300 23.34900
C  -4.80000 25.16400 21.98800
C  -3.99000 26.37100 22.37000
C  -4.06500 26.38800 23.93300
C  -4.00100 24.19000 21.11200
C  -4.47500 27.61400 21.63000
C  -3.52800 28.85100 21.42000
N  -3.99500 26.53600 26.90200
C  -3.34600 27.43200 26.06400
C  -2.43600 28.17900 26.93500
C  -2.77600 27.86200 28.21900
C  -3.66300 26.81600 28.13600
C  -1.35000 29.13000 26.47700
C  -2.32500 28.08600 29.63900
O  -1.44600 28.74200 30.17100
C  -3.24200 27.08800 30.46200
C  -2.34900 26.18600 31.23800
O  -1.45900 25.54200 30.68700
O  -2.40700 26.54000 32.50700
C  -1.31800 26.13300 33.36200
H  -7.45000 21.84700 28.88800
H  -6.28500 23.02900 22.59600
H  -2.57200 27.94600 24.09600
H  -4.85500 24.71300 31.75500
H  -7.04900 23.14000 31.13100
H  -5.87400 21.55000 31.61700
H  -4.41600 22.62300 31.73100
H  -4.64500 21.70800 30.20500
H  -7.79900 25.21700 31.41600
H  -6.92700 26.56900 30.82900
H  -7.71500 26.01700 33.44100
H  -6.20700 27.06800 33.14700
H  -8.73700 19.78000 26.57900
H  -10.11800 21.00000 26.55100
H  -9.08900 21.03100 27.83900
H  -9.03500 19.11500 24.23400
H  -9.54100 19.89200 22.67400
H  -10.11600 20.49200 24.28000
H  -5.55000 25.45000 21.25100
H  -2.95800 26.20200 22.06100
H  -4.15700 23.25800 21.65500
H  -2.92100 24.29300 21.21700
H  -4.34900 24.13900 20.08000
H  -5.40300 27.91000 22.11800
H  -4.83000 27.33300 20.63900
H  -3.54000 29.16300 20.37500
H  -2.50600 28.57000 21.67400
H  -3.75700 29.61600 22.16000
H  -1.73000 30.12000 26.22300
H  -0.83300 28.75600 25.59300
H  -0.66500 29.23000 27.31900
H  -3.90900 27.71900 31.04900
H  -0.41700 26.51400 32.88300
H  -1.37300 25.04900 33.45700
H  -1.39100 26.65400 34.31700

