158

Mg 0.54700 44.00100 24.97500
C  2.51800 43.62600 27.94200
C  -2.30300 43.29800 26.92200
C  -1.24100 43.55100 22.22800
C  3.53600 44.01500 23.04400
N  0.26100 43.43000 27.19500
C  1.13400 43.50700 28.21600
C  0.45200 43.43100 29.63200
C  -1.02400 43.12300 29.12200
C  -1.04500 43.22700 27.64500
C  -1.62900 41.84600 29.73300
C  0.55500 44.73100 30.49800
C  1.09200 44.55600 31.96600
H  0.89900 43.19500 32.73000
N  -1.49100 43.84600 24.66000
C  -2.47400 43.53500 25.53800
C  -3.70000 43.55800 24.89100
C  -3.46800 43.72100 23.49900
C  -1.99600 43.64100 23.41400
C  -4.98800 43.44800 25.60300
C  -4.46200 43.77800 22.31800
O  -4.13500 43.92600 21.13100
C  -5.86300 44.02800 22.69500
N  1.09700 43.83500 22.91300
C  0.16300 43.70500 21.93400
C  0.75700 43.36800 20.58300
C  2.20800 43.99600 20.79600
C  2.31300 43.94700 22.38400
C  0.86900 41.87700 20.16500
C  2.51600 45.39200 20.22300
C  3.30000 45.41100 18.88000
N  2.64900 43.83800 25.32600
C  3.73200 43.95600 24.44300
C  4.94700 43.99900 25.25400
C  4.51100 43.91000 26.57600
C  3.11900 43.77100 26.63800
C  6.32000 44.15600 24.63100
C  5.03300 43.78300 27.95200
O  6.17900 43.78500 28.41400
C  3.71300 43.73200 28.90600
C  3.83700 42.48100 29.67400
O  3.62300 41.38200 29.26400
O  4.24700 42.80400 30.97200
C  4.80900 41.66700 31.79800
H  -3.14300 43.42700 27.60800
H  -1.76900 43.28100 21.31200
H  4.48400 44.16700 22.52400
H  0.81600 42.63300 30.27900
H  -1.72300 43.87600 29.48700
H  -1.86900 41.28200 28.83300
H  -2.52600 42.11000 30.29300
H  -0.92100 41.28500 30.34300
H  -0.40300 45.25100 30.48400
H  1.28500 45.35000 29.97600
H  0.81700 45.42000 32.57200
H  2.16000 44.63700 31.76300
H  -4.96200 43.05500 26.62000
H  -5.76700 42.86900 25.10700
H  -5.29000 44.49500 25.58500
H  -6.45300 44.54900 21.94100
H  -5.91900 44.57600 23.63600
H  -6.25200 43.01500 22.79700
H  0.14800 43.87200 19.83200
H  2.97600 43.32300 20.41300
H  1.87400 41.56500 19.88100
H  0.21200 41.83400 19.29600
H  0.58200 41.20000 20.97000
H  3.05400 46.04900 20.90600
H  1.52200 45.76400 19.97300
H  4.00700 44.58200 18.91800
H  3.88900 46.32400 18.79700
H  2.61100 45.40200 18.03500
H  6.63900 45.19300 24.73500
H  6.35000 43.75700 23.61700
H  7.10000 43.66700 25.21400
H  3.63500 44.59800 29.56300
H  4.37000 40.71700 31.49500
H  4.44300 41.88300 32.80200
H  5.89100 41.53000 31.80000
Mg -1.63200 35.06500 26.85900
C  -3.21400 33.64000 29.68500
C  -0.48500 37.55000 28.75400
C  -0.91500 36.67300 23.93600
C  -3.49900 32.67100 24.90100
N  -2.02200 35.53600 29.02900
C  -2.47100 34.78300 30.00600
C  -2.14400 35.33100 31.36500
C  -1.34600 36.68200 30.99100
C  -1.13200 36.51100 29.50000
C  -2.01300 38.01300 31.44600
C  -1.30200 34.28400 32.15900
C  -1.92600 33.86700 33.59300
H  -0.97300 34.13100 34.74300
N  -0.76600 36.85400 26.39900
C  -0.30500 37.72100 27.37800
C  0.36000 38.78700 26.69900
C  0.26500 38.55300 25.30700
C  -0.55800 37.33800 25.14000
C  0.90400 39.92300 27.47600
C  0.88200 39.34200 24.20400
O  0.76600 39.05300 23.04600
C  1.71800 40.51700 24.57400
N  -2.25600 34.70500 24.79300
C  -1.63900 35.45700 23.76400
C  -1.91400 34.87100 22.35600
C  -2.82000 33.66200 22.66300
C  -2.81900 33.62200 24.23100
C  -2.50200 35.88200 21.28500
C  -2.42300 32.40100 21.92900
C  -1.06900 31.76600 22.36700
N  -3.00300 33.41000 27.15200
C  -3.65100 32.63200 26.30000
C  -4.38400 31.64400 27.00600
C  -4.22400 31.96800 28.34100
C  -3.39700 33.11300 28.39000
C  -5.15700 30.56000 26.38000
C  -4.62500 31.50600 29.64700
O  -5.33800 30.60300 30.02700
C  -3.93200 32.57600 30.64700
C  -5.01000 33.14800 31.41800
O  -5.88100 33.93700 31.09000
O  -4.82200 32.67100 32.65900
C  -5.86800 32.91800 33.65900
H  -0.02400 38.27700 29.42700
H  -0.46600 37.04700 23.01400
H  -4.19100 31.99900 24.38800
H  -3.13500 35.49900 31.78600
H  -0.30800 36.79100 31.30500
H  -2.73100 37.96100 32.26400
H  -2.46700 38.43800 30.55100
H  -1.13800 38.57600 31.77000
H  -0.25900 34.58200 32.25900
H  -1.35800 33.36500 31.57600
H  -2.17700 32.80600 33.58600
H  -2.85700 34.37400 33.84500
H  1.00300 39.70800 28.54000
H  0.34100 40.85100 27.37300
H  1.93600 40.09400 27.17000
H  1.27200 41.29800 25.18900
H  2.03400 40.95200 23.62600
H  2.59300 40.14200 25.10600
H  -0.89200 34.61000 22.08100
H  -3.86300 33.81300 22.38800
H  -2.51400 36.79900 21.87400
H  -3.48800 35.50400 21.01600
H  -1.77700 35.79300 20.47500
H  -2.50800 32.68500 20.88000
H  -3.13100 31.58600 22.08200
H  -1.43200 30.75700 22.56000
H  -0.69700 32.20400 23.29300
H  -0.29100 31.74700 21.60400
H  -5.51100 29.77600 27.05000
H  -4.56300 30.10200 25.58900
H  -6.01500 30.92600 25.81700
H  -3.25200 31.99200 31.26700
H  -5.24900 33.08700 34.54000
H  -6.40800 31.98400 33.81400
H  -6.52500 33.75300 33.41600

