158

Mg 42.00600 7.89500 29.93300
C  43.79600 9.45100 32.39300
C  39.88300 6.57000 32.25500
C  40.30100 6.49600 27.45500
C  44.84600 8.34100 27.68900
N  42.05500 7.90900 32.08900
C  42.66200 8.83000 32.83900
C  42.08800 8.82000 34.31200
C  40.81200 7.82400 34.21900
C  40.98900 7.33800 32.81400
C  40.80900 6.62800 35.28000
C  41.73400 10.23300 34.88400
C  42.44900 10.68700 36.21200
H  41.55600 11.36700 37.30300
N  40.31000 6.80800 29.87700
C  39.55100 6.33100 30.92500
C  38.39900 5.60300 30.43000
C  38.38200 5.74500 29.02200
C  39.72600 6.32500 28.74800
C  37.43900 4.89800 31.38100
C  37.24400 5.33200 28.02200
O  37.49800 5.31200 26.82300
C  35.90700 5.19500 28.56500
N  42.64400 7.22300 27.89200
C  41.64200 6.88200 27.12500
C  42.15800 6.79200 25.63900
C  43.67600 7.29100 25.74100
C  43.80200 7.58500 27.21700
C  42.03800 5.32800 25.03500
C  43.96100 8.36000 24.76500
C  43.28900 9.73200 25.14100
N  43.95700 8.73300 29.98300
C  44.96800 8.81600 29.04900
C  45.97700 9.69300 29.58800
C  45.65300 9.93700 30.95500
C  44.40200 9.35500 31.15000
C  47.09200 10.31100 28.77200
C  46.04800 10.64600 32.16300
O  46.97200 11.40900 32.40100
C  44.83900 10.26200 33.22500
C  45.38300 9.45000 34.37300
O  45.45500 8.21300 34.59600
O  45.91400 10.40300 35.21900
C  46.32400 9.97700 36.57700
H  39.06000 6.35900 32.94000
H  39.75500 6.16400 26.57000
H  45.58900 8.58600 26.92800
H  42.89400 8.32000 34.84900
H  39.86100 8.33000 34.05000
H  39.75500 6.55000 35.54600
H  41.49600 6.97600 36.05100
H  41.29600 5.79700 34.77000
H  40.65200 10.35800 34.92700
H  42.01300 10.99500 34.15700
H  43.27100 11.36400 35.98200
H  42.93500 9.82400 36.66700
H  36.92400 4.09700 30.85000
H  36.72400 5.54700 31.88600
H  38.03200 4.31600 32.08600
H  35.76100 6.10700 29.14400
H  35.89300 4.31300 29.20600
H  35.10300 4.97700 27.86300
H  41.47400 7.38700 25.03300
H  44.39400 6.53000 25.43800
H  41.74900 4.75800 25.91800
H  42.98200 4.95300 24.63900
H  41.27900 5.15700 24.27200
H  43.53500 7.98900 23.83300
H  45.03500 8.53200 24.69100
H  42.71300 9.71000 26.06600
H  42.67300 10.04700 24.29900
H  44.08700 10.47400 25.18200
H  46.83300 11.16800 28.15000
H  47.59900 9.61100 28.10900
H  47.77700 10.69900 29.52600
H  44.34200 11.15200 33.61000
H  46.89500 9.04900 36.60600
H  45.49400 9.75100 37.24500
H  46.99900 10.77400 36.89000
Mg 47.53300 45.32900 43.60800
C  44.43600 45.97500 42.19100
C  47.42400 42.23600 41.91400
C  50.85600 44.91200 44.12300
C  47.94300 48.77000 44.06200
N  46.09300 44.16500 42.22500
C  44.78500 44.64000 41.98000
C  43.99600 43.63800 41.24900
C  44.88900 42.35300 41.17000
C  46.22800 42.92800 41.82000
C  44.32700 41.07600 41.91700
C  43.50000 44.02400 39.81900
C  42.16200 43.58600 39.39500
H  42.07500 42.54700 38.19600
N  48.92800 43.74400 43.24800
C  48.66200 42.53500 42.58300
C  49.70500 41.65500 42.82700
C  50.71400 42.36500 43.58000
C  50.22000 43.78200 43.62100
C  49.72200 40.21200 42.41200
C  51.92300 41.79400 44.18600
O  52.13400 40.58200 44.05600
C  52.92200 42.62200 45.10800
N  49.19100 46.70700 43.79800
C  50.39200 46.21700 44.25700
C  51.36100 47.33200 44.70500
C  50.41000 48.64500 44.68600
C  49.14400 48.03000 44.11300
C  52.13200 47.05800 45.97900
C  51.03900 49.76200 43.81900
C  52.34300 50.39900 44.48800
N  46.38100 46.96200 43.54900
C  46.64800 48.34100 43.76700
C  45.34800 49.06800 43.65200
C  44.52500 48.13700 43.05200
C  45.18300 46.93000 42.89900
C  45.07900 50.54000 43.94100
C  43.21300 47.98600 42.51000
O  42.36400 48.80700 42.44700
C  43.07400 46.61600 41.79000
C  41.90800 45.88200 42.46600
O  41.88200 45.25100 43.53700
O  40.81300 45.95500 41.66200
C  39.59900 45.28300 42.30000
H  47.31700 41.23300 41.49500
H  51.89300 44.74400 44.42100
H  48.03500 49.82500 44.33000
H  43.10900 43.40800 41.83900
H  45.12700 42.16200 40.12400
H  44.77200 40.26800 41.33700
H  43.24900 40.96500 41.80200
H  44.78000 41.03800 42.90800
H  44.20000 43.83800 39.00400
H  43.45700 45.11300 39.81100
H  41.46700 44.40600 39.21400
H  41.78000 43.01000 40.23800
H  50.69700 39.86300 42.07200
H  49.16400 40.11800 41.48000
H  49.28900 39.56300 43.17200
H  52.40100 43.29600 45.78800
H  53.60000 43.16300 44.44900
H  53.47000 41.98900 45.80700
H  52.16400 47.44500 43.97800
H  50.24400 48.86100 45.74200
H  53.17000 46.98100 45.65400
H  51.74300 46.15000 46.44000
H  51.96400 47.88900 46.66400
H  50.33500 50.59000 43.73900
H  51.31800 49.34600 42.85100
H  53.20100 49.92300 44.01400
H  52.43500 50.12600 45.53900
H  52.21600 51.47400 44.35700
H  44.06500 50.90800 43.78600
H  45.64200 50.88400 43.07400
H  45.45700 50.92500 44.88800
H  42.83200 46.75600 40.73600
H  39.83200 44.22100 42.38500
H  38.84100 45.21700 41.52000
H  39.15200 45.71900 43.19400

