158

Mg 26.31200 49.85600 27.09200
C  24.22800 51.39400 29.42000
C  28.43000 49.15800 29.65000
C  28.46500 48.74500 24.76100
C  24.16500 51.05600 24.49400
N  26.28300 50.19900 29.25200
C  25.30000 50.71300 30.00600
C  25.57800 50.53500 31.49200
C  27.08600 50.24000 31.49700
C  27.21700 49.76900 30.08800
C  28.04500 51.39000 31.97100
C  24.64400 49.44800 32.21700
C  23.92400 49.89800 33.50000
H  24.64900 50.48300 34.68400
N  28.15000 49.03500 27.20800
C  28.85900 48.75500 28.36000
C  30.13000 48.17000 28.04300
C  30.19200 48.08400 26.61400
C  28.86300 48.59600 26.10000
C  31.02100 47.68700 29.20800
C  31.33300 47.63900 25.70200
O  31.10300 47.50600 24.49500
C  32.73700 47.39200 26.16800
N  26.45200 50.10900 24.84800
C  27.36300 49.47200 24.17600
C  27.06100 49.54800 22.64300
C  25.55200 49.91400 22.65900
C  25.30700 50.34100 24.06800
C  28.00600 50.54600 21.92500
C  24.61100 48.74200 22.19100
C  24.77400 47.33100 22.97400
N  24.55400 51.08400 26.92300
C  23.78200 51.48800 25.81500
C  22.64100 52.31900 26.26900
C  22.74400 52.20200 27.66100
C  23.91200 51.47400 28.01300
C  21.48700 52.90500 25.41500
C  22.13900 52.67000 28.94600
O  21.21100 53.44200 29.20900
C  23.02400 52.07800 30.12100
C  23.38300 53.26900 31.08800
O  23.94100 54.25500 30.78800
O  22.80900 52.98300 32.35900
C  23.01200 54.13800 33.27500
H  29.14800 48.90700 30.43400
H  29.05700 48.17700 24.04000
H  23.53300 51.35900 23.65700
H  25.38600 51.51400 31.93200
H  27.26100 49.37200 32.13200
H  28.92500 50.99400 32.47800
H  27.46700 52.01600 32.65100
H  28.42700 51.93900 31.11100
H  25.31600 48.65000 32.53000
H  23.99200 49.07000 31.42900
H  23.46200 48.97500 33.84900
H  23.10400 50.56700 33.23700
H  30.50000 47.22400 30.04700
H  31.35000 48.61600 29.67500
H  31.78500 47.05700 28.75300
H  33.45800 47.57600 25.37200
H  32.84700 46.31300 26.28100
H  32.93200 47.92000 27.10200
H  27.16000 48.56300 22.18600
H  25.49000 50.68000 21.88500
H  27.43700 51.41300 21.58700
H  28.55100 50.03700 21.13000
H  28.77300 50.94400 22.58900
H  24.85800 48.64800 21.13400
H  23.56600 48.99400 22.37400
H  25.00100 46.52800 22.27300
H  23.84300 47.21500 23.52800
H  25.57600 47.43900 23.70400
H  21.07900 52.14900 24.74400
H  21.95400 53.66500 24.78900
H  20.66200 53.39200 25.93500
H  22.35500 51.41900 30.67600
H  22.96000 55.08600 32.74000
H  24.05800 54.23100 33.56900
H  22.34800 54.01500 34.13100
Mg -5.45700 25.60100 26.01800
C  -4.37800 27.32700 28.96700
C  -7.46400 23.78400 27.98100
C  -6.34300 23.95200 23.26400
C  -3.20000 27.55500 24.17400
N  -5.64100 25.44700 28.25500
C  -5.28600 26.32200 29.26500
C  -5.87900 25.98700 30.59000
C  -6.74200 24.70500 30.25100
C  -6.63900 24.60200 28.71600
C  -6.29600 23.37000 30.96300
C  -6.77500 27.10500 31.16600
C  -6.93600 27.18900 32.74100
H  -6.37300 26.00400 33.64700
N  -6.77900 24.11200 25.59600
C  -7.57200 23.55900 26.60400
C  -8.36800 22.44800 25.92600
C  -8.08000 22.48200 24.48700
C  -7.03700 23.57800 24.40600
C  -9.42400 21.73000 26.65900
C  -8.66600 21.72300 23.33800
O  -8.38600 21.89500 22.14500
C  -9.78200 20.75800 23.65900
N  -4.77500 25.59900 24.00000
C  -5.29100 24.78500 23.05300
C  -4.55800 24.93900 21.70300
C  -3.70300 26.27100 21.94500
C  -3.96500 26.52600 23.43800
C  -3.83600 23.64600 21.31200
C  -3.88100 27.38900 20.92700
C  -5.21500 28.24100 21.04500
N  -4.00700 27.04200 26.39000
C  -3.26300 27.83000 25.55400
C  -2.51700 28.80600 26.33000
C  -2.90100 28.58600 27.69900
C  -3.82200 27.58800 27.65100
C  -1.68800 29.82100 25.68000
C  -2.71500 29.06300 29.08100
O  -1.98400 29.96800 29.44900
C  -3.68400 28.25300 30.00400
C  -2.81800 27.59900 31.02600
O  -1.92400 26.76500 30.86700
O  -3.10800 28.13200 32.24900
C  -2.39000 27.61300 33.42100
H  -8.16100 23.20900 28.59400
H  -6.64400 23.29100 22.44800
H  -2.50800 28.10500 23.53200
H  -5.01600 25.85600 31.24200
H  -7.82200 24.81800 30.34700
H  -6.00700 23.59100 31.99100
H  -5.41300 22.98400 30.45400
H  -7.12800 22.66700 30.91100
H  -7.80300 26.94900 30.84100
H  -6.45900 28.10100 30.85500
H  -7.93800 27.52100 33.01200
H  -6.25900 27.93500 33.15700
H  -10.37200 22.13300 26.30300
H  -9.37100 21.88400 27.73600
H  -9.17400 20.68900 26.45500
H  -9.52800 19.94900 24.34400
H  -9.99900 20.31900 22.68500
H  -10.62400 21.40100 23.91300
H  -5.28200 25.24500 20.94700
H  -2.64700 26.01200 21.87500
H  -4.07200 22.98700 22.14800
H  -2.77900 23.91100 21.27100
H  -4.19400 23.36600 20.32100
H  -3.59500 27.15700 19.90100
H  -3.16300 28.12100 21.29700
H  -5.83500 27.89100 21.87100
H  -5.75900 28.19400 20.10100
H  -4.99300 29.26900 21.33000
H  -2.28900 30.64800 25.30300
H  -1.13400 29.40200 24.84000
H  -1.05100 30.34100 26.39500
H  -4.33400 28.97000 30.50600
H  -1.95200 26.62900 33.25600
H  -3.15700 27.61200 34.19600
H  -1.59300 28.29200 33.72500

