158

Mg 40.98400 9.35400 30.07100
C  43.06300 10.42600 32.48100
C  38.67900 8.24200 32.48600
C  39.00800 7.95300 27.69700
C  43.54700 9.68100 27.70100
N  40.98500 9.19900 32.32600
C  41.89700 9.91500 33.02300
C  41.43300 9.93400 34.45000
C  40.13900 8.97000 34.43700
C  39.85800 8.91600 32.99800
C  40.23200 7.58200 35.12400
C  41.08700 11.37000 34.97200
C  40.64000 11.36900 36.40500
H  41.30800 12.37500 37.45600
N  39.02800 8.39500 30.10600
C  38.28200 7.99600 31.17200
C  36.97000 7.56900 30.73300
C  37.03900 7.43500 29.31700
C  38.39700 7.88600 28.98500
C  35.86700 7.15900 31.67200
C  35.97800 7.05900 28.29000
O  36.09300 7.10700 27.00900
C  34.71400 6.45400 28.81000
N  41.27700 8.70300 28.00000
C  40.32800 8.25200 27.24100
C  40.82900 8.12700 25.75400
C  42.15300 8.84600 25.79200
C  42.37600 9.08600 27.25900
C  40.85000 6.71300 25.19700
C  42.15400 10.25100 24.97900
C  41.67300 11.51200 25.66000
N  42.93300 9.91100 30.00900
C  43.87400 10.07700 29.03400
C  45.06400 10.72900 29.53900
C  44.75800 10.95800 30.93700
C  43.48600 10.37500 31.14800
C  46.37600 11.09100 28.88500
C  45.30200 11.52600 32.20200
O  46.34700 12.09200 32.48600
C  44.19500 11.13900 33.22600
C  44.83700 10.20000 34.09100
O  44.95900 8.99800 34.00000
O  45.33400 10.98400 35.13900
C  45.97200 10.27500 36.17800
H  38.00600 7.94600 33.29300
H  38.40900 7.58200 26.86200
H  44.17500 10.13100 26.92900
H  42.22200 9.48400 35.05200
H  39.22800 9.38200 34.87300
H  39.69500 7.56500 36.07200
H  41.25300 7.22700 35.26400
H  39.74700 6.85500 34.47300
H  40.37000 11.82800 34.29100
H  42.03300 11.91200 34.96600
H  40.76000 10.34600 36.76100
H  39.61600 11.74100 36.35500
H  35.63900 6.09300 31.69600
H  34.91800 7.65400 31.46700
H  36.17200 7.39700 32.69100
H  34.87900 5.51200 29.33300
H  34.04300 6.12500 28.01600
H  34.04600 7.16200 29.30000
H  40.06600 8.80400 25.37100
H  42.88000 8.10600 25.45600
H  41.02800 5.97600 25.98100
H  41.60000 6.52800 24.42800
H  39.94600 6.50700 24.62400
H  41.41100 9.97900 24.22900
H  43.15000 10.27600 24.53700
H  41.19700 11.34100 26.62600
H  40.83700 11.83300 25.03800
H  42.44000 12.26400 25.84300
H  46.58300 10.29900 28.16500
H  47.24000 11.13200 29.54700
H  46.18300 11.94100 28.23100
H  43.81700 12.02500 33.73700
H  46.58200 9.38900 36.00300
H  45.25000 9.89300 36.90000
H  46.55500 11.04700 36.67800
Mg 53.50800 25.78200 45.87300
C  50.75500 27.65600 44.76100
C  52.16800 23.08800 44.16200
C  56.51200 24.15800 46.13100
C  54.96200 28.68600 46.92500
N  51.87100 25.52600 44.27700
C  50.83100 26.39000 44.16300
C  49.70400 25.75000 43.23000
C  49.96200 24.27700 43.58300
C  51.43900 24.27400 44.03500
C  49.01700 23.67900 44.66700
C  49.87100 26.05000 41.72400
C  48.66500 25.92500 40.75600
H  48.83800 25.27900 39.33000
N  54.20700 23.82600 45.35700
C  53.47400 22.87600 44.72100
C  54.21200 21.65800 44.70100
C  55.42600 21.95400 45.29900
C  55.41800 23.36600 45.67200
C  53.60300 20.36900 44.09600
C  56.58400 21.00400 45.37400
O  56.44900 19.91200 44.84200
C  57.90200 21.25800 46.03500
N  55.48000 26.31300 46.22800
C  56.49900 25.52500 46.33700
C  57.78800 26.20200 46.89100
C  57.31400 27.67700 46.96200
C  55.78300 27.60100 46.64300
C  58.52800 25.64000 48.18700
C  58.14300 28.65100 46.08400
C  58.38400 30.03400 46.64800
N  52.93700 27.80700 45.92100
C  53.55500 28.83800 46.55100
C  52.73900 29.95300 46.58300
C  51.57600 29.56400 45.91700
C  51.78200 28.22500 45.47500
C  53.02000 31.32500 47.20800
C  50.25200 29.99800 45.45800
O  49.62700 31.04500 45.62100
C  49.73900 28.78500 44.63400
C  49.66500 29.32900 43.27400
O  50.43300 30.04500 42.71600
O  48.40500 29.03400 42.77300
C  48.06200 29.62200 41.50700
H  51.57800 22.23800 43.81400
H  57.50000 23.69100 46.12500
H  55.42300 29.55000 47.40800
H  48.75200 26.05600 43.66500
H  49.80300 23.73700 42.65000
H  49.57400 22.95400 45.26100
H  48.18800 23.12000 44.23200
H  48.56000 24.42200 45.32100
H  50.66800 25.38900 41.38300
H  50.33800 27.01400 41.52300
H  48.27100 26.91300 40.51800
H  47.86000 25.35300 41.21800
H  53.94000 20.08100 43.10000
H  52.52900 20.41500 43.91500
H  53.68100 19.60000 44.86500
H  58.44300 20.34300 46.27600
H  57.73900 21.86700 46.92400
H  58.52100 21.80600 45.32500
H  58.41000 26.02200 46.01400
H  57.41900 28.02700 47.98900
H  58.30500 24.58500 48.34700
H  58.30000 26.20300 49.09200
H  59.60100 25.80700 48.08700
H  57.55600 28.71800 45.16800
H  59.05800 28.18200 45.72300
H  59.43300 30.32600 46.68600
H  58.01800 30.08800 47.67400
H  57.72400 30.68400 46.07400
H  52.11000 31.56400 47.75800
H  53.35400 32.08500 46.50200
H  53.78900 31.19600 47.97000
H  48.75700 28.49400 45.00800
H  47.08200 29.30400 41.15300
H  48.78400 29.61000 40.69000
H  47.74600 30.62900 41.77900

