158

Mg 40.60500 8.77400 30.31600
C  42.88100 10.20900 32.67400
C  38.61600 8.05600 32.94000
C  38.41800 7.80000 28.09900
C  42.94700 9.56000 27.90300
N  40.77600 9.02600 32.62600
C  41.71800 9.72800 33.30800
C  41.39500 9.78300 34.82000
C  40.04200 8.99400 34.85800
C  39.78700 8.68100 33.41800
C  39.97100 7.79500 35.86900
C  41.40600 11.27300 35.39600
C  40.51200 11.62300 36.57500
H  40.96100 12.67300 37.62000
N  38.83600 7.88100 30.49800
C  38.13800 7.66400 31.62900
C  36.83900 7.11800 31.37000
C  36.72000 7.07900 29.93200
C  37.94900 7.57000 29.45000
C  35.85500 6.81900 32.47400
C  35.54700 6.67200 29.03000
O  35.69000 6.54500 27.80000
C  34.19900 6.50700 29.54800
N  40.76700 8.45300 28.28100
C  39.66400 8.20100 27.56400
C  40.06100 8.20400 25.99800
C  41.43400 8.93300 25.99200
C  41.73300 9.00600 27.51300
C  39.92700 6.77800 25.30500
C  41.45100 10.24100 25.24500
C  40.47500 11.36600 25.64600
N  42.61300 9.49800 30.24900
C  43.31400 9.86300 29.18000
C  44.54100 10.45100 29.60100
C  44.36800 10.70700 30.94900
C  43.17700 10.06100 31.31900
C  45.66800 10.85600 28.68200
C  44.94400 11.41100 32.02100
O  45.96300 12.04400 32.01900
C  44.04600 11.02500 33.33400
C  44.90700 10.16500 34.12700
O  45.27600 9.03300 33.83000
O  45.11600 10.81200 35.32700
C  45.79400 9.91400 36.34200
H  37.93600 7.83400 33.76500
H  37.73200 7.60400 27.27200
H  43.73600 9.89900 27.22800
H  42.12800 9.11400 35.27100
H  39.34100 9.75500 35.20100
H  40.88000 7.58900 36.43300
H  39.76200 6.80600 35.45900
H  39.22600 8.04300 36.62500
H  41.24200 11.90800 34.52600
H  42.40500 11.52400 35.75400
H  40.36200 10.67300 37.09000
H  39.62900 12.02900 36.08100
H  34.95200 7.40100 32.29200
H  36.18900 6.95200 33.50300
H  35.57500 5.76800 32.41100
H  33.72400 7.41400 29.91900
H  34.07300 5.77400 30.34500
H  33.60500 6.04500 28.75800
H  39.41200 8.95400 25.54700
H  42.20900 8.34500 25.50000
H  39.04200 6.62200 24.68800
H  40.14600 5.93100 25.95600
H  40.74800 6.67300 24.59600
H  41.32300 10.06600 24.17700
H  42.44000 10.61200 25.51100
H  40.98600 12.32300 25.54400
H  40.15600 11.20900 26.67700
H  39.63500 11.43200 24.95500
H  45.38500 10.77300 27.63300
H  46.49400 10.18000 28.90700
H  45.94900 11.89100 28.87700
H  43.74600 11.96000 33.80700
H  45.13000 9.62700 37.15800
H  46.53200 10.59500 36.76600
H  46.21400 8.96600 36.00500
Mg 35.30300 49.01000 25.93800
C  35.72100 47.02600 28.78200
C  34.03900 51.55000 28.00400
C  34.50300 50.77500 23.26000
C  36.48400 46.40900 24.05100
N  34.89200 49.23400 28.16100
C  35.27500 48.31200 29.10100
C  35.09900 48.89100 30.47700
C  34.35400 50.24600 30.21600
C  34.39300 50.41100 28.68000
C  32.92300 50.37100 30.89500
C  36.41700 49.11500 31.27300
C  36.34200 48.94800 32.80200
H  34.99400 48.92800 33.48100
N  34.45300 50.88300 25.62500
C  34.05900 51.80300 26.58600
C  33.83300 53.11000 26.03300
C  33.87800 52.92100 24.59800
C  34.30700 51.49100 24.43900
C  33.60700 54.41000 26.84400
C  33.70900 53.97600 23.53700
O  33.85900 53.70000 22.36800
C  33.31900 55.43500 23.93600
N  35.44700 48.68700 23.91700
C  34.93500 49.46400 23.00200
C  34.96500 48.83800 21.62700
C  35.74000 47.50500 21.87800
C  35.97100 47.57200 23.38100
C  33.63700 48.66700 20.85500
C  37.03000 47.26000 21.05900
C  38.32100 47.81300 21.68600
N  35.89600 47.03800 26.31600
C  36.39500 46.12000 25.44700
C  36.75400 44.94300 26.08600
C  36.55700 45.15300 27.46900
C  36.07600 46.49500 27.53000
C  37.28600 43.65400 25.38300
C  36.52900 44.67600 28.84000
O  36.79100 43.57500 29.37600
C  36.03000 45.93800 29.74800
C  34.85700 45.49200 30.53900
O  33.71400 45.40000 30.08800
O  35.25300 45.27900 31.86200
C  34.14700 44.84600 32.67800
H  33.84900 52.37000 28.69900
H  34.19300 51.33100 22.37300
H  36.99800 45.66500 23.44000
H  34.50800 48.12600 30.98300
H  34.92800 50.98200 30.77900
H  32.14000 50.63800 30.18500
H  32.90600 51.23600 31.55800
H  32.66600 49.45100 31.41900
H  36.75700 50.12400 31.03600
H  37.18800 48.46600 30.85600
H  37.06900 49.59000 33.29900
H  36.77300 47.94800 32.85500
H  32.73400 54.98100 26.52800
H  34.46300 55.08200 26.77200
H  33.45100 54.14900 27.89100
H  34.00100 55.74300 24.72900
H  32.30900 55.41500 24.34400
H  33.44700 56.12100 23.09900
H  35.51200 49.49000 20.94600
H  35.06800 46.65200 21.78800
H  33.54500 47.63000 20.53000
H  33.44800 49.36000 20.03500
H  32.81000 48.78400 21.55500
H  36.90700 47.85700 20.15600
H  37.04700 46.18600 20.87200
H  39.06800 47.31200 21.07100
H  38.42200 47.59300 22.74900
H  38.48500 48.87000 21.47600
H  37.37200 42.88500 26.15000
H  38.16200 43.91500 24.78900
H  36.43400 43.33700 24.78200
H  36.83300 46.23800 30.42100
H  33.31400 45.54600 32.74300
H  34.46900 44.73800 33.71400
H  33.72500 43.85300 32.52500

