158

Mg 24.31500 -5.19300 46.08800
C  26.24100 -2.77900 44.10200
C  21.60000 -4.41500 44.07200
C  22.84600 -7.84500 47.20400
C  27.43200 -6.06100 47.47400
N  24.02400 -3.81800 44.27800
C  24.91700 -2.89800 43.67700
C  24.19900 -1.99400 42.71600
C  22.69300 -2.39300 42.84900
C  22.75200 -3.65300 43.79000
C  21.71900 -1.35900 43.35500
C  24.71300 -2.10800 41.21800
C  24.82300 -0.87500 40.35000
H  24.61400 -1.04900 38.79000
N  22.40100 -5.99500 45.71300
C  21.44900 -5.54100 44.89800
C  20.35100 -6.41100 44.98200
C  20.75700 -7.50500 45.75900
C  22.05800 -7.17400 46.28000
C  19.00700 -6.12100 44.35200
C  19.80000 -8.70300 45.99500
O  18.68300 -8.71900 45.53100
C  20.31600 -9.78600 46.82900
N  25.08900 -6.78100 47.11100
C  24.21900 -7.65100 47.62000
C  25.01700 -8.58700 48.61300
C  26.39500 -7.89900 48.82300
C  26.34800 -6.90800 47.69000
C  24.28400 -9.02000 49.87600
C  27.71100 -8.86900 48.94900
C  28.40700 -9.27400 47.63100
N  26.34700 -4.44200 45.94300
C  27.47400 -4.96100 46.58900
C  28.63400 -4.14400 46.18500
C  28.20800 -3.28900 45.23300
C  26.83400 -3.54600 45.10600
C  30.03100 -4.22600 46.80800
C  28.61800 -2.15100 44.40200
O  29.66900 -1.46500 44.33400
C  27.27400 -1.75400 43.65300
C  26.88600 -0.34100 44.08400
O  26.30900 -0.01600 45.08800
O  27.42000 0.53800 43.19700
C  27.31700 2.02100 43.22500
H  20.83800 -4.11400 43.35000
H  22.39700 -8.64500 47.79700
H  28.33900 -6.30400 48.03000
H  24.30100 -1.04500 43.24100
H  22.29300 -2.76000 41.90400
H  21.11700 -0.83700 42.61000
H  22.19200 -0.53100 43.88300
H  21.04200 -1.75900 44.10900
H  24.08300 -2.81500 40.67800
H  25.66200 -2.64200 41.25000
H  25.89000 -0.65500 40.40100
H  24.16000 -0.11100 40.75500
H  18.93700 -6.72700 43.44800
H  18.82300 -5.12300 43.95400
H  18.10700 -6.40900 44.89500
H  20.29800 -9.21300 47.75600
H  21.31500 -10.14700 46.58300
H  19.66500 -10.65100 46.95400
H  25.24200 -9.48200 48.03200
H  26.27400 -7.19400 49.64500
H  24.46400 -10.08700 50.00800
H  23.24400 -8.71100 49.77300
H  24.77000 -8.51200 50.70900
H  27.51800 -9.81700 49.45100
H  28.41700 -8.17400 49.40400
H  28.05500 -10.29000 47.45200
H  29.48300 -9.10400 47.66900
H  28.04500 -8.72500 46.76200
H  30.59600 -3.33500 46.53500
H  30.62300 -5.05600 46.42200
H  30.15900 -4.27700 47.89000
H  27.36000 -1.82400 42.56800
H  26.55000 2.30500 42.50400
H  28.24500 2.49200 42.90200
H  27.13100 2.39200 44.23300
Mg 15.97300 -2.04700 27.87500
C  15.10800 0.01600 30.56300
C  17.83600 -4.02000 30.13800
C  17.01400 -3.86600 25.22900
C  14.54700 0.30100 25.62500
N  16.27900 -2.14500 30.13100
C  15.89300 -1.09000 30.98900
C  16.40100 -1.34600 32.36800
C  17.43800 -2.44900 32.18300
C  17.16600 -2.90900 30.72000
C  18.90500 -1.96400 32.37400
C  15.32100 -1.74100 33.41200
C  15.42400 -1.25800 34.88100
H  16.68500 -0.57000 35.34100
N  17.13500 -3.76700 27.71800
C  17.79300 -4.42200 28.77000
C  18.35300 -5.60700 28.19400
C  18.13800 -5.59300 26.81700
C  17.41400 -4.41400 26.54600
C  19.12000 -6.67200 28.95700
C  18.46300 -6.70600 25.74800
O  17.95300 -6.78800 24.60800
C  19.51800 -7.72200 26.11800
N  15.81600 -1.85800 25.78100
C  16.30000 -2.72100 24.85100
C  15.75300 -2.44100 23.47900
C  15.03200 -1.04600 23.54700
C  15.13100 -0.85800 25.10600
C  16.75700 -2.57900 22.24800
C  13.58600 -1.21100 22.87700
C  12.59100 -2.10500 23.53900
N  14.99400 -0.20600 28.01700
C  14.45400 0.57500 27.00600
C  13.79700 1.66900 27.66000
C  14.02000 1.51100 29.02900
C  14.74600 0.33500 29.20200
C  12.93300 2.76800 27.11600
C  13.68400 2.04300 30.34400
O  13.03200 2.97600 30.75800
C  14.45100 1.16300 31.37400
C  15.34400 2.14800 32.16200
O  16.47400 2.42900 31.86700
O  14.61200 2.78800 33.14300
C  15.29700 3.92400 33.78000
H  18.49200 -4.48400 30.87700
H  17.37300 -4.50000 24.41600
H  14.01800 1.00800 24.98100
H  16.77500 -0.36500 32.66200
H  17.18500 -3.29700 32.81900
H  19.40400 -2.49400 33.18500
H  18.96200 -0.90100 32.60900
H  19.57700 -2.14200 31.53400
H  15.23600 -2.82600 33.47800
H  14.31900 -1.60600 33.00400
H  15.31500 -2.14300 35.50700
H  14.50100 -0.69500 35.01800
H  20.18400 -6.48700 28.81400
H  18.85000 -7.67800 28.63400
H  18.90900 -6.54800 30.01900
H  20.03000 -8.12700 25.24500
H  19.08800 -8.50000 26.74800
H  20.31800 -7.21300 26.65600
H  15.05600 -3.27500 23.38400
H  15.57200 -0.28500 22.98400
H  17.76500 -2.76100 22.62100
H  16.68400 -1.73000 21.56800
H  16.54700 -3.44300 21.61800
H  13.61800 -1.43400 21.81000
H  13.16600 -0.20600 22.86500
H  11.64000 -1.60500 23.72100
H  12.89600 -2.51300 24.50300
H  12.34500 -3.01100 22.98500
H  11.91700 2.61300 27.47800
H  12.90800 2.88500 26.03300
H  13.29900 3.71600 27.51100
H  13.69900 0.81000 32.07900
H  16.13900 3.65600 34.42000
H  14.56500 4.48200 34.36400
H  15.74600 4.52100 32.98700

