158

Mg 2.31600 -0.63100 44.12600
C  5.62200 0.33300 43.97500
C  1.39700 2.54100 43.09400
C  -0.76300 -1.66100 43.95600
C  3.53300 -3.98100 44.61800
N  3.41400 1.21500 43.37400
C  4.75800 1.39500 43.57100
C  5.17900 2.82500 43.25400
C  3.77200 3.53900 43.16300
C  2.78000 2.40000 43.16100
C  3.53400 4.53100 44.36600
C  5.97700 2.94400 41.94800
C  5.46100 2.18100 40.72300
H  5.32100 2.98700 39.42800
N  0.54000 0.40500 43.61000
C  0.32500 1.66900 43.16900
C  -1.10900 1.92000 42.97200
C  -1.72300 0.66700 43.11500
C  -0.65800 -0.23700 43.57600
C  -1.75800 3.18800 42.46600
C  -3.24200 0.36500 42.98900
O  -3.95600 1.17100 42.46400
C  -3.85500 -0.92800 43.60000
N  1.52100 -2.58500 44.21000
C  0.18100 -2.68300 44.35500
C  -0.23400 -4.15900 44.62000
C  1.08400 -4.92700 44.57000
C  2.13800 -3.80500 44.47200
C  -1.07600 -4.41600 45.84200
C  1.22800 -5.88000 43.35400
C  1.82300 -7.34200 43.48700
N  4.13900 -1.68200 44.37600
C  4.51200 -2.92700 44.75200
C  5.93800 -3.00000 45.02800
C  6.38900 -1.73800 44.71100
C  5.27600 -0.98400 44.30100
C  6.68400 -4.11000 45.61100
C  7.64200 -0.96400 44.55400
O  8.80800 -1.23000 44.78400
C  7.11000 0.50500 44.18900
C  7.46800 1.53200 45.19800
O  8.37800 2.36500 45.08300
O  6.76800 1.43400 46.44100
C  6.87400 2.62400 47.29600
H  0.99100 3.53700 42.90700
H  -1.74000 -2.12300 44.11200
H  3.83900 -4.98900 44.90500
H  5.86900 3.11500 44.04600
H  3.68900 4.09500 42.23000
H  4.29000 4.27900 45.10900
H  2.54700 4.28900 44.76100
H  3.57200 5.56600 44.02700
H  6.93800 2.46000 42.12000
H  6.24300 3.98700 41.77700
H  4.54100 1.66000 40.98800
H  6.15300 1.38300 40.45100
H  -1.10600 4.00700 42.77000
H  -2.59300 3.51000 43.08900
H  -2.03600 3.08800 41.41700
H  -3.56600 -1.08500 44.63900
H  -3.74500 -1.71500 42.85500
H  -4.84800 -0.48300 43.65800
H  -0.86900 -4.45400 43.78500
H  1.24900 -5.56300 45.44000
H  -1.81000 -3.63200 46.02900
H  -0.50000 -4.55700 46.75600
H  -1.72200 -5.28700 45.73200
H  1.79600 -5.38400 42.56600
H  0.26100 -6.00100 42.86600
H  1.04600 -8.09300 43.34300
H  2.33500 -7.47100 44.44000
H  2.60200 -7.58800 42.76500
H  5.91200 -4.81600 45.92000
H  7.33200 -3.71800 46.39500
H  7.31800 -4.47400 44.80300
H  7.57200 0.74300 43.23100
H  7.88800 3.00600 47.40900
H  6.42600 2.49200 48.28100
H  6.19200 3.30100 46.78200
Mg 53.27300 23.96200 44.83300
C  50.60100 26.19100 44.09100
C  51.21700 21.39100 43.67200
C  55.98700 22.05700 44.56500
C  55.23400 26.80600 45.24100
N  51.30800 23.81500 43.81200
C  50.33900 24.87100 43.66300
C  49.12300 24.31100 42.90800
C  49.17500 22.84400 43.32900
C  50.69800 22.67300 43.57100
C  48.32700 22.52900 44.58900
C  49.32500 24.54200 41.37400
C  48.01600 24.68300 40.61500
H  48.02700 25.01300 39.12600
N  53.56400 21.97600 44.36600
C  52.60600 21.02400 43.97700
C  53.17500 19.79300 44.14500
C  54.59400 19.91400 44.31500
C  54.76800 21.35000 44.39700
C  52.38400 18.53700 44.21500
C  55.69700 18.79100 44.39300
O  55.41200 17.64100 44.38800
C  57.08900 18.99500 44.65000
N  55.35900 24.40100 44.67900
C  56.26200 23.43600 44.76400
C  57.70600 23.84700 44.94100
C  57.49500 25.45500 45.10500
C  55.90500 25.57000 44.99400
C  58.58000 23.15300 45.97600
C  58.25400 26.42800 44.12100
C  58.27200 26.14400 42.61800
N  52.98100 26.04400 44.95900
C  53.84100 27.00600 45.29700
C  53.13500 28.28200 45.42000
C  51.86400 28.02200 45.02000
C  51.83400 26.68300 44.62100
C  53.69000 29.61800 45.88100
C  50.61800 28.61900 44.72900
O  50.11900 29.68700 44.97200
C  49.74200 27.38000 44.12500
C  49.14400 27.81700 42.83200
O  49.77000 27.67000 41.76300
O  47.80400 28.17800 42.90500
C  47.15500 28.29300 41.60300
H  50.51800 20.57500 43.47300
H  56.86200 21.40500 44.61700
H  55.94000 27.61200 45.45500
H  48.21900 24.82400 43.23400
H  48.93300 22.22200 42.46700
H  48.98400 22.00600 45.28300
H  47.70000 21.71900 44.21700
H  47.84700 23.35200 45.11900
H  49.96700 23.80800 40.88700
H  49.88900 25.47400 41.34400
H  47.42300 25.49000 41.04600
H  47.39600 23.83000 40.89200
H  52.42500 18.13300 43.20400
H  51.38200 18.84900 44.51000
H  52.83700 17.92500 44.99400
H  57.61400 18.08300 44.93500
H  57.10000 19.64400 45.52600
H  57.27100 19.35400 43.63800
H  58.21100 23.69000 43.98800
H  57.86200 25.73900 46.09100
H  59.34600 22.63600 45.39900
H  58.04300 22.30100 46.39300
H  58.90200 23.77000 46.81500
H  59.27200 26.52800 44.49700
H  57.74000 27.38200 44.23900
H  58.07300 27.05200 42.04900
H  57.51200 25.42100 42.31800
H  59.18300 25.58800 42.39700
H  54.24100 29.36000 46.78500
H  52.88900 30.27700 46.21600
H  54.22600 30.05200 45.03600
H  48.89200 27.25900 44.79700
H  47.66100 27.70700 40.83600
H  47.31000 29.33000 41.30600
H  46.07000 28.21300 41.53100

