158

Mg 8.71200 3.05700 28.21400
C  9.98000 1.49100 30.83900
C  6.90600 5.21100 30.23400
C  7.47400 4.67700 25.43800
C  10.35600 0.80800 26.03500
N  8.37600 3.21400 30.33100
C  9.11500 2.57200 31.24700
C  8.86200 3.01700 32.68400
C  7.61900 3.99600 32.48600
C  7.59800 4.14100 30.91900
C  6.22800 3.64700 33.17800
C  10.10600 3.49400 33.45000
C  9.90300 4.38000 34.70000
H  10.47000 3.97000 36.05600
N  7.31500 4.61100 27.93700
C  6.67000 5.35800 28.85300
C  6.08200 6.50600 28.28000
C  6.23100 6.39000 26.86100
C  7.04500 5.12100 26.68200
C  5.52000 7.63500 29.19800
C  5.72000 7.35000 25.77400
O  6.13400 7.24700 24.58100
C  4.79900 8.40000 26.18700
N  8.83300 2.71800 26.11200
C  8.18300 3.48400 25.19400
C  8.72100 3.27500 23.72400
C  9.66000 2.01700 23.89500
C  9.60800 1.77400 25.43600
C  7.50400 3.12400 22.69400
C  11.00800 2.15200 23.22700
C  12.06900 3.04000 23.88700
N  9.77600 1.39800 28.34000
C  10.44100 0.56400 27.36400
C  11.40200 -0.36800 28.01000
C  11.20000 -0.00800 29.39700
C  10.21600 0.99800 29.50900
C  12.30100 -1.38300 27.40100
C  11.62400 -0.39100 30.78100
O  12.39400 -1.26500 31.15400
C  10.89300 0.67100 31.76500
C  10.14400 -0.22200 32.71400
O  9.26100 -0.95100 32.31500
O  10.46400 0.05200 33.98500
C  9.58700 -0.68300 34.93900
H  6.63900 5.93000 31.01100
H  7.27100 5.26300 24.53900
H  10.79100 0.08000 25.34800
H  8.47400 2.13500 33.19300
H  7.92800 4.99800 32.78300
H  6.34200 2.66800 33.64500
H  5.46900 3.60500 32.39700
H  5.94400 4.34400 33.96600
H  10.86900 3.85400 32.76100
H  10.48400 2.56900 33.88600
H  8.84000 4.61500 34.76500
H  10.43400 5.30900 34.49200
H  5.90800 8.62900 28.97400
H  5.86400 7.50200 30.22400
H  4.43500 7.69900 29.10800
H  5.42300 9.13800 26.69100
H  3.99700 8.02600 26.82400
H  4.35900 8.79900 25.27300
H  9.41700 4.08800 23.51900
H  9.18100 1.14500 23.45000
H  6.62700 3.11900 23.34100
H  7.56400 2.16100 22.18700
H  7.46700 3.94400 21.97700
H  10.91200 2.60400 22.24000
H  11.38200 1.15200 23.00900
H  11.84800 3.35100 24.90800
H  12.44500 3.87200 23.29100
H  12.92000 2.35900 23.90900
H  13.00700 -1.02500 26.65200
H  11.64000 -2.14400 26.98700
H  12.95700 -1.72300 28.20300
H  11.52100 1.24000 32.45000
H  10.36400 -1.33800 35.33300
H  8.85900 -1.39300 34.54700
H  9.14200 -0.04700 35.70400
Mg -10.47800 38.43800 41.91400
C  -8.78600 35.68400 40.63400
C  -8.29600 40.43100 39.93500
C  -12.33900 41.20600 42.58600
C  -12.98900 36.45600 43.12800
N  -8.80200 38.11200 40.31800
C  -8.29400 36.86000 40.06700
C  -7.18000 36.93400 38.88100
C  -6.98800 38.49000 38.84600
C  -8.04400 39.10300 39.79700
C  -5.50500 38.93000 39.27400
C  -7.49800 36.17500 37.59200
C  -6.24300 35.43300 36.99200
H  -5.66100 36.08500 35.75800
N  -10.20400 40.51600 41.54000
C  -9.23300 41.10000 40.71400
C  -9.33500 42.51000 40.89500
C  -10.55700 42.79300 41.60500
C  -11.08400 41.50100 41.96300
C  -8.26100 43.42900 40.33100
C  -11.11100 44.19400 41.79300
O  -10.43500 45.14200 41.34000
C  -12.48600 44.56800 42.24000
N  -12.45200 38.76100 42.53200
C  -12.94700 40.01700 42.87700
C  -14.30400 39.91700 43.44600
C  -14.48100 38.40300 43.75200
C  -13.20100 37.83900 43.15100
C  -14.74900 40.81300 44.61800
C  -15.83100 37.71000 43.28200
C  -16.86500 37.46600 44.42400
N  -10.82800 36.49000 42.01500
C  -11.85600 35.82900 42.58400
C  -11.49300 34.41400 42.55900
C  -10.28100 34.33700 41.89300
C  -9.96200 35.62600 41.48500
C  -12.40000 33.29400 42.94600
C  -9.32100 33.41600 41.31300
O  -9.19200 32.20400 41.36900
C  -8.30100 34.26000 40.49900
C  -6.99500 33.94600 41.30900
O  -6.36400 32.91900 41.18700
O  -6.70900 35.06000 42.11400
C  -5.49400 34.93900 42.86900
H  -7.61500 41.01700 39.31500
H  -13.04000 41.96700 42.93700
H  -13.60900 35.71100 43.63100
H  -6.30200 36.49700 39.35600
H  -7.14300 38.89500 37.84600
H  -4.95400 38.08200 39.68100
H  -5.56700 39.75900 39.97900
H  -4.95700 39.29200 38.40400
H  -7.82900 36.91400 36.86200
H  -8.28600 35.45900 37.82400
H  -6.42400 34.37800 36.78600
H  -5.44800 35.42700 37.73800
H  -8.56600 43.89200 39.39200
H  -7.34000 42.84700 40.34200
H  -8.17800 44.15100 41.14300
H  -12.60700 44.59500 43.32300
H  -13.26000 43.91800 41.83200
H  -12.68500 45.56400 41.84600
H  -14.89800 40.17100 42.56700
H  -14.42700 38.33800 44.83900
H  -13.89600 41.19200 45.18000
H  -15.47000 40.25700 45.21700
H  -15.28500 41.67800 44.22500
H  -15.60700 36.76300 42.79200
H  -16.24800 38.35500 42.50900
H  -16.89000 36.41200 44.70100
H  -17.85400 37.87700 44.22200
H  -16.54100 37.99000 45.32300
H  -13.28500 33.14100 42.32900
H  -12.59800 33.26800 44.01700
H  -11.79700 32.39300 42.82600
H  -8.25900 33.93700 39.45900
H  -4.86200 35.79100 42.62000
H  -4.89000 34.05100 42.68100
H  -5.91800 34.92600 43.87300

