158

Mg 34.89600 2.32000 29.59900
C  32.97500 3.51700 32.22500
C  37.60700 2.12100 31.81300
C  36.80700 1.21000 27.15000
C  32.22500 2.70900 27.44300
N  35.23400 2.71500 31.74300
C  34.24400 3.10300 32.60700
C  34.72500 2.91300 34.03800
C  36.25300 2.65700 33.90100
C  36.40900 2.44200 32.44500
C  37.13800 3.88800 34.51900
C  33.85700 1.78600 34.72000
C  33.44700 2.00500 36.20900
H  34.17400 3.13700 36.95800
N  36.93600 1.83500 29.52900
C  37.87800 1.89000 30.43600
C  39.22500 1.73700 29.92400
C  39.00300 1.17900 28.59200
C  37.51800 1.38900 28.39600
C  40.50000 1.77600 30.74000
C  39.97900 0.62300 27.54600
O  39.59800 0.02500 26.53900
C  41.40000 0.54200 27.91600
N  34.57200 1.99000 27.63800
C  35.51600 1.53300 26.84100
C  35.01100 1.29500 25.40400
C  33.52200 1.64200 25.53100
C  33.42200 2.21200 26.91900
C  35.72300 2.10800 24.32300
C  32.55400 0.51500 25.24100
C  32.53500 0.10100 23.71100
N  33.09900 3.12000 29.69100
C  32.00600 3.13600 28.76800
C  30.82300 3.64400 29.41900
C  31.17900 3.78200 30.80300
C  32.51300 3.52300 30.90800
C  29.43400 3.86300 28.82500
C  30.57500 4.13100 32.12200
O  29.43700 4.36600 32.42700
C  31.77900 3.88700 33.13600
C  31.87300 5.13400 33.99900
O  32.53900 6.14800 33.67300
O  31.09500 5.02000 35.13000
C  31.07400 6.17800 35.99300
H  38.45200 2.27500 32.48800
H  37.42500 1.03300 26.26800
H  31.34700 2.74000 26.79400
H  34.54100 3.90100 34.46100
H  36.54900 1.71900 34.37000
H  37.44700 4.58100 33.73600
H  37.98500 3.36500 34.96300
H  36.64900 4.37700 35.36100
H  34.45200 0.88100 34.84000
H  32.94700 1.45500 34.22100
H  33.61100 1.05600 36.72000
H  32.38000 2.15700 36.04400
H  41.29000 2.46200 30.43400
H  40.89800 0.77200 30.88500
H  40.13100 2.11700 31.70800
H  41.75400 -0.36200 28.41000
H  41.77300 1.36800 28.52200
H  41.99400 0.59600 27.00300
H  35.14100 0.22100 25.27400
H  33.23800 2.44100 24.84700
H  36.62800 1.56400 24.05400
H  35.87100 3.10000 24.75000
H  35.09100 2.34300 23.46600
H  31.52900 0.82600 25.44600
H  32.93000 -0.31300 25.84200
H  32.80200 -0.95500 23.68200
H  33.29600 0.61400 23.12300
H  31.60800 0.33900 23.18900
H  29.45300 4.22300 27.79600
H  28.87100 4.59200 29.40700
H  28.82000 2.96800 28.92700
H  31.50000 3.00300 33.70800
H  32.07800 6.51500 36.25100
H  30.44700 5.84900 36.82200
H  30.65300 7.04100 35.47800
Mg -11.96000 17.76800 40.48300
C  -8.82800 16.03300 40.10800
C  -10.16700 20.63700 39.48700
C  -14.82700 19.34500 39.86200
C  -13.52700 14.75000 40.95200
N  -9.74900 18.19300 39.67900
C  -8.67900 17.38000 39.72100
C  -7.39800 18.07700 39.09300
C  -7.86500 19.58500 39.08300
C  -9.36300 19.48300 39.43400
C  -7.15400 20.40100 40.21600
C  -7.01600 17.45800 37.70600
C  -5.62100 16.88000 37.44100
H  -5.61500 15.45400 36.89600
N  -12.40900 19.77600 39.91300
C  -11.54600 20.78900 39.58500
C  -12.33500 22.00400 39.52300
C  -13.75700 21.59700 39.48400
C  -13.71400 20.17200 39.74400
C  -11.67600 23.35500 39.35800
C  -14.93600 22.58400 39.34300
O  -14.75500 23.74700 38.97400
C  -16.35700 22.18100 39.67400
N  -13.87400 17.07700 40.40700
C  -14.88100 17.96100 40.10300
C  -16.21000 17.20400 39.99500
C  -15.87300 15.82900 40.74400
C  -14.33500 15.88400 40.72500
C  -17.34600 17.94400 40.61100
C  -16.40400 14.57200 39.98000
C  -17.02300 13.36200 40.79500
N  -11.33800 15.78300 40.59600
C  -12.08800 14.67900 40.85700
C  -11.24500 13.51200 40.93600
C  -9.94900 14.01500 40.66200
C  -10.04700 15.41100 40.45900
C  -11.64300 12.03700 41.21300
C  -8.55300 13.67200 40.70200
O  -8.05500 12.67500 41.13800
C  -7.75800 14.96400 40.18500
C  -6.77100 15.34100 41.26900
O  -7.09100 15.98400 42.28800
O  -5.49600 14.83300 40.93900
C  -4.45300 14.79300 41.97500
H  -9.60700 21.55500 39.29300
H  -15.79600 19.73900 39.55000
H  -14.13500 13.87100 41.17700
H  -6.47100 17.90200 39.63900
H  -7.78100 20.17600 38.17000
H  -6.22200 19.96100 40.56800
H  -7.69100 20.50300 41.15900
H  -6.85600 21.38000 39.84100
H  -7.25900 18.19700 36.94200
H  -7.74300 16.67900 37.47400
H  -4.86600 16.99000 38.21900
H  -5.21000 17.55700 36.69200
H  -10.86300 23.55000 40.05800
H  -12.40200 24.12800 39.61000
H  -11.28600 23.47300 38.34700
H  -16.70800 21.49200 38.90700
H  -16.99600 23.06100 39.74700
H  -16.45700 21.65500 40.62400
H  -16.50600 17.09800 38.95200
H  -16.23700 15.91300 41.76800
H  -17.13600 18.96800 40.91800
H  -17.75100 17.37900 41.45000
H  -18.21200 17.93200 39.94900
H  -15.53500 14.15000 39.47400
H  -17.00500 14.98400 39.16900
H  -16.98800 13.55900 41.86700
H  -16.52600 12.42600 40.53700
H  -17.98700 13.20800 40.31200
H  -12.42100 11.82200 40.48000
H  -12.01200 11.85900 42.22300
H  -10.85300 11.33700 40.93900
H  -7.25200 14.65800 39.26900
H  -4.94700 14.62900 42.93200
H  -3.86100 15.69900 41.83900
H  -3.88300 13.91800 41.66200

