158

Mg 17.09700 -1.32700 28.05700
C  16.06300 0.64200 30.88200
C  19.03200 -3.09000 29.98300
C  18.46400 -2.66500 25.17700
C  15.35300 0.89400 26.07800
N  17.56800 -1.02500 30.11700
C  17.06100 -0.31000 31.15500
C  17.49300 -0.79800 32.57600
C  18.63700 -1.77900 32.14900
C  18.36500 -1.99000 30.65500
C  20.06100 -1.34600 32.52700
C  16.35200 -1.38400 33.45600
C  16.64100 -1.46500 35.01200
H  17.89400 -0.84500 35.63700
N  18.42500 -2.80800 27.63600
C  19.05300 -3.46000 28.62000
C  19.80500 -4.53400 28.03600
C  19.73200 -4.43200 26.64300
C  18.85200 -3.24600 26.42600
C  20.43500 -5.59800 28.96300
C  20.36300 -5.19100 25.55900
O  20.13800 -4.95700 24.35500
C  21.25300 -6.37800 25.89800
N  16.90300 -0.93600 25.91200
C  17.47200 -1.68900 24.94700
C  17.16900 -1.11900 23.52400
C  16.15600 0.02700 23.79400
C  16.05600 -0.05000 25.35900
C  18.44200 -0.76100 22.75100
C  14.81700 0.02100 23.05700
C  14.87700 0.73700 21.64100
N  15.84800 0.40700 28.28100
C  15.18500 1.14200 27.43800
C  14.40400 2.13300 28.11000
C  14.77100 2.00500 29.48700
C  15.59500 0.91400 29.57300
C  13.72600 3.30200 27.40500
C  14.66300 2.60500 30.88900
O  14.15700 3.65100 31.31500
C  15.44000 1.58900 31.83800
C  16.31500 2.51100 32.63800
O  17.32200 3.02000 32.24100
O  15.72300 2.84900 33.76900
C  16.48400 3.83900 34.56800
H  19.73500 -3.62700 30.62300
H  18.81900 -3.03000 24.21100
H  14.83100 1.55100 25.37900
H  17.94400 0.06200 33.07200
H  18.55100 -2.73100 32.67300
H  20.69800 -1.49900 31.65500
H  20.40600 -2.00400 33.32400
H  20.09200 -0.33000 32.92100
H  16.07500 -2.35800 33.05300
H  15.49400 -0.71900 33.34900
H  16.51400 -2.52000 35.25600
H  15.84100 -0.85600 35.43200
H  21.43400 -5.25000 29.22200
H  20.38000 -6.60000 28.53500
H  19.81900 -5.69000 29.85700
H  22.06800 -5.97500 26.49900
H  21.72600 -6.84500 25.03400
H  20.77100 -7.10900 26.54700
H  16.67100 -1.93600 23.00100
H  16.61300 0.99100 23.57100
H  18.42800 0.31900 22.60000
H  18.58400 -1.28500 21.80700
H  19.25500 -0.93400 23.45700
H  13.98000 0.22300 23.72500
H  14.61700 -1.01500 22.78400
H  14.55800 -0.00100 20.90600
H  15.90200 0.95400 21.34200
H  14.26900 1.63500 21.52900
H  14.34300 3.39100 26.51200
H  13.86400 4.17400 28.04500
H  12.68300 3.16800 27.12000
H  14.66000 1.09000 32.41300
H  15.98100 4.04100 35.51300
H  16.49200 4.78700 34.02900
H  17.53300 3.57300 34.69700
Mg 26.86900 50.82900 25.99400
C  24.97700 52.03600 28.77000
C  29.51300 50.33000 28.08400
C  28.21800 49.57100 23.40500
C  24.26800 52.17000 23.88900
N  27.06700 50.94200 28.16600
C  26.17300 51.33900 29.10300
C  26.71700 51.17700 30.55400
C  28.25300 51.10000 30.27900
C  28.32300 50.74500 28.73500
C  29.09600 52.38900 30.65900
C  26.01100 49.91100 31.33400
C  25.43300 50.35000 32.69400
H  26.44200 50.92000 33.72800
N  28.62800 50.12400 25.75300
C  29.67500 49.99100 26.71500
C  30.69000 49.15600 26.06100
C  30.23400 48.70700 24.84300
C  28.96900 49.47700 24.58600
C  32.07100 48.85100 26.75400
C  30.84600 47.78200 23.74500
O  30.27600 47.47200 22.68100
C  32.15000 47.07300 24.08100
N  26.29500 50.96600 23.85200
C  27.02000 50.23800 23.03900
C  26.40100 50.20800 21.68000
C  25.16000 51.07900 21.78100
C  25.19900 51.37100 23.25200
C  27.33600 50.60900 20.56500
C  23.86400 50.35300 21.38900
C  22.81400 51.19200 20.54000
N  25.05000 51.93700 26.24900
C  24.17100 52.46800 25.26200
C  23.10600 53.17100 25.92400
C  23.30700 52.83700 27.33300
C  24.54200 52.19300 27.43200
C  21.91400 53.74800 25.33500
C  22.79000 53.17200 28.64400
O  21.77500 53.79900 28.91000
C  23.84800 52.59800 29.69200
C  24.10100 53.68200 30.65600
O  24.93000 54.59200 30.48100
O  23.38600 53.48200 31.83700
C  23.82200 54.32500 32.96000
H  30.31900 50.13800 28.79500
H  28.76400 49.25800 22.51300
H  23.57200 52.72600 23.25900
H  26.52600 52.09500 31.11000
H  28.72600 50.27400 30.81100
H  29.53900 52.08800 31.60900
H  28.50200 53.28300 30.84600
H  29.89700 52.65100 29.96700
H  26.69300 49.06200 31.28800
H  25.16000 49.71000 30.68400
H  24.82200 49.50500 33.01200
H  24.68000 51.12600 32.56100
H  32.87000 49.32100 26.18100
H  32.21100 47.77100 26.80300
H  32.06800 49.28300 27.75500
H  32.92100 47.84200 24.12900
H  32.49000 46.43500 23.26500
H  32.15900 46.50700 25.01200
H  26.13000 49.15900 21.56200
H  25.22500 52.01100 21.22000
H  28.21800 51.15200 20.90700
H  26.93000 51.31800 19.84400
H  27.68900 49.78800 19.94100
H  23.26200 49.92100 22.18900
H  24.11400 49.55700 20.68800
H  22.35900 50.56300 19.77500
H  23.27400 52.11100 20.17500
H  22.02600 51.39900 21.26300
H  22.23200 54.34700 24.48200
H  21.34700 54.33300 26.06000
H  21.21800 52.99800 24.95900
H  23.22300 51.81500 30.12300
H  23.82800 55.35800 32.61100
H  24.82100 53.97700 33.22500
H  23.07900 54.22600 33.75100

