158

Mg 44.58200 5.33900 47.23000
C  42.63600 8.22800 47.01300
C  41.82300 3.52700 46.36000
C  46.62900 2.71700 46.70800
C  47.40500 7.40200 47.57600
N  42.46200 5.82900 46.66900
C  41.89800 7.11800 46.66700
C  40.40600 7.10600 46.20800
C  40.11400 5.55000 46.35100
C  41.50400 4.85800 46.49900
C  39.21600 5.25300 47.63500
C  40.01700 7.89700 44.94900
C  41.11900 7.74700 43.82200
H  40.74400 8.11500 42.38300
N  44.29200 3.37500 46.70100
C  43.03300 2.76400 46.44800
C  43.23400 1.36600 46.04000
C  44.64200 1.15800 45.97800
C  45.26000 2.40300 46.46900
C  42.20200 0.34900 45.58700
C  45.30400 -0.13900 45.30700
O  44.55900 -1.00500 44.87900
C  46.83000 -0.25200 45.29000
N  46.73400 5.15900 47.07700
C  47.29500 3.92600 46.92200
C  48.83600 4.03500 46.89000
C  49.03200 5.55200 47.20600
C  47.64300 6.06400 47.31400
C  49.58200 3.21600 47.98900
C  49.89400 6.32800 46.14600
C  51.02100 7.19900 46.69400
N  45.02600 7.37300 47.31500
C  46.19800 8.08400 47.51100
C  45.91200 9.50100 47.52600
C  44.52200 9.60800 47.36400
C  44.04200 8.27200 47.23400
C  46.86900 10.66200 47.37800
C  43.39000 10.53700 47.14800
O  43.41700 11.77500 47.00000
C  42.09800 9.63100 47.21000
C  41.46700 9.82800 48.46000
O  41.66900 9.18200 49.45400
O  40.49600 10.83200 48.34900
C  39.53700 10.77200 49.45500
H  40.87600 3.04200 46.11400
H  47.21800 1.80300 46.60500
H  48.26800 8.07100 47.58700
H  39.77900 7.62300 46.93400
H  39.68500 5.16300 45.42600
H  39.05900 6.14100 48.24800
H  39.68600 4.49000 48.25600
H  38.31800 4.85900 47.16000
H  40.04400 8.94600 45.24400
H  39.07600 7.44900 44.62800
H  41.38700 6.69500 43.72500
H  41.96200 8.33300 44.18800
H  42.08500 -0.53500 46.21400
H  42.41400 0.08100 44.55200
H  41.25700 0.88600 45.66500
H  46.97600 -1.23900 44.85100
H  47.25200 -0.30900 46.29300
H  47.19900 0.60900 44.73400
H  49.15000 3.63800 45.92500
H  49.46300 5.68600 48.19800
H  49.19900 3.35000 49.00100
H  50.61600 3.51900 47.82700
H  49.49400 2.13400 47.88700
H  49.26300 7.07900 45.67000
H  50.30900 5.65600 45.39500
H  51.91400 7.04700 46.08700
H  51.17700 6.91800 47.73500
H  50.87500 8.27500 46.60400
H  47.51200 10.55700 46.50500
H  47.47000 10.62800 48.28700
H  46.43700 11.66300 47.39500
H  41.48400 10.00800 46.39200
H  38.98300 9.83400 49.49000
H  38.66900 11.40300 49.26300
H  39.92500 10.89200 50.46700
Mg 6.23600 53.85700 41.26500
C  5.35500 50.39400 40.95900
C  9.29300 53.05100 40.35500
C  6.72500 57.06000 41.11500
C  2.68100 54.41700 41.82100
N  7.07600 51.99000 40.53800
C  6.62000 50.68600 40.54500
C  7.68300 49.64700 40.03900
C  8.93800 50.48400 40.43600
C  8.40200 51.95100 40.48400
C  9.73300 50.02100 41.73500
C  7.50500 49.13800 38.56500
C  6.80100 50.01100 37.56900
H  6.28600 49.44700 36.22600
N  7.84200 54.93600 40.87600
C  9.02100 54.41400 40.38400
C  9.92600 55.53400 40.09800
C  9.22200 56.72600 40.38500
C  7.90200 56.28400 40.81000
C  11.34300 55.44000 39.51700
C  9.67600 58.14500 40.27600
O  10.84700 58.41700 39.91800
C  8.84800 59.47300 40.47900
N  4.81500 55.48700 41.35000
C  5.37300 56.76200 41.22900
C  4.23200 57.78000 41.35700
C  2.89600 56.96500 41.24300
C  3.44000 55.56100 41.50800
C  4.12100 58.60900 42.68600
C  2.21600 56.92500 39.88300
C  0.84800 57.62500 39.77800
N  4.41000 52.68400 41.43600
C  3.08400 53.08800 41.77100
C  2.25600 51.94000 41.90400
C  3.17500 50.83900 41.73800
C  4.45000 51.35600 41.36000
C  0.84000 51.97300 42.39300
C  3.24700 49.42000 41.70700
O  2.40200 48.52600 41.95200
C  4.62200 49.08400 41.13400
C  4.27100 48.34900 39.81300
O  3.89500 48.86900 38.74500
O  4.31800 47.03900 40.03700
C  4.19000 46.16700 38.90200
H  10.34700 52.84100 40.16100
H  6.86100 58.12100 41.33500
H  1.63100 54.68300 41.95800
H  7.57100 48.83600 40.75900
H  9.56800 50.55100 39.54900
H  9.93500 50.88000 42.37400
H  10.70600 49.60700 41.47200
H  9.21600 49.27900 42.34300
H  6.89900 48.23300 38.61100
H  8.45100 48.80300 38.13900
H  7.48100 50.82500 37.31900
H  6.00200 50.60700 38.01200
H  11.09400 55.85600 38.54000
H  11.76200 54.44900 39.34100
H  12.13700 56.01300 39.99400
H  9.50300 60.34300 40.44400
H  8.46300 59.33400 41.49000
H  7.97500 59.48800 39.82700
H  4.34300 58.48900 40.53600
H  2.14100 57.18100 42.00000
H  3.91100 57.98500 43.55500
H  3.26500 59.28300 42.68400
H  5.05000 59.13000 42.92000
H  2.17600 55.87900 39.58100
H  2.90900 57.46100 39.23400
H  0.82800 58.11200 40.75300
H  0.07100 56.86200 39.72200
H  0.86500 58.35000 38.96500
H  0.21000 52.19800 41.53200
H  0.71100 52.72000 43.17600
H  0.55200 50.97600 42.72700
H  5.11100 48.41700 41.84400
H  4.97300 46.32600 38.16000
H  3.21800 46.14500 38.40800
H  4.37400 45.15100 39.25100

