158

Mg 48.32800 24.38300 29.00600
C  49.33800 26.77100 31.39500
C  47.60900 22.23600 31.58200
C  47.49300 22.09500 26.62900
C  49.32900 26.63200 26.51000
N  48.58700 24.47900 31.19600
C  48.74000 25.62500 31.95600
C  48.40200 25.34700 33.41600
C  47.99500 23.83900 33.41100
C  48.02500 23.49000 31.92000
C  48.91300 22.88300 34.19500
C  47.31800 26.41900 33.85600
C  46.70400 26.20000 35.26400
H  47.03600 27.16600 36.47300
N  47.66000 22.45700 29.06100
C  47.40300 21.78600 30.21700
C  46.85200 20.48300 29.88100
C  46.77600 20.42100 28.40500
C  47.34300 21.67200 27.92200
C  46.44300 19.41600 30.87600
C  46.24000 19.33800 27.42800
O  46.30500 19.40800 26.18200
C  45.56200 18.20500 27.93700
N  48.45400 24.28300 26.86600
C  48.02800 23.27800 26.13300
C  48.23100 23.52200 24.65000
C  48.65100 25.05700 24.63600
C  48.82600 25.37100 26.07100
C  49.28100 22.59200 23.97500
C  47.66500 26.05700 23.85900
C  48.43000 27.17300 23.07400
N  49.16900 26.26800 28.89100
C  49.45300 27.09300 27.81600
C  50.12100 28.35700 28.25100
C  50.09600 28.28000 29.66800
C  49.51100 26.99600 30.00800
C  50.75300 29.47200 27.46900
C  50.31600 28.98000 30.93700
O  50.84400 30.11300 31.06500
C  49.78100 28.08700 32.02500
C  50.80000 27.85300 33.09100
O  51.73500 27.05400 33.06900
O  50.69700 28.73600 34.10200
C  51.50000 28.56300 35.23000
H  47.32500 21.48800 32.32500
H  47.19600 21.38300 25.85600
H  49.60100 27.25500 25.65600
H  49.27100 25.65100 34.00000
H  46.93300 23.70200 33.61400
H  49.75500 23.36000 34.69600
H  49.47700 22.16100 33.60400
H  48.35800 22.29500 34.92500
H  46.57600 26.55900 33.07000
H  47.79300 27.40000 33.87700
H  46.92700 25.18200 35.58500
H  45.63300 26.30000 35.08900
H  45.42800 19.10400 30.63100
H  46.36200 19.82100 31.88500
H  46.89400 18.42400 30.90000
H  46.18600 17.60900 28.60300
H  45.23700 17.61000 27.08300
H  44.66100 18.53800 28.45200
H  47.33500 23.47900 24.03200
H  49.57400 25.11600 24.06000
H  50.23800 22.99000 23.63400
H  48.87200 22.08000 23.10400
H  49.36900 21.77600 24.69200
H  47.11200 26.65800 24.58100
H  46.99800 25.47900 23.22000
H  48.24300 28.16900 23.47400
H  48.15900 27.23700 22.02000
H  49.50400 26.99200 23.02500
H  50.81000 29.24200 26.40500
H  51.76200 29.75300 27.77300
H  50.05900 30.26200 27.75700
H  48.97900 28.70900 32.42200
H  52.19100 29.39800 35.34600
H  52.23100 27.75500 35.25000
H  50.78500 28.53500 36.05200
Mg -0.35700 44.12200 25.12000
C  1.42100 43.56100 28.22000
C  -3.17900 43.25200 26.71800
C  -1.66600 43.67300 22.05400
C  2.96000 44.36300 23.54600
N  -0.80500 43.39300 27.24700
C  0.02300 43.37900 28.36200
C  -0.83500 43.32900 29.64700
C  -2.20600 42.88900 29.06500
C  -2.09600 43.31500 27.56200
C  -2.69100 41.39500 29.25400
C  -0.80700 44.61100 30.59600
C  -0.49100 44.46600 32.08900
H  -0.82500 43.15200 32.82000
N  -2.16800 43.61800 24.43700
C  -3.19700 43.33000 25.29600
C  -4.41800 43.25700 24.48000
C  -4.03800 43.43100 23.14100
C  -2.57800 43.60200 23.14400
C  -5.77800 43.00000 25.20600
C  -4.81500 43.31100 21.90400
O  -4.32300 43.49400 20.83500
C  -6.29400 43.04000 22.04700
N  0.55100 43.82400 23.09200
C  -0.26500 43.79000 22.03800
C  0.49500 43.83500 20.74200
C  1.95300 44.15200 21.19900
C  1.86800 44.08100 22.71200
C  0.30300 42.54900 19.88800
C  2.52300 45.54400 20.74400
C  1.68500 46.74600 21.21000
N  1.70400 44.24100 25.71900
C  2.87700 44.46100 24.98800
C  3.99600 44.60500 25.88700
C  3.44500 44.23100 27.11200
C  2.07500 43.94400 26.98700
C  5.47100 44.83400 25.55300
C  3.85200 44.10100 28.49200
O  4.91000 44.21500 29.13800
C  2.54900 43.65100 29.28400
C  2.86800 42.41400 30.05900
O  3.04900 41.31300 29.61000
O  2.91900 42.71200 31.44600
C  3.03300 41.53600 32.41300
H  -4.15700 43.01000 27.14000
H  -2.09900 43.81400 21.06100
H  3.87400 44.57400 22.98700
H  -0.36400 42.51000 30.19100
H  -2.88600 43.60900 29.52000
H  -1.85800 40.86200 29.71200
H  -2.93600 40.82900 28.35500
H  -3.47700 41.32700 30.00600
H  -1.77900 45.09500 30.49300
H  -0.05700 45.26500 30.15200
H  -1.13500 45.25100 32.48400
H  0.52600 44.78600 32.31800
H  -6.03700 43.78900 25.91200
H  -5.55000 42.10600 25.78500
H  -6.58600 42.71800 24.53100
H  -6.46600 42.00900 22.35500
H  -6.71200 43.19400 21.05200
H  -6.80700 43.87100 22.53000
H  0.12800 44.65400 20.12300
H  2.60900 43.37000 20.81600
H  -0.04600 41.86000 20.65600
H  1.23200 42.20400 19.43200
H  -0.41500 42.72900 19.08800
H  2.33500 45.55800 19.67000
H  3.56800 45.69600 21.01200
H  1.10900 47.13000 20.36800
H  2.47200 47.45600 21.46800
H  1.02300 46.60800 22.06500
H  5.68900 44.44000 24.56100
H  6.12700 44.31700 26.25400
H  5.69300 45.90100 25.54900
H  2.32800 44.43400 30.00900
H  4.04500 41.17300 32.23500
H  2.31900 40.74200 32.19300
H  2.87900 42.00500 33.38500

