158

Mg 48.96900 45.89900 43.30800
C  45.69900 46.22300 42.13200
C  48.92200 42.51500 42.40400
C  52.39300 45.79400 43.56500
C  49.06200 49.29800 43.75900
N  47.55500 44.61400 42.23000
C  46.26200 44.95100 41.87800
C  45.48800 43.68600 41.48200
C  46.42200 42.57600 41.85000
C  47.73300 43.25800 42.23400
C  45.83400 41.72300 42.96100
C  44.99300 43.64100 40.01700
C  45.86500 44.32400 38.92500
H  46.14800 43.42500 37.64100
N  50.44800 44.34400 43.04800
C  50.17500 43.07500 42.64200
C  51.44800 42.36600 42.49500
C  52.47800 43.23800 42.92100
C  51.83000 44.54200 43.16000
C  51.44000 40.94300 42.28200
C  53.93600 42.80200 42.92600
O  54.25200 41.71000 42.59200
C  55.05700 43.80800 43.20100
N  50.54700 47.37100 43.47300
C  51.83600 47.04100 43.80700
C  52.75000 48.26700 44.09000
C  51.64800 49.30400 44.43900
C  50.35100 48.65100 43.88400
C  53.77700 48.01300 45.19000
C  51.95800 50.76800 43.95800
C  52.36700 51.70300 45.10500
N  47.65400 47.48500 43.13000
C  47.91000 48.79800 43.34100
C  46.61600 49.52900 43.02300
C  45.71400 48.55400 42.60600
C  46.41300 47.31800 42.66000
C  46.36300 51.00400 42.93700
C  44.34800 48.32300 42.09700
O  43.35900 49.00400 41.98300
C  44.36600 46.78400 41.71000
C  43.12600 46.12300 42.22800
O  42.37300 45.55300 41.51600
O  42.96000 46.19300 43.57000
C  41.74600 45.58100 44.02000
H  48.74300 41.45700 42.19800
H  53.47800 45.85200 43.67000
H  49.16700 50.35900 43.99700
H  44.61200 43.70000 42.12900
H  46.55800 41.93000 40.98300
H  44.75400 41.59000 42.90700
H  46.04800 41.99600 43.99500
H  46.26100 40.72100 42.91500
H  43.99000 44.06300 39.95900
H  44.84400 42.58600 39.78400
H  46.84100 44.59600 39.32700
H  45.27900 45.18300 38.59800
H  51.98000 40.68900 41.37000
H  50.51300 40.37400 42.20500
H  51.93000 40.49900 43.14800
H  54.93700 44.68000 42.55800
H  55.97400 43.43600 42.74500
H  55.21100 44.02100 44.25800
H  53.29200 48.41800 43.15700
H  51.39100 49.32500 45.49800
H  53.57300 47.13000 45.79600
H  53.69200 48.90500 45.81000
H  54.75700 47.96900 44.71400
H  51.09800 51.20300 43.44900
H  52.72700 50.77000 43.18500
H  51.60400 52.41400 45.42400
H  53.20200 52.35500 44.85000
H  52.73900 51.29300 46.04400
H  46.82100 51.27500 41.98600
H  46.86900 51.58200 43.71100
H  45.28300 51.15000 42.94700
H  44.27500 46.60700 40.63800
H  40.89400 45.73900 43.35900
H  41.46900 45.98500 44.99400
H  41.77500 44.49600 44.12200
Mg 48.77400 35.79700 27.98600
C  46.64500 34.39800 30.17500
C  49.17500 38.49200 30.00000
C  50.47300 37.39500 25.45200
C  48.22200 33.10300 25.72100
N  48.01700 36.28300 29.92400
C  47.19100 35.54600 30.67000
C  47.24900 36.02600 32.12900
C  47.54200 37.61400 31.81300
C  48.33900 37.49100 30.46200
C  46.28900 38.54100 31.64700
C  48.22700 35.18500 33.08300
C  49.49900 35.92500 33.56200
H  49.45000 36.47700 35.00000
N  49.59200 37.66300 27.70200
C  49.74200 38.60700 28.69100
C  50.50900 39.71100 28.21800
C  50.82100 39.50600 26.85000
C  50.27100 38.11600 26.59000
C  50.83400 40.96500 29.07600
C  51.55500 40.38600 25.84800
O  51.71500 40.06000 24.71400
C  52.11000 41.65300 26.35400
N  49.37700 35.27600 25.90200
C  49.99700 36.15900 25.14000
C  50.34700 35.48100 23.77200
C  49.63800 34.09300 23.90300
C  48.99300 34.09700 25.26600
C  49.83700 36.42900 22.60200
C  50.62400 32.93400 23.54100
C  50.83200 32.79100 22.01800
N  47.70700 34.09000 27.91600
C  47.60300 33.03100 26.98200
C  46.80100 31.95800 27.53200
C  46.28300 32.52200 28.70700
C  46.92100 33.77100 28.89300
C  46.57700 30.56500 26.99700
C  45.47400 32.19300 29.83000
O  44.89700 31.13900 30.10000
C  45.58500 33.45000 30.81500
C  45.90900 32.77500 32.07700
O  46.96800 32.21100 32.35900
O  44.84300 32.88100 32.93800
C  45.20700 32.87700 34.37500
H  49.42500 39.30700 30.68200
H  51.16900 37.76600 24.69600
H  47.89900 32.30300 25.05100
H  46.26800 35.84400 32.56900
H  48.14800 38.01300 32.62700
H  46.36900 39.32900 32.39700
H  45.38600 37.94000 31.74900
H  46.25000 38.96200 30.64200
H  48.53000 34.21500 32.68800
H  47.65700 35.01700 33.99700
H  49.91100 36.62600 32.83600
H  50.29700 35.20600 33.74700
H  51.88200 40.98700 29.37600
H  50.21500 41.16800 29.95000
H  50.55300 41.82700 28.47200
H  51.37400 42.44800 26.48300
H  52.74900 41.96200 25.52600
H  52.85800 41.70900 27.14400
H  51.43500 35.49600 23.70600
H  48.80200 34.04200 23.20500
H  49.05700 35.97500 21.99100
H  50.72700 36.48700 21.97500
H  49.42500 37.34300 23.02900
H  50.21600 32.05100 24.03200
H  51.56500 33.22700 24.00800
H  50.42300 33.60700 21.42200
H  50.57600 31.82100 21.59200
H  51.92200 32.79300 22.00800
H  47.13200 30.39700 26.07400
H  45.50800 30.46400 26.81300
H  46.87500 29.78600 27.70000
H  44.63500 33.98000 30.88600
H  46.22300 33.22600 34.55500
H  44.99000 31.92100 34.85200
H  44.62600 33.70100 34.78700

