158

Mg 23.18800 -7.86200 45.47500
C  25.58200 -5.55800 44.52800
C  21.01300 -6.28000 43.29000
C  21.07200 -10.40900 45.89700
C  25.69500 -9.59500 47.16800
N  23.32900 -6.18800 44.01800
C  24.37500 -5.31400 43.84900
C  24.06500 -4.20900 42.81000
C  22.50600 -4.41300 42.60300
C  22.28500 -5.72200 43.28000
C  21.55600 -3.25500 43.13200
C  24.95700 -4.25000 41.51700
C  25.64400 -2.94100 41.08700
H  25.83000 -2.57700 39.55400
N  21.25400 -8.24100 44.87500
C  20.52600 -7.49200 43.94600
C  19.17500 -7.97700 43.89000
C  19.21300 -9.18500 44.71300
C  20.50800 -9.28800 45.26200
C  18.09900 -7.39100 43.01600
C  17.96300 -9.99300 45.03100
O  16.98800 -9.76200 44.34500
C  17.77700 -10.92300 46.14200
N  23.50100 -9.92800 46.17300
C  22.39400 -10.68100 46.39300
C  22.75000 -11.86900 47.31000
C  24.12500 -11.47300 47.81500
C  24.50300 -10.29000 47.00800
C  21.64900 -12.29800 48.34000
C  25.20300 -12.72800 47.91000
C  25.65600 -13.36400 46.53800
N  25.20800 -7.58700 45.86000
C  26.04100 -8.40500 46.63500
C  27.31400 -7.70800 46.67900
C  27.23700 -6.62000 45.87500
C  25.91600 -6.61600 45.39900
C  28.60800 -8.26800 47.34300
C  27.91800 -5.42200 45.36200
O  29.00900 -5.00200 45.66100
C  26.88300 -4.79100 44.33700
C  26.63700 -3.42400 44.75500
O  26.10600 -3.08400 45.85200
O  27.27000 -2.60000 43.87700
C  27.19000 -1.22700 44.18500
H  20.25500 -5.69100 42.77100
H  20.42100 -11.25300 46.13400
H  26.48300 -10.12200 47.71000
H  24.29100 -3.27600 43.32600
H  22.42100 -4.56000 41.52600
H  20.88700 -2.98800 42.31300
H  22.04300 -2.30600 43.35400
H  20.94500 -3.52700 43.99200
H  24.41300 -4.64400 40.65900
H  25.70900 -5.00600 41.74500
H  26.67300 -2.83100 41.43100
H  24.99400 -2.11900 41.38700
H  17.47100 -8.17500 42.59300
H  18.64800 -6.87300 42.23000
H  17.64200 -6.54200 43.52400
H  18.36300 -10.47200 46.94300
H  18.24000 -11.82800 45.74800
H  16.82800 -11.15300 46.62500
H  22.95600 -12.70200 46.63900
H  23.99200 -11.04700 48.81000
H  21.26200 -13.28700 48.09500
H  20.73600 -11.70400 48.39600
H  22.00500 -12.17100 49.36300
H  24.73800 -13.50700 48.51400
H  26.06300 -12.49300 48.53700
H  26.65200 -12.99300 46.30000
H  24.97400 -13.22600 45.69900
H  25.75900 -14.44100 46.67200
H  29.10200 -9.02500 46.73300
H  28.48200 -8.50100 48.40000
H  29.31000 -7.43500 47.31000
H  27.26900 -4.82400 43.31800
H  26.20600 -0.80600 44.39200
H  27.48400 -0.53600 43.39500
H  27.78500 -1.01100 45.07200
Mg 42.02700 41.15600 26.46100
C  41.21800 43.54300 28.88800
C  42.78000 39.00400 29.06300
C  43.07000 39.04100 24.04500
C  41.34600 43.64300 24.02900
N  42.03100 41.25500 28.70100
C  41.63900 42.35500 29.46800
C  41.60100 42.01400 30.92500
C  42.39600 40.65900 31.03100
C  42.38100 40.22000 29.48400
C  43.81200 40.70600 31.65000
C  40.13700 42.07000 31.47700
C  39.97900 42.98600 32.78000
H  40.10700 42.33000 34.14900
N  42.80000 39.30900 26.54400
C  42.90800 38.52400 27.69700
C  43.23800 37.22300 27.33100
C  43.35100 37.14700 25.90200
C  42.97900 38.53200 25.43700
C  43.67400 36.20200 28.32700
C  43.79700 36.07900 25.01300
O  43.75600 36.16400 23.77200
C  44.32100 34.80600 25.54500
N  42.38600 41.39600 24.39300
C  42.71800 40.35600 23.60800
C  42.51000 40.69500 22.14500
C  41.89700 42.09100 22.20700
C  41.95700 42.42300 23.67400
C  43.64700 40.44900 21.13800
C  40.45600 42.14000 21.63400
C  39.26600 41.79000 22.53700
N  41.55100 43.20100 26.42300
C  41.13100 44.00100 25.37400
C  40.64300 45.26100 25.89000
C  40.70400 45.12700 27.24000
C  41.22800 43.85300 27.51500
C  40.21100 46.40500 25.03600
C  40.39600 45.82500 28.47700
O  39.94300 46.91500 28.63600
C  40.78200 44.83300 29.62900
C  41.94400 45.43100 30.32300
O  43.10500 45.22000 29.98900
O  41.51100 46.09400 31.44800
C  42.53400 46.61000 32.36200
H  42.96700 38.31900 29.89200
H  43.31900 38.29100 23.29200
H  41.02600 44.33200 23.24400
H  42.20100 42.74400 31.46700
H  41.80400 39.91600 31.56500
H  44.01600 41.63900 32.17400
H  44.53200 40.48500 30.86200
H  43.95000 39.91500 32.38700
H  39.82700 41.06400 31.76000
H  39.38500 42.40000 30.76100
H  39.08900 43.59200 32.61000
H  40.88300 43.58800 32.69100
H  42.88500 35.45900 28.43800
H  43.93300 36.65800 29.28300
H  44.53400 35.72700 27.85600
H  45.29700 34.88900 26.02300
H  44.50800 34.04800 24.78500
H  43.77400 34.35800 26.37500
H  41.73400 40.03600 21.75500
H  42.52500 42.80200 21.67100
H  43.78700 41.20900 20.36900
H  43.64800 39.44000 20.72500
H  44.58300 40.62500 21.66600
H  40.45000 41.50100 20.75100
H  40.40100 43.15200 21.23300
H  39.60000 41.17500 23.37300
H  38.64100 41.06500 22.01400
H  38.67400 42.68300 22.73600
H  39.98000 47.24300 25.69300
H  39.38300 46.22700 24.35000
H  41.10300 46.70700 24.48700
H  39.96200 44.63600 30.31900
H  43.47800 46.81600 31.85900
H  42.75600 45.83800 33.09900
H  42.12000 47.56200 32.69500

