158

Mg 9.33900 4.05400 27.36400
C  10.40600 2.66900 30.41900
C  7.35100 6.28500 29.12900
C  7.69200 4.96000 24.50900
C  10.66400 1.32900 25.68600
N  8.80300 4.30100 29.48000
C  9.46700 3.74200 30.54800
C  9.04000 4.28200 31.81300
C  8.03900 5.49000 31.42700
C  8.11600 5.41100 29.91300
C  6.67600 5.32500 32.08500
C  10.22800 4.69300 32.70300
C  10.45200 4.34700 34.22100
H  10.42700 5.36700 35.37600
N  7.89300 5.53200 26.91000
C  7.24100 6.35500 27.74400
C  6.44200 7.31700 26.95500
C  6.58300 7.00100 25.58200
C  7.37300 5.75900 25.60000
C  5.57300 8.34500 27.56800
C  5.97400 7.65300 24.42600
O  5.90700 7.19700 23.29700
C  5.47100 9.08600 24.60400
N  8.98500 3.07600 25.32500
C  8.36900 3.70900 24.33600
C  8.42800 2.92600 22.96800
C  9.51300 1.82400 23.37700
C  9.80200 2.13800 24.88500
C  7.01900 2.36300 22.55000
C  10.73900 1.74500 22.37800
C  10.29100 0.92200 21.16100
N  10.45400 2.48700 27.85300
C  10.89100 1.41800 27.08700
C  11.61700 0.52200 27.90400
C  11.50700 0.98700 29.22800
C  10.74400 2.18900 29.13200
C  12.35900 -0.71800 27.54100
C  11.87300 0.69000 30.57400
O  12.48200 -0.29800 30.95700
C  11.23100 1.82000 31.40400
C  10.50500 1.25700 32.51900
O  9.33900 0.95500 32.46100
O  11.30700 1.01200 33.61800
C  10.63500 0.30000 34.74800
H  6.76100 7.05200 29.63600
H  7.32000 5.41800 23.59000
H  11.06000 0.50200 25.09400
H  8.61500 3.46000 32.38800
H  8.51300 6.37600 31.84800
H  6.40600 6.13900 32.75800
H  6.58100 4.43800 32.71200
H  5.93300 5.26700 31.28900
H  10.13300 5.76700 32.86600
H  11.16400 4.53400 32.16700
H  11.39800 3.82300 34.36200
H  9.64700 3.65700 34.47200
H  5.87800 9.38800 27.48200
H  5.55500 8.07100 28.62300
H  4.57600 8.29000 27.13200
H  5.21600 9.46100 23.61300
H  6.33500 9.60300 25.02100
H  4.58500 9.13600 25.23700
H  8.87300 3.54800 22.19100
H  8.94600 0.90300 23.51100
H  7.00500 1.33200 22.19400
H  6.54100 3.08500 21.88900
H  6.46200 2.27900 23.48300
H  11.59500 1.27500 22.86400
H  11.09400 2.73200 22.08300
H  10.73300 1.22700 20.21200
H  9.22600 0.81800 20.95400
H  10.65700 -0.09000 21.33200
H  13.44800 -0.72900 27.58100
H  12.05500 -1.07400 26.55700
H  12.10300 -1.45000 28.30700
H  11.88600 2.49200 31.95700
H  9.90700 0.97200 35.20400
H  11.23900 -0.17700 35.52000
H  10.16900 -0.63700 34.44400
Mg 48.05600 44.67900 42.42800
C  44.53800 44.07300 42.28500
C  48.43800 41.20800 42.40600
C  51.32400 45.21100 42.04700
C  47.27500 48.16100 42.07700
N  46.67000 42.85600 42.35500
C  45.29300 42.90700 42.35500
C  44.65100 41.50900 42.22200
C  45.87900 40.52500 42.42400
C  47.05300 41.54000 42.41100
C  45.73000 39.64500 43.65400
C  43.83500 41.14300 40.88300
C  43.98200 42.06100 39.58000
H  43.58500 41.54700 38.18000
N  49.64900 43.43000 42.19800
C  49.55900 42.04600 42.27300
C  50.86900 41.57100 42.28200
C  51.78300 42.67000 42.26300
C  50.93000 43.86000 42.12600
C  51.19500 40.07500 42.19100
C  53.21900 42.50900 42.33500
O  53.65900 41.40000 42.59300
C  54.21100 43.60800 42.21700
N  49.10000 46.47600 41.93700
C  50.47800 46.40000 41.97400
C  51.03600 47.77400 41.62100
C  49.78900 48.70300 41.83000
C  48.61600 47.76400 41.98500
C  52.21400 48.25800 42.49500
C  49.64700 49.94100 40.78900
C  49.27600 51.24100 41.53100
N  46.30600 45.90100 42.24500
C  46.15900 47.25000 42.14400
C  44.71400 47.65200 42.15600
C  44.01000 46.45600 42.19400
C  45.03400 45.38900 42.20300
C  44.16900 48.97300 42.10500
C  42.69700 45.85700 42.25400
O  41.54500 46.29200 42.29300
C  43.04100 44.29200 42.43100
C  42.52100 43.84600 43.75600
O  41.57300 43.10300 43.88800
O  43.19500 44.36800 44.80600
C  42.61000 44.18200 46.12700
H  48.65100 40.13800 42.38500
H  52.39400 45.35200 41.88300
H  46.99800 49.21700 42.07900
H  43.86900 41.40900 42.97500
H  45.95700 39.88500 41.54500
H  46.34600 40.04700 44.45800
H  45.99400 38.63300 43.34800
H  44.70100 39.54000 43.99800
H  42.77000 41.23600 41.09200
H  43.95700 40.11000 40.55500
H  45.02300 42.38400 39.56400
H  43.48900 43.01500 39.76600
H  52.12300 39.90500 41.64500
H  50.44700 39.61500 41.54600
H  51.07200 39.62100 43.17400
H  54.12800 44.14700 41.27300
H  55.19500 43.30700 42.57600
H  53.91400 44.39700 42.90800
H  51.25900 47.83000 40.55500
H  49.95200 49.17700 42.79800
H  53.09800 47.94600 41.93900
H  52.18700 47.69900 43.43000
H  52.08800 49.33900 42.56500
H  48.85100 49.59000 40.13300
H  50.57800 50.11900 40.25000
H  50.15200 51.88100 41.42200
H  49.16400 51.18700 42.61400
H  48.33800 51.59300 41.10000
H  43.10900 48.79600 41.91900
H  44.53200 49.49500 41.21900
H  44.24800 49.65200 42.95400
H  42.48600 43.78300 41.64300
H  41.62300 44.58200 46.35900
H  43.44300 44.35600 46.80800
H  42.52500 43.10200 46.24200

