158

Mg 25.57800 1.26200 30.06700
C  27.54200 0.85400 32.82000
C  22.86500 1.31600 32.04800
C  23.62600 0.76200 27.18700
C  28.38400 0.58700 27.97100
N  25.26100 0.99600 32.16800
C  26.21400 1.07800 33.10700
C  25.64600 1.50500 34.60500
C  24.13600 1.31100 34.28600
C  24.03800 1.17900 32.75200
C  23.54100 0.00700 34.98900
C  26.08400 2.96800 34.99400
C  27.07800 3.04900 36.11100
H  26.49500 3.61900 37.40000
N  23.51200 1.21900 29.65700
C  22.57200 1.26400 30.64200
C  21.28400 1.16600 29.98500
C  21.49200 0.89700 28.59700
C  22.94300 0.92600 28.40800
C  19.98600 1.33300 30.73700
C  20.48700 0.75200 27.46000
O  20.66300 0.59600 26.27800
C  19.08500 0.78700 27.73400
N  25.92500 0.74200 27.95300
C  24.97100 0.73500 27.03400
C  25.58100 0.98300 25.56500
C  27.10100 0.85200 25.78500
C  27.15800 0.73200 27.32700
C  25.09800 0.07000 24.42100
C  27.94200 2.09700 25.34500
C  29.23500 1.81400 24.65900
N  27.58400 0.87900 30.27300
C  28.55400 0.63900 29.41800
C  29.73700 0.21800 30.14600
C  29.44000 0.35300 31.52500
C  28.08300 0.67200 31.53000
C  30.99900 -0.23000 29.55500
C  29.88200 0.27700 32.82400
O  31.00600 -0.00900 33.20300
C  28.74300 0.74600 33.78700
C  28.58100 -0.32200 34.77400
O  28.05500 -1.44300 34.63400
O  29.17600 0.03700 35.93000
C  28.89400 -0.67500 37.15800
H  21.95100 1.33500 32.64500
H  23.12900 0.69100 26.21700
H  29.22300 0.45100 27.28500
H  25.93600 0.71200 35.29300
H  23.53400 2.11300 34.71100
H  24.03400 -0.14900 35.94800
H  23.60700 -0.84300 34.30900
H  22.46300 0.14900 35.06900
H  25.13900 3.44800 35.24900
H  26.44400 3.59200 34.17600
H  27.75900 3.85200 35.82900
H  27.54000 2.06900 36.23100
H  19.51200 0.36800 30.91600
H  19.36100 2.11000 30.29600
H  20.22300 1.69400 31.73800
H  18.55000 0.85800 26.78700
H  18.84900 1.68100 28.31200
H  18.77200 -0.15900 28.17500
H  25.34700 2.03300 25.39200
H  27.39200 -0.10300 25.34900
H  24.85400 -0.93300 24.77100
H  25.87400 -0.14500 23.68600
H  24.19500 0.61900 24.15500
H  28.11100 2.75900 26.19500
H  27.37100 2.64300 24.59400
H  29.38400 0.73600 24.60500
H  30.02500 2.41100 25.11500
H  29.23500 2.26700 23.66700
H  31.79700 -0.00900 30.26400
H  31.35200 0.27400 28.65500
H  30.78400 -1.27100 29.31200
H  29.10700 1.67800 34.22000
H  28.35000 -1.61800 37.10900
H  28.34500 -0.01900 37.83300
H  29.83500 -0.79000 37.69600
Mg -4.44400 25.97600 26.18100
C  -3.05300 27.29500 29.15800
C  -6.37100 23.82300 28.03100
C  -5.15600 24.16300 23.37700
C  -2.06400 27.82400 24.41500
N  -4.56400 25.46500 28.40300
C  -4.02000 26.27200 29.41000
C  -4.58500 25.87600 30.82300
C  -5.46800 24.62000 30.43800
C  -5.51800 24.62900 28.89400
C  -4.84400 23.34900 31.01700
C  -5.36400 27.12600 31.40300
C  -5.11600 27.47900 32.88100
H  -4.91500 26.23500 33.84200
N  -5.72500 24.38700 25.73300
C  -6.49800 23.73800 26.61300
C  -7.47600 22.88900 25.89600
C  -7.06700 22.94700 24.53700
C  -5.89700 23.82700 24.47700
C  -8.53900 22.12200 26.60300
C  -7.62700 22.11000 23.35900
O  -7.19200 22.11700 22.23300
C  -8.78700 21.22900 23.66500
N  -3.66600 25.97500 24.17900
C  -4.18900 25.16500 23.17500
C  -3.36400 25.43400 21.88500
C  -2.50200 26.70700 22.14800
C  -2.74900 26.84900 23.66000
C  -2.44500 24.28000 21.33300
C  -2.80500 27.94900 21.36400
C  -1.60600 28.20400 20.39100
N  -2.86600 27.28800 26.62300
C  -2.13700 28.06100 25.81600
C  -1.32900 28.99500 26.57700
C  -1.55900 28.71100 27.89200
C  -2.62100 27.67600 27.88300
C  -0.42200 30.01400 25.92600
C  -1.25300 28.99400 29.27800
O  -0.41900 29.68900 29.82200
C  -2.29800 28.17400 30.17500
C  -1.42700 27.37900 31.01400
O  -0.65000 26.50300 30.65500
O  -1.73600 27.61200 32.31700
C  -0.94300 26.93400 33.30700
H  -7.02700 23.13100 28.56100
H  -5.35600 23.67900 22.41900
H  -1.38000 28.42700 23.81500
H  -3.73800 25.58900 31.44600
H  -6.53100 24.73000 30.65500
H  -4.25700 22.92300 30.20300
H  -5.61400 22.61400 31.25200
H  -4.22600 23.61500 31.87500
H  -6.42200 26.99500 31.17400
H  -4.91700 27.91600 30.79900
H  -6.04300 27.99300 33.13700
H  -4.28900 28.18900 32.88400
H  -9.50700 22.33300 26.14800
H  -8.60700 22.41900 27.65000
H  -8.38300 21.04700 26.51500
H  -8.63100 20.51500 24.47400
H  -9.28400 20.81700 22.78700
H  -9.53800 21.93900 24.01200
H  -4.13800 25.67400 21.15600
H  -1.44100 26.46300 22.19400
H  -1.49500 24.49700 20.84600
H  -3.07000 23.82700 20.56300
H  -2.14800 23.66700 22.18400
H  -2.94000 28.84100 21.97500
H  -3.67900 27.73000 20.75000
H  -0.77400 27.50300 20.45600
H  -1.16400 29.18700 20.55000
H  -2.05200 28.28100 19.39900
H  -0.80900 30.44200 25.00200
H  0.61800 29.75500 25.72500
H  -0.31800 30.77300 26.70100
H  -2.98700 28.87400 30.64700
H  -1.09700 25.85700 33.36800
H  -1.37300 27.34200 34.22200
H  0.11900 27.17500 33.30700

