158

Mg 0.08600 7.35800 27.54100
C  1.15400 9.76900 29.93800
C  0.12500 5.06200 30.05100
C  -0.92000 5.18300 25.31200
C  0.43900 9.74200 25.10300
N  0.86000 7.42200 29.67900
C  1.04600 8.50500 30.47300
C  0.78700 8.04100 32.03800
C  0.98900 6.53000 31.96300
C  0.62100 6.31500 30.45800
C  2.27400 5.88600 32.58200
C  -0.65800 8.45500 32.62000
C  -0.79200 8.84800 34.12100
H  0.35300 8.32500 35.01000
N  -0.31200 5.38200 27.63000
C  -0.23600 4.58200 28.78100
C  -0.61900 3.27900 28.36100
C  -0.98500 3.29700 27.02600
C  -0.85600 4.67700 26.60400
C  -0.48700 2.11600 29.28700
C  -1.53900 2.10500 26.09800
O  -1.81100 2.15900 24.89700
C  -1.76100 0.79100 26.79600
N  -0.05200 7.42600 25.40100
C  -0.49800 6.39100 24.74300
C  -0.66000 6.63400 23.25800
C  -0.11300 8.05000 23.11100
C  0.13800 8.47600 24.63200
C  0.10100 5.53800 22.38300
C  -0.79400 9.17600 22.20900
C  -2.04800 9.70200 22.82900
N  0.80300 9.33100 27.43700
C  0.80400 10.16300 26.37900
C  1.36200 11.42600 26.79700
C  1.37000 11.36500 28.23600
C  1.08000 10.05400 28.59100
C  1.55700 12.61300 25.88900
C  1.66500 12.04800 29.50400
O  1.98600 13.24000 29.73600
C  1.33500 11.05300 30.65400
C  2.50400 10.98800 31.57700
O  3.68800 10.72500 31.24500
O  2.08000 11.42700 32.81000
C  3.05500 11.54000 33.89200
H  0.00400 4.44600 30.94500
H  -1.19400 4.40800 24.59300
H  0.40400 10.54100 24.35900
H  1.61700 8.45100 32.61300
H  0.13200 6.19200 32.54600
H  2.52200 6.62900 33.34000
H  3.12200 5.82900 31.90000
H  2.13200 5.00700 33.21200
H  -1.39700 7.72700 32.28400
H  -0.95500 9.31400 32.01900
H  -1.66200 8.31400 34.50200
H  -0.79000 9.93300 34.22900
H  -0.16600 1.16500 28.86300
H  -1.50200 1.86000 29.59200
H  -0.00000 2.24600 30.25400
H  -0.88500 0.27500 27.19000
H  -2.12700 0.04900 26.08700
H  -2.42300 0.86800 27.65800
H  -1.68800 6.60300 22.89800
H  0.88500 7.89400 22.70200
H  0.51800 6.00200 21.49000
H  -0.59500 4.79500 21.99300
H  0.89700 5.04300 22.93900
H  -0.94300 8.83500 21.18500
H  -0.17500 10.06600 22.09400
H  -1.92500 10.74700 23.11300
H  -2.39300 9.11700 23.68100
H  -2.86100 9.69400 22.10300
H  2.59000 12.96100 25.86600
H  0.91000 13.42000 26.23400
H  1.26000 12.37000 24.86900
H  0.46400 11.43500 31.18700
H  2.86100 10.91100 34.76100
H  3.06300 12.56900 34.25100
H  4.03700 11.27500 33.50100
Mg 16.80000 -1.21700 28.48100
C  15.53800 0.90800 31.06300
C  18.66100 -2.86700 30.81200
C  18.25900 -2.93800 26.00100
C  15.19300 0.87600 26.21100
N  17.08800 -0.89000 30.73500
C  16.37700 -0.05300 31.58200
C  16.81800 -0.37600 33.03900
C  17.88100 -1.61000 32.90400
C  17.99800 -1.74800 31.39700
C  19.16200 -1.35300 33.71400
C  15.62300 -0.75300 33.96600
C  15.41800 0.06900 35.19900
H  16.60700 0.44000 36.03600
N  18.34500 -2.64400 28.46700
C  18.76500 -3.31300 29.51400
C  19.58000 -4.43800 29.08700
C  19.42500 -4.49700 27.69400
C  18.65200 -3.28800 27.32900
C  20.48000 -5.26900 29.92100
C  20.03900 -5.58200 26.67900
O  20.00200 -5.49800 25.41700
C  20.77500 -6.74600 27.23700
N  16.88000 -0.99500 26.44300
C  17.51600 -1.82600 25.58100
C  17.30500 -1.44300 24.09900
C  16.39100 -0.19100 24.16900
C  16.16800 -0.03700 25.73400
C  18.60300 -1.25900 23.34300
C  15.16200 -0.43300 23.22400
C  13.96800 -1.00500 23.78400
N  15.55700 0.51700 28.59900
C  14.95300 1.25500 27.57500
C  14.08600 2.31700 28.17300
C  14.28800 2.23900 29.57300
C  15.25100 1.15600 29.72200
C  13.22400 3.28900 27.35500
C  13.95200 2.80300 30.80600
O  13.30100 3.80800 31.11700
C  14.76200 1.98100 31.93300
C  15.70900 2.98800 32.55300
O  16.82400 3.25600 32.11200
O  15.19300 3.25700 33.80400
C  16.00800 4.24600 34.47700
H  19.06900 -3.43300 31.65200
H  18.60000 -3.59900 25.20200
H  14.70900 1.53100 25.48300
H  17.21800 0.56100 33.42900
H  17.44000 -2.53300 33.28100
H  19.43500 -0.33200 33.98300
H  20.07200 -1.69400 33.22000
H  19.22000 -1.80500 34.70400
H  15.64000 -1.82600 34.15800
H  14.63300 -0.60100 33.53700
H  14.77200 -0.60600 35.76100
H  14.92000 0.99100 34.90000
H  20.74500 -4.77600 30.85600
H  21.46100 -5.29900 29.44600
H  20.25500 -6.31200 30.14300
H  20.22900 -7.23000 28.04700
H  21.73800 -6.35600 27.56400
H  21.01000 -7.48900 26.47500
H  16.75300 -2.27400 23.65900
H  16.92900 0.69800 23.83900
H  18.64300 -0.31800 22.79400
H  18.60000 -1.89000 22.45400
H  19.47800 -1.45500 23.96200
H  15.41700 -1.04600 22.35900
H  14.90500 0.57100 22.88700
H  14.19700 -1.12100 24.84300
H  13.68100 -1.99000 23.41400
H  13.04900 -0.44000 23.62500
H  13.71100 3.60500 26.43200
H  13.10200 4.19600 27.94700
H  12.28100 2.75300 27.24000
H  14.00600 1.54500 32.58600
H  16.26300 5.11600 33.87300
H  16.99600 3.82400 34.66100
H  15.55100 4.54200 35.42200

