158

Mg 17.53000 -0.66500 27.42200
C  16.21200 1.16800 30.22900
C  19.31700 -2.47000 29.70800
C  18.42600 -2.50900 24.84400
C  15.75300 1.48400 25.29800
N  17.82200 -0.53800 29.73400
C  17.15900 0.27600 30.63500
C  17.56100 -0.09400 32.03300
C  18.87500 -0.91400 31.74700
C  18.70800 -1.32900 30.30000
C  20.17000 -0.28600 32.08300
C  16.33000 -0.86500 32.79600
C  16.33200 -0.66300 34.33000
H  17.57400 -0.02200 35.02200
N  18.60600 -2.33200 27.30500
C  19.32300 -2.92500 28.35600
C  20.00300 -4.13000 27.80000
C  19.72400 -4.11400 26.39100
C  18.85500 -2.96300 26.12500
C  20.81100 -5.14000 28.61800
C  20.19700 -5.14100 25.41700
O  19.88600 -5.09700 24.23200
C  21.25600 -6.25000 25.73000
N  17.35000 -0.37000 25.29600
C  17.70200 -1.37500 24.46800
C  17.30700 -1.04800 23.02100
C  16.45700 0.30700 23.16900
C  16.56100 0.54100 24.66900
C  18.44000 -0.94500 21.88800
C  15.02300 0.27500 22.62000
C  14.05700 -0.48400 23.57000
N  16.25400 0.91300 27.66100
C  15.58300 1.71600 26.72700
C  14.68700 2.54800 27.34200
C  14.95100 2.40600 28.72300
C  15.92200 1.41100 28.88300
C  13.80700 3.49000 26.65200
C  14.59600 3.01300 30.10200
O  13.78700 3.86100 30.38500
C  15.30900 2.10600 31.08600
C  16.09100 3.03500 32.01600
O  17.16500 3.58200 31.73900
O  15.53900 3.14500 33.24900
C  16.21900 3.92600 34.29500
H  19.89800 -3.05100 30.42800
H  18.57300 -3.15300 23.97500
H  15.19000 2.11500 24.60800
H  17.87400 0.79100 32.58700
H  18.80200 -1.82800 32.33700
H  20.82900 -0.48300 31.23700
H  20.47600 -0.77200 33.00900
H  20.16000 0.80400 32.09700
H  16.57100 -1.90700 32.58700
H  15.35300 -0.68100 32.34900
H  16.20100 -1.57700 34.90900
H  15.47200 -0.01100 34.48300
H  21.87100 -5.10100 28.36600
H  20.42600 -6.14300 28.43300
H  20.50100 -4.97200 29.65000
H  21.59500 -6.62300 24.76300
H  20.76700 -7.01300 26.33700
H  22.15100 -5.82000 26.18100
H  16.55900 -1.77900 22.71400
H  17.00300 1.07800 22.62500
H  19.30900 -1.55500 22.13700
H  18.83800 0.05400 21.70700
H  18.03300 -1.46400 21.02100
H  14.90300 -0.24200 21.66800
H  14.66900 1.28800 22.42700
H  13.45800 0.20400 24.16600
H  14.44200 -1.36800 24.07900
H  13.36600 -0.95100 22.86900
H  14.33600 4.33800 26.21700
H  13.03800 3.75700 27.37800
H  13.41700 2.96100 25.78300
H  14.76400 1.47800 31.79100
H  17.10500 4.42800 33.90500
H  16.69600 3.32000 35.06500
H  15.57900 4.62700 34.83000
Mg 47.34700 16.25800 28.86800
C  45.32600 16.06400 31.86600
C  49.56500 18.07700 30.51900
C  48.77800 16.66300 26.01300
C  44.41900 14.76300 27.26600
N  47.32600 16.99700 30.84000
C  46.52700 16.71200 31.95600
C  47.12400 17.24700 33.29000
C  48.25700 18.17500 32.78900
C  48.41200 17.70600 31.28100
C  47.87800 19.68300 32.88300
C  47.58700 16.05900 34.20700
C  47.02700 16.18900 35.64000
H  46.79500 17.58300 36.35700
N  48.99000 17.15900 28.33900
C  49.86600 17.81700 29.11500
C  51.04100 18.18400 28.41900
C  50.92300 17.62300 27.08900
C  49.53300 17.11900 27.10200
C  52.11900 19.03700 29.04300
C  51.89400 17.59900 25.94800
O  51.66400 17.12700 24.85400
C  53.24000 18.17100 26.20400
N  46.68400 15.67300 26.86400
C  47.51900 16.04900 25.83500
C  46.82200 15.68400 24.48400
C  45.43900 15.04700 24.96700
C  45.47800 15.14200 26.42100
C  46.66200 16.95700 23.51900
C  45.31000 13.62900 24.53500
C  45.03300 13.49400 23.06900
N  45.34700 15.52800 29.38500
C  44.32000 14.95900 28.63100
C  43.25100 14.53900 29.51600
C  43.61300 14.99000 30.76400
C  44.84000 15.54100 30.65500
C  41.94700 13.82500 28.97500
C  43.11900 15.14600 32.10600
O  42.05800 14.84300 32.59600
C  44.25500 15.67800 32.90300
C  43.68700 16.86500 33.66200
O  43.56400 18.03100 33.23200
O  43.18300 16.41700 34.84500
C  42.55600 17.49000 35.69100
H  50.26700 18.67200 31.10600
H  49.19800 16.68300 25.00500
H  43.60500 14.17200 26.84100
H  46.31500 17.79700 33.77100
H  49.17200 18.08800 33.37400
H  47.89000 20.15900 31.90200
H  48.62500 20.24200 33.44700
H  47.00100 19.76000 33.52500
H  48.66700 15.92100 34.25500
H  47.16900 15.13600 33.80500
H  47.52500 15.49400 36.31600
H  46.05900 15.68900 35.64200
H  52.36500 19.86500 28.37900
H  53.05600 18.47900 29.04900
H  51.81900 19.40000 30.02600
H  53.90600 18.04400 25.35100
H  53.66400 17.77100 27.12600
H  53.07500 19.23500 26.37200
H  47.40600 14.94700 23.93400
H  44.56100 15.62700 24.68200
H  46.79400 16.61700 22.49200
H  47.38600 17.73600 23.75700
H  45.64800 17.34900 23.59100
H  44.50100 13.21200 25.13400
H  46.28300 13.15900 24.68400
H  45.84100 12.92500 22.60800
H  45.16600 14.43100 22.52800
H  44.13000 12.91300 22.88300
H  42.23500 12.81300 28.69100
H  41.53600 14.31000 28.08900
H  41.29100 13.74900 29.84200
H  44.51900 14.90700 33.62800
H  41.75700 17.92200 35.08900
H  43.21800 18.33400 35.88800
H  42.14600 17.07700 36.61300

