158

Mg 30.33800 58.31800 40.48000
C  27.91000 56.11400 39.24300
C  32.69900 55.86800 39.64900
C  32.77400 60.66100 40.58900
C  27.94800 60.79700 40.53600
N  30.26700 56.19900 39.57000
C  29.17100 55.54700 39.12800
C  29.56500 54.22100 38.43700
C  30.94800 53.97100 39.10800
C  31.37800 55.41400 39.51800
C  30.90700 53.02000 40.35500
C  29.48400 54.44300 36.88400
C  29.10900 53.27300 35.98700
H  28.06200 53.41900 34.87600
N  32.37700 58.23600 40.31000
C  33.21200 57.14500 39.90800
C  34.58900 57.58900 39.78900
C  34.69400 58.89200 40.20700
C  33.23200 59.29900 40.36800
C  35.77000 56.79200 39.39000
C  36.04000 59.68200 40.54800
O  37.09900 59.13700 40.37500
C  35.98800 61.07800 41.08500
N  30.40000 60.39500 40.60700
C  31.50500 61.13800 40.69800
C  31.22100 62.63200 40.87900
C  29.64200 62.58500 41.00400
C  29.31200 61.14800 40.66200
C  31.99500 63.28600 42.01400
C  28.84100 63.49700 40.03300
C  27.69500 64.31000 40.57100
N  28.31600 58.46300 40.32400
C  27.44400 59.57300 40.32200
C  26.09200 59.13300 40.10800
C  26.21200 57.77600 39.64100
C  27.58900 57.44700 39.78500
C  24.87800 60.03300 40.20200
C  25.47500 56.62600 39.18300
O  24.32000 56.51400 38.80500
C  26.59500 55.54800 38.85100
C  26.10400 54.33600 39.64600
O  26.11900 54.26100 40.87200
O  25.80500 53.31200 38.73300
C  25.48600 52.09700 39.38000
H  33.51300 55.15800 39.49100
H  33.62800 61.34100 40.54800
H  27.16000 61.55200 40.58900
H  28.83400 53.48100 38.76100
H  31.68100 53.70100 38.34700
H  31.17700 53.64600 41.20600
H  31.69500 52.27300 40.26000
H  29.92500 52.55200 40.42500
H  30.51600 54.64700 36.59600
H  28.89800 55.34000 36.68300
H  28.80300 52.53500 36.72800
H  30.03700 52.93400 35.52600
H  35.39600 55.86900 38.94700
H  36.40400 56.49100 40.22400
H  36.38700 57.38900 38.71800
H  36.98100 61.26500 41.49200
H  35.19000 61.13100 41.82600
H  35.86700 61.68600 40.18800
H  31.47000 63.00900 39.88700
H  29.39700 62.79700 42.04500
H  32.51600 62.53200 42.60500
H  31.34600 63.89800 42.64000
H  32.66000 63.99300 41.51700
H  28.34100 62.96300 39.22500
H  29.53800 64.19300 39.56500
H  27.98200 65.32700 40.30300
H  27.41600 64.17300 41.61500
H  26.75600 64.18500 40.03200
H  24.79800 60.27200 41.26200
H  24.04600 59.47800 39.76800
H  25.06100 60.94300 39.63100
H  26.53100 55.26800 37.79900
H  25.10700 51.47800 38.56700
H  24.67300 52.31100 40.07300
H  26.36500 51.69000 39.87900
Mg 0.96000 42.47900 25.31700
C  1.92000 42.44600 28.78000
C  -1.84200 41.01000 26.24200
C  0.64000 41.88400 22.13900
C  4.11500 43.91200 24.61900
N  0.06600 42.00400 27.30000
C  0.58200 42.22600 28.55200
C  -0.47500 42.02000 29.59400
C  -1.68200 41.31200 28.79800
C  -1.16500 41.45600 27.33900
C  -2.03300 39.84600 29.23800
C  -0.99600 43.30600 30.24800
C  -1.44500 43.39400 31.71800
H  -1.84900 42.07800 32.38700
N  -0.46000 41.68700 24.32200
C  -1.47900 41.07100 24.85400
C  -2.30500 40.45800 23.83200
C  -1.64400 40.69000 22.59400
C  -0.41700 41.46900 22.94400
C  -3.47600 39.65700 24.31100
C  -1.98300 40.27500 21.17500
O  -1.22900 40.50200 20.22000
C  -3.45700 39.68100 20.91100
N  2.17000 42.97800 23.62800
C  1.77600 42.59100 22.38100
C  2.62700 43.12800 21.24200
C  3.63300 43.96500 22.13600
C  3.34300 43.58200 23.52300
C  3.28600 42.07900 20.30900
C  3.56500 45.49400 21.92600
C  4.11900 45.85900 20.55900
N  2.72800 42.95800 26.38900
C  3.97300 43.48900 25.93000
C  4.91300 43.57000 27.07800
C  4.12800 43.13800 28.18800
C  2.84900 42.73500 27.67300
C  6.29700 44.25300 27.02200
C  4.12600 42.99600 29.61500
O  5.05100 43.02300 30.43600
C  2.71200 42.73300 30.02300
C  2.68300 41.57100 30.91400
O  2.87700 40.42900 30.59800
O  2.38100 41.99200 32.18100
C  2.19600 40.88500 33.12300
H  -2.83400 40.64700 26.51800
H  0.58000 41.69000 21.06600
H  5.06100 44.40400 24.38100
H  -0.19700 41.33200 30.39200
H  -2.52900 41.99500 28.73500
H  -1.77700 39.23000 28.37600
H  -3.05800 39.63500 29.54300
H  -1.41300 39.53000 30.07800
H  -1.75700 43.81000 29.65200
H  -0.16500 44.00700 30.17800
H  -2.09100 44.27100 31.74400
H  -0.52000 43.71900 32.19500
H  -3.98700 38.97800 23.62900
H  -4.06200 40.44700 24.78100
H  -3.10700 38.89000 24.99200
H  -4.14700 40.30200 21.48200
H  -3.51200 38.69700 21.37700
H  -3.90400 39.75800 19.91900
H  2.12400 43.91700 20.68200
H  4.67900 43.70600 21.97200
H  4.36400 42.10400 20.47000
H  3.04700 42.05300 19.24600
H  3.02000 41.08200 20.66100
H  4.36700 45.86800 22.56200
H  2.62100 45.95200 22.22400
H  4.99800 46.50100 20.60900
H  3.41400 46.54300 20.08700
H  4.19600 45.04700 19.83700
H  6.98400 43.81400 27.74600
H  6.16600 45.31800 27.21500
H  6.78100 44.17200 26.04900
H  2.26100 43.56700 30.56000
H  3.19900 40.78700 33.53900
H  1.89700 39.97500 32.60200
H  1.49300 41.22900 33.88100

