158

Mg 1.28300 8.28500 25.32200
C  2.06900 10.12900 28.22600
C  1.61500 5.43800 27.22300
C  0.87600 6.66700 22.60400
C  1.28800 11.34100 23.54100
N  1.79400 7.89100 27.49700
C  1.91100 8.78200 28.57100
C  1.97800 8.13600 29.92100
C  2.09700 6.64400 29.51100
C  1.78100 6.66900 27.97000
C  3.50900 5.96300 29.79500
C  0.65400 8.41600 30.70400
C  0.67000 8.47200 32.23300
H  1.98200 7.93600 32.89100
N  1.23400 6.29900 24.95000
C  1.31300 5.30400 25.81700
C  1.26600 4.01700 25.06200
C  0.98900 4.40200 23.72400
C  1.12100 5.85500 23.66200
C  1.40600 2.62600 25.80000
C  0.64200 3.49100 22.61900
O  0.24300 3.83700 21.50200
C  0.70800 1.98300 22.72600
N  0.97700 8.85800 23.41300
C  0.85100 8.01900 22.40800
C  0.56000 8.66400 21.06900
C  0.40300 10.20700 21.48800
C  0.99900 10.14000 22.89500
C  1.72200 8.57000 19.99100
C  -1.04900 10.78600 21.55300
C  -2.00100 10.50200 20.41400
N  1.74300 10.26300 25.73700
C  1.69800 11.42900 24.90800
C  2.09300 12.57800 25.69200
C  2.23100 12.11900 26.97500
C  1.99700 10.69900 26.96100
C  2.14700 13.93100 25.19800
C  2.50800 12.53700 28.34100
O  2.93700 13.55800 28.74700
C  2.25300 11.32100 29.21400
C  3.35100 11.14200 30.24500
O  4.45200 10.73000 29.99400
O  2.95600 11.63700 31.43100
C  3.99000 11.65400 32.50100
H  1.51300 4.55900 27.86300
H  0.74700 6.18500 21.63300
H  1.26500 12.21400 22.88600
H  2.85400 8.45900 30.48400
H  1.38300 5.98300 30.00200
H  4.31100 6.65300 30.05700
H  3.96300 5.51400 28.91100
H  3.42100 5.15000 30.51600
H  -0.12900 7.70700 30.43400
H  0.36300 9.37200 30.27000
H  -0.20600 8.00900 32.68600
H  0.59100 9.50800 32.56300
H  2.18200 2.04600 25.30000
H  0.41400 2.23600 25.57500
H  1.53500 2.77800 26.87200
H  0.40800 1.59200 21.75400
H  -0.05400 1.64200 23.42700
H  1.74800 1.71500 22.90900
H  -0.43300 8.41700 20.69200
H  1.11300 10.80100 20.91300
H  2.59700 8.53700 20.64100
H  1.85100 9.43500 19.34100
H  1.65900 7.69600 19.34300
H  -0.99100 11.86300 21.71000
H  -1.47100 10.13500 22.31800
H  -1.39600 10.26000 19.54000
H  -2.66800 11.28200 20.04600
H  -2.57600 9.59700 20.60900
H  1.57100 14.43900 25.97100
H  1.78900 14.08900 24.18100
H  3.15200 14.35300 25.19600
H  1.31500 11.35600 29.76700
H  5.02200 11.54400 32.16600
H  3.76200 10.87400 33.22800
H  3.92200 12.54400 33.12600
Mg -0.45600 44.03000 26.59100
C  1.83400 43.69500 29.17600
C  -2.98200 43.10900 28.87400
C  -2.68700 44.22700 24.07700
C  2.29400 44.51700 24.38800
N  -0.53500 43.39500 28.70000
C  0.47200 43.63500 29.61700
C  0.05900 43.47600 31.04400
C  -1.46200 43.08200 30.90900
C  -1.69700 43.27300 29.41100
C  -1.87100 41.74600 31.49300
C  0.33600 44.77300 31.90000
C  0.45100 44.57700 33.43600
H  -0.12800 43.33100 34.08200
N  -2.60200 43.70200 26.50400
C  -3.40900 43.29600 27.54500
C  -4.77200 43.13400 27.01200
C  -4.71300 43.57800 25.63200
C  -3.28000 43.88400 25.35900
C  -5.88900 42.69200 27.88100
C  -5.83300 43.57700 24.62600
O  -5.78900 43.98400 23.48900
C  -7.12000 42.85000 24.91900
N  -0.21100 44.32700 24.56600
C  -1.31600 44.41800 23.74100
C  -0.93400 44.77500 22.30100
C  0.64300 45.07200 22.51400
C  0.97900 44.65100 23.89400
C  -1.35400 43.74800 21.19700
C  1.03100 46.57200 22.39500
C  1.12600 47.22100 20.96000
N  1.64400 43.98800 26.71400
C  2.59900 44.19800 25.73400
C  3.90200 44.09300 26.36500
C  3.66100 43.87300 27.72300
C  2.28100 43.82100 27.86700
C  5.17900 44.44400 25.74500
C  4.27000 43.77100 29.00300
O  5.43500 43.85000 29.35500
C  3.14800 43.61300 29.99700
C  3.30600 42.30100 30.54400
O  3.27700 41.22700 29.95900
O  3.40900 42.40900 31.95700
C  3.41200 41.07400 32.54600
H  -3.71500 42.88300 29.65100
H  -3.35600 44.37300 23.22600
H  3.13400 44.68100 23.70900
H  0.46500 42.52500 31.39000
H  -1.98100 43.89500 31.41700
H  -2.37800 41.10500 30.77200
H  -2.54000 42.00300 32.31500
H  -1.01700 41.16400 31.84000
H  -0.49800 45.43300 31.66200
H  1.32300 45.08400 31.55900
H  0.06200 45.44100 33.97400
H  1.47600 44.58600 33.80800
H  -5.53800 42.25800 28.81700
H  -6.57600 41.98400 27.41700
H  -6.48400 43.57300 28.12200
H  -7.60200 43.43900 25.70000
H  -6.82700 41.87400 25.30600
H  -7.70700 42.76100 24.00500
H  -1.45000 45.70400 22.05800
H  1.23600 44.52000 21.78400
H  -0.46000 43.31900 20.74500
H  -2.03600 44.24400 20.50600
H  -1.88300 42.90100 21.63300
H  2.03400 46.76300 22.77700
H  0.31000 47.15800 22.96500
H  0.85400 46.49100 20.19700
H  2.17000 47.49000 20.79600
H  0.48400 48.10000 21.01400
H  5.50100 45.37700 26.20800
H  5.13400 44.61300 24.67000
H  5.86800 43.61800 25.92900
H  3.18800 44.32800 30.81900
H  4.41300 40.80300 32.21000
H  2.62400 40.43200 32.15300
H  3.22700 41.24500 33.60700

