158

Mg 47.39600 24.23900 28.21800
C  48.15200 26.48400 30.98500
C  46.65100 21.82700 30.41900
C  47.19600 22.22000 25.59200
C  48.39500 26.98300 26.05600
N  47.35700 24.22900 30.51600
C  47.69400 25.25900 31.41000
C  47.43500 24.74000 32.80200
C  47.00100 23.19500 32.59400
C  46.92800 23.06300 31.05900
C  47.86100 22.13800 33.31000
C  46.42400 25.62600 33.47500
C  46.69300 25.86200 34.99000
H  45.54700 25.85800 36.02500
N  46.88200 22.27200 28.05200
C  46.53500 21.44600 29.09700
C  46.22900 20.16600 28.53400
C  46.41500 20.23200 27.15800
C  46.89400 21.60200 26.85700
C  45.90900 18.94500 29.36500
C  46.20800 19.13300 26.14000
O  46.48300 19.33400 24.95200
C  45.52000 17.76200 26.53600
N  47.69300 24.59500 26.14800
C  47.61300 23.54000 25.28400
C  47.92200 24.03200 23.84700
C  47.91600 25.61500 23.94100
C  48.02200 25.78900 25.48600
C  49.35200 23.52900 23.36300
C  46.69800 26.38900 23.35200
C  45.29000 26.11300 23.94700
N  48.08700 26.31300 28.41200
C  48.48200 27.26600 27.43300
C  48.88700 28.47400 28.07900
C  48.79100 28.17500 29.42800
C  48.34500 26.84400 29.62400
C  49.29500 29.79900 27.52200
C  49.02900 28.77700 30.70900
O  49.36800 29.95100 30.90000
C  48.71400 27.63000 31.82200
C  50.01100 27.20400 32.45900
O  50.87500 26.52200 31.97600
O  50.07100 27.72700 33.69300
C  51.25900 27.29100 34.47100
H  46.31400 21.08800 31.14900
H  47.27600 21.63300 24.67500
H  48.56600 27.90200 25.49000
H  48.42900 24.93400 33.20600
H  45.98800 22.97700 32.93200
H  48.43300 22.68500 34.06000
H  48.60500 21.85500 32.56500
H  47.43400 21.29300 33.84800
H  45.43600 25.24300 33.22100
H  46.34100 26.60600 33.00500
H  47.21000 26.81900 35.05500
H  47.42200 25.15000 35.37600
H  44.87600 18.67600 29.14500
H  45.96300 19.16700 30.43100
H  46.59700 18.13100 29.13600
H  45.22200 17.18400 25.66200
H  44.57500 17.90600 27.05900
H  46.15500 17.17600 27.20100
H  47.20900 23.79100 23.05900
H  48.69300 25.93700 23.24700
H  49.30900 23.25000 22.31000
H  49.86200 22.76400 23.94800
H  50.12600 24.29500 23.40000
H  46.79300 26.20900 22.28200
H  46.86700 27.44400 23.56500
H  45.45000 25.34500 24.70400
H  44.64600 25.71800 23.16200
H  44.79500 26.96800 24.40800
H  48.76400 29.76700 26.57100
H  50.36800 29.89700 27.35800
H  48.85500 30.57100 28.15400
H  48.02300 27.95200 32.60100
H  52.08200 27.59800 33.82500
H  51.20700 26.24900 34.78400
H  51.26500 27.96100 35.33100
Mg -2.43800 35.42800 26.25200
C  -3.69600 33.51500 28.91400
C  -1.18100 37.72700 28.54900
C  -1.22100 37.21600 23.75000
C  -3.86100 33.16300 24.09100
N  -2.47500 35.58700 28.46400
C  -3.01900 34.67700 29.32600
C  -2.83200 35.08600 30.82000
C  -1.92500 36.42100 30.62400
C  -1.85800 36.61400 29.12100
C  -2.31600 37.67200 31.39300
C  -2.28100 34.02500 31.79500
C  -1.25500 34.43300 32.82700
H  -1.21500 33.59700 34.10900
N  -1.28400 37.21400 26.13000
C  -0.83300 37.92900 27.20200
C  -0.02900 39.04300 26.72600
C  -0.01000 38.95000 25.26300
C  -0.79300 37.69400 25.00300
C  0.69700 40.01800 27.68200
C  0.69800 39.80900 24.15000
O  0.58800 39.58000 22.97400
C  1.49600 40.93800 24.61700
N  -2.83300 35.44700 24.23700
C  -2.13000 36.28400 23.44800
C  -2.45000 35.99000 22.02800
C  -3.01700 34.57200 22.05100
C  -3.25000 34.27800 23.53400
C  -3.36200 37.11500 21.55100
C  -2.09800 33.47800 21.32300
C  -0.64700 33.32700 21.81800
N  -3.60600 33.71800 26.41600
C  -4.10300 32.86000 25.42100
C  -4.79100 31.75400 25.99300
C  -4.64700 31.97500 27.37600
C  -3.88700 33.16100 27.58300
C  -5.31400 30.55700 25.25100
C  -4.95900 31.44700 28.62000
O  -5.68000 30.49100 28.89300
C  -4.30900 32.42200 29.66800
C  -5.43800 32.87900 30.59600
O  -6.39700 33.56500 30.25300
O  -5.24400 32.28700 31.84000
C  -6.31800 32.57600 32.82600
H  -0.76600 38.31700 29.36900
H  -0.83600 37.70800 22.85400
H  -4.23600 32.44000 23.36400
H  -3.76000 35.45600 31.25400
H  -0.96200 36.11100 31.03100
H  -3.10200 37.53000 32.13500
H  -2.50100 38.52600 30.74100
H  -1.54700 37.93300 32.11900
H  -1.75400 33.20300 31.31100
H  -3.17000 33.60300 32.26400
H  -1.46900 35.46900 33.08800
H  -0.30800 34.16600 32.35600
H  -0.08200 40.78000 27.67100
H  1.70800 40.28700 27.37500
H  0.81300 39.49500 28.63200
H  0.84900 41.57300 25.22200
H  1.87700 41.54800 23.79800
H  2.38200 40.55300 25.12300
H  -1.54900 36.07600 21.42200
H  -3.99600 34.46400 21.58400
H  -4.42500 36.89100 21.46000
H  -3.07500 37.44100 20.55100
H  -3.22500 38.03300 22.12300
H  -1.93600 33.72400 20.27300
H  -2.54000 32.49100 21.45200
H  -0.39200 34.15400 22.48000
H  0.09300 33.36800 21.01900
H  -0.47600 32.38300 22.33400
H  -5.41200 29.70000 25.91700
H  -4.57500 30.22800 24.52100
H  -6.17900 30.77300 24.62300
H  -3.61600 31.75800 30.18400
H  -5.87500 33.25500 33.55400
H  -6.61100 31.56700 33.11800
H  -7.18700 33.17200 32.54700

