158

Mg 47.86500 16.88500 28.96100
C  45.65900 16.72200 31.64600
C  50.08700 18.45100 31.03100
C  49.92100 16.97800 26.41900
C  45.35200 15.47500 26.87600
N  47.73700 17.83300 30.93500
C  46.80400 17.44900 31.94100
C  47.27000 17.87100 33.34100
C  48.44400 18.80600 32.94400
C  48.82000 18.36400 31.59000
C  48.11700 20.36700 33.05000
C  47.66600 16.58600 34.11400
C  48.31900 16.88200 35.46400
H  48.19700 18.24900 36.21800
N  49.73700 17.50000 28.76200
C  50.54300 18.11500 29.73700
C  51.90100 18.20700 29.25500
C  51.91600 17.71700 27.90100
C  50.48400 17.39400 27.62000
C  53.01000 18.76600 30.11100
C  53.07200 17.56300 26.96500
O  52.99200 17.15200 25.82300
C  54.41800 17.80800 27.55300
N  47.55600 16.43000 26.90500
C  48.59500 16.56500 26.06500
C  48.19400 16.18900 24.58700
C  46.73800 15.62300 24.71300
C  46.53900 15.87100 26.23500
C  48.25500 17.45000 23.81000
C  46.63500 14.10400 24.37300
C  45.65300 13.81500 23.23800
N  45.85600 16.31700 29.14800
C  44.99500 15.75800 28.24100
C  43.68700 15.42700 28.91600
C  43.93500 15.79500 30.24200
C  45.23500 16.28900 30.35800
C  42.43200 14.81600 28.29800
C  43.43800 15.71100 31.53600
O  42.36900 15.28200 31.91200
C  44.47000 16.29100 32.50200
C  43.73700 17.37300 33.14000
O  42.94200 18.07600 32.59900
O  43.99400 17.41200 34.49400
C  43.30200 18.36800 35.40700
H  50.90300 18.81300 31.66100
H  50.66100 16.83700 25.62800
H  44.64500 14.98100 26.20600
H  46.49800 18.36500 33.93000
H  49.37900 18.77100 33.50200
H  47.08600 20.55800 33.34700
H  48.31900 20.76000 32.05300
H  48.69900 20.95700 33.75800
H  48.41700 16.14600 33.45700
H  46.79900 15.92800 34.16300
H  49.36300 16.57900 35.38900
H  47.78500 16.16800 36.09100
H  53.33200 17.92800 30.73000
H  52.68700 19.61200 30.71700
H  53.93500 19.11300 29.65100
H  55.24100 17.43300 26.94500
H  54.50200 17.22300 28.46900
H  54.59700 18.87500 27.68400
H  48.89400 15.40800 24.28800
H  45.99100 16.22200 24.19100
H  48.97600 18.15200 24.22700
H  47.28200 17.93000 23.70300
H  48.45900 17.19300 22.77000
H  46.41300 13.45200 25.21800
H  47.62500 13.75200 24.08700
H  45.00800 12.97700 23.49900
H  46.08100 13.59800 22.25900
H  45.06700 14.71900 23.07400
H  42.38300 13.72800 28.34500
H  42.37900 15.11400 27.25100
H  41.51600 15.17400 28.76900
H  44.73100 15.57400 33.28000
H  43.58500 19.37400 35.09700
H  43.64900 18.42300 36.43900
H  42.22900 18.18900 35.47100
Mg 30.80900 58.06800 40.44100
C  28.34500 55.92100 38.91500
C  33.21900 56.06300 39.20500
C  33.06300 60.58400 41.17200
C  28.19900 60.46200 40.83400
N  30.78700 56.03800 39.38000
C  29.65200 55.50000 38.67500
C  30.14900 54.35300 37.79600
C  31.67400 54.26600 38.22000
C  31.95200 55.54000 38.95500
C  31.93100 52.98900 39.06400
C  29.86200 54.69800 36.39400
C  29.63000 53.55400 35.37700
H  28.61000 53.85700 34.29100
N  32.92400 58.20600 40.30400
C  33.70400 57.27900 39.82300
C  35.09100 57.68100 39.97200
C  35.03800 58.95000 40.59500
C  33.65100 59.31300 40.66800
C  36.26200 56.80300 39.47000
C  36.28400 59.72900 40.96400
O  37.38500 59.17900 40.77600
C  36.35200 61.10800 41.50700
N  30.65800 60.24600 40.84900
C  31.73600 60.97900 41.26100
C  31.41400 62.34300 41.75200
C  29.81000 62.41700 41.52800
C  29.51900 60.98400 40.95100
C  31.73200 62.52600 43.19500
C  29.26800 63.57500 40.68400
C  28.79600 64.88500 41.51000
N  28.70500 58.16700 40.09500
C  27.83800 59.26900 40.23000
C  26.49200 58.85200 39.89800
C  26.63200 57.48700 39.45600
C  27.99400 57.14700 39.57700
C  25.30400 59.72700 40.04700
C  25.94600 56.35400 38.85300
O  24.71300 56.24500 38.63600
C  27.04000 55.34600 38.46600
C  26.81500 53.94200 38.95800
O  27.05900 53.57900 40.12700
O  26.48800 53.14800 37.93800
C  26.03700 51.77900 38.29800
H  34.01000 55.55500 38.65000
H  33.70100 61.38400 41.55300
H  27.48000 61.20600 41.18300
H  29.58700 53.46400 38.08200
H  32.35900 54.31400 37.37300
H  32.86800 52.55600 38.71400
H  31.14200 52.24200 38.98800
H  32.02900 53.22300 40.12400
H  30.72800 55.23400 36.00700
H  29.04300 55.41500 36.33800
H  29.46500 52.60300 35.88300
H  30.58700 53.46500 34.86300
H  37.09300 57.45200 39.19200
H  35.94900 56.23200 38.59600
H  36.63600 56.16400 40.27000
H  37.41300 61.23200 41.72200
H  35.79500 61.14000 42.44400
H  36.08100 61.86100 40.76700
H  31.85100 63.09800 41.09900
H  29.27700 62.40500 42.47900
H  32.64200 61.98400 43.45300
H  31.02200 62.10100 43.90500
H  31.79000 63.55100 43.56300
H  28.31100 63.39400 40.19400
H  30.13300 63.67400 40.02900
H  29.01300 64.70100 42.56200
H  27.75600 65.07200 41.24100
H  29.32000 65.70700 41.02400
H  25.48200 60.72600 39.64900
H  25.14000 59.70500 41.12400
H  24.47100 59.25800 39.52300
H  26.97800 55.35800 37.37800
H  26.80900 51.13800 38.72200
H  25.59200 51.33200 37.40900
H  25.20400 51.87700 38.99400

