158

Mg 26.83900 50.77300 25.52900
C  25.12400 52.11300 28.15200
C  29.57300 50.13300 27.75600
C  28.73600 49.79300 22.91700
C  24.48100 52.20900 23.35700
N  27.26300 51.06300 27.77400
C  26.29900 51.52800 28.59500
C  26.63100 51.13200 30.01300
C  28.21600 50.80800 29.89900
C  28.41000 50.61400 28.39200
C  29.16700 51.87400 30.46500
C  25.76800 50.13000 30.77500
C  25.35900 50.42900 32.23100
H  26.47800 50.59100 33.24100
N  28.77800 49.88900 25.36500
C  29.70400 49.71500 26.39100
C  30.83900 48.97600 25.89300
C  30.57700 48.76700 24.48400
C  29.35800 49.47300 24.16000
C  32.00700 48.36300 26.66100
C  31.43600 47.89700 23.51800
O  31.08600 47.61500 22.43000
C  32.72700 47.33600 23.99100
N  26.64800 51.04000 23.40700
C  27.61000 50.51500 22.55700
C  27.23800 50.81000 21.05100
C  25.76400 51.37100 21.17700
C  25.61400 51.59600 22.74100
C  28.22700 51.60600 20.16500
C  24.53200 50.47300 20.69400
C  24.22800 49.19700 21.50300
N  25.11300 51.78100 25.64000
C  24.21500 52.30800 24.68700
C  23.08600 52.93700 25.37000
C  23.43200 52.85900 26.76600
C  24.67400 52.23100 26.85100
C  21.94900 53.63800 24.75500
C  22.96400 53.20000 28.12100
O  21.90400 53.69400 28.40600
C  24.06900 52.75700 29.06200
C  24.52900 53.78200 30.04500
O  25.34100 54.66600 29.76700
O  23.68300 53.84200 31.15400
C  23.87100 54.94000 32.09000
H  30.43600 49.95800 28.40100
H  29.34700 49.42000 22.09300
H  23.72100 52.52300 22.63900
H  26.67900 52.05600 30.59000
H  28.50500 49.84100 30.31000
H  30.00400 52.15600 29.82500
H  29.53400 51.40700 31.37800
H  28.87500 52.90000 30.69000
H  26.34000 49.20900 30.88000
H  24.86000 49.96300 30.19600
H  24.73600 49.54300 32.35300
H  24.68200 51.27100 32.37800
H  31.86400 48.44800 27.73900
H  32.97000 48.83100 26.45900
H  31.99800 47.27300 26.65000
H  33.15200 46.88000 23.09700
H  32.50600 46.52600 24.68600
H  33.45200 47.99800 24.46500
H  27.14300 49.82700 20.59000
H  25.79400 52.35600 20.70900
H  29.03600 51.82900 20.86100
H  27.88500 52.55300 19.74600
H  28.54500 50.94000 19.36200
H  24.80300 50.02600 19.73800
H  23.59300 51.01400 20.57700
H  24.74100 49.19500 22.46500
H  24.61100 48.32000 20.98100
H  23.19600 49.06900 21.82700
H  22.32400 54.18900 23.89300
H  21.49300 54.21100 25.56200
H  21.13400 52.98400 24.44300
H  23.61000 51.97200 29.66300
H  24.61600 54.67800 32.84100
H  22.89500 55.12100 32.54200
H  24.27100 55.78800 31.53400
Mg -11.03900 16.44400 42.84400
C  -7.79900 15.22900 42.29700
C  -9.97700 19.47300 41.57500
C  -14.31100 17.43000 42.55900
C  -12.04200 13.35900 44.08000
N  -9.14000 17.18500 41.77500
C  -7.96400 16.51200 41.88300
C  -6.88300 17.37800 41.35100
C  -7.48400 18.84300 41.37100
C  -8.96400 18.48700 41.68200
C  -6.79000 19.77300 42.46300
C  -6.43700 16.91800 39.91100
C  -4.92400 17.01900 39.55700
H  -4.31400 15.87200 38.66500
N  -11.98500 18.21800 42.05100
C  -11.40900 19.32000 41.52800
C  -12.39600 20.31200 41.12700
C  -13.69600 19.76200 41.54300
C  -13.40100 18.42400 42.16300
C  -11.88800 21.66000 40.62300
C  -14.95200 20.45200 41.35000
O  -14.96100 21.56500 40.84900
C  -16.19700 19.85100 41.88600
N  -12.91900 15.54600 43.20800
C  -14.10500 16.16200 43.05100
C  -15.32100 15.12300 43.30000
C  -14.56000 13.98400 43.87400
C  -13.05500 14.34700 43.82400
C  -16.40700 15.68300 44.25400
C  -14.95800 12.53900 43.31300
C  -14.83100 11.37600 44.30100
N  -10.22400 14.65800 43.15600
C  -10.69700 13.46000 43.69900
C  -9.64100 12.50200 43.81800
C  -8.48600 13.13400 43.26200
C  -8.86000 14.45400 42.86000
C  -9.74300 11.15700 44.41100
C  -7.10500 12.95100 42.94900
O  -6.40000 11.99000 43.12800
C  -6.59300 14.32400 42.35200
C  -5.59000 14.82600 43.27100
O  -5.71400 14.96800 44.45000
O  -4.42000 14.93700 42.60700
C  -3.38400 15.62600 43.35200
H  -9.46000 20.38700 41.27800
H  -15.40100 17.48900 42.51900
H  -12.38100 12.43400 44.54900
H  -6.08500 17.24300 42.08200
H  -7.35300 19.43600 40.46600
H  -6.06300 19.16500 43.00100
H  -7.61200 20.09200 43.10400
H  -6.37900 20.61800 41.91200
H  -7.06400 17.55000 39.28200
H  -6.77200 15.90700 39.67600
H  -4.36100 17.15800 40.48100
H  -4.83600 17.98800 39.06600
H  -10.91200 21.54800 40.15200
H  -11.76300 22.47000 41.34200
H  -12.63100 21.99000 39.89700
H  -16.95100 20.63300 41.97500
H  -16.01100 19.31400 42.81700
H  -16.66900 19.19000 41.15900
H  -15.89700 15.04300 42.37800
H  -14.75600 13.92900 44.94400
H  -16.97500 14.92800 44.79700
H  -17.18500 16.15600 43.65600
H  -15.95600 16.37100 44.97000
H  -14.35700 12.25400 42.45000
H  -15.98000 12.61200 42.94200
H  -15.83800 10.97600 44.41800
H  -14.41400 11.65400 45.26900
H  -14.15900 10.66900 43.81400
H  -10.12400 11.31200 45.42000
H  -8.79200 10.62600 44.35700
H  -10.57300 10.74800 43.83600
H  -6.31000 14.16200 41.31200
H  -2.37400 15.24100 43.21100
H  -3.46500 15.39000 44.41300
H  -3.40700 16.70300 43.18800

