158

Mg 55.03200 24.32900 45.29200
C  52.55700 26.50800 44.20300
C  53.02800 21.64200 44.32100
C  57.79500 22.33600 45.21600
C  57.10800 27.20100 45.81300
N  53.02700 24.14700 44.37000
C  52.16500 25.19000 44.10500
C  50.87300 24.61700 43.61600
C  50.93600 23.13700 44.17500
C  52.43900 22.95000 44.24900
C  50.16200 22.88200 45.54400
C  50.83500 24.70600 42.06100
C  49.46100 24.96900 41.53200
H  48.88900 24.22700 40.25300
N  55.39000 22.29100 44.86400
C  54.40600 21.32600 44.51700
C  55.01900 20.04800 44.40600
C  56.34700 20.20000 44.78900
C  56.55500 21.66600 44.98200
C  54.22600 18.86900 43.91400
C  57.35200 18.93600 44.88400
O  56.96800 17.78000 44.65500
C  58.80000 19.23400 45.26800
N  57.15300 24.70700 45.40300
C  58.07200 23.69500 45.41800
C  59.51100 24.29900 45.65000
C  59.19900 25.72700 46.00100
C  57.73100 25.94500 45.68800
C  60.36000 23.51600 46.69000
C  60.22700 26.77700 45.51900
C  60.69900 27.87500 46.57600
N  54.85800 26.38400 45.24500
C  55.76100 27.41700 45.52300
C  55.12500 28.66300 45.44800
C  53.80000 28.33000 44.97900
C  53.72000 26.93400 44.78700
C  55.67000 30.02200 45.64600
C  52.53900 28.88400 44.59000
O  52.18100 30.04000 44.75300
C  51.67600 27.71200 43.97300
C  51.56900 28.05000 42.53800
O  52.47500 27.99200 41.71100
O  50.28100 28.51300 42.29400
C  50.25500 29.22400 41.00700
H  52.33000 20.81400 44.17800
H  58.67800 21.70300 45.32000
H  57.71200 28.09600 45.97200
H  50.09400 25.21700 44.08600
H  50.52600 22.42200 43.46200
H  49.54200 21.99100 45.44500
H  49.61200 23.77200 45.84700
H  50.87500 22.70200 46.35000
H  51.23200 23.79000 41.62300
H  51.61300 25.41700 41.78400
H  49.46800 26.03000 41.28400
H  48.67000 24.83600 42.27000
H  54.17100 19.03600 42.83900
H  53.27900 18.75600 44.44200
H  54.69800 17.92500 44.18700
H  59.40400 19.63800 44.45600
H  59.20400 18.25200 45.51300
H  58.76000 19.84200 46.17200
H  59.89900 24.02700 44.66800
H  59.24200 25.86600 47.08100
H  59.66900 22.86200 47.22300
H  60.98100 24.10900 47.36000
H  61.05800 22.96800 46.05700
H  59.75000 27.32700 44.70800
H  61.05600 26.26400 45.03100
H  60.75700 28.80400 46.00800
H  61.59300 27.53900 47.10200
H  60.01000 27.98800 47.41300
H  56.16400 30.00900 46.61800
H  54.74600 30.59900 45.62800
H  56.37800 30.45300 44.93800
H  50.76000 27.57500 44.54700
H  51.17500 29.80900 40.99600
H  49.39100 29.88800 41.00800
H  50.18200 28.49800 40.19700
Mg 41.35200 40.99400 26.89000
C  40.71300 43.28700 29.57100
C  42.30500 38.79700 29.39200
C  42.08100 38.92700 24.56000
C  40.85900 43.67300 24.60000
N  41.45100 41.02800 29.20800
C  41.11400 42.01500 30.05700
C  41.04200 41.55000 31.51100
C  41.91900 40.29400 31.43400
C  41.93800 40.00400 29.89500
C  43.44000 40.56600 32.00400
C  39.63300 41.38400 32.13700
C  39.25600 42.36500 33.30700
H  38.48800 41.77900 34.51200
N  41.95700 39.09000 27.00600
C  42.26700 38.40200 28.14000
C  42.67800 37.03200 27.76300
C  42.68900 37.03800 26.31300
C  42.15100 38.36900 25.87300
C  42.97200 35.89200 28.70300
C  43.07500 35.92900 25.36700
O  42.91300 35.96800 24.17000
C  43.60300 34.64600 25.89600
N  41.64700 41.31500 24.84200
C  41.77400 40.17700 24.10700
C  41.73500 40.52500 22.60700
C  41.22700 41.96600 22.67600
C  41.26600 42.34700 24.10800
C  43.07300 40.30800 21.96500
C  39.90200 42.31400 21.98700
C  38.63400 41.74200 22.63100
N  40.75900 42.99700 26.96900
C  40.70600 43.99300 26.01200
C  40.33300 45.26300 26.58700
C  40.31500 44.98000 27.99500
C  40.61600 43.59600 28.14500
C  40.02400 46.56800 25.85200
C  40.07400 45.69700 29.25600
O  39.92000 46.92000 29.41500
C  40.30400 44.57400 30.34400
C  41.36600 45.09900 31.31600
O  42.56100 44.93700 31.19000
O  40.82000 45.75500 32.38800
C  41.69600 46.41300 33.43400
H  42.66800 38.09300 30.14400
H  42.29800 38.18800 23.78600
H  40.65700 44.43500 23.84500
H  41.63000 42.30100 32.04000
H  41.42400 39.42800 31.87300
H  44.14300 40.62200 31.17300
H  43.64500 39.89400 32.83700
H  43.52600 41.54400 32.47700
H  39.50500 40.37500 32.53000
H  38.88600 41.62500 31.38100
H  38.69000 43.19300 32.87800
H  40.15600 42.80300 33.73700
H  42.28400 35.05500 28.58200
H  42.91100 36.24300 29.73300
H  43.95900 35.50300 28.45300
H  42.79300 34.23000 26.49500
H  44.51500 34.76100 26.48200
H  43.66700 34.02400 25.00300
H  41.05000 39.83100 22.12000
H  41.92600 42.63800 22.17700
H  43.13600 39.36200 21.42600
H  43.83000 40.26700 22.74800
H  43.31500 41.05400 21.20800
H  39.92900 41.80700 21.02200
H  39.80200 43.39500 21.88300
H  38.87500 41.10000 23.47900
H  37.97600 41.24300 21.91900
H  38.13500 42.62200 23.03700
H  39.62400 47.29700 26.55700
H  39.23700 46.40600 25.11600
H  40.88900 47.02800 25.37300
H  39.36400 44.47500 30.88600
H  42.76300 46.30800 33.23300
H  41.55500 45.86200 34.36400
H  41.42100 47.44500 33.65100

