158

Mg 26.05400 1.21600 28.88400
C  27.95100 0.94000 31.77000
C  23.24300 1.50500 30.87200
C  24.12700 1.54500 26.05800
C  28.83800 0.63400 26.91200
N  25.67100 1.33300 31.10500
C  26.65200 1.19400 32.08600
C  26.07200 1.38300 33.48500
C  24.48000 1.32300 33.14400
C  24.44400 1.33300 31.60800
C  23.68300 0.13600 33.76800
C  26.63500 2.64100 34.17500
C  26.94700 2.41300 35.71900
H  26.47700 3.38500 36.82300
N  23.91200 1.38200 28.51600
C  22.98000 1.64300 29.50400
C  21.71000 1.83700 28.83800
C  21.95100 1.83600 27.41300
C  23.37900 1.62800 27.23100
C  20.38300 2.05600 29.64200
C  20.92200 2.04400 26.28500
O  21.21000 1.98700 25.10100
C  19.44600 2.16100 26.61700
N  26.39300 0.72100 26.71700
C  25.45000 1.14500 25.80500
C  26.06600 1.35900 24.41100
C  27.69400 1.14400 24.67500
C  27.65900 0.82000 26.15400
C  25.47200 0.37600 23.35300
C  28.58000 2.34200 24.35000
C  29.88300 2.07600 23.67500
N  28.05400 0.98000 29.22300
C  29.02600 0.62600 28.29800
C  30.28300 0.43900 29.07400
C  29.87500 0.57500 30.40200
C  28.55900 0.83900 30.43300
C  31.62200 0.20700 28.58000
C  30.36500 0.63200 31.77600
O  31.52100 0.58100 32.16900
C  29.12800 0.60900 32.69300
C  28.96000 -0.75400 33.31200
O  28.52300 -1.71900 32.81400
O  29.45800 -0.78600 34.58300
C  28.99300 -1.90900 35.44800
H  22.40400 1.46700 31.57000
H  23.49800 1.83800 25.21500
H  29.76100 0.39800 26.37800
H  26.33300 0.55500 34.14400
H  24.00800 2.28100 33.36100
H  23.44300 -0.56400 32.96800
H  22.81000 0.49900 34.31100
H  24.16800 -0.33500 34.62300
H  25.88500 3.42200 34.04900
H  27.50300 3.00800 33.62700
H  28.03500 2.36900 35.77800
H  26.58500 1.43000 36.02100
H  20.26500 3.13800 29.57400
H  20.35700 1.64900 30.65200
H  19.62100 1.46400 29.13400
H  18.85200 2.17500 25.70400
H  19.34700 3.13600 27.09400
H  19.00800 1.38900 27.25100
H  25.81400 2.37900 24.11700
H  28.00100 0.24500 24.14200
H  25.01400 -0.53500 23.73900
H  26.33500 0.15500 22.72600
H  24.69600 0.86900 22.76600
H  28.83200 2.78300 25.31400
H  27.88300 3.01700 23.85400
H  29.63600 2.21400 22.62300
H  30.19400 1.07100 23.96100
H  30.65800 2.76200 24.01800
H  31.57200 0.04400 27.50300
H  32.01400 -0.68700 29.06600
H  32.28700 1.04200 28.79900
H  29.35000 1.36100 33.45100
H  29.78000 -2.62400 35.21000
H  28.00700 -2.25100 35.13000
H  29.02400 -1.80300 36.53200
Mg 47.74100 24.46600 28.46500
C  48.67600 26.63000 31.16100
C  46.84600 22.22700 30.66700
C  46.92100 22.64600 25.82900
C  48.95800 27.00600 26.26200
N  47.88000 24.41300 30.68400
C  48.03900 25.41500 31.57200
C  47.59200 25.08800 32.98100
C  47.10200 23.64600 32.82500
C  47.23700 23.38400 31.28300
C  47.85900 22.65600 33.77600
C  46.64600 26.12100 33.64200
C  46.03200 25.65200 35.00000
H  46.36300 26.58000 36.18000
N  47.04500 22.62000 28.22600
C  46.78700 21.81900 29.31000
C  46.22800 20.61200 28.84100
C  46.18800 20.75200 27.46000
C  46.73800 22.04500 27.06800
C  45.73900 19.47600 29.68200
C  45.66100 19.76500 26.49800
O  45.56600 20.04900 25.29800
C  44.93100 18.46900 26.87000
N  47.89400 24.78500 26.30800
C  47.46300 23.84800 25.51800
C  47.46800 24.33000 24.07400
C  47.92700 25.82500 24.13600
C  48.34800 25.89500 25.63500
C  48.44500 23.41800 23.19900
C  46.78800 26.85100 23.71500
C  47.26600 27.82900 22.57300
N  48.79000 26.40200 28.61100
C  49.21700 27.27900 27.66900
C  49.76600 28.46400 28.20000
C  49.64900 28.26300 29.62700
C  48.93800 27.03200 29.80800
C  50.45600 29.53800 27.47500
C  49.93500 28.79700 30.92200
O  50.54600 29.76900 31.26200
C  49.10100 27.90200 31.97700
C  50.08000 27.57300 33.04600
O  51.05000 26.83700 32.91300
O  49.83300 28.20600 34.15800
C  50.70400 27.93200 35.27700
H  46.50700 21.47600 31.38500
H  46.68700 22.05200 24.94300
H  49.08100 27.89800 25.64400
H  48.53500 25.13200 33.52600
H  46.04600 23.54400 33.07400
H  48.53400 23.22000 34.42000
H  48.52500 22.04500 33.16600
H  47.13300 22.06300 34.33300
H  45.78700 26.34700 33.00900
H  47.29300 26.96500 33.88000
H  46.36700 24.65900 35.29800
H  44.96300 25.61700 34.79000
H  44.74500 19.15200 29.37400
H  45.70800 19.68300 30.75200
H  46.43400 18.63700 29.68200
H  45.49400 17.75400 27.46900
H  44.50700 17.95700 26.00500
H  44.10000 18.77700 27.50400
H  46.47300 24.15600 23.66300
H  48.82000 25.83800 23.51200
H  49.16100 22.98000 23.89500
H  48.94300 23.98600 22.41300
H  47.97600 22.54300 22.75000
H  46.49700 27.39100 24.61600
H  45.90200 26.39600 23.27300
H  48.24900 27.43000 22.32500
H  47.48100 28.79500 23.03000
H  46.57300 27.82800 21.73100
H  51.22000 30.02000 28.08500
H  49.74600 30.30000 27.15300
H  50.96000 29.22400 26.56100
H  48.22000 28.45500 32.30100
H  51.68500 28.38900 35.15500
H  50.80400 26.86200 35.45800
H  50.15400 28.34400 36.12300

