158

Mg -0.19800 7.96100 24.62200
C  0.44100 8.95900 28.01600
C  -0.38300 4.72900 25.70700
C  -0.58500 7.16900 21.48700
C  0.02900 11.35400 23.74700
N  0.05100 6.94900 26.67300
C  0.32400 7.53200 27.89400
C  0.62100 6.48100 28.96500
C  0.43500 5.08800 28.13000
C  0.01500 5.59600 26.79000
C  1.66100 3.99500 28.12500
C  -0.27900 6.41900 30.25600
C  0.56600 6.61800 31.52100
H  1.77900 5.77800 31.84700
N  -0.43300 6.19200 23.72800
C  -0.46600 4.92900 24.36400
C  -0.49400 3.89800 23.31100
C  -0.54000 4.62400 22.05100
C  -0.54200 6.03400 22.37600
C  -0.66600 2.42300 23.60300
C  -0.63000 4.07200 20.62500
O  -0.73700 4.82700 19.62200
C  -0.50500 2.56600 20.42500
N  -0.30400 9.10500 22.86400
C  -0.44500 8.50300 21.68200
C  -0.40400 9.54500 20.48100
C  -0.33600 10.83400 21.28500
C  -0.13100 10.40900 22.75300
C  0.79800 9.42800 19.49600
C  -1.63300 11.76800 21.15700
C  -2.89100 11.21700 21.86600
N  0.26500 9.81600 25.61000
C  0.18800 11.12500 25.13100
C  0.61500 12.05000 26.20600
C  0.66900 11.25800 27.29800
C  0.47300 9.88800 26.94300
C  0.86700 13.45900 26.02700
C  0.89600 11.32900 28.73600
O  1.10500 12.30600 29.51000
C  0.83700 9.81600 29.21900
C  2.18600 9.63300 29.73700
O  3.11300 9.15400 29.15100
O  2.19000 9.92300 31.09000
C  3.32400 9.44800 31.87600
H  -0.20200 3.68300 25.96300
H  -0.72900 6.87400 20.44600
H  0.01900 12.35700 23.31500
H  1.68000 6.54800 29.21400
H  -0.48100 4.61600 28.48600
H  1.53300 3.56700 27.13100
H  1.57900 3.23000 28.89700
H  2.60900 4.51000 28.28000
H  -0.75400 5.45200 30.41800
H  -1.04100 7.19500 30.19000
H  -0.14600 6.48500 32.33500
H  0.78400 7.68100 31.42000
H  -1.50900 2.07300 23.00700
H  -0.91700 2.25600 24.65100
H  0.28900 2.00100 23.29200
H  0.35200 2.16100 20.96300
H  -0.39100 2.49300 19.34300
H  -1.40600 2.07500 20.79300
H  -1.36100 9.34300 19.99900
H  0.55300 11.42300 21.05900
H  1.35800 10.34200 19.29700
H  0.38200 9.03700 18.56800
H  1.43000 8.66600 19.95200
H  -1.96900 11.87000 20.12500
H  -1.32100 12.71700 21.59400
H  -3.59800 10.97300 21.07300
H  -3.32700 12.11500 22.30400
H  -2.70800 10.30700 22.43800
H  1.65500 13.74900 26.72100
H  0.01000 14.09900 26.23800
H  1.19500 13.62500 25.00100
H  0.07600 9.78600 29.99800
H  3.47300 10.20100 32.65100
H  4.15300 9.35100 31.17500
H  3.16000 8.51500 32.41600
Mg 43.79400 4.15000 48.47100
C  41.48600 6.79400 47.85200
C  41.02700 1.86900 48.11900
C  45.95600 1.59000 48.35800
C  46.33700 6.47800 48.06100
N  41.62300 4.30300 48.08500
C  40.93500 5.51500 47.81700
C  39.56200 5.27500 47.35900
C  39.28900 3.72900 47.66000
C  40.70300 3.24900 48.03200
C  38.14500 3.43900 48.77000
C  39.35800 5.52100 45.85200
C  38.08700 6.30600 45.40100
H  37.80500 6.57600 43.80700
N  43.48500 1.93000 48.37100
C  42.33100 1.24500 48.25700
C  42.62000 -0.18500 48.23100
C  44.02800 -0.28200 48.25800
C  44.58900 1.06000 48.35800
C  41.60600 -1.26100 48.12200
C  44.71000 -1.63500 48.20800
O  44.11400 -2.68800 47.98700
C  46.21800 -1.70700 48.51700
N  45.87300 3.97300 48.12500
C  46.52200 2.84500 48.23100
C  48.07500 3.09900 48.06900
C  48.14200 4.65000 47.83600
C  46.67700 5.12100 48.11000
C  48.94900 2.54500 49.22200
C  48.71800 4.98300 46.46500
C  50.29600 5.08000 46.46800
N  43.99200 6.23600 48.21700
C  45.07800 7.03900 48.19100
C  44.67200 8.45400 48.11400
C  43.25100 8.37800 47.97500
C  42.89300 7.04600 48.00100
C  45.64500 9.58100 47.97800
C  42.03300 9.15700 47.78600
O  41.88800 10.38100 47.80200
C  40.81300 8.14900 47.75000
C  39.81200 8.44400 48.77400
O  39.67800 7.83000 49.83600
O  39.05000 9.46800 48.32700
C  37.83500 9.89300 48.97400
H  40.16100 1.21700 47.99300
H  46.67100 0.76400 48.37300
H  47.19900 7.13300 47.92000
H  38.76800 5.88400 47.79200
H  39.05300 3.11700 46.78900
H  37.46100 4.27600 48.91300
H  38.60700 3.25400 49.74000
H  37.60700 2.55200 48.43600
H  39.44700 4.63100 45.22900
H  40.18700 6.15200 45.53400
H  38.03900 7.23000 45.97600
H  37.19600 5.75700 45.70600
H  41.81000 -1.82300 47.21000
H  40.61300 -0.81500 48.07800
H  41.56900 -1.92900 48.98200
H  46.77900 -1.24500 47.70500
H  46.49400 -2.76000 48.56900
H  46.34000 -1.23500 49.49200
H  48.22300 2.52700 47.15200
H  48.74400 4.92600 48.70200
H  49.65500 3.26900 49.62800
H  49.47600 1.67900 48.82100
H  48.25900 2.11300 49.94600
H  48.31000 5.95700 46.19300
H  48.26600 4.30400 45.74300
H  50.75600 4.61800 47.34200
H  50.75900 6.06400 46.39900
H  50.74800 4.55400 45.62700
H  45.12300 10.53700 47.99900
H  46.14000 9.63600 47.00800
H  46.41900 9.63900 48.74300
H  40.36700 8.34300 46.77400
H  37.91200 9.94400 50.06100
H  36.92600 9.36000 48.69800
H  37.67600 10.92400 48.65800

