158

Mg 1.35500 7.63200 25.95200
C  1.92700 9.55500 28.84900
C  1.32600 4.78100 27.96000
C  1.28300 5.79400 23.16600
C  1.53600 10.49000 24.11900
N  1.89100 7.18400 28.14900
C  1.87800 8.21500 29.11200
C  1.60200 7.53300 30.47700
C  1.70300 6.03400 30.19500
C  1.65100 5.97300 28.69500
C  3.01500 5.24200 30.72500
C  0.33000 8.00300 31.15700
C  0.32800 8.16800 32.75300
H  1.58100 7.74700 33.52000
N  1.41300 5.52600 25.61800
C  1.33600 4.53300 26.57700
C  0.91500 3.30000 25.93500
C  0.87300 3.55300 24.59900
C  1.19100 4.99500 24.35500
C  0.58700 2.03000 26.72000
C  0.52500 2.61800 23.45200
O  0.43500 3.06100 22.34000
C  0.10600 1.13500 23.71800
N  1.56600 8.03400 23.91200
C  1.44500 7.16400 22.92000
C  1.30100 7.85700 21.51500
C  1.28400 9.30100 21.89100
C  1.43700 9.31100 23.45900
C  2.42900 7.43200 20.47000
C  0.04900 10.09700 21.38000
C  0.52700 10.76100 20.13100
N  1.66700 9.61800 26.39400
C  1.79500 10.66000 25.47400
C  2.13400 11.92700 26.17200
C  2.17400 11.51500 27.48000
C  1.88600 10.16700 27.60100
C  2.29800 13.28600 25.55800
C  2.43400 12.06800 28.85000
O  2.82600 13.18600 29.29300
C  2.13500 10.81000 29.74200
C  3.14900 10.71400 30.83700
O  4.27600 10.19200 30.72900
O  2.65800 11.29400 31.99200
C  3.57300 11.82000 32.96100
H  1.22400 3.90100 28.59900
H  1.07400 5.25100 22.24200
H  1.38700 11.40900 23.54900
H  2.50800 7.81200 31.01500
H  0.80700 5.54900 30.58200
H  3.59500 5.76900 31.48200
H  3.69000 4.97700 29.91100
H  2.72500 4.23400 31.02100
H  -0.51300 7.32600 31.02300
H  0.19700 8.99700 30.72900
H  -0.54200 7.71900 33.23000
H  0.20200 9.22900 32.97100
H  -0.21900 1.47300 26.24300
H  0.28000 2.28600 27.73400
H  1.51400 1.46600 26.82500
H  0.69700 0.71200 24.53100
H  0.35800 0.60700 22.79800
H  -0.92600 1.10200 24.06700
H  0.31400 7.59800 21.13100
H  2.20300 9.78000 21.55700
H  3.03900 8.31400 20.27500
H  2.02700 7.22900 19.47700
H  3.03400 6.59900 20.82700
H  -0.35700 10.84800 22.05800
H  -0.76500 9.43000 21.09700
H  0.79700 10.06400 19.33800
H  1.34800 11.44600 20.34600
H  -0.28100 11.32900 19.67200
H  2.46100 14.08700 26.27900
H  1.33800 13.46000 25.07200
H  3.11100 13.37600 24.83700
H  1.23400 11.04300 30.31000
H  4.29200 12.27900 32.28200
H  4.03700 11.04800 33.57500
H  3.12800 12.57500 33.60900
Mg 53.44600 24.29200 44.33400
C  50.62100 26.33100 43.25400
C  52.07800 21.72000 42.61200
C  56.45000 22.67500 44.46000
C  55.10500 27.24400 45.11600
N  51.61600 24.20300 42.95000
C  50.55000 25.07100 42.70900
C  49.45800 24.37500 41.92200
C  49.85400 22.92200 42.02400
C  51.24700 22.90500 42.69900
C  48.83500 22.01700 42.76000
C  49.31800 24.86400 40.41400
C  50.71100 25.06400 39.69300
H  50.50800 25.80000 38.33200
N  54.07400 22.41200 43.80200
C  53.37300 21.47300 43.17600
C  54.05300 20.23400 43.12900
C  55.29000 20.45600 43.69800
C  55.35600 21.90100 44.02000
C  53.49800 18.97300 42.54500
C  56.34000 19.39100 43.95300
O  56.13500 18.31800 43.50100
C  57.58100 19.63900 44.74600
N  55.46900 24.84400 44.77100
C  56.50500 23.98300 44.90300
C  57.87300 24.72100 45.07900
C  57.40500 26.19700 44.96000
C  55.88900 26.10900 45.02000
C  58.47100 24.45300 46.50100
C  57.88400 26.84700 43.68400
C  58.90900 27.99300 43.65400
N  52.96200 26.41700 44.41300
C  53.73100 27.35600 44.84800
C  52.84900 28.50700 44.98200
C  51.66900 28.22400 44.31500
C  51.75000 26.88000 43.98800
C  53.18200 29.67000 45.88300
C  50.45600 28.75100 43.85800
O  50.05400 29.89500 43.98900
C  49.70400 27.53400 43.16300
C  49.34200 28.09700 41.78300
O  50.08000 28.69300 40.98200
O  47.97000 28.04500 41.63400
C  47.36700 28.73400 40.45700
H  51.56600 20.86000 42.17500
H  57.42700 22.18800 44.47200
H  55.63000 28.14600 45.43700
H  48.47700 24.67700 42.29100
H  49.88400 22.59400 40.98500
H  48.25500 21.42400 42.05300
H  48.11700 22.71600 43.19000
H  49.32700 21.45000 43.55000
H  48.78100 25.80400 40.28800
H  48.67900 24.18800 39.84500
H  50.87000 24.04900 39.33000
H  51.54300 25.47800 40.26300
H  54.10400 18.59900 41.72000
H  52.56600 19.20700 42.03000
H  53.24300 18.24400 43.31400
H  57.87700 18.65800 45.11900
H  57.36200 20.33600 45.55500
H  58.36600 20.07200 44.12600
H  58.59700 24.45300 44.30900
H  57.73600 26.82800 45.78500
H  59.51900 24.15900 46.45300
H  57.80500 23.74900 46.99900
H  58.45900 25.40200 47.03800
H  56.96100 27.20600 43.22900
H  58.20200 26.03200 43.03300
H  59.38900 28.29000 44.58600
H  58.44700 28.87900 43.21700
H  59.66400 27.69300 42.92600
H  54.09100 30.21000 45.61700
H  53.18300 29.35000 46.92500
H  52.38700 30.41600 45.88800
H  48.81000 27.21400 43.69900
H  46.48100 29.28700 40.77100
H  46.97000 27.97500 39.78300
H  48.00300 29.35800 39.82800

