158

Mg 40.93300 8.66700 28.79700
C  42.62800 10.13500 31.45600
C  38.79200 7.24500 31.15500
C  39.23200 6.96000 26.18900
C  43.38200 9.67000 26.67000
N  40.82600 8.66000 31.02100
C  41.47200 9.43500 31.85600
C  40.98600 9.45800 33.29000
C  39.73700 8.55100 33.18300
C  39.75400 8.08700 31.71000
C  39.77600 7.30200 34.17700
C  40.84500 10.92900 33.94600
C  39.81700 11.04800 35.05700
H  40.38900 11.14200 36.50100
N  39.21400 7.34800 28.66900
C  38.45900 6.89000 29.77900
C  37.36500 6.19000 29.31200
C  37.45100 6.14700 27.91600
C  38.67700 6.82200 27.50900
C  36.32300 5.57700 30.20000
C  36.48300 5.45200 26.92800
O  36.71800 5.48000 25.72500
C  35.22400 4.66400 27.39800
N  41.33500 8.13300 26.70400
C  40.48000 7.57100 25.83100
C  40.81400 7.96600 24.42600
C  42.08300 8.90200 24.60600
C  42.28000 8.92500 26.10800
C  40.93400 6.76700 23.48300
C  41.97700 10.28600 23.90700
C  41.45900 11.57500 24.62800
N  42.66700 9.68800 28.94800
C  43.60200 9.98400 28.00800
C  44.75500 10.66600 28.62700
C  44.31000 10.89100 29.92100
C  43.12900 10.17500 30.15000
C  45.91100 11.18300 27.87800
C  44.65800 11.53600 31.19500
O  45.60000 12.16300 31.57800
C  43.61600 11.03300 32.26600
C  44.20500 10.24800 33.35100
O  44.53600 9.06400 33.30100
O  44.40500 10.99200 34.47300
C  44.90600 10.39400 35.67200
H  38.05700 6.95400 31.90800
H  38.71100 6.50000 25.34700
H  44.07600 10.22300 26.03300
H  41.77900 8.95100 33.83900
H  38.82500 9.14600 33.23000
H  40.64700 7.43400 34.82000
H  39.87600 6.40900 33.55900
H  38.92300 7.31100 34.85600
H  40.58400 11.71300 33.23500
H  41.81600 11.29000 34.28500
H  39.35600 10.06000 35.09000
H  39.22800 11.90400 34.72700
H  36.57600 5.68500 31.25400
H  36.38600 4.49900 30.05000
H  35.34900 6.01800 29.98700
H  35.57200 3.77700 27.92700
H  34.62800 4.37600 26.53200
H  34.62100 5.38800 27.94600
H  40.09400 8.63500 23.95700
H  42.87900 8.24700 24.25400
H  41.28600 5.86600 23.98400
H  41.73600 7.18500 22.87500
H  39.97300 6.69900 22.97200
H  41.29500 10.08400 23.08100
H  42.93100 10.59200 23.47800
H  41.19600 11.50600 25.68300
H  40.55100 11.95400 24.15800
H  42.16900 12.38200 24.44700
H  46.86600 11.02000 28.37800
H  45.83000 12.23800 27.61800
H  46.02800 10.59100 26.97100
H  43.03900 11.86500 32.66900
H  45.34700 9.41200 35.50500
H  44.05300 10.30200 36.34400
H  45.58300 11.05800 36.21000
Mg 16.99200 52.31000 26.43500
C  18.86500 51.02900 29.10900
C  14.72300 53.47000 28.76800
C  15.34700 53.58400 23.86300
C  19.19300 50.69200 24.21400
N  16.70700 52.05500 28.67100
C  17.74700 51.69500 29.53900
C  17.30500 51.94400 31.00800
C  15.79100 52.34700 30.80600
C  15.70600 52.67900 29.32500
C  14.69800 51.32400 31.36700
C  18.17800 53.05900 31.66000
C  18.47300 53.00200 33.11500
H  17.51300 52.08900 33.87000
N  15.21800 53.32100 26.32900
C  14.41200 53.76100 27.38300
C  13.38900 54.63600 26.80400
C  13.53600 54.65900 25.44400
C  14.77600 53.87300 25.15500
C  12.36600 55.36500 27.63300
C  12.67300 55.31000 24.32100
O  12.95900 55.37900 23.09200
C  11.29900 55.87300 24.82600
N  17.12800 52.09100 24.37000
C  16.41800 52.82100 23.51200
C  16.77800 52.60100 22.08200
C  18.21500 51.94200 22.23800
C  18.18900 51.51600 23.72300
C  15.71000 51.69700 21.25000
C  19.41100 52.89300 21.86100
C  19.85100 52.85200 20.39700
N  18.74200 51.14500 26.55700
C  19.49400 50.45400 25.62300
C  20.62900 49.71700 26.26000
C  20.43300 49.96000 27.65900
C  19.24100 50.79100 27.75400
C  21.72300 49.00500 25.48100
C  21.00400 49.86400 28.96600
O  22.13800 49.49200 29.29100
C  19.98300 50.55500 30.02700
C  19.51700 49.45200 30.87100
O  18.58200 48.68700 30.58900
O  20.28600 49.33700 32.02900
C  20.00200 48.27400 32.91700
H  14.06400 53.98100 29.47400
H  14.92600 54.06900 22.97900
H  19.98800 50.18300 23.66600
H  17.32800 50.97200 31.50100
H  15.63000 53.24900 31.39800
H  14.10000 51.67100 32.21000
H  15.19500 50.40600 31.68000
H  14.03100 50.84300 30.65100
H  17.74200 54.04300 31.49200
H  19.13000 53.10300 31.13200
H  18.36900 54.00400 33.52900
H  19.48900 52.62300 33.22100
H  11.33700 55.13700 27.35300
H  12.56700 56.40400 27.37300
H  12.43400 55.12500 28.69400
H  10.84400 56.33200 23.94900
H  11.42900 56.71500 25.50700
H  10.63000 55.04100 25.04400
H  16.76900 53.54900 21.54400
H  18.18000 51.09800 21.54900
H  15.72100 51.71000 20.16000
H  14.66600 51.83200 21.53400
H  16.00400 50.67400 21.48500
H  20.26300 52.64600 22.49400
H  19.06900 53.88000 22.17300
H  20.89400 52.58200 20.55900
H  19.97700 53.83500 19.94200
H  19.36400 52.08100 19.79900
H  22.17800 49.79900 24.88900
H  21.29500 48.15000 24.95700
H  22.47800 48.72500 26.21600
H  20.35600 51.39900 30.60700
H  19.71800 47.32600 32.46000
H  19.14200 48.53400 33.53500
H  20.88300 48.14700 33.54600

