158

Mg 24.35700 -5.77800 45.52500
C  26.55700 -3.36700 44.27400
C  21.89300 -4.54300 43.44200
C  22.64000 -8.75800 45.97800
C  27.04600 -7.22200 47.22900
N  24.30900 -4.13700 44.06600
C  25.29600 -3.21200 43.72500
C  24.80700 -2.23700 42.66900
C  23.27500 -2.54600 42.68000
C  23.14500 -3.87300 43.40600
C  22.29500 -1.49200 43.23900
C  25.48000 -2.51700 41.29600
C  25.55800 -1.36200 40.34400
H  26.28300 -1.56100 38.97800
N  22.47400 -6.49100 44.94000
C  21.58700 -5.76600 44.18500
C  20.35000 -6.42800 44.19300
C  20.48100 -7.69700 44.84800
C  21.94000 -7.73100 45.31700
C  19.07000 -5.95100 43.42400
C  19.29000 -8.64500 45.06300
O  18.14100 -8.38400 44.71300
C  19.49600 -9.93000 45.86700
N  24.81500 -7.76100 46.29800
C  23.96500 -8.81100 46.39800
C  24.58300 -10.02800 47.07400
C  25.97800 -9.47500 47.52900
C  25.91900 -8.05100 47.03600
C  23.82700 -10.64400 48.27500
C  27.18000 -10.26900 46.94500
C  27.50600 -11.54700 47.69500
N  26.31600 -5.38900 45.90600
C  27.27400 -5.96700 46.67900
C  28.48300 -5.14400 46.71600
C  28.21900 -4.09600 45.78600
C  26.90500 -4.30700 45.29400
C  29.77500 -5.38500 47.49800
C  28.88000 -2.98700 45.13900
O  29.99100 -2.49500 45.14900
C  27.73400 -2.48400 44.14400
C  27.60600 -1.02100 44.28800
O  28.03700 -0.23600 43.49900
O  26.91700 -0.72900 45.48700
C  26.39500 0.62700 45.68500
H  20.95000 -4.14700 43.05800
H  21.99300 -9.63600 46.04000
H  27.71800 -7.60700 47.99900
H  25.00200 -1.19200 42.91000
H  22.91300 -2.57700 41.65200
H  21.49900 -1.93900 43.83400
H  21.82000 -0.91800 42.44300
H  22.88900 -0.89800 43.93300
H  24.99000 -3.34600 40.78500
H  26.49600 -2.86000 41.49400
H  25.82100 -0.43500 40.85300
H  24.50000 -1.16900 40.17000
H  19.28400 -5.18500 42.67900
H  18.49500 -5.32100 44.10300
H  18.62100 -6.71500 42.78900
H  19.90100 -10.69100 45.20000
H  18.56500 -10.28800 46.30600
H  20.08600 -9.61600 46.72800
H  24.73900 -10.86200 46.39000
H  26.01600 -9.39700 48.61600
H  24.46400 -10.70500 49.15700
H  23.49500 -11.67200 48.13300
H  22.91000 -10.09500 48.48900
H  28.07800 -9.65700 46.85200
H  26.88900 -10.68800 45.98200
H  28.55000 -11.57200 48.00700
H  27.30100 -12.30500 46.94000
H  26.89800 -11.82500 48.55600
H  30.19700 -4.38200 47.56700
H  30.33300 -6.15200 46.96000
H  29.55400 -5.70400 48.51600
H  28.27900 -2.60200 43.20800
H  26.36700 0.82200 46.75700
H  25.35900 0.61900 45.34300
H  26.96300 1.42700 45.21000
Mg -4.39600 25.12200 26.29700
C  -3.23800 26.90500 29.10800
C  -6.25900 23.25400 28.37400
C  -5.47600 23.38600 23.54700
C  -2.76100 27.27600 24.25600
N  -4.74600 25.15700 28.51200
C  -4.13600 25.88000 29.50900
C  -4.77400 25.61800 30.84200
C  -5.49400 24.23600 30.53600
C  -5.60600 24.26800 29.05900
C  -4.65000 23.09200 31.02700
C  -5.68900 26.82600 31.20600
C  -5.76300 27.00500 32.73400
H  -5.39900 25.86700 33.62900
N  -5.63100 23.42900 26.00200
C  -6.34600 22.91300 26.96900
C  -7.28700 21.91000 26.42000
C  -7.04600 21.90900 24.95600
C  -5.95200 22.91600 24.76600
C  -8.27500 21.21200 27.30900
C  -7.67100 21.00000 23.95800
O  -7.30500 20.85900 22.79400
C  -8.90300 20.23200 24.36800
N  -4.14500 25.25800 24.17000
C  -4.63400 24.43000 23.23100
C  -4.26000 24.79200 21.77700
C  -3.57700 26.18000 22.09500
C  -3.49100 26.27500 23.61400
C  -3.31400 23.72400 21.03300
C  -4.28100 27.42400 21.55100
C  -3.68600 28.13400 20.32700
N  -3.10200 26.62700 26.60300
C  -2.48700 27.39600 25.63800
C  -1.63500 28.39200 26.30000
C  -1.95500 28.27100 27.63800
C  -2.79500 27.17700 27.75000
C  -0.78200 29.40900 25.58800
C  -1.76600 28.84800 28.98100
O  -1.10900 29.89100 29.33100
C  -2.40800 27.79100 29.96000
C  -1.27600 27.11800 30.78600
O  -0.51000 26.20000 30.33500
O  -1.43700 27.44300 32.07200
C  -0.79000 26.59900 33.02300
H  -6.83900 22.66200 29.08600
H  -5.87200 22.85200 22.68100
H  -2.19900 27.93700 23.59300
H  -3.93000 25.47300 31.51600
H  -6.51700 24.13900 30.89900
H  -5.21700 22.42300 31.67400
H  -3.67200 23.33500 31.44300
H  -4.41300 22.39300 30.22500
H  -6.72600 26.66000 30.91300
H  -5.33800 27.72700 30.70300
H  -6.77600 27.29300 33.01300
H  -5.14500 27.87900 32.94100
H  -7.95600 21.00500 28.33100
H  -8.34000 20.17400 26.98200
H  -9.12200 21.89400 27.22600
H  -9.59300 20.69400 25.07300
H  -8.51800 19.26700 24.69900
H  -9.52200 19.91100 23.53000
H  -5.17800 24.88000 21.19600
H  -2.59900 26.13700 21.61600
H  -3.28600 22.83400 21.66200
H  -2.29100 24.09600 20.97400
H  -3.87300 23.57100 20.11000
H  -4.39400 28.23500 22.27100
H  -5.25600 27.23000 21.10500
H  -4.38000 28.55100 19.59700
H  -3.02700 27.39500 19.87100
H  -3.01400 28.93700 20.63000
H  0.20200 29.01200 25.83600
H  -0.85900 30.38700 26.06300
H  -1.07300 29.36400 24.53900
H  -2.97600 28.24300 30.77400
H  0.12300 27.07800 33.37800
H  -0.51500 25.61700 32.63700
H  -1.40500 26.46400 33.91200

