158

Mg 8.04400 3.02200 28.34500
C  9.61000 1.58800 31.15200
C  6.14600 4.97000 30.65400
C  6.53700 4.22300 25.86200
C  9.59900 0.66500 26.39100
N  7.84700 3.24200 30.68300
C  8.80000 2.64600 31.54100
C  8.62700 3.17600 33.00200
C  7.37000 4.04100 32.81800
C  7.08800 4.07000 31.28800
C  6.18900 3.66200 33.74900
C  9.84100 3.88600 33.43900
C  10.25700 3.75700 34.92500
H  9.10400 3.41500 35.86200
N  6.71000 4.49000 28.24700
C  6.01600 5.13800 29.21300
C  5.12500 6.14400 28.59100
C  5.20700 5.99700 27.24000
C  6.21400 4.87000 27.04800
C  4.22200 7.02700 29.37400
C  4.50200 6.71100 26.08100
O  4.71800 6.53000 24.89200
C  3.51000 7.72500 26.50300
N  8.01300 2.43800 26.37900
C  7.36200 3.15700 25.52900
C  7.36800 2.55200 24.06400
C  8.37100 1.42000 24.31200
C  8.72000 1.50300 25.73500
C  5.97700 2.14700 23.54000
C  9.53200 1.27100 23.38500
C  10.60000 2.39100 23.56600
N  9.28900 1.41100 28.66700
C  9.83600 0.57000 27.74000
C  10.78600 -0.36400 28.40500
C  10.72600 0.01500 29.72800
C  9.79200 1.11600 29.86300
C  11.47600 -1.52900 27.76600
C  11.25300 -0.25500 31.05400
O  12.02300 -1.11100 31.52400
C  10.52300 0.73600 32.02800
C  9.83300 -0.00800 33.07700
O  8.61400 -0.13700 33.13800
O  10.74300 -0.53900 33.97400
C  10.14100 -1.06400 35.19600
H  5.70700 5.77000 31.25300
H  6.07900 4.75800 25.02700
H  10.16800 -0.09400 25.85000
H  8.40800 2.30200 33.61400
H  7.63300 5.09700 32.88200
H  5.27100 3.51500 33.18000
H  6.10000 4.40400 34.54400
H  6.43400 2.68600 34.16600
H  9.75100 4.96400 33.30200
H  10.68600 3.62700 32.80100
H  10.75800 4.66400 35.26500
H  11.00700 2.97800 35.06100
H  4.29100 8.04300 28.98400
H  4.45300 7.19800 30.42500
H  3.21000 6.65400 29.21800
H  2.97800 8.02700 25.60100
H  3.89100 8.66500 26.90000
H  2.63800 7.51000 27.12100
H  7.71000 3.41400 23.49000
H  7.84500 0.46600 24.27200
H  5.94400 2.58400 22.54200
H  5.13200 2.46600 24.15100
H  6.01000 1.05900 23.48700
H  9.14500 1.26800 22.36600
H  9.87700 0.24300 23.49600
H  11.51400 1.99900 24.01300
H  10.08100 3.18700 24.10000
H  10.83400 2.81200 22.58800
H  12.48300 -1.28500 27.42700
H  10.97800 -1.98400 26.91000
H  11.37000 -2.40700 28.40400
H  11.21300 1.38400 32.56900
H  10.86700 -1.62500 35.78500
H  9.36700 -1.79000 34.94600
H  9.72400 -0.24700 35.78500
Mg 25.02700 0.51400 29.43100
C  27.35300 0.37000 32.09300
C  22.58400 0.83200 31.72100
C  22.87000 0.41500 26.92000
C  27.69200 -0.31500 27.22400
N  25.02100 0.63000 31.64800
C  26.05000 0.57000 32.53800
C  25.55200 0.74400 33.94200
C  24.03500 0.69000 33.79800
C  23.83500 0.73800 32.30500
C  23.42800 -0.67100 34.37300
C  26.09400 2.04700 34.67000
C  26.75600 1.72400 36.01800
H  26.30500 2.55000 37.33300
N  22.96800 0.72000 29.37300
C  22.16200 0.80600 30.42500
C  20.82200 1.09100 30.01300
C  20.79900 0.99400 28.61400
C  22.22900 0.66300 28.19000
C  19.63200 1.46300 30.98000
C  19.73900 1.23900 27.71400
O  19.92000 1.28800 26.52700
C  18.30600 1.41600 28.07100
N  25.19300 -0.10900 27.37700
C  24.16800 0.11800 26.56500
C  24.62900 -0.01100 25.11400
C  26.14400 -0.16500 25.20200
C  26.40600 -0.18200 26.68700
C  23.84200 -1.12200 24.37100
C  26.93400 0.93100 24.43300
C  26.47300 1.24600 22.99800
N  27.09300 0.10300 29.53700
C  28.04400 -0.17900 28.58300
C  29.29200 -0.29600 29.16100
C  29.12500 -0.01700 30.51600
C  27.70400 0.13100 30.75000
C  30.64300 -0.62100 28.59700
C  29.76700 0.06400 31.83700
O  30.94400 -0.08900 32.16900
C  28.68200 0.52200 32.86000
C  28.68700 -0.45600 33.96500
O  27.95800 -1.41400 34.04900
O  29.62100 -0.09000 34.91500
C  29.72200 -1.09100 36.03900
H  21.78800 0.99700 32.45000
H  22.16200 0.38500 26.08800
H  28.51900 -0.60100 26.57100
H  25.76600 -0.19000 34.46100
H  23.54600 1.53500 34.28200
H  23.17100 -1.30300 33.52300
H  22.47400 -0.34100 34.78300
H  24.08200 -1.24700 35.02900
H  25.21000 2.67900 34.75400
H  26.88300 2.46200 34.04300
H  27.78700 2.05900 35.90300
H  26.73200 0.65300 36.21800
H  19.05600 0.54600 30.85100
H  19.04700 2.31200 30.62700
H  19.86800 1.58300 32.03700
H  18.06400 0.76500 28.91100
H  17.69100 1.29900 27.17900
H  18.26700 2.46200 28.37700
H  24.29200 0.91200 24.64200
H  26.40900 -1.17200 24.87900
H  23.25400 -1.66500 25.10900
H  24.56400 -1.84900 23.99900
H  23.19600 -0.77200 23.56600
H  27.85500 0.42600 24.14200
H  27.17000 1.81900 25.01800
H  25.74000 0.51700 22.65100
H  27.30300 1.07500 22.31400
H  26.01700 2.21900 22.81400
H  30.75400 -0.62100 27.51300
H  30.98600 -1.58500 28.97400
H  31.38300 0.13100 28.86900
H  28.84800 1.52900 33.24400
H  30.02500 -2.07800 35.69000
H  28.75400 -1.13900 36.53800
H  30.50100 -0.71600 36.70200

