158

Mg 36.53000 49.66000 25.51200
C  36.73700 47.86000 28.37800
C  35.60000 52.48000 27.38100
C  36.12900 51.37000 22.61900
C  37.76800 46.97900 23.69400
N  36.08400 50.13100 27.66600
C  36.37600 49.18000 28.70500
C  36.59200 49.86800 30.01800
C  36.10100 51.31700 29.68600
C  35.80400 51.35700 28.19500
C  34.75300 51.68200 30.51300
C  38.08300 49.77400 30.50800
C  38.36300 49.70600 32.00600
H  37.17700 49.55300 32.96700
N  35.92600 51.69000 25.06700
C  35.61300 52.63900 25.99600
C  35.18500 53.85900 25.26800
C  35.31300 53.62400 23.89600
C  35.73800 52.17700 23.80800
C  34.80100 55.15600 25.97800
C  35.07400 54.49500 22.73000
O  35.31000 54.12100 21.55200
C  34.77300 55.93300 22.85800
N  36.78600 49.19300 23.42500
C  36.58100 50.05500 22.42900
C  36.90800 49.44800 21.06800
C  37.67800 48.26000 21.46600
C  37.39400 48.12100 22.93700
C  35.64800 49.15700 20.23000
C  39.16500 48.29800 21.10100
C  40.15800 47.09100 21.35700
N  36.99000 47.69800 25.87200
C  37.43100 46.75600 25.05300
C  37.65300 45.53500 25.81800
C  37.48000 45.88800 27.19400
C  36.99400 47.25400 27.13300
C  37.97800 44.30900 25.18900
C  37.48300 45.46000 28.61000
O  37.64400 44.39100 29.17200
C  37.00700 46.71900 29.40600
C  35.79900 46.37300 30.22900
O  34.63200 46.63500 29.92700
O  36.17000 45.73400 31.33800
C  35.19400 45.39900 32.38000
H  35.44400 53.42200 27.91200
H  36.04400 51.80300 21.62100
H  38.20700 46.19800 23.06900
H  35.86200 49.38500 30.66800
H  36.83000 52.03800 30.05800
H  34.50000 50.96600 31.29400
H  33.94300 51.83400 29.80000
H  34.76100 52.57300 31.14000
H  38.58100 50.64300 30.07800
H  38.52100 48.94100 29.95700
H  39.03900 50.48000 32.36700
H  38.88800 48.78600 32.26300
H  35.51600 55.94300 25.74100
H  34.76300 55.08700 27.06500
H  33.83200 55.54300 25.66100
H  34.59800 56.37700 21.87800
H  35.64100 56.42200 23.30000
H  33.89600 56.04100 23.49600
H  37.46400 50.15300 20.44900
H  37.25100 47.30400 21.16300
H  34.85100 48.63800 20.76400
H  35.90900 48.61300 19.32200
H  35.30200 50.14400 19.92200
H  39.42100 49.18600 21.67900
H  39.27000 48.67200 20.08300
H  40.84800 47.00500 20.51800
H  39.58600 46.16400 21.41200
H  40.73400 47.27600 22.26400
H  37.61400 44.28200 24.16200
H  37.36000 43.52900 25.63200
H  39.06400 44.25500 25.10900
H  37.70600 47.01300 30.18900
H  35.66300 45.68000 33.32300
H  34.86000 44.36200 32.40900
H  34.26000 45.95100 32.26700
Mg 26.58700 51.01800 26.91100
C  24.23000 52.04000 29.27800
C  28.80200 50.41900 29.53000
C  28.86200 50.45300 24.57900
C  24.35700 52.18300 24.49400
N  26.36600 51.02800 29.11600
C  25.27400 51.37000 29.88100
C  25.41200 50.97400 31.38600
C  27.05400 50.81300 31.48300
C  27.47200 50.64300 29.95000
C  27.82300 51.81900 32.32200
C  24.58400 49.77000 31.75800
C  23.70000 49.92500 33.02600
H  23.63500 48.77400 33.99100
N  28.54900 50.41200 27.00700
C  29.25500 50.17800 28.19900
C  30.54500 49.70100 27.79400
C  30.67000 49.71400 26.35200
C  29.34800 50.17000 25.90500
C  31.63000 49.23000 28.85600
C  31.81000 49.30700 25.44500
O  31.83200 49.57100 24.26100
C  32.97400 48.51300 25.97600
N  26.72300 51.49400 24.81000
C  27.70900 51.02900 24.04100
C  27.41600 51.25800 22.50900
C  25.86800 51.55900 22.61600
C  25.67400 51.85500 24.03300
C  28.22300 52.40100 21.93200
C  24.94700 50.38000 22.19100
C  24.02000 50.58800 20.99700
N  24.69800 51.89600 26.83800
C  23.89100 52.30300 25.78700
C  22.63200 52.84600 26.26900
C  22.71800 52.70400 27.65300
C  23.97900 52.15100 27.93000
C  21.52300 53.59800 25.51100
C  22.01500 52.91400 28.91200
O  20.83000 53.20500 29.16100
C  23.01300 52.54100 30.02200
C  23.24500 53.65000 30.93600
O  23.59900 54.80400 30.68300
O  22.99700 53.16400 32.20900
C  23.48400 54.00500 33.37100
H  29.51200 50.27400 30.34700
H  29.58100 50.30700 23.77100
H  23.66800 52.41100 23.67700
H  25.15400 51.87600 31.94100
H  27.28300 49.86700 31.97400
H  28.63300 51.27400 32.80600
H  27.09400 52.36800 32.91900
H  28.45000 52.48400 31.72700
H  25.28000 48.95400 31.95100
H  23.90200 49.49700 30.95200
H  22.70000 50.09500 32.62600
H  23.92500 50.89700 33.46600
H  31.46600 49.53700 29.88900
H  32.46900 49.87700 28.59900
H  31.94800 48.18900 28.79700
H  32.58000 47.63700 26.49200
H  33.59000 49.16600 26.59400
H  33.58900 48.20200 25.13100
H  27.54000 50.37600 21.88100
H  25.48500 52.46600 22.14700
H  29.17500 52.45100 22.46100
H  27.73900 53.37100 22.04300
H  28.43000 52.17500 20.88600
H  24.21800 50.05800 22.93400
H  25.64000 49.61300 21.84600
H  22.99000 50.50200 21.34300
H  24.16600 49.89700 20.16700
H  24.11100 51.59100 20.57900
H  21.00000 54.36400 26.08300
H  20.74700 52.88000 25.24500
H  21.96600 54.07000 24.63500
H  22.62000 51.66100 30.53300
H  24.34400 53.44500 33.73700
H  22.68800 53.99700 34.11500
H  23.67700 55.07700 33.31900

