158

Mg 36.93200 49.16800 24.82600
C  37.00900 47.03600 27.58600
C  35.75500 51.60900 26.75100
C  36.16500 50.79000 21.91100
C  38.10200 46.40800 22.89000
N  36.26100 49.19900 26.89300
C  36.55700 48.32900 27.91100
C  36.10900 48.93800 29.26000
C  35.56200 50.31700 28.92800
C  35.90200 50.40400 27.43700
C  34.07800 50.66400 29.27600
C  37.44200 48.92600 30.17400
C  37.30600 48.71600 31.68500
H  35.91200 48.79000 32.29500
N  36.22700 51.02100 24.37100
C  35.84900 51.89500 25.33500
C  35.58100 53.16900 24.73200
C  35.49800 52.87900 23.29300
C  35.86400 51.49100 23.15500
C  35.27000 54.47400 25.46300
C  35.05100 53.81100 22.16500
O  34.97100 53.35400 21.02600
C  34.64500 55.25900 22.31400
N  36.87300 48.56400 22.68200
C  36.60000 49.44100 21.68100
C  37.04000 48.88900 20.33600
C  37.66000 47.44000 20.66900
C  37.48100 47.44300 22.20400
C  35.96700 48.79000 19.26700
C  39.19100 47.33900 20.17800
C  40.21500 48.26800 20.91000
N  37.49800 47.08500 25.03100
C  38.01900 46.13400 24.20500
C  38.15300 44.82700 24.95100
C  37.79500 45.20100 26.29200
C  37.35000 46.52000 26.24100
C  38.56300 43.47800 24.31600
C  37.63700 44.73200 27.77300
O  37.91500 43.64900 28.27900
C  37.26200 46.00900 28.63300
C  36.08300 45.53200 29.51900
O  34.91300 45.42100 29.18400
O  36.53200 45.19900 30.77100
C  35.56300 44.84700 31.77000
H  35.31900 52.39400 27.37200
H  36.07300 51.36500 20.98700
H  38.57500 45.58700 22.34600
H  35.31200 48.34600 29.71200
H  36.14100 51.05700 29.48100
H  33.40600 51.02200 28.49500
H  34.09100 51.30700 30.15600
H  33.61900 49.72300 29.57900
H  37.87600 49.92500 30.11800
H  38.21700 48.20200 29.92400
H  37.83100 49.44100 32.30700
H  37.55300 47.67800 31.90700
H  34.26700 54.89100 25.37500
H  35.88800 55.12500 24.84400
H  35.75700 54.37100 26.43300
H  34.04800 55.59500 21.46700
H  35.55200 55.86000 22.38600
H  34.02200 55.44500 23.18900
H  37.79800 49.50800 19.85500
H  37.09700 46.58500 20.29600
H  34.90900 48.81400 19.53000
H  36.06000 47.80200 18.81600
H  36.10700 49.49600 18.44900
H  39.21600 47.56600 19.11200
H  39.54100 46.30700 20.19900
H  40.95800 48.68700 20.23200
H  40.55200 47.67000 21.75600
H  39.60300 49.05400 21.35400
H  39.21800 43.65800 23.46300
H  37.71500 42.91700 23.92300
H  39.05700 43.02200 25.17400
H  38.05600 46.38900 29.27700
H  36.10400 44.91900 32.71300
H  35.23100 43.82100 31.61200
H  34.68200 45.48900 31.75900
Mg 27.04400 49.74900 26.46000
C  25.12600 50.92000 29.00100
C  29.35200 48.59100 28.55000
C  28.96800 49.06800 23.66300
C  24.68900 51.21500 24.22800
N  27.18600 49.70600 28.49600
C  26.26200 50.16000 29.38000
C  26.61900 49.82600 30.84000
C  28.15800 49.32700 30.70600
C  28.23900 49.12600 29.18200
C  29.20200 50.23000 31.31100
C  25.69800 48.71600 31.33700
C  25.85400 48.10700 32.67900
H  26.25800 49.19300 33.75300
N  28.87200 48.97300 26.16300
C  29.70400 48.57700 27.15800
C  30.93000 48.07000 26.66100
C  30.85900 48.18200 25.24700
C  29.55900 48.83000 24.91300
C  32.21300 47.64700 27.50100
C  31.82100 47.67300 24.14400
O  31.68100 47.73500 22.95800
C  33.16300 47.12700 24.47100
N  26.79000 49.91800 24.25900
C  27.70100 49.53100 23.33000
C  27.08900 49.58600 21.87200
C  25.68900 50.21100 22.12700
C  25.68600 50.42200 23.61700
C  28.02200 50.48200 20.91000
C  24.46100 49.34900 21.57400
C  23.28700 50.01400 20.83800
N  25.20900 50.82200 26.55300
C  24.40300 51.40600 25.61200
C  23.21600 52.06400 26.26500
C  23.45300 51.88000 27.61700
C  24.65000 51.15300 27.68800
C  22.00600 52.64900 25.57800
C  23.00400 52.14700 28.98200
O  21.97000 52.70300 29.40000
C  24.10800 51.53700 29.99800
C  24.74600 52.64100 30.77400
O  25.52100 53.50900 30.36600
O  24.30000 52.69900 32.10400
C  24.64700 53.93600 32.85700
H  30.07000 48.12200 29.22500
H  29.57900 48.80400 22.79700
H  24.10700 51.77400 23.49300
H  26.64500 50.80500 31.31700
H  28.15900 48.31400 31.10800
H  29.71700 50.87200 30.59600
H  30.00100 49.70800 31.83700
H  28.69800 50.88400 32.02100
H  25.87300 47.83900 30.71300
H  24.71600 49.17800 31.44200
H  26.59800 47.31400 32.59600
H  24.89300 47.66600 32.94000
H  32.11300 48.12400 28.47600
H  33.11300 48.15300 27.15300
H  32.33600 46.58100 27.69200
H  33.00300 46.30600 25.16900
H  33.71400 48.00300 24.81500
H  33.51700 46.72300 23.52300
H  27.02600 48.58000 21.45800
H  25.55700 51.21600 21.72400
H  28.97300 50.70100 21.39600
H  27.56000 51.44300 20.68100
H  28.26200 49.99100 19.96700
H  24.14200 48.61500 22.31400
H  24.79900 48.62700 20.83200
H  22.35600 50.04600 21.40400
H  23.08500 49.63100 19.83700
H  23.61500 51.03100 20.62400
H  21.89700 52.39600 24.52300
H  22.15900 53.72800 25.55300
H  21.11100 52.45500 26.17000
H  23.61300 50.85900 30.69400
H  24.95900 54.79400 32.26000
H  25.47900 53.58700 33.46800
H  23.96000 54.37500 33.58000

