158

Mg 56.00800 23.10200 44.36500
C  53.77100 25.60400 43.24600
C  53.92600 20.69200 43.18900
C  58.43400 20.82000 44.69800
C  58.27500 25.58700 45.27400
N  54.06900 23.13600 43.29600
C  53.31300 24.24200 43.03100
C  51.90400 23.82700 42.53000
C  51.90400 22.26000 42.81500
C  53.40300 21.97500 43.17400
C  50.94100 21.75800 43.93600
C  51.64400 24.14800 41.03300
C  50.26300 24.60700 40.81000
H  49.49700 23.84100 39.73000
N  56.12200 21.02300 44.05400
C  55.14600 20.27100 43.63500
C  55.54800 18.92600 43.71100
C  56.95900 18.90900 44.01000
C  57.23600 20.25700 44.24900
C  54.69100 17.67700 43.36000
C  57.80800 17.60100 44.16200
O  57.36500 16.48600 44.02800
C  59.19200 17.69800 44.62200
N  58.05300 23.21200 44.87300
C  58.79800 22.14900 44.95100
C  60.23600 22.53000 45.41500
C  60.07700 23.99900 45.87400
C  58.74500 24.27100 45.38700
C  60.92500 21.66200 46.53800
C  61.20000 24.98500 45.22700
C  61.98300 25.89800 46.18300
N  56.06700 25.23100 44.32300
C  57.00000 26.04200 44.74300
C  56.53600 27.39900 44.57900
C  55.23200 27.27800 44.04300
C  55.03700 25.89500 43.82500
C  57.29100 28.57900 44.98600
C  54.12300 27.98400 43.58500
O  53.95500 29.21200 43.60100
C  53.09200 26.93800 43.07100
C  52.74900 27.32700 41.59400
O  53.36300 27.11400 40.55600
O  51.52500 27.87100 41.63600
C  51.05700 28.53000 40.37400
H  53.16900 19.93500 42.97100
H  59.21800 20.06200 44.65700
H  58.93500 26.37900 45.63400
H  51.09100 24.23100 43.13300
H  51.64200 21.75800 41.88400
H  51.52900 21.59500 44.83900
H  50.64500 20.75300 43.63300
H  50.06000 22.38200 44.08600
H  51.88600 23.26400 40.44300
H  52.32100 24.92600 40.67800
H  50.35100 25.67300 40.59900
H  49.65300 24.75500 41.70200
H  54.58300 17.16700 44.31700
H  55.16800 17.01600 42.63700
H  53.69600 17.90700 42.98100
H  59.93200 17.97100 43.87000
H  59.47800 16.66100 44.79800
H  59.23200 18.06200 45.64900
H  60.88400 22.43000 44.54400
H  60.12900 23.98800 46.96200
H  61.95100 21.42900 46.25300
H  60.46800 20.67200 46.53500
H  60.90200 22.15700 47.50800
H  60.74700 25.62500 44.47000
H  61.86800 24.33100 44.66700
H  61.46600 25.94200 47.14200
H  62.14800 26.90500 45.80000
H  62.98100 25.51300 46.39700
H  58.20600 28.62700 44.39500
H  57.52900 28.45800 46.04300
H  56.68800 29.45500 44.74900
H  52.21600 26.78400 43.70100
H  51.72200 28.31400 39.53900
H  51.04700 29.59800 40.59100
H  50.02500 28.26300 40.14600
Mg 5.32100 54.78900 40.41000
C  4.76200 51.28300 40.30800
C  8.60500 54.08500 39.56200
C  5.74000 57.98700 40.16600
C  1.89900 55.16100 40.99200
N  6.54300 52.92100 39.94100
C  6.05300 51.61100 39.85500
C  7.17900 50.63500 39.42200
C  8.44300 51.51600 39.53000
C  7.84600 52.95200 39.72400
C  9.44900 50.99600 40.56600
C  7.04300 49.91400 38.01200
C  6.15900 50.66500 36.98900
H  6.87900 51.31900 35.85700
N  7.03700 55.90500 39.96300
C  8.27700 55.45500 39.65300
C  9.12400 56.61200 39.49000
C  8.32800 57.79000 39.74400
C  6.92700 57.24100 39.88800
C  10.65900 56.51300 39.25600
C  8.86700 59.17900 39.63200
O  10.06100 59.42000 39.45700
C  7.96600 60.32200 39.82800
N  4.01700 56.39200 40.52200
C  4.43300 57.65300 40.49200
C  3.29100 58.66700 40.80500
C  2.04700 57.72100 40.89400
C  2.69300 56.35100 40.80100
C  3.56300 59.48900 42.07800
C  0.93100 57.74700 39.78700
C  -0.52200 57.78500 40.17100
N  3.58700 53.52700 40.59300
C  2.35700 53.79400 40.96000
C  1.60600 52.57600 41.13600
C  2.51300 51.59600 41.02900
C  3.70700 52.16700 40.64500
C  0.09000 52.46300 41.22200
C  2.77000 50.14400 41.09900
O  2.01700 49.24000 41.37500
C  4.26800 49.96500 40.61800
C  4.08500 49.23500 39.35700
O  3.56500 49.73000 38.35400
O  4.55000 47.92500 39.53700
C  4.29600 46.94000 38.45800
H  9.66000 53.90800 39.34700
H  5.79100 59.07700 40.17100
H  0.84100 55.33000 41.20200
H  7.19800 49.88800 40.21600
H  8.98900 51.51800 38.58700
H  10.46300 50.86300 40.18800
H  9.21100 50.09700 41.13400
H  9.53600 51.74200 41.35600
H  6.61100 48.91900 38.11300
H  7.99700 49.85200 37.48800
H  5.55000 51.45700 37.42500
H  5.46400 49.99200 36.48800
H  11.07300 57.06600 38.41200
H  10.92400 55.46400 39.12700
H  11.04600 56.82900 40.22500
H  8.45100 61.29700 39.77700
H  7.45100 60.24500 40.78600
H  7.32800 60.33400 38.94500
H  3.11900 59.27900 39.92000
H  1.62600 57.61900 41.89400
H  2.72500 59.40100 42.77000
H  3.54900 60.54600 41.81400
H  4.45900 59.25100 42.65100
H  1.06900 56.95200 39.05300
H  1.06900 58.62000 39.15000
H  -0.61400 58.11700 41.20500
H  -1.17100 56.91700 40.05500
H  -0.96700 58.58500 39.57900
H  -0.41300 53.37500 40.90100
H  -0.11100 52.34300 42.28700
H  -0.36900 51.63200 40.68700
H  4.91500 49.54100 41.38600
H  4.51400 47.36900 37.48000
H  3.30600 46.49900 38.34200
H  4.94300 46.09500 38.69300

