158

Mg 35.95300 50.09000 26.23400
C  35.57400 48.07100 29.13100
C  35.04300 52.81500 28.18200
C  36.40600 51.98400 23.59100
C  36.71400 47.13400 24.46500
N  35.46700 50.38800 28.30900
C  35.42300 49.44800 29.30200
C  35.42600 50.14900 30.69400
C  34.69400 51.51900 30.35300
C  35.08100 51.59300 28.84900
C  33.19000 51.56500 30.59000
C  36.79400 50.28600 31.34800
C  36.76100 50.09400 32.86400
H  35.48700 50.15900 33.66600
N  35.77500 52.10900 25.90500
C  35.40700 53.07300 26.83700
C  35.42600 54.33300 26.28800
C  35.94200 54.21800 24.91200
C  36.10400 52.74900 24.71200
C  34.95100 55.48700 27.05200
C  36.28200 55.28400 23.83700
O  36.63400 54.93800 22.73200
C  36.05400 56.73300 24.18000
N  36.27900 49.58900 24.29900
C  36.53900 50.57600 23.39100
C  36.84600 49.97900 22.03200
C  37.34000 48.56500 22.43500
C  36.64500 48.33500 23.77600
C  35.57200 50.07600 21.13000
C  38.85300 48.35100 22.52600
C  39.44500 47.26600 21.67700
N  36.13400 47.97300 26.68700
C  36.41800 46.91300 25.87000
C  36.42400 45.71800 26.64100
C  36.18300 46.10700 27.89400
C  35.94500 47.46600 27.90100
C  36.72400 44.34500 26.17400
C  36.01700 45.68000 29.26500
O  36.10500 44.57400 29.72400
C  35.63400 46.95200 30.16000
C  34.37100 46.75900 30.92700
O  33.22200 47.03500 30.57800
O  34.60000 46.13300 32.16100
C  33.41200 45.76700 32.87600
H  34.58200 53.53300 28.86300
H  36.77100 52.63400 22.79400
H  36.96700 46.22800 23.90900
H  34.77700 49.49700 31.27900
H  35.06500 52.32300 30.98800
H  32.88100 50.66000 31.11200
H  32.73200 51.64000 29.60400
H  32.82000 52.36900 31.22600
H  37.34500 51.17900 31.05500
H  37.42500 49.51500 30.90500
H  37.46200 50.72500 33.40900
H  37.14700 49.07700 32.92500
H  35.74800 55.90800 27.66400
H  34.10400 55.22500 27.68700
H  34.59400 56.27400 26.38800
H  36.47000 57.29000 23.34100
H  36.69800 57.00500 25.01700
H  35.01000 57.03700 24.25900
H  37.74000 50.44500 21.61600
H  36.94500 47.87100 21.69200
H  35.23900 51.10100 20.96700
H  34.64500 49.56300 21.38700
H  35.87700 49.72700 20.14400
H  39.13200 48.32400 23.57900
H  39.34700 49.23800 22.13100
H  40.02700 46.71400 22.41500
H  39.96600 47.62200 20.78800
H  38.67600 46.56500 21.35200
H  37.13200 44.43500 25.16700
H  35.85400 43.69400 26.08700
H  37.46800 44.02600 26.90400
H  36.48600 47.17200 30.80300
H  33.62500 45.12300 33.72900
H  32.59000 45.35600 32.28800
H  32.99800 46.62700 33.40200
Mg 16.02400 52.54300 25.50300
C  18.05200 51.52000 28.37600
C  13.46300 52.95600 27.66300
C  14.16600 53.28900 22.81700
C  18.72300 51.45900 23.48400
N  15.78700 52.11200 27.72000
C  16.73300 51.89000 28.70400
C  16.21100 52.30000 30.13700
C  14.68400 52.36900 29.88000
C  14.62700 52.53800 28.30200
C  13.91600 51.15600 30.49800
C  16.91100 53.62700 30.64600
C  16.76700 53.89800 32.17900
H  16.19000 52.78700 33.04400
N  14.08500 53.10500 25.27900
C  13.17700 53.19700 26.25200
C  11.89800 53.63900 25.77300
C  12.04500 53.73500 24.39300
C  13.47700 53.38400 24.07200
C  10.68900 53.92100 26.56700
C  11.02800 54.23800 23.31700
O  11.42500 54.39800 22.18700
C  9.49500 54.52700 23.60000
N  16.35500 52.32900 23.43900
C  15.42900 52.77800 22.52700
C  16.03100 52.74800 21.09800
C  17.42800 52.09000 21.35200
C  17.52000 51.91400 22.85500
C  15.16700 52.27300 19.93000
C  18.57100 52.83300 20.64500
C  19.29700 53.85200 21.51300
N  17.99600 51.67600 25.78500
C  19.04600 51.33600 24.86100
C  20.08500 50.79500 25.58300
C  19.77000 50.84100 26.90600
C  18.53300 51.44100 27.00400
C  21.43600 50.39400 25.03500
C  20.31400 50.60500 28.17400
O  21.45100 50.19700 28.43800
C  19.21400 50.96000 29.20600
C  18.83500 49.74600 30.07700
O  18.39500 48.65200 29.69500
O  19.14600 50.00000 31.40700
C  18.65100 49.03800 32.43200
H  12.68400 53.06100 28.42100
H  13.59600 53.50200 21.91000
H  19.52100 51.03500 22.87000
H  16.51200 51.44800 30.74600
H  14.31000 53.29100 30.32600
H  13.25500 51.57800 31.25500
H  14.63300 50.55400 31.05600
H  13.36600 50.64600 29.70700
H  16.40500 54.45000 30.14200
H  17.91900 53.71400 30.24000
H  16.07300 54.73700 32.20600
H  17.67000 54.17300 32.72400
H  9.99400 53.08400 26.49000
H  10.28800 54.87500 26.22600
H  10.99500 54.08400 27.60100
H  9.09200 53.74200 24.23900
H  8.89300 54.71700 22.71100
H  9.37000 55.44000 24.18300
H  16.23300 53.81300 20.97900
H  17.31400 51.09000 20.93500
H  14.84800 51.27000 20.21500
H  15.86600 52.29100 19.09400
H  14.31500 52.89300 19.65300
H  18.26200 53.30300 19.71100
H  19.28600 52.04700 20.40100
H  19.26100 54.82200 21.01700
H  20.32800 53.54100 21.68000
H  19.00300 54.15400 22.51800
H  21.58200 49.31500 24.99600
H  22.20300 50.93400 25.59000
H  21.46800 50.64000 23.97300
H  19.56300 51.79200 29.81800
H  17.67600 48.63000 32.16600
H  18.75300 49.47800 33.42500
H  19.34600 48.20100 32.49400

