158

Mg 47.55800 16.39800 28.62100
C  45.68500 16.26100 31.52100
C  49.87800 18.40600 30.28500
C  49.06600 17.14600 25.62500
C  44.76700 15.23900 26.82800
N  47.67100 17.48100 30.60800
C  46.83700 17.10900 31.67300
C  47.45700 17.55900 33.02000
C  48.72500 18.45700 32.57700
C  48.77500 18.17500 31.05400
C  48.60900 19.99600 32.92500
C  47.82900 16.32600 33.97500
C  47.12800 16.28500 35.33400
H  47.20300 17.62800 36.11000
N  49.31000 17.49200 28.03400
C  50.18700 18.12400 28.88200
C  51.33300 18.70600 28.14000
C  51.14700 18.26300 26.79000
C  49.81500 17.61600 26.76500
C  52.49800 19.37700 28.76600
C  52.06700 18.32000 25.61600
O  51.84300 17.98700 24.45300
C  53.44100 18.65100 25.80000
N  47.12600 16.00600 26.48100
C  47.79100 16.56400 25.48300
C  47.07400 16.40200 24.21200
C  45.88200 15.47100 24.51700
C  45.88700 15.58300 26.04300
C  46.57200 17.64400 23.37600
C  46.02000 13.97900 24.00500
C  44.96700 13.60600 22.90200
N  45.74600 15.68200 29.08100
C  44.65300 15.22600 28.21200
C  43.53600 14.85200 29.00700
C  43.95200 15.10200 30.34800
C  45.22500 15.76400 30.30400
C  42.30600 14.16100 28.58300
C  43.51500 15.09200 31.68200
O  42.41200 14.77300 32.12800
C  44.67700 15.73900 32.53100
C  43.93800 16.89000 33.20800
O  43.95500 18.05000 32.72000
O  43.30200 16.43200 34.40200
C  42.22700 17.34600 34.76600
H  50.65300 18.98800 30.78800
H  49.53800 17.28100 24.64900
H  43.84900 14.99900 26.28800
H  46.65000 18.15800 33.44300
H  49.64600 18.10300 33.04100
H  48.44800 20.46000 31.95200
H  49.48200 20.39200 33.44400
H  47.71100 20.27500 33.47600
H  48.91200 16.36300 34.09200
H  47.60500 15.39600 33.45300
H  47.62500 15.53700 35.95200
H  46.09300 15.95300 35.25200
H  53.19500 18.54300 28.85700
H  52.22000 19.80200 29.73100
H  52.91400 20.19400 28.17800
H  54.08900 18.45200 24.94600
H  53.73100 18.01000 26.63200
H  53.49700 19.72900 25.95200
H  47.79500 15.96900 23.51900
H  44.88700 15.78700 24.20300
H  45.48300 17.68600 23.36000
H  46.92600 17.56600 22.34800
H  46.93700 18.57800 23.80200
H  45.83500 13.30700 24.84300
H  47.03700 13.83200 23.64000
H  45.13200 12.62700 22.45400
H  44.95000 14.36800 22.12200
H  43.99900 13.54300 23.39900
H  41.47800 14.41400 29.24600
H  42.36600 13.08000 28.46200
H  42.07500 14.47100 27.56400
H  45.10700 14.99000 33.19600
H  41.38900 17.11200 34.10800
H  42.41600 18.41400 34.87300
H  41.76300 17.12900 35.72800
Mg 17.02700 52.82200 26.39600
C  19.27600 51.53500 28.76800
C  14.75800 53.19300 28.93200
C  14.77500 53.81100 24.11700
C  19.18600 51.87100 23.83400
N  17.05500 52.46300 28.48600
C  18.08700 51.97300 29.31300
C  17.79300 52.28000 30.75900
C  16.23800 52.35000 30.77600
C  16.01400 52.69700 29.29500
C  15.52500 51.05300 31.21100
C  18.58000 53.55700 31.24100
C  19.03800 53.54700 32.70800
H  18.20300 52.83200 33.75900
N  14.98900 53.44600 26.49000
C  14.24700 53.52800 27.64500
C  13.06500 54.24600 27.33200
C  12.97300 54.28900 25.88100
C  14.27700 53.85900 25.41900
C  12.15900 54.75800 28.38000
C  11.79600 54.77800 24.94300
O  11.80400 54.62700 23.73600
C  10.69900 55.56500 25.46500
N  17.09100 52.93400 24.29600
C  15.96300 53.30300 23.58100
C  16.18700 53.20100 22.05200
C  17.69700 52.68300 21.96800
C  18.03400 52.53700 23.41300
C  15.22000 52.35900 21.27300
C  18.56200 53.73700 21.16900
C  19.32700 54.82200 22.02400
N  18.92300 51.93100 26.24200
C  19.66400 51.56400 25.12600
C  20.80200 50.73000 25.66700
C  20.74700 50.88700 27.03600
C  19.55500 51.48800 27.33300
C  21.83100 50.14800 24.84000
C  21.41000 50.45300 28.27500
O  22.40500 49.82800 28.46300
C  20.48400 51.06700 29.51400
C  20.20400 49.96600 30.47500
O  19.32900 49.09400 30.30900
O  20.90000 50.10700 31.62400
C  20.58900 49.17800 32.68400
H  14.03000 53.40000 29.71900
H  14.04900 54.07200 23.34400
H  19.85900 51.48100 23.06800
H  18.07000 51.34400 31.24300
H  15.94000 53.08000 31.52800
H  15.42400 51.13700 32.29300
H  16.05200 50.11900 31.01600
H  14.55800 51.04900 30.70800
H  17.96800 54.41500 30.96000
H  19.49100 53.58700 30.64300
H  19.14100 54.55900 33.09900
H  20.06300 53.21000 32.86000
H  12.59600 54.64600 29.37200
H  11.11800 54.43600 28.39000
H  12.01300 55.81700 28.16500
H  10.23100 54.72400 25.97700
H  10.03500 55.87000 24.65600
H  11.00900 56.32500 26.18200
H  16.09800 54.20500 21.63900
H  17.72800 51.69500 21.50800
H  15.73400 51.63000 20.64700
H  14.61800 52.93900 20.57400
H  14.57800 51.76400 21.92300
H  17.99800 54.33300 20.45200
H  19.38700 53.28600 20.61600
H  19.81500 54.39900 22.90200
H  18.81900 55.69000 22.44400
H  20.11000 55.18100 21.35700
H  22.30700 51.03800 24.42700
H  21.48400 49.34900 24.18600
H  22.64300 49.69200 25.40700
H  21.02300 51.86600 30.02200
H  19.61600 49.34800 33.14400
H  21.36200 49.24500 33.45000
H  20.61000 48.17400 32.26000

