158

Mg 47.98400 15.44700 28.18700
C  45.81000 15.38900 30.87100
C  50.03700 17.50000 29.79700
C  49.86600 15.53900 25.29900
C  45.42900 13.89800 26.16200
N  47.87300 16.36700 30.09100
C  46.96400 16.16700 31.09100
C  47.50400 16.74300 32.42000
C  48.50600 17.79200 31.89500
C  48.84200 17.26500 30.49700
C  47.99300 19.29700 31.88500
C  48.02300 15.73700 33.46400
C  47.81100 15.98000 35.03000
H  49.09800 16.12200 35.80400
N  49.79000 16.27000 27.68800
C  50.49700 17.11600 28.47100
C  51.68800 17.43300 27.80700
C  51.67900 16.82500 26.52600
C  50.44000 16.08600 26.44600
C  52.68600 18.38300 28.40900
C  52.79100 16.82500 25.41700
O  52.63700 16.17600 24.35200
C  54.10400 17.55000 25.65200
N  47.63000 14.98900 25.91400
C  48.66600 14.95100 25.04100
C  48.31100 14.25100 23.70900
C  46.81500 13.85300 24.00100
C  46.59100 14.24300 25.44200
C  48.41200 15.16800 22.46000
C  46.51700 12.33800 23.61500
C  46.92600 11.29700 24.64300
N  46.06800 14.71400 28.33200
C  45.18400 14.08300 27.49200
C  43.94900 13.79800 28.28200
C  44.19000 14.27500 29.57200
C  45.48300 14.85800 29.58800
C  42.72700 13.07900 27.75100
C  43.56600 14.40300 30.87200
O  42.48800 14.09400 31.27800
C  44.65000 15.10200 31.80700
C  44.01000 16.22800 32.50000
O  43.46200 17.15200 31.91200
O  43.85600 15.86700 33.76900
C  42.98100 16.74100 34.60800
H  50.63600 18.12800 30.46000
H  50.52100 15.49900 24.42600
H  44.73300 13.19300 25.70300
H  46.65500 17.27900 32.84400
H  49.40300 17.79700 32.51400
H  48.02300 19.62500 30.84600
H  48.74100 19.90500 32.39500
H  46.96300 19.37100 32.23500
H  49.08700 15.51700 33.37700
H  47.56500 14.77700 33.22400
H  47.17800 15.19500 35.44400
H  47.20900 16.85800 35.26500
H  52.51500 18.36800 29.48500
H  52.67600 19.32300 27.85900
H  53.70500 18.05500 28.20200
H  53.98900 18.59400 25.94300
H  54.57100 17.56200 24.66700
H  54.65800 17.00000 26.41300
H  48.90300 13.37900 23.43100
H  46.09100 14.39300 23.39000
H  48.77000 16.14900 22.77400
H  47.45500 15.22000 21.94100
H  49.15100 14.73200 21.78700
H  46.83200 12.06700 22.60700
H  45.43100 12.27500 23.55400
H  47.67400 11.72600 25.31100
H  47.42000 10.46700 24.13800
H  46.09500 11.03300 25.29600
H  42.59800 13.06100 26.66800
H  41.91900 13.49500 28.35300
H  42.70600 12.02400 28.02600
H  45.04100 14.36500 32.50800
H  42.53500 16.05700 35.33000
H  42.15000 17.20800 34.07900
H  43.46100 17.50000 35.22600
Mg -8.90200 40.78400 41.15400
C  -8.14700 37.48900 40.47000
C  -5.96600 41.71500 39.58500
C  -10.04400 43.82900 41.07800
C  -12.18900 39.57300 42.22000
N  -7.28800 39.76900 40.05600
C  -7.22500 38.41000 39.94300
C  -5.97700 37.98400 39.12000
C  -5.11800 39.27500 39.19100
C  -6.19400 40.34700 39.56700
C  -3.98500 39.25800 40.33100
C  -6.34700 37.56200 37.73200
C  -5.87300 36.20100 37.29000
H  -4.91100 36.29600 36.04400
N  -8.12200 42.54100 40.50100
C  -6.86000 42.73600 40.02200
C  -6.64800 44.20400 39.97400
C  -7.76000 44.81800 40.45100
C  -8.73200 43.69300 40.65000
C  -5.35000 44.71300 39.48500
C  -8.02600 46.35800 40.65800
O  -7.14900 47.15800 40.41700
C  -9.28000 46.90600 41.18000
N  -10.94100 41.56400 41.54300
C  -11.02400 42.93900 41.47200
C  -12.46500 43.28600 41.65700
C  -13.22700 41.97000 42.18300
C  -12.09500 40.96200 41.96500
C  -12.86300 44.53800 42.46000
C  -14.56000 41.78500 41.44100
C  -15.79400 41.38800 42.29900
N  -9.88500 38.90600 41.47700
C  -11.18200 38.59400 41.89800
C  -11.26100 37.19300 42.08000
C  -10.07700 36.66900 41.50700
C  -9.31800 37.78100 41.17500
C  -12.48700 36.44600 42.63500
C  -9.32400 35.51100 41.19100
O  -9.52100 34.35200 41.49300
C  -8.05600 35.98600 40.45200
C  -6.88700 35.39800 41.13900
O  -6.38800 35.80100 42.17900
O  -6.65300 34.16000 40.54200
C  -5.60700 33.30300 41.12000
H  -4.92800 42.00500 39.41200
H  -10.53100 44.79200 40.91000
H  -13.20600 39.20500 42.36800
H  -5.48400 37.15200 39.62300
H  -4.61400 39.56600 38.26900
H  -3.99800 38.27200 40.79400
H  -4.22700 40.00200 41.09100
H  -3.01000 39.41700 39.87100
H  -6.00600 38.34800 37.05900
H  -7.40400 37.70000 37.50500
H  -6.72000 35.52200 37.19800
H  -5.23600 35.68500 38.00800
H  -4.56700 44.37800 40.16500
H  -5.35100 45.80000 39.40900
H  -5.15000 44.46800 38.44100
H  -9.64400 46.46400 42.10700
H  -10.08800 46.87500 40.44900
H  -9.08300 47.97000 41.31300
H  -12.83000 43.59800 40.67900
H  -13.39800 42.18200 43.23800
H  -11.98100 45.02100 42.88100
H  -13.50900 44.41600 43.33000
H  -13.23800 45.35600 41.84400
H  -14.47000 41.02800 40.66200
H  -14.77200 42.71900 40.92000
H  -16.03100 40.38000 41.96000
H  -16.61700 42.04200 42.01000
H  -15.49900 41.37100 43.34900
H  -13.31800 36.48200 41.93100
H  -12.75300 36.91500 43.58200
H  -12.36900 35.41400 42.96700
H  -8.02200 35.72500 39.39500
H  -5.09600 33.82300 41.93100
H  -4.88600 33.12200 40.32300
H  -6.04200 32.37100 41.47900

