158

Mg 27.35900 49.88600 26.05800
C  25.34700 50.60600 28.84300
C  29.70800 48.57900 28.38000
C  29.38000 49.16900 23.49300
C  25.11800 51.48000 24.01000
N  27.48400 49.71700 28.43600
C  26.48300 50.02900 29.27500
C  26.83300 49.63700 30.69000
C  28.29400 49.20800 30.56000
C  28.58400 49.11600 29.03600
C  29.37400 50.03700 31.27000
C  25.89200 48.50500 31.25600
C  25.35900 48.56300 32.68300
H  26.16400 49.25500 33.81600
N  29.25500 49.02400 25.95700
C  30.04200 48.59900 27.00600
C  31.33200 48.23700 26.54300
C  31.34300 48.50500 25.12900
C  29.98000 48.94500 24.77900
C  32.48100 47.74800 27.40200
C  32.41200 48.29400 24.16400
O  32.30900 48.30600 22.93900
C  33.72400 47.93400 24.64900
N  27.23100 50.30800 24.07600
C  28.10400 49.75100 23.22500
C  27.74300 50.10500 21.75900
C  26.18900 50.52600 21.84800
C  26.14600 50.82800 23.39300
C  28.54400 51.22900 21.10800
C  25.19300 49.31400 21.45000
C  24.41000 49.44800 20.14500
N  25.61600 50.93700 26.33700
C  24.85400 51.61200 25.41800
C  23.72100 52.24600 26.15200
C  23.86000 51.79100 27.47900
C  25.03800 51.04500 27.57200
C  22.59200 52.93300 25.60200
C  23.19700 51.66400 28.71400
O  22.09200 52.12200 29.04600
C  24.16900 51.02700 29.67400
C  24.61400 52.15900 30.54600
O  25.29700 53.04500 30.18800
O  24.01200 51.93000 31.77100
C  24.31400 52.94100 32.75500
H  30.45100 48.19800 29.08400
H  30.08100 49.06500 22.66200
H  24.32000 51.87500 23.37700
H  26.82600 50.58400 31.22900
H  28.42600 48.21000 30.97700
H  29.91600 50.60000 30.51000
H  29.95800 49.30200 31.82500
H  28.86000 50.73900 31.92600
H  26.35500 47.51900 31.22600
H  25.04000 48.36900 30.59100
H  25.24700 47.54700 33.06100
H  24.38300 49.04800 32.66100
H  33.26100 48.50900 27.43300
H  32.84400 46.80400 26.99500
H  32.36800 47.53600 28.46500
H  33.62800 46.93500 25.07200
H  33.87300 48.75500 25.35100
H  34.41700 47.96000 23.80800
H  27.69000 49.18400 21.17900
H  25.99600 51.36300 21.17800
H  29.01300 50.87600 20.19000
H  29.36200 51.48100 21.78300
H  27.92200 52.07200 20.80600
H  24.49800 49.15700 22.27400
H  25.78000 48.39700 21.39300
H  24.67700 48.54600 19.59400
H  24.75800 50.30600 19.57000
H  23.33500 49.37600 20.31100
H  22.68000 53.28900 24.57500
H  22.29800 53.81700 26.16900
H  21.76000 52.22900 25.57100
H  23.74900 50.21100 30.26100
H  23.66000 52.79300 33.61500
H  24.05000 53.95400 32.45400
H  25.37200 52.87000 33.00700
Mg 16.83700 51.45200 26.50300
C  19.14100 49.97600 28.74300
C  14.79700 52.19800 29.13500
C  14.88700 52.96300 24.34100
C  19.16600 50.91300 23.94200
N  16.99300 51.08500 28.59300
C  18.06200 50.63000 29.33000
C  17.78100 50.73000 30.82800
C  16.21200 51.00500 30.84600
C  15.94700 51.47800 29.44800
C  15.23700 49.75600 31.20700
C  18.67800 51.74400 31.56300
C  18.72300 51.64300 33.10100
H  17.60600 50.88100 33.80400
N  15.04000 52.41500 26.68100
C  14.27100 52.52200 27.82800
C  13.06600 53.15800 27.47000
C  13.07800 53.47800 26.04700
C  14.37300 52.91700 25.63300
C  12.00500 53.49700 28.46000
C  12.08300 54.20000 25.18100
O  12.20200 54.46200 24.04200
C  10.70300 54.43700 25.73100
N  16.86800 51.62300 24.36700
C  16.03500 52.49500 23.74800
C  16.25400 52.60000 22.30900
C  17.76000 52.19100 22.17300
C  17.96800 51.51200 23.54800
C  15.29900 51.70400 21.39800
C  18.68200 53.40700 21.92900
C  19.12200 53.72900 20.56400
N  18.67300 50.42100 26.26000
C  19.51000 50.34500 25.15300
C  20.72600 49.67700 25.54600
C  20.55700 49.47100 26.95000
C  19.37000 50.03100 27.33900
C  21.89500 49.44200 24.63700
C  21.30200 48.96300 28.10800
O  22.37600 48.39600 28.15600
C  20.34200 49.29000 29.35800
C  20.05700 48.10200 30.16100
O  19.49800 47.13400 29.66900
O  20.39100 48.21800 31.44400
C  20.12800 47.15000 32.39400
H  14.11500 52.46000 29.94600
H  14.18400 53.55100 23.74700
H  19.89300 50.78100 23.13800
H  18.06800 49.78500 31.28900
H  16.03200 51.80600 31.56400
H  14.56100 49.67800 30.35600
H  14.59000 49.83600 32.08000
H  15.74800 48.79800 31.30600
H  18.19400 52.71200 31.43100
H  19.65800 51.66700 31.09100
H  18.79100 52.64600 33.52400
H  19.64900 51.10200 33.29400
H  11.13000 52.85400 28.36200
H  11.65400 54.51000 28.26100
H  12.29500 53.43100 29.50900
H  10.33000 53.53700 26.22000
H  9.89500 54.60400 25.01900
H  10.62300 55.23800 26.46600
H  16.12000 53.65600 22.07500
H  17.95400 51.46400 21.38500
H  14.48700 51.25800 21.97200
H  15.92700 51.03800 20.80500
H  14.86100 52.42200 20.70500
H  19.63700 53.33600 22.44800
H  18.26800 54.30500 22.38800
H  19.15500 54.81700 20.49800
H  18.40000 53.33100 19.85100
H  20.10800 53.28300 20.44000
H  22.03000 50.31500 23.99900
H  21.78700 48.52900 24.05100
H  22.79400 49.28400 25.23100
H  20.86600 50.02800 29.96600
H  21.06200 46.82700 32.85400
H  19.47800 46.41200 31.92400
H  19.55400 47.49000 33.25600

