158

Mg 25.33100 1.60100 30.10100
C  27.52500 1.28600 32.99100
C  22.87900 2.34000 32.42500
C  23.08100 1.34300 27.68200
C  27.81700 0.61800 28.09100
N  25.23300 1.58100 32.48400
C  26.25200 1.70500 33.30400
C  25.83500 2.16900 34.69500
C  24.35200 2.37000 34.56500
C  24.07800 2.01500 33.05800
C  23.48400 1.45300 35.42500
C  26.67500 3.43600 35.07100
C  27.40200 3.23500 36.44800
H  26.82600 4.03000 37.62500
N  23.28600 1.84400 30.00500
C  22.49600 2.25300 31.01600
C  21.11600 2.35200 30.52400
C  21.13600 1.99200 29.16300
C  22.50100 1.71900 28.88400
C  19.96200 2.70800 31.43300
C  19.94200 1.97200 28.13500
O  20.07000 1.44100 27.01300
C  18.63900 2.42200 28.57600
N  25.40700 1.02400 28.12400
C  24.35500 1.07500 27.29200
C  24.79200 0.86200 25.87300
C  26.39300 0.86200 25.93900
C  26.60400 0.87300 27.51100
C  24.18100 -0.32400 25.10900
C  27.06000 2.09100 25.24300
C  27.38800 3.34700 26.06600
N  27.30800 1.06300 30.34200
C  28.22200 0.67400 29.48200
C  29.54100 0.51000 30.08400
C  29.24800 0.75300 31.49500
C  27.87100 1.01800 31.58200
C  30.79300 0.24200 29.28400
C  29.89000 0.84100 32.81300
O  31.07600 0.69000 33.13900
C  28.74200 1.11900 33.85300
C  28.66100 -0.04000 34.75800
O  28.47800 -1.18900 34.49900
O  28.92900 0.37800 36.01600
C  29.13100 -0.64700 37.08300
H  22.13500 2.67900 33.14800
H  22.44000 1.23000 26.80500
H  28.70900 0.42100 27.49400
H  26.13900 1.29000 35.26300
H  24.07000 3.41100 34.72600
H  22.94900 2.14400 36.07700
H  24.13300 0.83000 36.04100
H  22.87100 0.72300 34.89700
H  26.06300 4.29000 35.36000
H  27.31700 3.61800 34.20800
H  28.38300 3.66100 36.24100
H  27.51200 2.20500 36.78600
H  20.24800 3.17800 32.37400
H  19.43200 1.76600 31.57100
H  19.31900 3.35500 30.83700
H  17.86200 2.07400 27.89400
H  18.61800 3.48500 28.81600
H  18.47900 1.86900 29.50200
H  24.43200 1.78300 25.41300
H  26.82000 -0.05800 25.54100
H  23.39500 -0.68800 25.77000
H  24.91800 -1.11600 24.97800
H  23.75300 0.02700 24.16900
H  26.46200 2.49700 24.42700
H  27.98100 1.71700 24.79700
H  27.52400 3.15900 27.13100
H  26.54900 4.03800 25.98600
H  28.26800 3.81500 25.62500
H  31.70400 0.44500 29.84600
H  30.84200 0.84000 28.37300
H  30.81700 -0.81600 29.02200
H  29.05400 1.97500 34.45100
H  28.74500 -0.37300 38.06400
H  30.20900 -0.67800 37.24000
H  28.67500 -1.61500 36.87500
Mg -2.57300 34.16000 26.43900
C  -3.91700 32.35800 29.18600
C  -1.08600 36.20500 28.71400
C  -1.57900 35.77000 23.76400
C  -4.58900 32.21400 24.32400
N  -2.65000 34.33400 28.66000
C  -3.09900 33.41900 29.60600
C  -2.75500 33.84700 31.08500
C  -1.90600 35.16500 30.81800
C  -1.94300 35.25500 29.29200
C  -2.39100 36.45500 31.46200
C  -1.87900 32.94700 32.00400
C  -2.56000 32.47000 33.25900
H  -1.74100 32.15400 34.53800
N  -1.50600 35.70100 26.27900
C  -0.90800 36.44000 27.30100
C  0.05800 37.29600 26.68800
C  -0.00800 37.07700 25.29100
C  -1.13300 36.16300 25.03000
C  0.94400 38.13600 27.51500
C  0.94800 37.60700 24.19300
O  0.72400 37.54200 23.02900
C  2.19800 38.40500 24.55200
N  -3.29000 34.26700 24.39000
C  -2.61000 34.88500 23.48000
C  -3.08400 34.57600 22.03800
C  -3.95900 33.38000 22.27600
C  -3.98200 33.26300 23.74600
C  -3.71200 35.77000 21.19500
C  -3.53200 32.04900 21.54100
C  -2.63200 30.88600 22.19200
N  -3.92700 32.58400 26.61200
C  -4.63200 31.81700 25.70500
C  -5.32800 30.73300 26.32900
C  -5.17000 31.01400 27.65700
C  -4.26500 32.08200 27.82700
C  -6.18600 29.76400 25.65700
C  -5.48900 30.50700 28.96700
O  -6.25600 29.60100 29.29900
C  -4.64400 31.28600 29.97600
C  -5.53400 31.92000 31.05500
O  -6.21200 32.91700 31.03200
O  -5.53700 31.02300 32.16700
C  -6.50900 31.39700 33.15600
H  -0.63200 36.88400 29.43800
H  -1.15600 36.25700 22.88300
H  -5.12800 31.62600 23.57800
H  -3.63300 34.00200 31.71300
H  -0.85400 35.01500 31.05900
H  -1.72800 36.69500 32.29300
H  -3.32600 36.33200 32.00900
H  -2.33900 37.32700 30.81000
H  -0.87600 33.33900 32.17100
H  -1.63300 32.08400 31.38600
H  -2.80900 31.44200 32.99600
H  -3.45100 33.06500 33.46200
H  1.11100 39.05500 26.95100
H  1.97000 37.77000 27.48100
H  0.55500 38.34500 28.51100
H  2.73200 38.14700 25.46700
H  1.90300 39.44300 24.70500
H  2.84500 38.17800 23.70500
H  -2.19500 34.23200 21.50900
H  -5.00600 33.50300 21.99900
H  -2.89600 36.35600 20.77200
H  -4.14800 36.55200 21.81700
H  -4.37200 35.43400 20.39500
H  -2.96400 32.39300 20.67700
H  -4.46200 31.53200 21.30300
H  -1.98900 31.29100 22.97300
H  -1.91800 30.47100 21.48000
H  -3.28100 30.08500 22.54600
H  -6.46300 29.94200 24.61800
H  -7.05900 29.61900 26.29300
H  -5.62000 28.83400 25.69200
H  -3.87600 30.68300 30.46100
H  -6.07700 32.12900 33.83900
H  -6.63900 30.50600 33.77000
H  -7.48500 31.67400 32.75700

