158

Mg 41.77200 40.49400 26.90800
C  41.02200 42.77300 29.56400
C  42.96700 38.39200 29.34600
C  42.68700 38.47100 24.39600
C  41.32400 43.06800 24.60700
N  42.05400 40.64400 29.16300
C  41.53900 41.57200 30.07500
C  41.56000 41.15400 31.56100
C  42.19300 39.73400 31.30400
C  42.54000 39.60500 29.86800
C  43.33200 39.38000 32.28000
C  40.22400 41.22000 32.33000
C  40.27000 41.71600 33.81200
H  39.65000 40.84200 34.95600
N  42.73000 38.69400 26.84600
C  43.08100 37.92200 27.98300
C  43.64500 36.69000 27.48900
C  43.63000 36.69200 26.13500
C  43.01500 37.99400 25.71000
C  44.15200 35.56000 28.44200
C  43.97900 35.58100 25.09300
O  43.79800 35.64400 23.90600
C  44.51700 34.26000 25.57500
N  42.19000 40.83600 24.84100
C  42.31800 39.79500 24.02900
C  42.12000 40.06200 22.54800
C  41.73000 41.57500 22.57300
C  41.78700 41.86300 24.11500
C  43.31400 39.66400 21.53900
C  40.37200 41.90400 21.82300
C  39.00600 41.66200 22.44900
N  41.19200 42.51200 26.95900
C  41.01300 43.39800 25.94500
C  40.44100 44.61900 26.55900
C  40.44400 44.41700 27.91100
C  40.96200 43.11300 28.17500
C  40.13100 45.89800 25.83800
C  40.12400 45.04200 29.13600
O  39.73800 46.19600 29.35000
C  40.42200 43.99100 30.22700
C  41.28500 44.66000 31.16100
O  42.35000 45.25400 30.90600
O  40.87100 44.49300 32.44300
C  41.68200 45.11900 33.52300
H  43.23300 37.61200 30.06300
H  42.69900 37.81200 23.52500
H  41.06300 43.84700 23.88800
H  42.30000 41.83400 31.98300
H  41.47200 38.97200 31.60200
H  43.33700 40.00700 33.17100
H  44.31000 39.40300 31.79800
H  43.23100 38.36400 32.66100
H  39.92400 40.18000 32.45200
H  39.41700 41.63500 31.72700
H  39.68600 42.63100 33.70900
H  41.24400 42.13200 34.07100
H  45.21000 35.49500 28.19100
H  43.61300 34.63800 28.22400
H  44.14700 35.83000 29.49800
H  45.36500 34.22600 26.26000
H  44.68400 33.78300 24.60900
H  43.64900 33.75200 25.99500
H  41.21000 39.57500 22.19700
H  42.56200 42.15300 22.17000
H  43.71200 40.47900 20.93400
H  42.88000 38.87900 20.91900
H  44.04200 39.37200 22.29600
H  40.29200 41.18700 21.00600
H  40.46000 42.92300 21.44900
H  38.68700 42.63800 22.81700
H  39.15000 40.89800 23.21200
H  38.27300 41.21900 21.77500
H  39.44700 45.54000 25.06900
H  41.02500 46.27700 25.34400
H  39.72200 46.67100 26.49000
H  39.51100 43.62200 30.69700
H  41.01800 45.62400 34.22400
H  42.36900 45.91600 33.23800
H  42.13300 44.26200 34.02400
Mg -5.03000 25.41700 25.93800
C  -4.11300 26.85100 28.84900
C  -6.92700 23.09600 27.80700
C  -5.34100 23.46500 23.18100
C  -3.03700 27.63100 24.15600
N  -5.55600 25.03100 28.05600
C  -5.09700 25.84300 29.03400
C  -5.91200 25.63200 30.33400
C  -6.70300 24.31100 30.02900
C  -6.35800 24.08500 28.55000
C  -6.43600 23.11600 30.93800
C  -6.75700 26.86100 30.76600
C  -6.60100 27.27700 32.24400
H  -6.04100 26.28000 33.28600
N  -6.01900 23.48900 25.48900
C  -6.82400 22.80900 26.37600
C  -7.46100 21.71300 25.62200
C  -6.96100 21.78000 24.30600
C  -6.01700 22.87200 24.31700
C  -8.50600 20.77600 26.25800
C  -7.28400 20.93100 23.10100
O  -6.82400 21.15600 22.00400
C  -8.26500 19.75200 23.26800
N  -4.30100 25.46900 23.99500
C  -4.50900 24.54500 22.98900
C  -3.86400 24.98100 21.65900
C  -3.37500 26.44700 21.96700
C  -3.66500 26.56500 23.46300
C  -2.76600 23.95900 21.12300
C  -4.05500 27.55500 21.18100
C  -5.56400 27.70300 21.42200
N  -3.85100 26.95600 26.34200
C  -3.13400 27.79700 25.50600
C  -2.45600 28.71000 26.31200
C  -2.81600 28.45100 27.61800
C  -3.68200 27.35400 27.59200
C  -1.62200 29.78500 25.79500
C  -2.63900 28.88900 28.94300
O  -1.93500 29.76700 29.48000
C  -3.45600 27.76800 29.84300
C  -2.69800 27.16300 31.02200
O  -2.02200 26.15700 30.98300
O  -2.87400 28.00800 32.13400
C  -2.23500 27.69300 33.40600
H  -7.46800 22.33500 28.37400
H  -5.52800 22.97200 22.22400
H  -2.31700 28.25400 23.62000
H  -5.07800 25.48000 31.01900
H  -7.76200 24.56100 30.10000
H  -7.32800 22.72700 31.42700
H  -5.72100 23.46600 31.68400
H  -6.01000 22.27800 30.38600
H  -7.79400 26.69800 30.47100
H  -6.28000 27.66600 30.20900
H  -7.60200 27.56800 32.56000
H  -5.80200 28.01900 32.24500
H  -8.24600 19.72900 26.10900
H  -9.52500 20.88900 25.88800
H  -8.40900 20.90400 27.33600
H  -7.80900 18.91800 23.80200
H  -8.57600 19.35800 22.30000
H  -9.21100 20.11300 23.67000
H  -4.72900 25.05500 21.00000
H  -2.31100 26.67700 21.90400
H  -3.15700 23.23500 20.40800
H  -2.46300 23.34900 21.97500
H  -1.93600 24.42700 20.59500
H  -4.00000 27.44800 20.09800
H  -3.55600 28.47600 21.48400
H  -6.15800 27.67100 20.50900
H  -5.56400 28.72400 21.80400
H  -6.04300 27.01800 22.12200
H  -0.79200 29.39200 25.20900
H  -1.22800 30.19400 26.72500
H  -2.26000 30.48500 25.25400
H  -4.22900 28.42100 30.24900
H  -1.19700 28.02400 33.43700
H  -2.29000 26.64300 33.69100
H  -2.75500 28.21200 34.21200

