158

Mg 7.51400 3.07800 27.96200
C  8.98300 1.77100 30.93300
C  5.50800 4.99000 29.96500
C  5.75500 4.04800 25.20800
C  9.21700 0.67100 26.07600
N  7.38600 3.41000 30.27700
C  8.18400 2.85500 31.28000
C  7.61100 3.32000 32.67500
C  6.41800 4.25200 32.29500
C  6.37700 4.16600 30.75000
C  5.08800 3.81600 32.80700
C  8.65600 3.97100 33.61700
C  9.17600 3.22700 34.76500
H  9.87200 3.98000 35.90300
N  5.87100 4.34700 27.63400
C  5.22900 5.06000 28.59000
C  4.21000 5.85000 27.99700
C  4.39200 5.75600 26.53500
C  5.38600 4.74000 26.39300
C  3.26600 6.74300 28.79200
C  3.76800 6.51900 25.37900
O  4.12400 6.36900 24.25500
C  2.61800 7.54100 25.57700
N  7.40900 2.47300 25.97600
C  6.58800 2.99500 25.00400
C  6.83500 2.29400 23.67200
C  8.21600 1.56700 23.88600
C  8.23500 1.49800 25.42100
C  5.69000 1.30800 23.12800
C  9.47400 2.30900 23.35500
C  9.84700 1.70800 21.90800
N  8.86300 1.61900 28.32700
C  9.45700 0.71000 27.47400
C  10.22500 -0.27300 28.26700
C  10.13800 0.15500 29.59900
C  9.19000 1.27000 29.59200
C  10.81900 -1.52000 27.88200
C  10.56300 -0.09100 30.97300
O  11.32200 -0.90500 31.41000
C  9.86800 0.94100 31.88000
C  9.14800 0.23300 32.94600
O  7.99800 -0.20900 32.80400
O  9.86800 0.05600 34.05200
C  9.24100 -0.41500 35.32100
H  4.88400 5.64900 30.57200
H  5.22500 4.37500 24.31000
H  9.68400 -0.00300 25.35400
H  7.35900 2.38500 33.17600
H  6.58100 5.28800 32.59200
H  5.34200 3.07800 33.56900
H  4.30600 3.37800 32.18700
H  4.68900 4.63800 33.40100
H  8.22300 4.93000 33.90100
H  9.55700 4.11300 33.02100
H  9.87500 2.57200 34.24600
H  8.44700 2.51900 35.16000
H  3.22400 6.57400 29.86800
H  2.28200 6.66800 28.32800
H  3.60700 7.77800 28.81400
H  2.27900 8.04600 24.67300
H  3.18600 8.27100 26.15200
H  1.73600 7.19500 26.11600
H  6.92900 3.17200 23.03400
H  8.09800 0.56100 23.48500
H  5.26200 1.68500 22.19800
H  4.88200 1.29300 23.85900
H  6.03600 0.29200 22.94000
H  10.25600 2.23200 24.11000
H  9.17700 3.33900 23.15900
H  9.91300 2.43800 21.10100
H  9.26700 0.85900 21.54500
H  10.84300 1.29900 22.07400
H  10.32400 -1.93500 27.00500
H  10.64800 -2.16300 28.74500
H  11.86400 -1.46700 27.57900
H  10.69500 1.51500 32.29900
H  9.17000 0.48000 35.93900
H  9.70000 -1.23000 35.88100
H  8.18200 -0.62800 35.17600
Mg 34.68700 3.05700 29.53700
C  32.71400 4.03200 32.27100
C  37.49600 2.77500 31.52900
C  36.41800 2.15400 26.84600
C  31.82900 3.37100 27.60000
N  35.11300 3.51000 31.66900
C  34.07200 3.57200 32.59400
C  34.70500 3.53200 34.02400
C  36.20700 3.03500 33.78900
C  36.29900 3.09300 32.25800
C  37.38400 3.81000 34.41700
C  33.89400 2.59700 34.96000
C  33.86600 2.95100 36.44800
H  34.80400 3.99600 37.11900
N  36.72200 2.70100 29.21000
C  37.66800 2.66000 30.12200
C  38.93900 2.22300 29.50500
C  38.73700 1.98900 28.12500
C  37.24100 2.25300 27.98600
C  40.24300 2.19800 30.27100
C  39.66500 1.58300 26.90900
O  39.29800 1.57800 25.74700
C  41.14800 1.12900 27.09700
N  34.18600 2.63500 27.61700
C  35.09400 2.37900 26.62200
C  34.48600 1.99000 25.30200
C  32.96000 2.22700 25.60600
C  32.95800 2.74600 27.02800
C  34.94800 2.97200 24.21400
C  32.04900 1.03000 25.52600
C  32.41100 0.07500 24.43000
N  32.67500 3.82900 29.72200
C  31.63600 3.83800 28.89100
C  30.45800 4.34900 29.61000
C  30.79800 4.39100 30.95900
C  32.18500 4.03000 30.98000
C  29.15100 4.63300 28.96000
C  30.31300 4.65800 32.29700
O  29.17900 4.93600 32.66100
C  31.48400 4.38900 33.24600
C  31.81800 5.49700 34.07600
O  32.08900 6.62100 33.67000
O  31.61500 5.18100 35.41200
C  31.55800 6.32200 36.35700
H  38.28500 2.62500 32.26900
H  36.93900 1.73600 25.98200
H  30.91900 3.37100 26.99600
H  34.86100 4.53700 34.41700
H  36.34500 2.01700 34.15400
H  38.30900 3.23500 34.39700
H  37.12900 4.01100 35.45800
H  37.63000 4.74600 33.91700
H  34.18600 1.54700 34.95000
H  32.82400 2.65400 34.76000
H  34.15700 2.02900 36.95100
H  32.86600 3.06200 36.86600
H  40.79900 3.13400 30.22300
H  40.91300 1.41600 29.91300
H  40.16900 2.05000 31.34800
H  41.69000 0.98300 26.16300
H  41.22100 0.15900 27.59000
H  41.69000 1.87700 27.67400
H  34.73900 0.94000 25.15400
H  32.63800 3.06500 24.98700
H  35.90800 2.73700 23.75300
H  34.93800 3.95700 24.68100
H  34.09900 2.91100 23.53300
H  31.00200 1.32200 25.44200
H  32.01500 0.41000 26.42200
H  33.08700 -0.66600 24.85800
H  32.84600 0.60700 23.58400
H  31.47300 -0.42500 24.18800
H  29.27500 5.22200 28.05100
H  28.71400 5.31500 29.69000
H  28.49000 3.79900 28.72700
H  31.10500 3.50100 33.75300
H  30.50900 6.55500 36.54200
H  32.15500 7.15700 35.99200
H  31.91800 5.94300 37.31300

