158

Mg -2.46500 17.08100 27.19900
C  -2.75400 14.90600 29.92900
C  -2.97000 19.74300 29.25800
C  -2.28100 19.09300 24.41200
C  -2.14200 14.44400 25.11500
N  -2.88100 17.31400 29.37000
C  -2.97400 16.26300 30.30800
C  -3.03600 16.85600 31.72200
C  -3.31400 18.39400 31.38000
C  -3.14900 18.52600 29.86300
C  -4.69400 18.95200 31.97500
C  -1.74800 16.60900 32.55200
C  -1.50200 17.41800 33.87100
H  -1.25800 16.66100 35.26200
N  -2.51800 19.16800 26.85600
C  -2.71900 20.11700 27.89300
C  -2.72600 21.45500 27.30800
C  -2.48500 21.26100 25.86500
C  -2.37700 19.78500 25.64500
C  -3.04200 22.74300 27.97700
C  -2.19600 22.30500 24.78500
O  -2.02500 21.99800 23.60400
C  -2.24900 23.79200 25.12100
N  -2.34200 16.73900 25.09900
C  -2.26000 17.74400 24.18000
C  -2.23300 17.15700 22.70700
C  -1.91800 15.72100 22.97000
C  -2.18400 15.59500 24.47800
C  -3.60000 17.36100 21.96000
C  -0.47200 15.33200 22.65600
C  0.65700 15.92000 23.52500
N  -2.52800 15.12800 27.40700
C  -2.33700 14.14000 26.47200
C  -2.44700 12.82600 27.07300
C  -2.59800 13.07000 28.44700
C  -2.61100 14.51800 28.61000
C  -2.47500 11.45300 26.36500
C  -2.70800 12.43600 29.72100
O  -2.84200 11.28200 30.06900
C  -2.83300 13.58200 30.71800
C  -1.64300 13.36000 31.57400
O  -0.48500 13.58600 31.22100
O  -1.97100 12.87500 32.84900
C  -0.86700 12.58700 33.72300
H  -2.93100 20.61900 29.90900
H  -2.24600 19.63100 23.46300
H  -1.91400 13.58100 24.48600
H  -3.79700 16.23800 32.19900
H  -2.50500 19.04000 31.71900
H  -5.09000 18.08400 32.50200
H  -5.47800 19.34200 31.32600
H  -4.48200 19.70300 32.73600
H  -0.84000 16.48300 31.96200
H  -1.64100 15.60500 32.96500
H  -2.31000 18.14000 33.97900
H  -0.55100 17.94900 33.82900
H  -2.09000 23.25400 27.83200
H  -3.23900 22.67000 29.04600
H  -3.80500 23.28800 27.42200
H  -3.17400 24.23400 25.49300
H  -1.97700 24.28400 24.18800
H  -1.49000 24.05600 25.85800
H  -1.37500 17.53900 22.15500
H  -2.65400 15.07000 22.49700
H  -4.30000 17.99000 22.51100
H  -4.13100 16.42800 21.77200
H  -3.45800 17.77900 20.96400
H  -0.14200 15.59600 21.65200
H  -0.44600 14.24300 22.61600
H  1.07700 16.64500 22.82700
H  1.35500 15.15000 23.85500
H  0.41000 16.49400 24.41800
H  -1.75000 11.50700 25.55300
H  -3.48500 11.33500 25.97400
H  -2.18700 10.67500 27.07200
H  -3.78800 13.41100 31.21400
H  -1.17700 11.74400 34.33900
H  -0.57000 13.44600 34.32500
H  -0.01000 12.24700 33.14100
Mg 1.68500 -1.42600 43.40300
C  4.82400 -0.52300 42.74400
C  0.55100 1.38600 41.72900
C  -1.52100 -2.66800 43.57400
C  2.84300 -4.47500 44.80300
N  2.57000 0.14300 42.19000
C  3.89600 0.35800 42.21000
C  4.30700 1.61200 41.42500
C  2.90800 2.36800 41.39400
C  1.96300 1.21300 41.73300
C  2.73100 3.73100 42.14300
C  4.99600 1.36400 40.06200
C  6.31400 2.06200 39.75000
H  6.50700 2.60900 38.29900
N  -0.23700 -0.63600 42.88700
C  -0.44200 0.47500 42.17600
C  -1.82600 0.64700 41.95000
C  -2.45200 -0.47200 42.42500
C  -1.42100 -1.40100 42.94600
C  -2.47900 1.64500 40.99900
C  -3.96100 -0.75100 42.31600
O  -4.71100 0.09000 41.82300
C  -4.59700 -1.96500 42.88400
N  0.82900 -3.30400 44.01400
C  -0.53300 -3.56200 44.04900
C  -0.84000 -4.90600 44.67700
C  0.53100 -5.47900 45.06200
C  1.44900 -4.37000 44.61600
C  -1.76600 -4.96000 45.95400
C  0.89500 -6.82700 44.53400
C  1.25000 -7.94600 45.54400
N  3.47300 -2.37600 43.72800
C  3.84600 -3.58000 44.33900
C  5.27000 -3.61300 44.56500
C  5.68900 -2.42900 43.97600
C  4.61200 -1.71900 43.44500
C  6.12700 -4.71600 45.17100
C  6.82500 -1.60700 43.63000
O  8.05000 -1.75400 43.78100
C  6.33600 -0.28700 42.89700
C  6.60700 0.90400 43.87800
O  5.80200 1.58100 44.44700
O  7.96600 0.99800 43.99000
C  8.34100 2.15400 44.80000
H  0.26700 2.40500 41.45800
H  -2.45000 -3.23500 43.66000
H  3.22400 -5.27100 45.44600
H  5.02700 2.21400 41.97800
H  2.70100 2.73500 40.38900
H  1.69500 3.75100 42.48200
H  2.89700 4.48900 41.37800
H  3.46000 3.85200 42.94500
H  4.34400 1.68700 39.25000
H  5.14700 0.28400 40.06400
H  7.18300 1.48600 40.06900
H  6.49400 2.93500 40.37800
H  -1.71600 1.94300 40.27900
H  -2.94100 2.48400 41.51900
H  -3.21400 1.21600 40.31700
H  -4.09000 -2.87300 42.55700
H  -5.55500 -2.16800 42.40500
H  -4.79800 -1.85100 43.94900
H  -1.25100 -5.49800 43.86000
H  0.67700 -5.41100 46.14000
H  -1.33100 -5.79600 46.50100
H  -2.78400 -5.07400 45.58000
H  -1.72600 -4.03300 46.52700
H  1.64000 -6.56500 43.78200
H  0.02300 -7.28000 44.06200
H  2.32800 -8.11000 45.56200
H  0.82600 -8.92800 45.33400
H  0.94400 -7.70400 46.56200
H  6.89700 -4.24000 45.77800
H  6.49200 -5.20100 44.26500
H  5.65300 -5.45700 45.81400
H  6.94800 -0.17600 42.00200
H  7.59700 2.86800 45.15400
H  9.03500 2.82200 44.29100
H  8.69600 1.68200 45.71600

