158

Mg 6.65300 54.22200 41.36000
C  6.04100 50.75800 41.39700
C  9.63900 53.52200 39.62800
C  6.89200 57.46800 40.44400
C  3.47300 54.73800 42.64300
N  7.75900 52.34900 40.56600
C  7.27600 51.04600 40.72400
C  8.22100 50.05700 40.09600
C  9.55200 50.89300 40.00100
C  8.92200 52.32800 39.95900
C  10.58000 50.79500 41.13800
C  7.64200 49.40300 38.76100
C  6.82600 50.27400 37.80900
H  6.09400 49.58400 36.70600
N  8.08400 55.27700 40.38300
C  9.20000 54.83500 39.77200
C  10.00600 55.91000 39.28500
C  9.37900 57.11500 39.68900
C  8.05200 56.69600 40.17400
C  11.29700 55.76500 38.59500
C  10.05800 58.48900 39.56600
O  11.24500 58.60000 39.18500
C  9.40200 59.70100 40.11600
N  5.26900 55.87800 41.32400
C  5.70500 57.14500 41.07800
C  4.67800 58.16400 41.49400
C  3.55800 57.32100 42.17000
C  4.17000 55.87300 42.16300
C  5.26200 59.30900 42.47400
C  2.09500 57.28400 41.44300
C  1.05900 58.20700 42.22300
N  5.09400 53.01400 41.94500
C  3.92800 53.45100 42.57800
C  3.27900 52.24200 42.91500
C  4.01100 51.13800 42.51500
C  5.09900 51.69400 41.86800
C  1.95400 52.14400 43.62700
C  4.12500 49.70200 42.49800
O  3.42300 48.85200 42.97100
C  5.41700 49.39800 41.70500
C  5.04800 48.53800 40.56500
O  4.57300 48.89900 39.48300
O  5.38000 47.23300 40.81800
C  5.13200 46.27100 39.74400
H  10.56800 53.36800 39.07500
H  7.05800 58.51500 40.18500
H  2.52100 54.87400 43.16000
H  8.42700 49.23200 40.77800
H  9.97900 50.73700 39.01000
H  10.52200 49.74700 41.43000
H  10.28200 51.40600 41.99000
H  11.58900 51.08300 40.84500
H  7.09800 48.47000 38.90900
H  8.56900 49.10900 38.26900
H  7.38000 51.00900 37.22500
H  6.22800 50.99900 38.36100
H  11.35300 56.58100 37.87500
H  11.39200 54.82700 38.04700
H  12.15300 55.77800 39.26900
H  9.04700 59.33700 41.08000
H  8.51400 59.99800 39.55800
H  10.08300 60.55100 40.16200
H  4.26700 58.52600 40.55200
H  3.30500 57.55300 43.20500
H  5.28400 60.30700 42.03600
H  6.28700 58.99100 42.66600
H  4.76000 59.35700 43.44000
H  1.86300 56.22800 41.30600
H  2.13500 57.51000 40.37700
H  1.54100 59.17600 42.34800
H  0.80700 57.70700 43.15800
H  0.09100 58.31600 41.73200
H  1.68900 51.09300 43.51100
H  1.28000 52.87600 43.18200
H  2.03600 52.42000 44.67800
H  6.06100 48.87400 42.41200
H  4.14000 45.91300 40.02000
H  5.81100 45.43200 39.89100
H  5.16600 46.63500 38.71700
Mg 16.31100 51.96000 24.57200
C  17.88900 50.79900 27.59600
C  13.58200 52.83900 26.56200
C  14.80000 52.81400 21.86600
C  18.96800 50.48300 22.75100
N  15.81700 51.71400 26.82500
C  16.67800 51.38100 27.85600
C  16.14600 51.70200 29.30400
C  14.68400 52.11700 28.89400
C  14.65400 52.30200 27.33200
C  13.59500 51.15900 29.44900
C  16.92700 52.84200 30.06700
C  16.75500 52.92000 31.66600
H  15.85200 51.80700 32.40900
N  14.41500 52.83200 24.22300
C  13.40400 53.06800 25.11100
C  12.32800 53.59400 24.38400
C  12.62400 53.70600 23.01100
C  13.98300 53.08500 23.00500
C  11.04300 54.01700 25.17600
C  11.80100 54.21200 21.78900
O  12.29600 54.31200 20.62900
C  10.35600 54.66700 21.94200
N  16.98100 51.89500 22.60800
C  16.02000 52.17600 21.69600
C  16.48600 51.80600 20.28700
C  18.01100 51.49900 20.53400
C  18.01900 51.26800 22.02800
C  15.70600 50.66100 19.72100
C  18.83100 52.72200 20.13500
C  20.38500 52.53200 20.33500
N  18.05600 50.80500 25.04200
C  19.01900 50.29200 24.20400
C  19.96800 49.58200 25.01500
C  19.58700 49.81000 26.32200
C  18.40800 50.49400 26.32800
C  21.14800 48.89600 24.53200
C  19.95700 49.44700 27.71100
O  20.95000 48.88000 28.16600
C  18.85300 50.18700 28.58000
C  18.30500 49.15400 29.55800
O  17.56500 48.23100 29.22600
O  18.54500 49.49200 30.89700
C  18.19300 48.47700 31.90200
H  12.68500 53.05700 27.14600
H  14.16900 52.93800 20.98300
H  19.81200 49.99500 22.26000
H  16.10800 50.71700 29.77000
H  14.43200 53.06100 29.37700
H  13.11000 50.74800 28.56300
H  12.92800 51.83800 29.97900
H  13.87900 50.39800 30.17500
H  16.57600 53.75700 29.59100
H  17.98400 52.77400 29.80600
H  16.43500 53.94500 31.85400
H  17.77800 52.88000 32.04300
H  10.95200 55.10300 25.19800
H  10.98400 53.67500 26.20900
H  10.11300 53.68100 24.71800
H  10.43900 55.40300 22.74100
H  9.74800 53.80400 22.21300
H  10.01300 55.03600 20.97500
H  16.27900 52.66500 19.64900
H  18.33700 50.62900 19.96300
H  16.40300 50.15900 19.05000
H  14.98200 51.16400 19.08000
H  15.26800 50.05900 20.51800
H  18.47600 53.55800 20.73600
H  18.63900 53.04400 19.11100
H  20.69600 51.53900 20.01200
H  20.64300 52.51700 21.39400
H  20.98900 53.27900 19.81900
H  21.83500 49.39700 23.85000
H  20.87600 47.87300 24.27400
H  21.79200 48.57800 25.35200
H  19.40100 50.98500 29.08200
H  18.49800 47.45400 31.67900
H  17.14400 48.38200 32.18300
H  18.70100 48.72600 32.83300

