158

Mg 50.31900 46.46900 42.46800
C  47.40800 48.00300 41.17100
C  49.47500 43.63000 40.64700
C  53.50200 45.27900 42.80400
C  51.45300 49.63900 43.39000
N  48.77200 45.92200 40.84100
C  47.60900 46.66500 40.68700
C  46.57800 45.83500 39.86700
C  47.22700 44.43100 39.75800
C  48.59900 44.63900 40.43400
C  46.25100 43.30000 40.26700
C  46.38100 46.50400 38.46500
C  44.91100 46.60400 37.92900
H  44.49200 45.58700 36.92800
N  51.23800 44.58900 42.13500
C  50.70000 43.55300 41.38400
C  51.54900 42.43100 41.44700
C  52.72400 42.84400 42.10500
C  52.53600 44.28700 42.41700
C  51.12400 40.93800 41.01300
C  53.88300 41.84900 42.40800
O  53.84100 40.68000 42.00700
C  55.21300 42.25500 43.23800
N  52.27000 47.40200 42.72000
C  53.39600 46.67500 42.98400
C  54.60000 47.57900 43.45200
C  53.86300 48.93200 43.65800
C  52.43200 48.69100 43.19600
C  55.57300 47.15400 44.54200
C  54.57300 50.14500 42.94900
C  54.11600 50.64300 41.51600
N  49.56200 48.38600 42.46500
C  50.10100 49.50700 43.01500
C  49.13100 50.57300 42.93500
C  48.06400 50.01100 42.31200
C  48.41700 48.68700 41.89600
C  49.21200 52.03500 43.33000
C  46.70400 50.29000 41.83900
O  46.02800 51.27200 41.98100
C  46.25900 48.99200 41.02500
C  44.97200 48.52200 41.57200
O  44.69900 48.22600 42.74900
O  44.09300 48.34300 40.47400
C  42.86600 47.57400 40.82700
H  49.19700 42.69700 40.15300
H  54.47700 44.79400 42.88100
H  51.85500 50.51700 43.89900
H  45.69200 45.96000 40.48900
H  47.37800 44.06100 38.74500
H  45.30000 43.66900 40.65100
H  46.70800 42.65300 41.01600
H  45.99900 42.60000 39.47000
H  46.92400 45.97000 37.68500
H  46.85600 47.48400 38.44100
H  44.64100 47.65500 37.82500
H  44.30300 46.37000 38.80300
H  51.81100 40.69600 40.20200
H  50.09700 40.90300 40.65000
H  51.18200 40.30700 41.90000
H  54.97200 42.73600 44.18600
H  55.85900 42.89800 42.64000
H  55.88200 41.42800 43.47700
H  55.18000 47.68700 42.53500
H  53.89800 49.14500 44.72600
H  56.56400 47.06600 44.09700
H  55.33600 46.15400 44.90600
H  55.61100 47.96200 45.27300
H  55.64900 49.98300 43.01500
H  54.39100 50.97900 43.62700
H  54.89000 51.23400 41.02600
H  53.25700 51.31000 41.58900
H  53.86000 49.85000 40.81400
H  49.34700 52.56400 42.38700
H  50.11100 52.23000 43.91400
H  48.30400 52.17300 43.91800
H  46.01700 49.21300 39.98600
H  42.05700 47.60000 40.09700
H  42.34000 47.97600 41.69300
H  43.10600 46.53600 41.05900
Mg 30.16500 58.47100 41.09600
C  27.31000 56.75800 40.02500
C  31.98700 56.02500 39.46100
C  32.98900 60.46300 41.15500
C  28.18800 61.14900 42.32800
N  29.67800 56.46800 40.08600
C  28.47100 56.03500 39.67500
C  28.54500 54.75800 38.84500
C  30.05500 54.38500 38.93900
C  30.63900 55.71600 39.53400
C  30.45500 53.07500 39.64600
C  28.01800 54.95500 37.39400
C  27.46000 53.76400 36.61400
H  27.80300 53.71900 35.10900
N  32.14300 58.31600 40.35700
C  32.68300 57.17900 39.73400
C  34.03900 57.38900 39.43800
C  34.35200 58.64900 39.97500
C  33.10700 59.23800 40.47900
C  34.94300 56.29100 38.84700
C  35.69000 59.29800 39.67900
O  36.71300 58.64300 39.44300
C  35.96400 60.78400 39.77700
N  30.49200 60.52900 41.63600
C  31.79600 61.08000 41.72200
C  31.66100 62.52300 41.97300
C  30.15700 62.72700 42.44400
C  29.51700 61.41000 42.12500
C  32.69600 63.07900 43.03600
C  29.39200 64.02500 41.80200
C  28.56800 64.80700 42.85500
N  28.20400 58.89800 41.27200
C  27.57600 59.98100 41.85700
C  26.15100 59.73900 41.80800
C  26.00500 58.49000 41.11000
C  27.27500 58.02000 40.83100
C  25.03400 60.64500 42.33700
C  25.05200 57.53100 40.58700
O  23.86200 57.58000 40.48300
C  25.89600 56.33500 39.90800
C  25.52100 55.15500 40.69300
O  26.03200 54.77000 41.72900
O  24.46300 54.49100 40.14900
C  23.88800 53.29400 40.80900
H  32.57500 55.16700 39.12800
H  33.82700 61.14300 41.32100
H  27.53500 61.86500 42.83300
H  27.97600 53.90400 39.21100
H  30.36100 54.25100 37.90100
H  31.21700 53.19600 40.41700
H  30.92200 52.39100 38.93700
H  29.56700 52.53900 39.98300
H  28.81000 55.45600 36.83700
H  27.17100 55.63700 37.47500
H  26.37400 53.69200 36.67200
H  27.90600 52.87900 37.06700
H  34.50900 55.86600 37.94300
H  34.99700 55.42000 39.50100
H  35.92700 56.65000 38.54700
H  35.14400 61.38000 39.37600
H  36.79800 60.94200 39.09200
H  36.29600 61.00800 40.79100
H  31.84800 62.91600 40.97300
H  30.15600 62.79100 43.53200
H  33.50500 63.50900 42.44600
H  33.06000 62.24300 43.63300
H  32.21300 63.94100 43.49800
H  28.67300 63.67600 41.06000
H  30.07900 64.78600 41.43100
H  27.54200 64.82800 42.48700
H  28.94900 65.82800 42.87900
H  28.64700 64.42400 43.87300
H  25.27000 61.68800 42.12500
H  25.29800 60.76700 43.38700
H  24.02500 60.24300 42.25100
H  25.57200 56.22400 38.87300
H  24.70500 52.79800 41.33300
H  23.57100 52.61200 40.02100
H  23.09800 53.59400 41.49900

