158

Mg 0.28200 -0.80900 43.92000
C  3.51500 0.32800 43.02900
C  -1.05800 1.87500 42.10700
C  -2.77700 -2.25500 44.16300
C  1.79100 -3.65200 45.32300
N  1.18200 0.85400 42.67500
C  2.50400 1.16500 42.51800
C  2.72900 2.42100 41.69900
C  1.26100 3.03300 41.92000
C  0.37500 1.86900 42.34800
C  1.22800 4.14800 42.97900
C  3.19300 2.10500 40.23500
C  4.47200 2.93700 39.80900
H  4.21000 3.80600 38.62400
N  -1.63100 -0.22600 43.35800
C  -1.93400 0.89000 42.56500
C  -3.37200 0.98500 42.36400
C  -3.89700 -0.15500 42.98200
C  -2.75200 -0.97200 43.55200
C  -4.10400 2.05800 41.57900
C  -5.39100 -0.60000 43.01400
O  -6.27100 0.09000 42.51600
C  -5.91800 -1.96000 43.44600
N  -0.38300 -2.71800 44.46600
C  -1.72600 -3.00900 44.67200
C  -1.93800 -4.28200 45.36300
C  -0.52300 -4.81000 45.78700
C  0.37500 -3.66700 45.19100
C  -2.97400 -4.35600 46.47900
C  -0.10300 -6.23800 45.31300
C  0.04100 -7.23300 46.38400
N  2.27300 -1.50900 44.15800
C  2.71900 -2.70100 44.79400
C  4.15400 -2.76500 44.66100
C  4.47200 -1.53700 44.07100
C  3.28700 -0.85700 43.74100
C  5.18700 -3.75600 45.04900
C  5.58000 -0.80400 43.61300
O  6.79100 -1.10000 43.55600
C  4.96800 0.49000 42.87900
C  5.53300 1.74500 43.54700
O  5.14100 2.16300 44.62400
O  6.70000 2.18700 42.89900
C  7.65500 2.96600 43.64100
H  -1.45900 2.80000 41.68700
H  -3.67600 -2.84500 44.34900
H  2.24300 -4.59900 45.62500
H  3.45000 3.06300 42.20500
H  0.80900 3.37700 40.99000
H  0.26400 4.10200 43.48500
H  1.43100 5.13400 42.56200
H  2.04800 3.90800 43.65600
H  2.32600 2.34600 39.62000
H  3.27000 1.01700 40.24400
H  5.23100 2.21100 39.51700
H  4.89000 3.51900 40.63000
H  -3.56800 2.97300 41.32900
H  -4.88700 2.41300 42.24900
H  -4.54600 1.62100 40.68400
H  -6.98500 -2.15100 43.33800
H  -5.87500 -1.98600 44.53500
H  -5.38400 -2.77400 42.95400
H  -2.28300 -5.04400 44.66400
H  -0.40700 -4.77900 46.87100
H  -3.28100 -3.35900 46.79200
H  -2.46600 -4.83900 47.31400
H  -3.90300 -4.87000 46.23100
H  0.81500 -6.15000 44.73100
H  -0.72300 -6.58700 44.48700
H  0.03300 -6.67900 47.32200
H  0.99500 -7.75100 46.29100
H  -0.85700 -7.84600 46.30200
H  5.34000 -4.01000 46.09800
H  6.18000 -3.44700 44.72200
H  4.93200 -4.69100 44.55100
H  5.27200 0.54800 41.83400
H  7.62400 2.54500 44.64600
H  7.33100 4.00100 43.53200
H  8.60400 2.75100 43.15100
Mg -12.63100 15.65600 42.75400
C  -9.26900 14.75500 42.13400
C  -12.14800 18.40400 40.64700
C  -15.96600 16.09700 42.57100
C  -13.15400 12.40100 43.97200
N  -10.90600 16.40800 41.24700
C  -9.58400 15.96200 41.41600
C  -8.63900 16.85000 40.62800
C  -9.62200 18.00300 40.14400
C  -11.01000 17.58800 40.63800
C  -9.24300 19.52400 40.49700
C  -7.80400 16.22000 39.49400
C  -6.32200 16.61700 39.48800
H  -5.91300 17.32200 38.21700
N  -13.84100 17.12000 41.84200
C  -13.42200 18.19600 41.14800
C  -14.60900 19.00900 40.81400
C  -15.74200 18.36900 41.41300
C  -15.19400 17.12100 41.94400
C  -14.49900 20.36800 40.29200
C  -17.16300 18.93200 41.58300
O  -17.40900 20.05000 41.16000
C  -18.26900 18.18800 42.23200
N  -14.27200 14.43000 43.25500
C  -15.51800 14.89000 43.20400
C  -16.53300 13.98800 43.87700
C  -15.67200 12.72600 44.05600
C  -14.22500 13.21500 43.77200
C  -17.16700 14.66700 45.16000
C  -16.15200 11.50300 43.09100
C  -16.88900 10.42900 43.84700
N  -11.52700 13.94000 43.08000
C  -11.84300 12.70700 43.56100
C  -10.64400 11.87800 43.65700
C  -9.61800 12.65500 43.20100
C  -10.19200 13.93200 42.79400
C  -10.53400 10.49500 44.27100
C  -8.15800 12.63400 42.97300
O  -7.35400 11.76500 43.19900
C  -7.90200 13.99400 42.24500
C  -6.88200 14.79600 42.95700
O  -7.04100 15.44900 43.96400
O  -5.63400 14.68800 42.26100
C  -4.60600 15.66600 42.84600
H  -11.91400 19.34200 40.14000
H  -17.04500 16.14600 42.73200
H  -13.45400 11.44900 44.41600
H  -7.94700 17.29200 41.34500
H  -9.72200 17.92200 39.06200
H  -8.16000 19.51100 40.61600
H  -9.73900 19.81800 41.42200
H  -9.38700 20.33200 39.77900
H  -8.25300 16.36900 38.51200
H  -7.92500 15.14800 39.65400
H  -5.80100 15.69000 39.72800
H  -6.10700 17.32700 40.28700
H  -15.29400 21.04300 40.61000
H  -14.52800 20.36600 39.20300
H  -13.62900 20.80100 40.78600
H  -18.50000 17.21400 41.80000
H  -19.17500 18.79400 42.23100
H  -17.99800 17.97100 43.26500
H  -17.32300 13.71300 43.17800
H  -15.64800 12.26000 45.04100
H  -16.65000 15.62300 45.23800
H  -16.88000 14.13800 46.06900
H  -18.25500 14.63900 45.10500
H  -15.25500 11.04700 42.67400
H  -16.75400 11.87600 42.26200
H  -17.04900 10.62200 44.90800
H  -16.31600 9.50200 43.81100
H  -17.83800 10.33500 43.32000
H  -11.47800 9.98300 44.08100
H  -10.40100 10.61400 45.34600
H  -9.67600 9.97800 43.84000
H  -7.45700 13.84400 41.26200
H  -3.64400 15.15800 42.77000
H  -4.75700 15.82700 43.91300
H  -4.61800 16.59600 42.27600

