158

Mg 8.83900 3.72500 27.84500
C  10.00500 1.99600 30.73100
C  6.89900 5.56000 29.83900
C  7.63900 5.15500 25.04300
C  10.56000 1.39700 25.83400
N  8.53800 3.70600 30.08400
C  9.16000 3.08200 30.98500
C  8.66100 3.46200 32.38400
C  7.69000 4.63500 32.14900
C  7.70600 4.62400 30.60300
C  6.25100 4.57700 32.90600
C  9.81000 3.87400 33.37200
C  9.64200 5.10200 34.32400
H  10.29900 5.26900 35.68300
N  7.51400 5.14500 27.46700
C  6.85600 5.85300 28.44200
C  6.09100 6.92900 27.81200
C  6.33000 6.80600 26.42700
C  7.18000 5.65100 26.27600
C  5.18000 7.84400 28.61200
C  5.92400 7.72100 25.36700
O  6.10500 7.49000 24.17000
C  5.17200 8.96000 25.75400
N  9.10200 3.34100 25.78300
C  8.43900 4.07300 24.79600
C  8.83700 3.65300 23.38800
C  9.77900 2.45900 23.63800
C  9.87500 2.39300 25.17100
C  7.62700 3.35700 22.47600
C  11.14300 2.47900 22.89200
C  11.22700 1.28300 21.82300
N  10.02200 2.00900 28.13800
C  10.63300 1.18500 27.23900
C  11.27900 0.13600 27.99100
C  11.05800 0.37800 29.30700
C  10.29300 1.51200 29.40000
C  12.17400 -0.91800 27.30600
C  11.47500 -0.03300 30.70700
O  12.14600 -0.93000 31.12000
C  10.72300 1.05800 31.70100
C  9.87400 0.29900 32.74100
O  8.83300 -0.23500 32.51900
O  10.53100 0.37200 33.98000
C  9.97700 -0.18800 35.26100
H  6.33100 6.24400 30.47200
H  7.42100 5.67300 24.10700
H  11.16300 0.82200 25.12800
H  8.08000 2.61800 32.75800
H  8.07800 5.64900 32.24100
H  5.49600 4.21600 32.20800
H  6.04000 5.59200 33.24100
H  6.26000 3.91200 33.76900
H  10.72700 4.11000 32.83300
H  10.07200 3.01600 33.99100
H  8.61300 5.43900 34.45400
H  10.21500 5.88000 33.82000
H  4.26200 8.14300 28.10500
H  5.71000 8.72900 28.96400
H  4.73800 7.34500 29.47400
H  5.80500 9.57200 26.39600
H  4.16500 8.69600 26.08000
H  5.08500 9.45700 24.78800
H  9.35100 4.39800 22.78100
H  9.26600 1.52500 23.41000
H  7.70300 2.31700 22.15800
H  7.43500 4.01800 21.63100
H  6.80100 3.44900 23.18100
H  11.99500 2.37500 23.56400
H  11.26500 3.38900 22.30400
H  10.29800 0.74100 21.64400
H  12.05900 0.60100 22.00000
H  11.36100 1.70400 20.82600
H  13.19000 -0.52500 27.30600
H  11.76100 -1.22900 26.34600
H  12.05400 -1.79300 27.94400
H  11.57800 1.60000 32.10500
H  9.74500 0.55900 36.02000
H  10.72400 -0.83100 35.72600
H  9.08700 -0.75500 34.98800
Mg 6.83000 54.26000 41.32600
C  6.54500 50.82900 40.74700
C  10.07000 54.01600 39.78600
C  6.95100 57.55700 41.19700
C  3.37200 54.38300 42.28400
N  8.15900 52.61000 40.42300
C  7.80100 51.30500 40.30600
C  8.89900 50.44300 39.57000
C  10.07100 51.42700 39.62000
C  9.42900 52.80600 39.93900
C  11.16900 51.17400 40.59000
C  8.65700 49.94400 38.08400
C  8.07000 51.01900 37.06600
H  7.49000 50.55500 35.72500
N  8.35400 55.60300 40.62000
C  9.59000 55.30000 40.02200
C  10.26300 56.56400 39.77500
C  9.39600 57.63700 40.21500
C  8.19200 56.96200 40.77500
C  11.49600 56.58000 38.94200
C  9.70700 59.11700 40.32800
O  10.69700 59.60000 39.69500
C  8.91400 60.02100 41.15100
N  5.36500 55.79200 41.72700
C  5.64600 57.07000 41.58600
C  4.49800 58.02200 41.86100
C  3.35100 56.95100 42.16400
C  4.05100 55.60600 42.06600
C  4.77600 58.97400 43.07900
C  2.08100 57.01900 41.29200
C  0.65000 57.12100 41.75400
N  5.23300 52.87800 41.63300
C  3.89100 53.09300 41.99800
C  3.34900 51.77600 42.13900
C  4.36700 50.83300 41.60700
C  5.44400 51.58800 41.27800
C  1.97600 51.39400 42.70500
C  4.47400 49.42000 41.33900
O  3.74800 48.44000 41.48500
C  6.01000 49.39500 40.76700
C  5.92200 48.88800 39.37500
O  5.29300 49.36100 38.43900
O  6.51100 47.64500 39.37200
C  5.93300 46.64400 38.49400
H  11.09200 53.82200 39.45200
H  6.89700 58.64500 41.13200
H  2.31500 54.25000 42.52400
H  9.11200 49.53000 40.12700
H  10.64300 51.57900 38.70400
H  12.06100 51.64600 40.17700
H  11.36300 50.13700 40.86200
H  10.95600 51.71800 41.51000
H  8.04400 49.04700 38.00300
H  9.57200 49.55600 37.63900
H  8.82900 51.77700 36.87500
H  7.18700 51.49400 37.49500
H  11.93700 55.61100 38.70800
H  12.18600 57.08100 39.62100
H  11.41300 57.28200 38.11300
H  8.19400 60.49300 40.48200
H  9.58300 60.79000 41.53900
H  8.38300 59.59100 41.99900
H  4.36100 58.64300 40.97600
H  3.01000 57.09100 43.18900
H  3.89900 58.97800 43.72600
H  4.77800 60.03300 42.82000
H  5.70700 58.76500 43.60500
H  2.00500 56.10800 40.69800
H  2.22300 57.88500 40.64500
H  0.06300 57.47600 40.90700
H  0.47200 57.77700 42.60600
H  0.28100 56.16000 42.11300
H  1.32900 52.26800 42.77900
H  2.17300 51.05400 43.72100
H  1.64900 50.54100 42.10900
H  6.66400 48.71100 41.30800
H  4.84500 46.71400 38.50900
H  6.18100 45.72000 39.01500
H  6.37300 46.66000 37.49700

