158

Mg 45.62700 3.34000 47.30700
C  43.33800 5.98500 46.58400
C  43.10600 1.16000 46.85100
C  48.02100 1.01800 47.19300
C  48.20100 5.85200 47.02000
N  43.54200 3.60700 46.60000
C  42.80600 4.72200 46.61100
C  41.30700 4.39400 46.36800
C  41.23400 2.83200 46.56800
C  42.75000 2.50000 46.66800
C  40.36000 2.40000 47.74900
C  40.84900 4.88900 44.99100
C  39.64200 5.82100 44.91200
H  39.66200 7.02800 43.93600
N  45.59200 1.28700 47.06100
C  44.43900 0.55700 47.08300
C  44.77900 -0.79300 47.41500
C  46.23600 -0.88100 47.42800
C  46.69400 0.48800 47.22000
C  43.85700 -1.90700 47.57000
C  47.12600 -2.19400 47.68300
O  46.64000 -3.30900 47.98000
C  48.62800 -2.15300 47.59500
N  47.82600 3.46600 46.90300
C  48.53600 2.30700 47.09100
C  49.99200 2.60900 47.20600
C  50.08800 4.12700 47.24000
C  48.63200 4.52700 46.95100
C  50.84400 1.99400 48.38900
C  51.16700 4.63800 46.28500
C  52.54000 5.04900 46.77900
N  45.80500 5.47300 46.75800
C  46.87000 6.27900 46.87600
C  46.50100 7.66200 46.85400
C  45.05800 7.59700 46.77900
C  44.74800 6.22300 46.65800
C  47.37100 8.90800 46.85100
C  43.84700 8.38600 46.71800
O  43.67600 9.59500 46.79600
C  42.72400 7.32500 46.56100
C  41.88400 7.56200 47.75600
O  41.94100 6.89500 48.78700
O  40.80000 8.36500 47.43000
C  39.70400 8.39000 48.34300
H  42.29400 0.43800 46.95500
H  48.78400 0.24600 47.31200
H  48.97100 6.62400 46.95600
H  40.55600 4.80100 47.04500
H  40.95500 2.32300 45.64600
H  39.43300 2.97300 47.78200
H  40.80100 2.59100 48.72700
H  40.10500 1.34300 47.67400
H  40.44200 4.04100 44.43900
H  41.61500 5.27400 44.31800
H  39.32400 6.22800 45.87200
H  38.77500 5.22600 44.62500
H  43.56000 -2.06300 48.60800
H  44.24800 -2.82600 47.13400
H  42.94400 -1.74500 46.99700
H  49.09700 -3.13600 47.54900
H  49.17300 -1.55700 48.32700
H  48.99800 -1.69600 46.67700
H  50.48300 2.16700 46.33900
H  50.42600 4.44000 48.22800
H  50.10200 1.69400 49.13000
H  51.48300 2.75600 48.83700
H  51.36400 1.06300 48.16500
H  50.72900 5.44700 45.70100
H  51.26100 3.90300 45.48500
H  52.77100 6.10900 46.66500
H  53.20700 4.44500 46.16400
H  52.67000 4.71700 47.80900
H  48.42100 8.62000 46.78700
H  47.27800 9.58800 47.69800
H  47.03700 9.43200 45.95600
H  42.15100 7.46800 45.64400
H  39.29500 9.33200 48.70900
H  39.97600 7.92600 49.29100
H  38.89800 7.83500 47.86300
Mg 55.51100 22.59500 44.78200
C  53.42500 24.96200 43.52900
C  53.12900 20.23400 43.89200
C  57.84500 20.19800 45.16300
C  57.89200 24.99300 45.35200
N  53.57500 22.61600 43.69000
C  52.90100 23.71500 43.18800
C  51.54300 23.30000 42.71000
C  51.34800 21.83700 43.33600
C  52.72700 21.54500 43.72800
C  50.32200 21.71600 44.49900
C  51.33700 23.66800 41.22200
C  50.05600 24.40300 40.91100
H  49.25100 23.86900 39.75200
N  55.46400 20.57800 44.39500
C  54.42700 19.75500 44.03500
C  54.81100 18.36900 44.06000
C  56.20000 18.34800 44.33500
C  56.60200 19.72600 44.63300
C  53.87600 17.25600 43.87500
C  57.03300 17.07900 44.52000
O  56.44300 15.96300 44.46300
C  58.47400 17.05900 45.01700
N  57.54300 22.51000 45.32800
C  58.32100 21.45400 45.48100
C  59.83700 21.71900 45.85100
C  59.80400 23.35000 45.74000
C  58.30300 23.65100 45.47500
C  60.25400 21.23600 47.28700
C  60.69800 23.94700 44.53100
C  61.44800 25.25100 44.79700
N  55.63700 24.55700 44.65800
C  56.60700 25.44700 45.00800
C  56.11700 26.80700 44.83900
C  54.84300 26.70300 44.32800
C  54.58600 25.29800 44.21500
C  56.85100 28.09700 45.19400
C  53.65200 27.38000 43.86600
O  53.38100 28.57500 43.89100
C  52.82800 26.31200 43.15000
C  52.92000 26.54700 41.69400
O  53.87500 26.23100 40.95500
O  51.86300 27.30400 41.35200
C  51.93100 28.12000 40.14900
H  52.38500 19.47100 43.65300
H  58.64900 19.51700 45.44600
H  58.54700 25.85500 45.49200
H  50.89300 23.89900 43.34800
H  51.05500 21.08600 42.60100
H  50.85800 21.19500 45.29300
H  49.49100 21.09800 44.15700
H  49.93400 22.71600 44.68800
H  51.39000 22.73600 40.66000
H  52.14100 24.31900 40.88000
H  50.26500 25.40300 40.53000
H  49.42000 24.43400 41.79500
H  54.02600 16.94000 42.84300
H  52.82900 17.48500 44.07400
H  54.11100 16.42700 44.54300
H  58.53300 17.40900 46.04800
H  59.07700 17.66400 44.33900
H  58.94100 16.07500 45.05100
H  60.37600 21.27300 45.01500
H  60.05700 23.86300 46.66700
H  59.39600 20.75200 47.75300
H  60.56300 22.13400 47.82200
H  61.02000 20.47200 47.15100
H  60.07600 24.10700 43.65000
H  61.43600 23.17800 44.30100
H  61.33200 25.79900 43.86100
H  62.52800 25.20300 44.93700
H  60.97800 25.89800 45.53800
H  56.36500 28.64700 46.00000
H  56.72000 28.76400 44.34100
H  57.93200 27.98300 45.27500
H  51.77200 26.37200 43.41300
H  51.28500 28.99800 40.15100
H  51.57600 27.50500 39.32300
H  52.96800 28.39000 39.95100

