158

Mg 53.28000 23.38400 45.03300
C  50.91400 25.75500 44.26400
C  51.25600 21.00100 43.69800
C  55.85900 21.22400 45.00500
C  55.42400 25.99200 45.89900
N  51.34500 23.39600 43.92700
C  50.46500 24.48000 43.78900
C  49.05000 24.08300 43.20000
C  49.12400 22.52100 43.51100
C  50.69900 22.25500 43.67800
C  48.26500 21.90200 44.71200
C  48.82700 24.53000 41.68100
C  48.83700 23.49000 40.52800
H  48.77800 23.94100 39.12800
N  53.51400 21.36100 44.47100
C  52.54300 20.57400 43.93400
C  53.09900 19.19400 43.87700
C  54.36100 19.22800 44.39800
C  54.65100 20.65100 44.65100
C  52.26800 18.10000 43.50700
C  55.21600 17.93700 44.61200
O  54.79500 16.78700 44.38600
C  56.73300 18.09100 45.08800
N  55.33900 23.55000 45.43100
C  56.20700 22.51300 45.39700
C  57.69800 23.01000 45.63600
C  57.49000 24.46000 45.97000
C  55.99700 24.68000 45.71300
C  58.48500 22.14000 46.70500
C  58.41200 25.48700 45.35000
C  59.75000 25.80700 46.08900
N  53.23300 25.43100 45.19800
C  54.08200 26.33700 45.68900
C  53.42100 27.63800 45.84300
C  52.19800 27.47900 45.22300
C  52.11400 26.12000 44.87900
C  53.90500 28.90500 46.42000
C  50.93500 28.14600 44.97400
O  50.54500 29.29300 45.28400
C  50.02100 27.06700 44.23400
C  49.60400 27.54600 42.89600
O  50.43900 27.96200 42.08500
O  48.27000 27.57500 42.61300
C  47.91300 28.11100 41.32500
H  50.51500 20.20400 43.78800
H  56.71200 20.54600 44.92900
H  56.06700 26.83800 46.15100
H  48.25400 24.55200 43.77800
H  48.92200 21.94900 42.60600
H  48.82600 21.33000 45.45100
H  47.50500 21.20900 44.35100
H  47.75900 22.71000 45.24200
H  49.45800 25.37000 41.39100
H  47.84700 25.00700 41.65600
H  48.02300 22.76900 40.59700
H  49.70000 22.82900 40.61000
H  51.55200 17.82200 44.28100
H  52.70900 17.20500 43.06800
H  51.76200 18.60400 42.68400
H  57.39700 18.39000 44.27700
H  57.15100 17.16300 45.47900
H  56.76000 18.77200 45.93800
H  58.22400 22.92500 44.68500
H  57.58700 24.43400 47.05600
H  58.98500 22.71900 47.48100
H  59.29000 21.67300 46.13900
H  57.79300 21.38300 47.07700
H  57.94800 26.39400 44.96400
H  58.87900 24.91700 44.54700
H  60.59300 25.94200 45.41200
H  60.05200 24.94500 46.68400
H  59.53900 26.71100 46.66100
H  53.25300 29.71200 46.08700
H  54.92300 29.09600 46.07900
H  53.97000 28.92300 47.50800
H  49.06600 27.04300 44.75800
H  48.09300 27.47800 40.45600
H  48.28100 29.13300 41.24100
H  46.82400 28.08200 41.29300
Mg -10.28100 40.36500 42.35900
C  -9.03700 37.05200 41.43500
C  -7.52900 41.64900 40.87300
C  -11.80600 43.19700 42.43000
C  -13.39500 38.62100 42.93400
N  -8.58200 39.33100 41.15300
C  -8.20500 38.04300 40.96700
C  -6.91000 37.83900 40.26900
C  -6.32700 39.39400 40.29100
C  -7.56900 40.23800 40.76300
C  -5.12600 39.68200 41.26400
C  -7.09100 37.23100 38.82500
C  -6.30600 35.98800 38.44100
H  -5.29500 36.29500 37.26700
N  -9.70500 42.24300 41.82700
C  -8.51700 42.55500 41.25400
C  -8.39600 43.95900 41.22000
C  -9.64600 44.51000 41.61700
C  -10.46400 43.33000 41.94200
C  -7.10500 44.66600 40.80100
C  -10.02200 45.95700 41.75100
O  -9.28200 46.86000 41.30500
C  -11.27200 46.36900 42.47200
N  -12.29400 40.85300 42.58700
C  -12.66400 42.12900 42.68600
C  -14.08000 42.29200 43.01300
C  -14.70700 40.78100 43.05500
C  -13.40000 40.01200 42.76100
C  -14.56700 43.13500 44.29100
C  -15.76100 40.55100 41.98400
C  -16.97000 39.64600 42.43200
N  -11.08100 38.32500 42.45600
C  -12.31000 37.82700 42.79900
C  -12.22600 36.38600 42.90700
C  -10.97900 36.03000 42.38000
C  -10.31500 37.28600 42.11200
C  -13.40300 35.44600 43.29800
C  -10.10800 34.92600 41.96100
O  -10.24600 33.73800 41.96500
C  -8.81800 35.56000 41.37100
C  -7.62000 35.11200 42.18500
O  -7.21300 35.62600 43.19400
O  -7.15900 33.96400 41.62200
C  -5.94200 33.41800 42.18700
H  -6.57700 42.06300 40.53400
H  -12.39800 44.08300 42.67000
H  -14.37300 38.23600 43.23100
H  -6.14000 37.32000 40.83900
H  -5.99400 39.77800 39.32600
H  -4.88400 38.78200 41.83000
H  -5.22400 40.57600 41.88100
H  -4.29500 39.92700 40.60300
H  -6.93500 38.00900 38.07700
H  -8.13100 36.94100 38.67600
H  -6.99200 35.17500 38.20700
H  -5.87400 35.66500 39.38800
H  -7.03600 44.40100 39.74600
H  -6.26100 44.29800 41.38600
H  -7.09600 45.75000 40.91600
H  -11.41300 45.84100 43.41600
H  -11.97000 46.04500 41.70100
H  -11.30900 47.45400 42.37000
H  -14.49600 42.81900 42.15500
H  -15.08900 40.50000 44.03600
H  -14.74300 42.42100 45.09400
H  -15.46600 43.73600 44.15500
H  -13.81400 43.80800 44.70300
H  -15.35700 40.03400 41.11400
H  -16.24700 41.49400 41.73200
H  -17.90200 40.21000 42.39900
H  -16.80700 39.22400 43.42300
H  -17.04200 38.77800 41.77600
H  -14.29600 35.87000 42.83800
H  -13.46900 35.55600 44.38100
H  -13.20300 34.40300 43.05300
H  -8.76700 35.21600 40.33800
H  -5.93900 32.37400 41.87500
H  -5.81000 33.44400 43.26900
H  -5.03600 33.89500 41.81400

