158

Mg 42.67600 42.29100 25.88900
C  41.54200 44.46800 28.45200
C  43.87100 40.15500 28.18300
C  44.15300 40.69200 23.32300
C  41.66800 44.81400 23.54900
N  42.91900 42.44500 28.16100
C  42.21400 43.29800 28.99900
C  42.30900 42.83700 30.46300
C  43.15800 41.52800 30.33200
C  43.30000 41.34300 28.78900
C  44.49400 41.58700 31.09200
C  41.05800 42.67600 31.21600
C  41.28700 42.06600 32.62100
H  40.92500 43.00600 33.88200
N  43.71500 40.55600 25.73000
C  44.11700 39.77700 26.77200
C  44.62600 38.58300 26.32900
C  44.97900 38.80000 24.92900
C  44.33100 40.08300 24.59100
C  45.04100 37.45000 27.21500
C  45.66400 37.87200 23.87400
O  46.11800 38.32700 22.81400
C  46.00500 36.38400 24.28400
N  42.97700 42.75800 23.78900
C  43.56600 41.87100 22.96700
C  43.47300 42.28700 21.50600
C  42.25000 43.32300 21.60900
C  42.33300 43.69900 23.04700
C  44.73300 42.91300 20.88800
C  40.85100 42.85400 21.07100
C  40.13800 41.82100 21.99700
N  41.93000 44.25900 25.95000
C  41.45400 45.10800 24.95100
C  40.85900 46.25500 25.52000
C  40.80600 46.01300 26.87500
C  41.48300 44.78600 27.09500
C  40.39300 47.44800 24.68900
C  40.40000 46.53900 28.18100
O  39.86800 47.57900 28.59300
C  40.73800 45.44700 29.22600
C  41.61400 46.11700 30.33600
O  42.77700 46.24100 30.28500
O  40.88600 46.40000 31.39600
C  41.58500 46.83200 32.59500
H  44.19700 39.37300 28.87200
H  44.56100 40.24200 22.41600
H  41.16700 45.49600 22.85800
H  43.03900 43.52600 30.88800
H  42.54300 40.72200 30.73300
H  44.62500 42.49800 31.67600
H  45.35000 41.58900 30.41700
H  44.63300 40.77100 31.80100
H  40.35100 42.17600 30.55400
H  40.89900 43.73400 31.42300
H  42.26900 41.62600 32.79500
H  40.60700 41.21500 32.60400
H  46.11900 37.31800 27.11600
H  44.61000 36.57400 26.73100
H  44.60800 37.52700 28.21200
H  46.40500 35.73900 23.50100
H  45.11400 35.91400 24.70000
H  46.62800 36.50300 25.17000
H  43.07300 41.49700 20.87000
H  42.45600 44.24900 21.07300
H  44.41200 43.80300 20.34600
H  45.30300 42.27500 20.21300
H  45.35400 43.08400 21.76800
H  41.08400 42.51600 20.06100
H  40.26000 43.77000 21.06500
H  39.41100 42.41600 22.55000
H  40.83800 41.30300 22.65200
H  39.68500 40.97500 21.47900
H  39.86300 48.12900 25.35500
H  39.61800 47.18300 23.97000
H  41.21500 47.83700 24.08900
H  39.74500 45.15100 29.56400
H  41.49200 46.02200 33.31800
H  41.01400 47.70800 32.90100
H  42.62000 47.12300 32.41600
Mg -11.97300 16.58400 41.20900
C  -8.93100 14.57400 40.84400
C  -10.34900 19.11800 39.62100
C  -14.89500 18.01500 40.77200
C  -13.51300 13.68000 42.43200
N  -9.85800 16.79000 40.41900
C  -8.78200 15.95700 40.36900
C  -7.52400 16.59500 39.75400
C  -7.95600 18.08000 39.52000
C  -9.53500 18.00800 39.81300
C  -7.06900 19.22000 40.14200
C  -7.03300 15.92300 38.47400
C  -5.55100 15.46600 38.41900
H  -4.90200 16.02400 37.15300
N  -12.51900 18.41400 40.33500
C  -11.73300 19.29600 39.78000
C  -12.47000 20.48100 39.36200
C  -13.85700 20.23000 39.82700
C  -13.83900 18.86700 40.33400
C  -11.80700 21.67700 38.70400
C  -14.99600 21.22800 39.76400
O  -14.96000 22.33100 39.30900
C  -16.34200 20.83100 40.45800
N  -13.87400 15.92800 41.57700
C  -14.94800 16.72500 41.33000
C  -16.22800 16.13200 41.76200
C  -15.76800 14.83300 42.37900
C  -14.30100 14.77900 42.14700
C  -17.04500 16.99100 42.78600
C  -16.46000 13.49800 41.78200
C  -17.36400 12.75800 42.81900
N  -11.36100 14.57200 41.61600
C  -12.10600 13.49000 42.14000
C  -11.33600 12.38300 42.32100
C  -10.04100 12.78100 41.88100
C  -10.11100 14.10700 41.41700
C  -11.70400 11.01100 42.88100
C  -8.62000 12.27700 41.71900
O  -7.99900 11.27500 41.94000
C  -7.83900 13.50500 41.00800
C  -6.88500 13.94800 42.00100
O  -7.20500 14.48800 43.07300
O  -5.58800 13.60700 41.67900
C  -4.51200 14.34500 42.38900
H  -9.74300 19.90000 39.15800
H  -15.89600 18.44700 40.83400
H  -13.94500 12.74600 42.79900
H  -6.73600 16.51700 40.50300
H  -7.89600 18.27300 38.44900
H  -6.38800 18.79800 40.88000
H  -7.72200 19.93000 40.65000
H  -6.55300 19.71000 39.31600
H  -7.21400 16.48800 37.55900
H  -7.63200 15.01600 38.38700
H  -5.45200 14.38200 38.35400
H  -5.06200 15.84700 39.31600
H  -11.39200 21.37900 37.74200
H  -11.09600 22.05600 39.43900
H  -12.56000 22.46000 38.61700
H  -17.01100 21.69100 40.42800
H  -16.23000 20.60600 41.51800
H  -16.78000 19.94600 39.99500
H  -16.75000 16.04300 40.80900
H  -15.85600 14.80400 43.46500
H  -17.42900 16.45400 43.65300
H  -17.96900 17.33900 42.32500
H  -16.42600 17.78800 43.19900
H  -15.72800 12.83700 41.31900
H  -16.95400 13.81900 40.86500
H  -17.01100 11.73000 42.73100
H  -18.37400 12.70900 42.41200
H  -17.26600 13.15000 43.83100
H  -11.78000 11.09200 43.96600
H  -10.94600 10.24600 42.71100
H  -12.67000 10.70600 42.47900
H  -7.31800 13.11800 40.13200
H  -4.88000 15.27700 42.81900
H  -3.71500 14.58300 41.68400
H  -4.15700 13.67600 43.17400

