158

Mg 1.87500 -2.18100 44.36300
C  5.26900 -0.96800 44.04100
C  0.98100 0.42400 42.46400
C  -1.03100 -3.65100 44.20300
C  3.25800 -5.15700 45.81200
N  3.01900 -0.55900 43.14100
C  4.38600 -0.28400 43.22700
C  4.65400 0.99200 42.48700
C  3.22500 1.63200 42.41400
C  2.35000 0.45000 42.80300
C  3.08300 2.94300 43.35100
C  5.45200 0.75600 41.17700
C  6.86000 1.37800 41.26800
H  7.93100 1.22300 40.20100
N  0.17600 -1.68400 43.42400
C  -0.07100 -0.50200 42.71400
C  -1.48900 -0.26100 42.48000
C  -2.08400 -1.50100 43.02600
C  -0.96500 -2.33600 43.57500
C  -2.06000 0.91200 41.75200
C  -3.55500 -1.79000 42.87500
O  -4.29600 -0.95600 42.36900
C  -4.16900 -3.05800 43.44800
N  1.21100 -4.13200 44.97700
C  -0.04500 -4.46700 44.69300
C  -0.41700 -5.89200 45.24000
C  0.99500 -6.36300 45.78600
C  1.90600 -5.19300 45.44700
C  -1.46300 -5.99300 46.37500
C  1.50700 -7.75800 45.30800
C  2.10600 -8.68500 46.42400
N  3.79500 -2.92000 44.92300
C  4.18400 -4.09600 45.55700
C  5.60300 -4.03300 45.91600
C  5.97200 -2.75200 45.43100
C  4.89100 -2.19800 44.72200
C  6.37100 -5.03900 46.65000
C  7.18000 -1.87200 45.26000
O  8.31700 -2.00200 45.62100
C  6.71300 -0.68600 44.33400
C  6.96600 0.49800 45.18100
O  6.31800 0.71500 46.18500
O  8.02200 1.31200 44.72600
C  8.13600 2.60200 45.49100
H  0.63500 1.36400 42.03000
H  -2.02900 -4.08200 44.31300
H  3.56400 -6.07500 46.31700
H  5.22800 1.58000 43.20400
H  3.11800 2.05500 41.41500
H  2.24400 3.04500 44.04000
H  3.00600 3.68500 42.55700
H  3.99900 3.16900 43.89800
H  4.96600 1.27400 40.35000
H  5.57500 -0.30500 40.95700
H  7.26900 1.21500 42.26500
H  6.58700 2.43300 41.25700
H  -3.00600 1.20900 42.20600
H  -2.19500 0.76400 40.68000
H  -1.49600 1.83400 41.89100
H  -4.04900 -3.98200 42.88300
H  -5.22700 -2.81600 43.35400
H  -3.87600 -3.04700 44.49800
H  -0.69100 -6.43800 44.33800
H  0.91000 -6.30700 46.87100
H  -1.51500 -4.98400 46.78300
H  -1.14900 -6.66500 47.17400
H  -2.40300 -6.27300 45.89800
H  2.33200 -7.52100 44.63700
H  0.82900 -8.36800 44.71100
H  1.72200 -9.68500 46.22200
H  1.84300 -8.31100 47.41300
H  3.18700 -8.58600 46.32400
H  6.08700 -5.05700 47.70200
H  7.43800 -4.86100 46.51600
H  6.23000 -5.99500 46.14500
H  7.39300 -0.73000 43.48300
H  7.27200 3.21500 45.23600
H  8.93100 3.21000 45.05900
H  8.17200 2.43500 46.56700
Mg 48.76600 35.85300 28.22400
C  46.59600 34.33900 30.30000
C  48.77300 38.69800 30.26500
C  50.61800 37.54200 25.89100
C  48.48400 33.15400 26.01100
N  47.83800 36.37800 30.02100
C  47.19800 35.50500 30.79800
C  47.13800 35.91000 32.27400
C  47.24900 37.47900 32.12000
C  47.97700 37.57700 30.68700
C  46.04200 38.38500 32.17100
C  48.16300 35.15200 33.11800
C  49.49000 35.85200 33.63600
H  49.79200 35.86400 35.16200
N  49.64000 37.87700 28.12800
C  49.44900 38.89400 29.02800
C  50.22300 40.07900 28.63900
C  50.81600 39.72100 27.39500
C  50.39300 38.32200 27.12600
C  50.21500 41.33700 29.41200
C  51.65200 40.60200 26.37100
O  52.07200 40.19000 25.34200
C  51.82900 42.03800 26.71400
N  49.46000 35.44300 26.24100
C  50.20200 36.30100 25.51000
C  50.55200 35.69600 24.07500
C  49.97000 34.20100 24.17200
C  49.26400 34.27000 25.55300
C  50.28300 36.61600 22.81600
C  50.96500 32.97400 23.92900
C  50.52400 31.80500 23.12400
N  47.70900 34.13200 28.10500
C  47.71200 33.10800 27.18300
C  46.79400 32.03500 27.60000
C  46.25800 32.52100 28.78700
C  46.86500 33.78100 29.02400
C  46.46500 30.66200 26.98300
C  45.32800 32.24000 29.91000
O  44.56600 31.30600 30.12200
C  45.59000 33.43700 30.95500
C  45.80100 32.82500 32.31100
O  46.66400 31.94000 32.50800
O  44.87100 33.27300 33.27200
C  44.94200 32.74100 34.60000
H  48.87700 39.47300 31.02700
H  51.25400 37.96400 25.11000
H  48.48600 32.26200 25.38000
H  46.20500 35.55500 32.71200
H  47.91100 37.96500 32.83700
H  45.93800 38.72200 33.20300
H  45.19300 37.75300 31.91300
H  46.13500 39.23200 31.49100
H  48.51700 34.26100 32.59900
H  47.57100 34.88400 33.99400
H  49.68100 36.86400 33.27900
H  50.22300 35.14200 33.25300
H  51.11500 41.50600 30.00200
H  49.44300 41.21500 30.17200
H  50.03000 42.22300 28.80400
H  52.40100 42.58500 25.96400
H  52.38000 42.09900 27.65200
H  50.85700 42.47500 26.94500
H  51.63000 35.55100 24.14100
H  49.10100 34.00200 23.54400
H  49.77000 37.51800 23.15000
H  49.65900 36.10400 22.08300
H  51.25600 36.95900 22.46600
H  51.08700 32.53300 24.91800
H  51.89900 33.39600 23.55600
H  49.49600 31.98900 22.81000
H  50.56000 30.90200 23.73400
H  51.25600 31.86900 22.32000
H  47.33800 30.34500 26.41300
H  45.52500 30.69800 26.43400
H  46.42900 29.95300 27.81000
H  44.61000 33.90700 31.03500
H  45.92100 33.05100 34.96700
H  45.11800 31.66900 34.69400
H  44.02400 33.04200 35.10400

