158

Mg 48.92100 46.68700 42.56900
C  45.78600 47.24600 41.34200
C  48.84200 43.62400 41.13100
C  52.31200 46.57800 43.25100
C  49.22200 50.32400 43.06900
N  47.50000 45.67100 41.14300
C  46.22900 45.98500 41.00600
C  45.50800 44.90900 40.16800
C  46.41800 43.62800 40.37100
C  47.69600 44.33000 40.89500
C  45.84500 42.53000 41.36900
C  45.36400 45.24400 38.61500
C  44.00300 45.21000 37.92500
H  43.89000 44.35100 36.68000
N  50.38600 45.23700 42.31500
C  50.14500 44.03000 41.68400
C  51.37200 43.18900 41.72200
C  52.28800 44.03200 42.42100
C  51.68600 45.36900 42.65700
C  51.46800 41.76400 41.16700
C  53.78000 43.53700 42.81000
O  54.05200 42.38600 42.53500
C  54.77100 44.38400 43.53000
N  50.54800 48.24000 43.02300
C  51.77900 47.87200 43.34600
C  52.61700 49.04600 43.89700
C  51.74000 50.31900 43.63000
C  50.42400 49.65900 43.11700
C  52.90500 48.83900 45.40000
C  52.35300 51.38400 42.65200
C  52.30700 52.86100 43.08800
N  47.74100 48.40600 42.41300
C  47.96200 49.82000 42.73800
C  46.63800 50.48300 42.67700
C  45.74900 49.51000 42.13500
C  46.50500 48.29100 41.92100
C  46.26500 51.88200 43.04300
C  44.44100 49.27700 41.61700
O  43.44900 49.99300 41.64800
C  44.41400 47.77600 41.03100
C  43.27600 47.01200 41.60600
O  42.41500 46.45900 40.97000
O  43.52200 46.86400 42.96300
C  42.62000 46.02900 43.70400
H  48.99900 42.59100 40.81300
H  53.36700 46.40800 43.47700
H  49.32500 51.38100 43.32400
H  44.55400 44.77000 40.67700
H  46.63500 43.06500 39.46300
H  45.68500 41.55200 40.91400
H  44.90300 42.92500 41.74800
H  46.51500 42.22800 42.17500
H  46.08900 44.66500 38.04400
H  45.67500 46.27900 38.46800
H  43.75100 46.23500 37.65200
H  43.24000 44.88300 38.63100
H  52.50900 41.48700 40.99500
H  51.01800 41.76800 40.17400
H  51.00000 41.09400 41.88800
H  55.71400 43.84500 43.44100
H  54.39200 44.61800 44.52500
H  54.94300 45.31000 42.98200
H  53.62800 49.19700 43.51700
H  51.48700 50.90600 44.51300
H  52.65500 47.81300 45.67000
H  52.30700 49.46500 46.06200
H  53.98500 48.84000 45.54100
H  51.94600 51.26300 41.64800
H  53.41200 51.18700 42.48200
H  52.67300 52.98600 44.10700
H  51.32200 53.30800 42.95800
H  52.99300 53.40300 42.43600
H  46.95800 52.53000 42.50700
H  46.36800 51.95600 44.12600
H  45.24600 52.19300 42.81500
H  44.35600 47.95800 39.95800
H  41.58500 46.31500 43.51700
H  42.90600 46.17900 44.74600
H  42.77700 45.00900 43.35600
Mg 26.98500 51.02600 25.67900
C  25.34600 52.32500 28.43200
C  29.45100 49.78100 27.80100
C  28.77800 50.16400 23.07700
C  24.85700 52.85300 23.54200
N  27.40600 51.18600 27.85700
C  26.50200 51.60700 28.78700
C  26.91600 51.24700 30.25400
C  28.24000 50.53100 30.00200
C  28.41900 50.53100 28.46600
C  29.44900 51.21100 30.68700
C  25.82800 50.40400 31.07400
C  25.21800 51.23900 32.26900
H  25.29700 50.61700 33.67900
N  28.89700 50.22200 25.46900
C  29.67100 49.61800 26.42700
C  30.72700 48.85600 25.81200
C  30.46500 48.82600 24.40100
C  29.32400 49.85600 24.25300
C  31.92200 48.31100 26.60500
C  31.10300 48.06600 23.26000
O  30.68900 48.05800 22.13800
C  32.28400 47.12400 23.59300
N  26.85500 51.45400 23.62100
C  27.66500 50.90300 22.74500
C  27.27700 51.05800 21.23700
C  26.06300 52.05000 21.43800
C  25.79800 52.07200 22.93900
C  28.42000 51.76800 20.46600
C  24.79900 51.63700 20.64900
C  24.54800 52.50900 19.35400
N  25.32800 52.23600 25.88300
C  24.58200 52.93900 24.97700
C  23.54700 53.65000 25.70100
C  23.78400 53.39200 27.02600
C  24.94900 52.57100 27.09200
C  22.42500 54.37800 25.09300
C  23.25900 53.58100 28.32900
O  22.33100 54.30600 28.63800
C  24.24200 52.93500 29.36000
C  24.85400 54.02000 30.25700
O  26.02300 54.44700 30.07600
O  24.12000 54.27100 31.40500
C  24.83800 55.15100 32.41300
H  30.11000 49.20700 28.45600
H  29.30600 49.83800 22.17900
H  24.21900 53.54400 22.98800
H  27.12800 52.17300 30.78900
H  28.17800 49.49900 30.34600
H  29.71400 52.17100 30.24400
H  30.29900 50.54300 30.54500
H  29.18300 51.38500 31.72900
H  26.30900 49.56100 31.56900
H  24.96000 49.97100 30.57600
H  24.16000 51.34600 32.02800
H  25.74100 52.19100 32.35400
H  32.26100 48.97400 27.40100
H  32.76300 48.50700 25.94100
H  31.82800 47.24200 26.79300
H  31.92400 46.47700 24.39300
H  33.13400 47.79500 23.71600
H  32.50800 46.46100 22.75800
H  27.02300 50.04500 20.92700
H  26.38500 53.07000 21.22700
H  28.10500 52.74300 20.09200
H  28.47500 51.16400 19.56000
H  29.37000 51.87300 20.98900
H  23.94100 51.53800 21.31400
H  25.10200 50.65000 20.30000
H  24.44800 51.91700 18.44500
H  25.28500 53.28200 19.13500
H  23.60700 53.05600 19.41300
H  21.85600 53.70000 24.45700
H  22.82900 55.11100 24.39500
H  21.81200 54.81600 25.88100
H  23.69100 52.13800 29.86000
H  24.72800 56.20300 32.14900
H  25.90100 54.91000 32.41200
H  24.49800 55.06300 33.44400

