158

Mg 49.88300 46.31600 43.48700
C  46.68500 47.03700 42.15200
C  49.69600 43.27500 42.06300
C  53.08300 45.97300 44.04800
C  50.12800 49.85200 44.19600
N  48.32700 45.32800 42.23800
C  47.10900 45.77000 41.87200
C  46.35100 44.68300 41.04400
C  47.21500 43.42900 41.31200
C  48.46300 44.02500 41.97600
C  46.62500 42.25500 42.16700
C  46.29200 45.13900 39.57000
C  45.09000 44.80100 38.66200
H  45.32400 43.71900 37.59500
N  51.17300 44.80200 43.14200
C  50.95100 43.60300 42.59400
C  52.09100 42.78400 42.57700
C  53.10800 43.55200 43.27000
C  52.44800 44.86100 43.47900
C  52.03600 41.43600 41.93800
C  54.53300 42.99100 43.53200
O  54.84000 41.78600 43.31600
C  55.60300 43.84900 44.18800
N  51.40200 47.72700 43.96600
C  52.69100 47.31400 44.19000
C  53.63400 48.45000 44.51000
C  52.59600 49.58900 44.83800
C  51.26700 49.07300 44.26400
C  54.58100 48.20000 45.69700
C  53.03100 50.94100 44.26800
C  52.81500 52.22100 45.13900
N  48.66300 48.11500 43.31600
C  48.87400 49.41900 43.70700
C  47.75400 50.25300 43.33300
C  46.85400 49.35200 42.81200
C  47.52500 48.04200 42.70800
C  47.55500 51.74600 43.43700
C  45.55400 49.23900 42.28700
O  44.75300 50.15700 42.07000
C  45.49000 47.76000 41.76600
C  44.32000 47.13600 42.48500
O  44.06200 47.24200 43.70500
O  43.70800 46.20700 41.71000
C  42.55100 45.51100 42.25700
H  49.57800 42.28100 41.62800
H  54.13500 45.76400 44.25000
H  50.32000 50.91000 44.38500
H  45.35300 44.44500 41.41400
H  47.39500 43.06800 40.29900
H  46.47200 41.32200 41.62500
H  45.72400 42.62500 42.65700
H  47.35600 41.97600 42.92600
H  47.16800 44.76700 39.03800
H  46.41700 46.22200 39.55000
H  44.79200 45.81400 38.38800
H  44.24400 44.47000 39.26400
H  51.26400 40.81900 42.39800
H  52.88200 40.80800 42.21700
H  51.93200 41.46800 40.85300
H  55.91600 44.70800 43.59400
H  56.47000 43.21500 44.37400
H  55.27800 44.20300 45.16700
H  54.18900 48.69400 43.60500
H  52.37900 49.56400 45.90600
H  54.55200 47.12100 45.84900
H  54.23000 48.56300 46.66300
H  55.60800 48.50300 45.49100
H  52.36500 51.19200 43.44200
H  54.05500 50.88800 43.89600
H  52.86400 51.98800 46.20300
H  51.86500 52.72900 44.97700
H  53.58300 52.94300 44.85800
H  46.61400 52.06300 43.88600
H  47.62600 52.14300 42.42400
H  48.28300 52.25200 44.07100
H  45.26900 47.74900 40.69800
H  42.25900 45.93000 43.22000
H  42.85200 44.46600 42.33500
H  41.70800 45.61700 41.57500
Mg 9.77800 48.19500 25.98700
C  8.02300 48.24400 28.97200
C  12.54400 49.24700 27.73300
C  11.45400 48.19200 23.07200
C  6.79700 47.57700 24.21900
N  10.15500 48.71200 28.06400
C  9.44400 48.47800 29.15200
C  10.14000 48.74800 30.40700
C  11.29600 49.61500 29.92200
C  11.41500 49.15100 28.46700
C  11.30200 51.13800 30.14300
C  10.60000 47.56700 31.38100
C  10.35600 47.67100 32.84500
H  10.15700 46.38500 33.70700
N  11.72600 48.62900 25.45400
C  12.75900 49.00000 26.35300
C  14.03000 48.93900 25.66600
C  13.68100 48.62200 24.27600
C  12.28600 48.39700 24.18500
C  15.47800 49.24600 26.16400
C  14.61600 48.63400 23.01100
O  14.14300 48.50300 21.90000
C  16.06100 48.84100 23.15100
N  9.13900 48.01900 23.94100
C  10.05400 48.05700 22.95300
C  9.42900 47.74300 21.59200
C  7.99400 47.30400 21.93700
C  7.93100 47.68500 23.40800
C  9.51300 49.01100 20.62300
C  7.67200 45.78000 21.72200
C  8.12700 44.78600 22.82800
N  7.78700 48.07800 26.39500
C  6.67300 47.82100 25.61000
C  5.55400 47.65400 26.48700
C  6.01600 47.75200 27.80300
C  7.40600 48.07800 27.70400
C  4.13700 47.51700 26.01900
C  5.63800 47.75500 29.18400
O  4.53300 47.62100 29.73400
C  6.94500 47.92600 29.99500
C  7.24400 46.74400 30.79000
O  7.76800 45.72500 30.43600
O  6.90300 46.97600 32.06700
C  6.85200 45.84600 33.01800
H  13.45900 49.67500 28.14700
H  11.88400 48.19000 22.06800
H  5.83100 47.33500 23.77100
H  9.53000 49.39000 31.04300
H  12.16600 49.31400 30.50500
H  10.72600 51.41000 31.02800
H  11.00900 51.60900 29.20500
H  12.25700 51.61300 30.36500
H  11.68500 47.53000 31.28900
H  10.26200 46.61100 30.98100
H  9.40000 48.18700 32.93800
H  11.08400 48.26300 33.39900
H  15.36200 49.40400 27.23700
H  15.98700 50.13400 25.79000
H  16.07600 48.33500 26.14800
H  16.39000 49.72600 23.69600
H  16.30500 48.85900 22.08900
H  16.50100 47.96900 23.63400
H  10.06100 46.94000 21.21300
H  7.12100 47.78300 21.49300
H  10.20700 49.76300 20.99900
H  8.54100 49.46000 20.41800
H  9.87500 48.68600 19.64800
H  7.98800 45.51600 20.71300
H  6.58600 45.68900 21.71600
H  7.26900 44.16000 23.07400
H  8.61300 45.33600 23.63300
H  8.83900 44.11200 22.35200
H  3.86000 46.47200 25.87700
H  3.95400 48.10900 25.12300
H  3.36000 47.89500 26.68400
H  7.01000 48.82800 30.60300
H  7.02600 46.31000 33.98900
H  7.44100 44.93700 32.90200
H  5.78700 45.61900 33.05400

