158

Mg 46.94900 15.47900 28.01100
C  45.17400 15.61200 30.94100
C  49.40900 17.39900 29.38500
C  48.51500 15.37000 25.04000
C  44.09100 13.82700 26.41200
N  47.37400 16.16300 30.08300
C  46.41800 16.23100 31.06000
C  47.13800 16.82400 32.30200
C  48.25400 17.58900 31.64300
C  48.33300 17.04800 30.25800
C  48.00900 19.17400 31.68700
C  47.62400 15.79000 33.32900
C  46.90100 15.81400 34.72100
H  47.79300 15.50600 35.97700
N  48.82000 16.15400 27.37000
C  49.68600 16.89000 28.08800
C  50.91200 17.04800 27.38400
C  50.75300 16.43400 26.09200
C  49.31300 15.96500 26.09300
C  52.08500 17.70800 27.97800
C  51.65100 16.38000 24.93500
O  51.34300 15.77800 23.90300
C  52.97600 16.93400 25.03800
N  46.31700 14.78100 26.06500
C  47.18800 14.79400 24.98200
C  46.50400 14.24300 23.62600
C  45.37800 13.37100 24.26200
C  45.22000 14.10400 25.63200
C  45.97100 15.33600 22.63500
C  45.54800 11.82200 24.28700
C  46.96000 11.29700 24.69500
N  44.99600 14.88400 28.53500
C  44.03200 14.18600 27.79100
C  42.96500 13.86600 28.64800
C  43.30400 14.42900 29.92600
C  44.60700 14.98500 29.79400
C  41.78800 13.04000 28.38600
C  42.94000 14.56000 31.28800
O  41.90900 14.24800 31.85800
C  44.20600 15.25900 32.01900
C  43.63300 16.46300 32.66700
O  43.55300 17.57600 32.13700
O  43.18000 16.16900 33.97600
C  42.40400 17.07200 34.79300
H  50.15700 18.07800 29.79800
H  49.00800 15.24900 24.07300
H  43.22800 13.36900 25.92500
H  46.41800 17.56100 32.65800
H  49.19900 17.52900 32.18100
H  48.92800 19.55400 32.13200
H  47.15700 19.38000 32.33600
H  47.96400 19.64200 30.70400
H  48.70200 15.89900 33.44600
H  47.60500 14.77200 32.93900
H  46.21400 14.96800 34.74400
H  46.32600 16.72300 34.89500
H  51.96400 17.87400 29.04800
H  52.30500 18.65300 27.48000
H  52.96500 17.07100 27.89100
H  53.47700 17.08100 24.08100
H  53.45100 16.18200 25.66700
H  52.94900 17.92600 25.48900
H  47.23000 13.71900 23.00500
H  44.38900 13.45300 23.81200
H  46.61800 15.40200 21.76000
H  46.04500 16.30000 23.13900
H  44.95800 15.08900 22.31800
H  45.20400 11.20100 23.46000
H  44.90000 11.49800 25.10100
H  47.63000 12.15300 24.77700
H  47.26600 10.60300 23.91200
H  46.95700 10.72300 25.62200
H  42.03900 12.09000 27.91400
H  41.11400 13.59100 27.73100
H  41.43700 12.69700 29.35900
H  44.61100 14.57300 32.76200
H  42.42600 18.02100 34.25800
H  42.80200 17.10400 35.80800
H  41.37800 16.70300 34.77200
Mg 41.65300 41.08000 26.72500
C  41.18700 43.67900 29.16300
C  42.58800 38.99700 29.33200
C  42.81400 38.86500 24.34000
C  41.51100 43.59000 24.24200
N  41.68300 41.29500 28.88200
C  41.41900 42.38200 29.65700
C  41.48900 42.11700 31.13400
C  42.12500 40.74900 31.22700
C  42.05700 40.23000 29.71700
C  43.50400 40.66900 32.00100
C  40.00600 42.28600 31.70100
C  39.80700 41.79800 33.17900
H  40.18800 42.73000 34.36700
N  42.42400 39.14200 26.81200
C  42.70700 38.46200 27.97800
C  43.12700 37.10800 27.56900
C  43.26200 37.04700 26.17700
C  42.89300 38.44900 25.71600
C  43.37400 36.01300 28.58700
C  43.49900 35.93200 25.19400
O  43.41400 35.95600 23.98600
C  43.83600 34.53800 25.73900
N  42.05000 41.20700 24.61300
C  42.28900 40.05900 23.83900
C  42.12600 40.43800 22.43000
C  41.33400 41.86200 22.41000
C  41.71700 42.27400 23.79600
C  43.46900 40.48400 21.68300
C  39.86300 41.89100 22.10600
C  39.01000 40.96700 22.88600
N  41.25900 43.13800 26.59500
C  41.30300 44.04000 25.54600
C  41.03800 45.35200 26.02200
C  41.01200 45.23900 27.39900
C  41.22700 43.92300 27.71800
C  40.88500 46.59300 25.18400
C  40.88800 45.96600 28.61300
O  40.79500 47.15200 28.73800
C  41.03300 45.02900 29.76700
C  42.13500 45.39900 30.62200
O  43.25300 45.00400 30.52700
O  41.72700 46.35800 31.49600
C  42.68300 46.74800 32.55200
H  42.83200 38.32000 30.15300
H  43.18300 38.18300 23.57100
H  41.33500 44.32600 23.45500
H  42.18100 42.87100 31.51100
H  41.43600 40.06100 31.71500
H  43.56400 41.56400 32.62000
H  44.49400 40.55600 31.55800
H  43.50100 39.82500 32.69100
H  39.25000 41.76000 31.11700
H  39.87500 43.35700 31.85800
H  40.43200 40.90800 33.25000
H  38.78000 41.43600 33.24200
H  42.98700 35.02800 28.32800
H  43.09600 36.30800 29.59900
H  44.46100 35.96000 28.51600
H  43.12200 34.06100 26.41100
H  44.80900 34.50100 26.22800
H  44.01800 33.92100 24.85900
H  41.37100 39.82400 21.93900
H  41.83000 42.56800 21.74300
H  44.20100 40.83200 22.41200
H  43.55700 41.13800 20.81500
H  43.74100 39.50100 21.29700
H  39.77000 41.74300 21.03000
H  39.43500 42.87800 22.28100
H  39.60600 40.21900 23.41000
H  38.36200 40.47000 22.16400
H  38.31800 41.50700 23.53300
H  39.90500 46.70700 24.72200
H  41.55300 46.45800 24.33400
H  41.13800 47.47300 25.77500
H  40.11200 45.15700 30.33600
H  42.46500 46.21600 33.47900
H  42.66000 47.82600 32.70800
H  43.75000 46.61900 32.37000

