158

Mg -0.19000 7.58200 25.17600
C  1.05200 9.56300 27.80600
C  0.03200 4.81900 27.21800
C  -0.98500 5.69300 22.56400
C  0.57000 10.23400 22.98500
N  0.57700 7.24100 27.27100
C  0.64400 8.21100 28.23600
C  0.63000 7.57100 29.64300
C  0.64600 6.04300 29.27800
C  0.43500 6.00800 27.77700
C  1.96100 5.24400 29.69400
C  -0.58400 8.02200 30.40800
C  -0.43400 7.94000 31.97000
H  0.88000 7.51900 32.59700
N  -0.66500 5.55100 24.99100
C  -0.56400 4.49900 25.91300
C  -1.19900 3.35700 25.46800
C  -1.37500 3.62600 24.03300
C  -0.97300 4.98300 23.79800
C  -1.41400 2.18700 26.46500
C  -1.88300 2.66500 23.02900
O  -2.19200 3.03400 21.87800
C  -2.16600 1.25800 23.39000
N  0.09800 7.78600 22.98400
C  -0.50700 6.93000 22.14600
C  -0.74000 7.59800 20.79600
C  -0.04000 8.97700 20.88300
C  0.23700 9.04500 22.39300
C  -0.19000 6.71100 19.57400
C  -0.83700 10.13600 20.38400
C  -2.10000 10.52600 21.23600
N  0.58200 9.56600 25.28000
C  0.78400 10.54500 24.35900
C  1.17500 11.79500 25.04500
C  1.33800 11.41400 26.35100
C  1.02500 10.03400 26.44600
C  1.38200 13.12300 24.35500
C  1.67700 11.92000 27.66800
O  1.99800 13.00800 28.02600
C  1.48500 10.74600 28.68500
C  2.68600 10.53400 29.58000
O  3.43100 9.62100 29.46000
O  2.69600 11.45400 30.60700
C  3.83400 11.44700 31.52200
H  -0.06100 4.04700 27.98500
H  -1.41400 5.22600 21.67500
H  0.78700 11.07900 22.32800
H  1.53700 7.83200 30.18900
H  -0.14300 5.48400 29.78100
H  2.73600 5.80800 30.21300
H  2.32500 4.83900 28.75000
H  1.68200 4.43300 30.36700
H  -1.44700 7.38800 30.20600
H  -0.86400 9.05700 30.21300
H  -1.17100 7.21500 32.31400
H  -0.62900 8.90600 32.43600
H  -0.68900 1.40300 26.24800
H  -2.45200 1.85700 26.49800
H  -1.27100 2.54500 27.48400
H  -1.40800 0.75000 23.98500
H  -2.40300 0.66400 22.50700
H  -3.11500 1.29500 23.92400
H  -1.81700 7.74500 20.72700
H  0.90600 9.02400 20.34300
H  -0.96800 6.02400 19.24000
H  0.52300 5.98200 19.96000
H  0.24300 7.28300 18.75300
H  -1.14800 10.00000 19.34800
H  -0.19100 11.00200 20.24100
H  -2.99100 10.69000 20.63000
H  -1.79600 11.50700 21.60200
H  -2.44900 10.03600 22.14400
H  0.52300 13.52300 23.81600
H  2.14400 13.07200 23.57700
H  1.80000 13.90600 24.98700
H  0.67200 10.98600 29.37000
H  4.73400 11.45700 30.90800
H  3.77800 10.53400 32.11600
H  3.78500 12.29700 32.20200
Mg -11.52100 16.66500 41.50900
C  -8.41200 15.01400 41.12100
C  -10.25700 19.35200 39.62700
C  -14.57200 17.79700 41.42300
C  -12.73300 13.45300 42.58100
N  -9.56300 17.10100 40.47000
C  -8.43300 16.31000 40.52300
C  -7.22500 16.94800 39.83600
C  -7.73100 18.42600 39.42300
C  -9.26700 18.33700 39.86700
C  -6.98000 19.60700 39.91000
C  -6.76200 16.15800 38.62500
C  -5.27900 16.22700 38.32500
H  -4.88000 16.90800 37.03200
N  -12.32500 18.37300 40.69900
C  -11.67600 19.36400 39.95300
C  -12.67800 20.44200 39.68400
C  -13.85200 20.03600 40.22100
C  -13.61900 18.65400 40.83500
C  -12.47600 21.64800 38.76300
C  -15.15300 20.75300 40.08000
O  -15.21300 21.94100 39.73300
C  -16.52800 20.11700 40.37200
N  -13.34600 15.69500 41.67800
C  -14.46700 16.48400 41.81100
C  -15.66600 15.80100 42.41600
C  -15.03000 14.42600 42.78300
C  -13.63800 14.46400 42.24200
C  -16.34700 16.46500 43.67300
C  -15.85500 13.16700 42.37300
C  -16.53300 12.32500 43.52600
N  -10.76200 14.70700 42.04300
C  -11.33400 13.52100 42.43100
C  -10.39800 12.44000 42.55800
C  -9.20900 12.99500 42.10000
C  -9.49000 14.32000 41.69900
C  -10.69200 11.06000 43.12100
C  -7.80400 12.71800 41.93300
O  -7.25600 11.70600 42.15900
C  -7.19100 14.03100 41.24800
C  -6.10700 14.53000 42.16500
O  -6.09400 14.41800 43.37800
O  -5.03400 15.02900 41.47400
C  -3.94000 15.52800 42.26400
H  -9.88900 20.21100 39.06100
H  -15.58900 18.12600 41.64500
H  -13.11100 12.53600 43.03700
H  -6.41500 17.04300 40.55800
H  -7.81000 18.46800 38.33700
H  -6.63800 20.11600 39.00800
H  -6.08200 19.24100 40.40600
H  -7.58500 20.25800 40.54100
H  -7.24700 16.57600 37.74200
H  -7.04600 15.10900 38.54500
H  -5.04800 15.16200 38.30000
H  -4.84500 16.81700 39.13200
H  -11.40200 21.77500 38.89200
H  -12.89300 22.55000 39.21100
H  -12.73500 21.68600 37.70400
H  -17.30000 20.84000 40.10800
H  -16.62000 19.96700 41.44800
H  -16.62900 19.17000 39.84200
H  -16.40100 15.63300 41.62900
H  -14.99300 14.42900 43.87200
H  -16.38900 17.54800 43.55700
H  -15.76900 16.18200 44.55300
H  -17.32700 16.01700 43.84100
H  -15.24000 12.50200 41.76600
H  -16.68800 13.47900 41.74300
H  -17.60700 12.50300 43.47100
H  -16.18800 12.42600 44.55500
H  -16.45100 11.25100 43.36300
H  -9.82600 10.40400 43.03900
H  -11.49600 10.63800 42.51900
H  -11.03500 11.31400 44.12400
H  -6.65300 13.74400 40.34500
H  -3.04300 15.71400 41.67200
H  -3.66700 14.72100 42.94400
H  -4.40800 16.33500 42.82800

