158

Mg 47.05400 16.67300 28.43600
C  44.84700 16.48800 31.16800
C  49.45500 18.02300 30.48900
C  48.70300 17.46500 25.73600
C  44.13200 15.70800 26.41500
N  47.13100 17.30400 30.57300
C  46.13400 16.89700 31.48600
C  46.60000 17.18600 32.92200
C  47.97400 17.97500 32.65100
C  48.25500 17.72500 31.20400
C  48.01000 19.47900 33.17500
C  46.68800 15.95600 33.80700
C  46.12800 16.15700 35.25700
H  46.19300 17.55700 35.91700
N  48.86200 17.64200 28.12000
C  49.73900 18.09000 29.07200
C  50.94000 18.47400 28.44500
C  50.70200 18.33100 27.06400
C  49.37900 17.82300 26.87200
C  52.22300 18.87400 29.23300
C  51.63700 18.53100 25.89400
O  51.41500 18.45400 24.69900
C  53.10100 18.95500 26.12200
N  46.42200 16.69600 26.39500
C  47.39000 16.90000 25.48100
C  46.78000 16.78900 24.04700
C  45.33600 16.14600 24.31000
C  45.30000 16.17900 25.78100
C  46.67800 18.01800 23.22400
C  45.07800 14.79200 23.54400
C  43.78300 14.54400 22.82300
N  44.97900 16.13000 28.63500
C  43.95100 15.72300 27.78500
C  42.72900 15.52400 28.52000
C  42.98300 15.75500 29.87400
C  44.39400 16.13700 29.90200
C  41.37400 15.03300 28.02700
C  42.39500 15.76100 31.21400
O  41.31400 15.49300 31.67100
C  43.60500 16.26700 32.04000
C  43.24100 17.50900 32.78600
O  43.26500 18.63300 32.28800
O  42.83000 17.21000 34.01500
C  42.08700 18.17300 34.78900
H  50.26900 18.20900 31.19300
H  49.25400 17.53600 24.79500
H  43.35900 15.39100 25.71200
H  45.83700 17.83800 33.34700
H  48.69300 17.43700 33.26900
H  47.06200 19.70900 33.66100
H  48.34100 20.30100 32.54000
H  48.71600 19.42300 34.00300
H  47.70900 15.57900 33.87400
H  46.04100 15.22000 33.33000
H  46.62100 15.41500 35.88400
H  45.07200 16.00200 35.03400
H  52.71400 17.91100 29.09300
H  52.07800 19.00600 30.30500
H  52.71700 19.72800 28.76900
H  53.55200 18.38300 26.93300
H  53.06200 20.01200 26.38300
H  53.71200 18.88000 25.22200
H  47.42300 16.08200 23.52300
H  44.57500 16.84000 23.95400
H  45.70600 18.50000 23.32700
H  47.04800 17.78900 22.22500
H  47.33800 18.74600 23.69600
H  45.33800 13.96600 24.20600
H  45.78500 14.75600 22.71500
H  43.96000 14.51400 21.74800
H  42.98600 15.21900 23.13600
H  43.42200 13.53600 23.03000
H  41.22400 15.29600 26.98000
H  40.47000 15.28100 28.58400
H  41.45900 13.94600 28.04100
H  43.91700 15.51000 32.76000
H  41.01000 18.05200 34.67500
H  42.48800 19.08500 34.34700
H  42.38300 18.11700 35.83600
Mg -11.34400 36.93100 41.73200
C  -9.05200 34.67300 40.47400
C  -9.54100 39.49700 40.32700
C  -14.11000 38.98600 41.88300
C  -13.25700 34.27100 42.80800
N  -9.63700 37.04300 40.42200
C  -8.80100 36.00500 40.13800
C  -7.53700 36.46400 39.36500
C  -7.54800 38.00900 39.54200
C  -8.98100 38.20500 40.13100
C  -6.38900 38.76100 40.28000
C  -7.41100 35.92600 37.92800
C  -6.12500 35.18500 37.49800
H  -5.32800 35.70200 36.31200
N  -11.73500 39.00300 41.29300
C  -10.78400 39.91200 40.87000
C  -11.27900 41.22800 40.92800
C  -12.65000 41.11000 41.36800
C  -12.88000 39.63500 41.57000
C  -10.64700 42.44600 40.24800
C  -13.67000 42.23900 41.44000
O  -13.23600 43.39300 41.33600
C  -15.12000 42.07600 41.63000
N  -13.37600 36.56600 42.14100
C  -14.37100 37.63100 42.11900
C  -15.69600 37.19600 42.73800
C  -15.45100 35.68100 43.10700
C  -13.96600 35.49600 42.71700
C  -16.18600 38.12800 43.94000
C  -16.46400 34.69300 42.44000
C  -17.45200 33.92300 43.38700
N  -11.26800 34.88600 41.58200
C  -12.05500 33.97000 42.21100
C  -11.40000 32.65200 42.15800
C  -10.22400 32.90300 41.44700
C  -10.16400 34.28300 41.16400
C  -11.89700 31.35300 42.80200
C  -9.05600 32.30100 40.89800
O  -8.75800 31.11000 40.77600
C  -8.24300 33.41700 40.26200
C  -6.95000 33.32800 41.01200
O  -5.86500 33.10600 40.48300
O  -7.06000 33.76300 42.28900
C  -5.77300 33.63300 43.00100
H  -8.97700 40.37500 40.00500
H  -15.03500 39.56700 41.89600
H  -13.74400 33.41400 43.28000
H  -6.70000 36.08700 39.95300
H  -7.42800 38.40800 38.53500
H  -5.99200 39.44400 39.52900
H  -5.69700 37.99400 40.62700
H  -6.79700 39.37900 41.08000
H  -7.43500 36.74300 37.20700
H  -8.29100 35.28700 37.85200
H  -6.32600 34.12800 37.32600
H  -5.41900 35.23500 38.32800
H  -11.02500 42.51700 39.22800
H  -9.55900 42.39800 40.29000
H  -10.89900 43.41000 40.69200
H  -15.12200 41.59300 42.60700
H  -15.55400 41.35700 40.93500
H  -15.66100 43.02300 41.65200
H  -16.40700 37.37300 41.93100
H  -15.50200 35.61700 44.19300
H  -16.50500 37.43500 44.71900
H  -17.08100 38.64200 43.58800
H  -15.40400 38.81200 44.27000
H  -15.93200 33.93300 41.86800
H  -17.14600 35.25100 41.79900
H  -18.43700 34.31500 43.13200
H  -17.30400 34.16000 44.44000
H  -17.32000 32.85000 43.25300
H  -11.23800 30.52700 42.53100
H  -12.88700 31.12900 42.40400
H  -11.96600 31.29800 43.88900
H  -8.02500 33.19900 39.21700
H  -6.07000 33.80800 44.03500
H  -5.02300 34.28700 42.55700
H  -5.38800 32.61400 42.96900

