158

Mg 36.19600 2.32500 29.93100
C  33.83500 3.76500 32.05800
C  38.24700 2.09600 32.65800
C  38.54600 1.34000 27.82700
C  33.95400 2.87600 27.30800
N  36.09300 3.17500 31.99800
C  35.01100 3.51200 32.68900
C  35.25400 3.56300 34.18000
C  36.78300 3.29800 34.30400
C  37.07400 2.84700 32.88300
C  37.43300 4.49700 34.87900
C  34.52000 2.47700 34.99200
C  33.80800 3.08100 36.31100
H  34.55200 4.10300 37.11000
N  38.15200 1.70600 30.23400
C  38.80400 1.62700 31.42700
C  40.07800 0.92300 31.25400
C  40.17600 0.84800 29.83200
C  38.93100 1.31800 29.20800
C  41.07400 0.74700 32.41200
C  41.32500 0.38700 28.95300
O  41.38400 0.33800 27.73900
C  42.62100 -0.11800 29.61200
N  36.23900 2.18900 27.92600
C  37.38400 1.89800 27.27600
C  37.22600 2.05300 25.67000
C  35.72100 2.25500 25.49400
C  35.25700 2.41000 27.04600
C  38.12400 3.18900 25.17400
C  35.08200 1.02200 24.89000
C  33.76900 1.22700 24.08600
N  34.18500 3.02000 29.63300
C  33.44500 3.19900 28.57600
C  32.14400 3.70600 28.94600
C  32.24800 3.92300 30.30200
C  33.55800 3.56600 30.67900
C  31.05800 4.04100 27.97800
C  31.53700 4.51800 31.42100
O  30.43900 5.04000 31.49500
C  32.52400 4.21600 32.65200
C  32.63700 5.52300 33.35000
O  33.27500 6.49900 33.00100
O  31.84400 5.45600 34.51400
C  31.88700 6.64400 35.40000
H  38.92200 2.10800 33.51600
H  39.29700 0.96400 27.13000
H  33.27600 3.17000 26.50400
H  34.93600 4.56500 34.46800
H  36.95700 2.38300 34.87000
H  37.61300 4.24700 35.92400
H  36.86000 5.42100 34.80100
H  38.43800 4.66600 34.49200
H  35.10000 1.63600 35.37000
H  33.72900 2.04800 34.37600
H  33.56500 2.25700 36.98200
H  32.89900 3.46400 35.84800
H  41.70300 -0.12300 32.21900
H  40.43200 0.62600 33.28400
H  41.61900 1.67000 32.61400
H  43.08100 0.72500 30.12700
H  43.36300 -0.42200 28.87300
H  42.44200 -0.93700 30.30900
H  37.51600 1.10000 25.22600
H  35.38800 3.17600 25.01600
H  38.94100 2.82000 24.55400
H  38.53100 3.68500 26.05600
H  37.50300 3.92000 24.65800
H  34.82500 0.38300 25.73500
H  35.79700 0.66900 24.14700
H  33.68100 0.34100 23.45700
H  33.87700 2.06500 23.39700
H  32.92300 1.40700 24.74800
H  31.03800 5.08300 27.65900
H  30.09500 3.72700 28.38300
H  31.12600 3.37500 27.11700
H  32.10400 3.49300 33.35100
H  31.27300 7.27500 34.75800
H  32.88000 7.05600 35.57900
H  31.34700 6.40100 36.31500
Mg 40.94700 8.88600 29.54700
C  42.91100 9.89400 32.18100
C  38.54800 7.66700 31.73600
C  39.13800 7.63100 26.92300
C  43.71200 9.36500 27.39400
N  40.87400 8.62500 31.70500
C  41.66600 9.40500 32.58300
C  41.00500 9.48200 34.05400
C  39.76400 8.57400 33.85500
C  39.70600 8.24100 32.32500
C  39.53400 7.43700 34.81000
C  40.72000 10.90200 34.54500
C  41.62500 11.39900 35.66300
H  41.03100 12.23400 36.81300
N  39.04800 7.88200 29.36000
C  38.21500 7.46500 30.38400
C  37.00800 7.00500 29.87100
C  37.16400 6.93400 28.44200
C  38.50000 7.44300 28.16500
C  35.85800 6.51300 30.76400
C  36.15400 6.44900 27.36400
O  36.54700 6.10800 26.23500
C  34.68000 6.24700 27.76100
N  41.33700 8.60000 27.50500
C  40.40100 8.14700 26.60500
C  40.90200 8.33300 25.16900
C  42.40500 8.84300 25.37600
C  42.51700 8.86700 26.88200
C  40.85000 7.04000 24.23000
C  42.58000 10.21000 24.60500
C  41.93400 11.41800 25.37100
N  42.98700 9.47800 29.68300
C  43.99000 9.64200 28.72100
C  45.22400 10.12200 29.37400
C  44.81900 10.33400 30.71600
C  43.46300 9.90300 30.85200
C  46.60200 10.29200 28.78000
C  45.20400 10.90500 31.99800
O  46.24600 11.39500 32.33200
C  44.02400 10.56400 32.99900
C  44.52500 9.61200 34.13100
O  44.50400 8.38600 34.13700
O  45.01500 10.43800 35.18700
C  45.44100 9.94600 36.50500
H  37.79700 7.50900 32.51300
H  38.62400 7.31500 26.01200
H  44.49400 9.57600 26.66300
H  41.67600 8.95900 34.73500
H  38.89300 9.20300 34.04000
H  38.64100 7.59600 35.41600
H  40.31700 7.29400 35.55500
H  39.52400 6.48800 34.27500
H  39.73500 10.92200 35.01100
H  40.80200 11.67800 33.78400
H  42.35300 12.14000 35.33100
H  42.31400 10.66400 36.08000
H  36.16500 6.45900 31.80800
H  35.54200 5.52200 30.43900
H  35.15200 7.34400 30.75200
H  34.21300 5.87100 26.85100
H  34.33700 7.26400 27.95300
H  34.55500 5.57200 28.60800
H  40.33700 9.08300 24.61600
H  43.09800 8.07300 25.03700
H  40.21700 7.22500 23.36200
H  40.37300 6.22900 24.78100
H  41.86000 6.67900 24.03700
H  42.02100 10.04000 23.68500
H  43.64600 10.35300 24.42500
H  42.56600 12.29200 25.21600
H  41.77000 11.29900 26.44200
H  40.99700 11.57500 24.83600
H  46.72500 11.34900 28.54300
H  46.50700 9.72500 27.85500
H  47.41400 9.85900 29.36400
H  43.58900 11.47000 33.42100
H  44.89200 9.01900 36.67200
H  45.05900 10.71500 37.17600
H  46.52300 9.87000 36.61100

