158

Mg -1.52100 18.14500 27.44000
C  -2.07700 16.07900 30.17000
C  -2.11600 20.84000 29.46000
C  -0.86400 20.02900 24.80200
C  -1.58400 15.31400 25.33400
N  -2.03000 18.38000 29.70300
C  -2.13000 17.41200 30.64000
C  -2.43400 18.07200 31.99200
C  -2.56100 19.56600 31.56200
C  -2.31200 19.62200 30.10700
C  -3.91800 20.30600 31.98800
C  -1.28400 17.88600 33.05600
C  -1.88300 17.43800 34.39500
H  -0.92700 17.37800 35.54300
N  -1.37000 20.14100 27.23400
C  -1.69500 21.04600 28.11900
C  -1.61700 22.33900 27.48000
C  -1.07500 22.18600 26.19200
C  -1.03000 20.69200 26.05900
C  -2.20300 23.56200 28.17100
C  -0.68400 23.23200 25.21700
O  -0.20700 23.02500 24.09900
C  -0.88400 24.64100 25.68400
N  -1.42000 17.73500 25.34700
C  -1.03200 18.70000 24.49100
C  -1.02900 18.15100 23.09900
C  -0.81600 16.65200 23.31500
C  -1.28400 16.55200 24.70400
C  -2.28700 18.42300 22.18400
C  0.67300 16.09300 23.14500
C  1.81700 16.89400 23.64900
N  -1.79700 16.12000 27.64000
C  -1.80300 15.08600 26.72100
C  -1.75800 13.83000 27.41200
C  -1.93100 14.15700 28.73500
C  -1.95700 15.54500 28.88100
C  -1.61600 12.49900 26.86900
C  -1.88500 13.56400 30.03500
O  -1.64400 12.41600 30.45500
C  -2.14700 14.79600 31.01200
C  -1.02100 14.67200 31.95700
O  0.18800 14.81800 31.71000
O  -1.42200 14.08000 33.18700
C  -0.36700 13.76000 34.18300
H  -2.16400 21.66200 30.17800
H  -0.57100 20.64200 23.94700
H  -1.53200 14.41300 24.71900
H  -3.38400 17.76400 32.42800
H  -1.79600 20.14100 32.08300
H  -4.76800 19.63000 31.90700
H  -4.06800 21.17100 31.34100
H  -3.94000 20.63200 33.02800
H  -0.73900 18.82700 33.13900
H  -0.59800 17.10300 32.73100
H  -2.24600 16.41800 34.27000
H  -2.68700 18.12100 34.66800
H  -1.41200 24.22700 28.51700
H  -2.78800 23.31600 29.05700
H  -2.83700 23.97000 27.38300
H  -1.90800 24.98900 25.54900
H  -0.19000 25.12600 24.99800
H  -0.50100 24.59900 26.70300
H  -0.11500 18.42300 22.57100
H  -1.47300 16.10800 22.63700
H  -1.97900 18.89500 21.25100
H  -2.82800 19.18300 22.74800
H  -3.01500 17.65400 21.92500
H  0.79200 15.86600 22.08600
H  0.80700 15.14300 23.66200
H  2.44200 17.21800 22.81700
H  2.34000 16.35000 24.43500
H  1.46000 17.73000 24.25100
H  -1.34100 12.57500 25.81700
H  -2.54300 11.93300 26.77000
H  -0.80700 11.98800 27.39000
H  -3.06800 14.67800 31.58400
H  -0.75900 13.71400 35.19900
H  0.41000 14.50900 34.33500
H  0.13900 12.87600 33.79400
Mg -10.70400 17.20600 40.95400
C  -7.16900 17.16300 41.04600
C  -10.57800 20.56500 40.48500
C  -14.04500 17.14500 40.29600
C  -10.56000 13.71300 41.11800
N  -9.03800 18.65000 40.59000
C  -7.68900 18.42900 40.71000
C  -6.85600 19.65600 40.48900
C  -7.99300 20.75600 40.70900
C  -9.30900 19.96600 40.61700
C  -7.93000 21.63400 42.03600
C  -6.34300 19.67100 39.01700
C  -4.84100 19.46900 38.88000
H  -4.35000 18.48500 37.80900
N  -12.11400 18.66000 40.53800
C  -11.83800 19.93700 40.32300
C  -12.97000 20.66200 39.99800
C  -14.11200 19.80500 39.93300
C  -13.49700 18.46300 40.30700
C  -12.92000 22.21800 39.58200
C  -15.58500 20.16800 39.67600
O  -15.90600 21.32300 39.53500
C  -16.63600 19.20400 39.62800
N  -12.08500 15.66300 40.62700
C  -13.36500 15.87200 40.44800
C  -14.17300 14.55500 40.47600
C  -13.07200 13.49200 40.64800
C  -11.79200 14.34300 40.74100
C  -15.35700 14.53000 41.48400
C  -13.06000 12.33500 39.55700
C  -12.78900 12.74200 38.09000
N  -9.17400 15.67500 41.02300
C  -9.30400 14.32900 41.23700
C  -8.06900 13.75500 41.60400
C  -7.20200 14.86900 41.50800
C  -7.96400 15.98900 41.12700
C  -7.73100 12.30700 41.88400
C  -5.79800 15.27500 41.68400
O  -4.78000 14.67000 41.93800
C  -5.75400 16.78400 41.38100
C  -5.06100 17.50900 42.53400
O  -3.88000 17.83600 42.53600
O  -5.97100 17.74100 43.49900
C  -5.33300 18.05900 44.79400
H  -10.51600 21.65200 40.56800
H  -15.07400 17.05000 39.94200
H  -10.63200 12.64600 41.33800
H  -6.14600 19.79900 41.30400
H  -8.06300 21.47900 39.89600
H  -7.98800 22.68200 41.74100
H  -6.97400 21.49700 42.54200
H  -8.75400 21.44400 42.72400
H  -6.61500 20.64100 38.60000
H  -6.77800 18.97100 38.30400
H  -4.44000 19.21300 39.86000
H  -4.46400 20.42900 38.52800
H  -12.65600 22.23200 38.52400
H  -12.19200 22.71700 40.22100
H  -13.88700 22.70900 39.69400
H  -16.48000 18.43200 38.87500
H  -17.57800 19.71300 39.42100
H  -16.69600 18.72200 40.60400
H  -14.64200 14.33400 39.51700
H  -13.16900 13.19200 41.69200
H  -15.26700 15.25200 42.29600
H  -15.58800 13.47300 41.61700
H  -16.13000 14.81500 40.76900
H  -14.07600 11.95800 39.43600
H  -12.34900 11.65000 40.01800
H  -11.76100 12.45200 37.87000
H  -12.86700 13.82700 38.02700
H  -13.43600 12.27700 37.34700
H  -8.38100 11.89600 42.65600
H  -6.65800 12.31200 42.07500
H  -7.99400 11.74300 40.98900
H  -5.10200 16.89300 40.51300
H  -6.03100 18.48900 45.51300
H  -4.53900 18.80500 44.73600
H  -4.93900 17.15400 45.25600

