158

Mg 1.82400 -1.84900 44.34400
C  5.08800 -1.10600 43.64200
C  0.83700 0.87900 42.25800
C  -1.30700 -3.05700 44.08900
C  2.82600 -4.98300 45.72700
N  2.86200 -0.34800 42.96600
C  4.22800 -0.18700 42.99800
C  4.62000 1.15000 42.25800
C  3.21800 1.87300 42.04500
C  2.25000 0.71400 42.39600
C  3.00600 3.15600 42.82000
C  5.22700 0.89200 40.83000
C  6.12700 2.05000 40.24800
H  5.70900 2.73800 38.97000
N  -0.07600 -1.01000 43.50100
C  -0.19600 0.03400 42.62900
C  -1.60900 0.19000 42.35400
C  -2.31000 -0.92000 42.93500
C  -1.22100 -1.80300 43.53900
C  -2.17300 1.28100 41.50900
C  -3.80000 -1.16200 42.87800
O  -4.49100 -0.31300 42.43800
C  -4.35800 -2.34800 43.49500
N  0.90600 -3.74600 44.83600
C  -0.40100 -3.95800 44.65700
C  -0.84000 -5.40700 45.03600
C  0.50700 -6.03000 45.52700
C  1.46300 -4.86900 45.39000
C  -2.03700 -5.55400 46.00200
C  0.94700 -7.25600 44.75900
C  1.12400 -8.54100 45.56400
N  3.56400 -2.78900 44.92300
C  3.84200 -3.95700 45.48900
C  5.24600 -4.04300 45.64300
C  5.81900 -2.92400 45.02800
C  4.77800 -2.25600 44.46100
C  5.89100 -5.17900 46.40900
C  7.06600 -2.24700 44.71700
O  8.22700 -2.43500 44.96200
C  6.64700 -0.99800 43.85800
C  7.12900 0.19800 44.45100
O  6.66200 0.59800 45.47900
O  8.09100 0.83600 43.58600
C  8.61900 2.07400 44.08900
H  0.52300 1.78200 41.73000
H  -2.21200 -3.66700 44.04700
H  3.20600 -5.94000 46.08900
H  5.37700 1.75000 42.76300
H  3.03800 2.21900 41.02700
H  1.95400 3.43200 42.75200
H  3.56400 3.89800 42.24800
H  3.38500 2.98500 43.82800
H  4.48300 0.69200 40.05900
H  5.90200 0.04300 40.93500
H  7.07200 1.51500 40.16100
H  6.29700 2.72300 41.08800
H  -2.31800 0.96900 40.47500
H  -1.44600 2.09200 41.47200
H  -3.11200 1.67800 41.89600
H  -5.37000 -2.15600 43.85100
H  -3.73800 -2.39700 44.39100
H  -4.17800 -3.21700 42.86300
H  -1.17300 -5.90200 44.12400
H  0.47500 -6.27800 46.58800
H  -1.81600 -6.22700 46.83000
H  -2.90800 -5.89300 45.44100
H  -2.30600 -4.59900 46.45400
H  1.96300 -7.09400 44.39800
H  0.32100 -7.51300 43.90500
H  0.58100 -9.41600 45.20600
H  1.01200 -8.41100 46.64000
H  2.18600 -8.77700 45.49800
H  6.96600 -5.01700 46.49200
H  5.60500 -6.13700 45.97400
H  5.37900 -5.12200 47.36900
H  7.16100 -1.16200 42.91100
H  9.40500 1.82500 44.80300
H  7.83800 2.69300 44.53200
H  9.01200 2.66000 43.25800
Mg 23.80600 -5.35700 45.44100
C  26.00300 -2.94100 44.14700
C  21.31800 -4.05700 43.47500
C  22.18300 -8.07300 45.98800
C  26.63300 -6.70200 47.18900
N  23.70700 -3.61900 44.17600
C  24.71100 -2.79900 43.77600
C  24.09500 -1.77900 42.71300
C  22.57900 -1.94100 42.87400
C  22.49900 -3.28500 43.59900
C  21.77000 -0.87000 43.69900
C  24.68400 -2.09500 41.27800
C  25.16400 -0.86500 40.42500
H  24.67200 -0.78300 38.96600
N  21.85600 -5.99700 44.88400
C  21.06500 -5.35700 43.98900
C  19.94400 -6.23700 43.66400
C  20.13800 -7.43900 44.34000
C  21.43000 -7.24800 45.11400
C  18.83900 -5.89300 42.60200
C  19.11900 -8.57400 44.31600
O  18.06100 -8.44700 43.61300
C  19.39500 -9.87400 45.07700
N  24.41100 -7.17300 46.35800
C  23.45000 -8.12300 46.52300
C  23.96700 -9.42800 47.18800
C  25.26900 -8.79200 47.84400
C  25.48400 -7.48200 47.11700
C  23.03400 -10.09600 48.24400
C  26.54200 -9.80100 47.85500
C  27.39800 -9.65800 49.15700
N  25.96800 -4.92100 45.67500
C  26.86700 -5.52100 46.43300
C  28.05900 -4.84200 46.33000
C  27.82000 -3.78200 45.43200
C  26.48900 -3.88100 45.05700
C  29.27300 -5.12500 47.07700
C  28.35000 -2.57300 44.81500
O  29.50400 -2.09000 44.80700
C  27.23300 -2.07400 43.88400
C  26.86400 -0.66200 44.22600
O  26.60100 -0.28300 45.34800
O  27.03400 0.06400 43.07900
C  26.78500 1.55900 43.24000
H  20.54900 -3.55400 42.88400
H  21.52700 -8.94300 46.06200
H  27.34500 -7.05500 47.93700
H  24.27000 -0.72300 42.91700
H  22.14000 -1.97500 41.87700
H  22.38900 -0.15000 44.23500
H  21.13000 -1.37100 44.42600
H  21.22100 -0.27200 42.97100
H  23.81900 -2.45700 40.72300
H  25.29900 -2.99500 41.28800
H  26.20500 -1.09300 40.19400
H  25.09300 0.07200 40.97700
H  18.64700 -6.57300 41.77300
H  19.02500 -4.95400 42.07900
H  17.90200 -5.91800 43.15700
H  19.16000 -9.66700 46.12100
H  20.43500 -10.18600 44.97700
H  18.69300 -10.57600 44.62800
H  24.21500 -10.02400 46.31000
H  25.07700 -8.45100 48.86100
H  21.99700 -9.83300 48.03500
H  23.27600 -9.92100 49.29300
H  22.95200 -11.16900 48.07500
H  27.19800 -9.58500 47.01300
H  26.12800 -10.80700 47.77400
H  28.45300 -9.81500 48.93100
H  27.16800 -10.42900 49.89200
H  27.16900 -8.70300 49.63000
H  29.54800 -4.15800 47.49700
H  30.06400 -5.37700 46.36900
H  29.15800 -5.81500 47.91300
H  27.53300 -2.21400 42.84500
H  26.49300 1.81300 44.25900
H  25.93100 1.79300 42.60400
H  27.70300 1.99000 42.84200

