158

Mg 40.50500 9.67500 30.62600
C  42.48200 11.06800 33.19700
C  38.40200 8.38400 33.00500
C  38.82300 8.31100 28.10100
C  43.09900 10.67900 28.33500
N  40.42700 9.80300 32.76100
C  41.30700 10.41500 33.63600
C  40.80800 10.33800 35.10100
C  39.46600 9.55600 35.04400
C  39.42000 9.21900 33.54000
C  39.50600 8.31600 36.02200
C  40.55000 11.75300 35.82300
C  41.18600 11.82800 37.24100
H  40.51000 12.54100 38.35200
N  38.85100 8.59200 30.53700
C  38.11000 8.15500 31.64700
C  36.97600 7.36600 31.17300
C  36.97700 7.48900 29.73800
C  38.30700 8.13800 29.41800
C  36.07300 6.67900 32.14600
C  35.95500 6.95400 28.75500
O  36.04600 6.94300 27.50000
C  34.62800 6.40900 29.31000
N  40.98700 9.34700 28.57400
C  40.04000 8.87000 27.66600
C  40.52700 9.07100 26.20800
C  41.89100 9.84700 26.31700
C  42.02200 9.95200 27.83500
C  40.50000 7.85500 25.29500
C  41.99400 11.06900 25.49300
C  41.06600 12.18200 25.89200
N  42.40700 10.62600 30.65100
C  43.32100 10.89200 29.68000
C  44.44300 11.60800 30.31100
C  44.20700 11.66300 31.64500
C  42.90900 11.09600 31.79500
C  45.56200 12.33000 29.71200
C  44.60600 12.21200 32.98900
O  45.57400 12.90100 33.31500
C  43.53600 11.78500 33.98100
C  44.17100 10.99900 34.99500
O  44.36000 9.82300 35.03100
O  44.52400 11.78900 36.03100
C  45.38500 11.22800 37.02000
H  37.63200 8.08500 33.72000
H  38.19300 7.81500 27.36000
H  43.76800 11.23700 27.67600
H  41.57900 9.75200 35.60100
H  38.68600 10.27000 35.30900
H  39.66700 7.37300 35.50000
H  38.56900 8.34100 36.57800
H  40.36800 8.39000 36.68500
H  39.51700 12.02300 36.04400
H  41.00000 12.51400 35.18500
H  42.21300 12.16000 37.08900
H  41.34000 10.85000 37.69600
H  35.48700 5.85800 31.73300
H  35.40100 7.41000 32.59600
H  36.74700 6.26400 32.89600
H  33.86500 6.35400 28.53300
H  34.39300 7.26400 29.94500
H  34.74200 5.53200 29.94800
H  39.87100 9.74300 25.65600
H  42.65000 9.14900 25.96400
H  40.14200 6.94600 25.77900
H  41.45800 7.58500 24.85100
H  39.75600 8.10100 24.53700
H  41.89000 10.92200 24.41800
H  43.04100 11.37100 25.53000
H  40.45700 11.73900 26.67900
H  40.26400 12.25400 25.15800
H  41.39300 13.17600 26.19600
H  46.45600 11.97600 30.22600
H  45.36500 13.39600 29.82700
H  45.73900 12.13600 28.65400
H  43.00800 12.60900 34.46100
H  44.86700 10.40200 37.50800
H  45.60000 12.05000 37.70300
H  46.35200 11.00800 36.56800
Mg 37.18200 50.38700 25.50000
C  37.27900 48.23300 28.53500
C  36.12600 52.83400 27.63700
C  36.53300 52.14200 22.82600
C  37.88800 47.43200 23.68700
N  36.65400 50.48200 27.79500
C  36.94500 49.55000 28.79500
C  36.85900 50.13400 30.15600
C  36.04000 51.47300 29.89500
C  36.27800 51.61300 28.34900
C  34.57300 51.35300 30.29800
C  38.11100 50.08500 30.98200
C  38.04700 49.47500 32.36100
H  36.72900 49.48000 33.22500
N  36.55800 52.27800 25.24500
C  36.12600 53.14500 26.21500
C  35.77200 54.40800 25.49900
C  35.90500 54.20700 24.12800
C  36.29300 52.88200 24.02600
C  35.40500 55.63700 26.24300
C  35.48400 55.17300 22.95800
O  35.45700 54.73500 21.77300
C  35.13000 56.60600 23.18800
N  37.06000 49.83000 23.56600
C  36.90500 50.83100 22.59200
C  37.14400 50.22100 21.23000
C  37.75100 48.82100 21.53100
C  37.58200 48.65400 22.99700
C  35.83300 50.08800 20.43800
C  39.18500 48.58900 21.05000
C  39.42800 47.22500 20.35700
N  37.56600 48.27400 25.95800
C  37.93700 47.24400 25.01600
C  38.44200 46.12400 25.81400
C  38.12600 46.41600 27.15400
C  37.63400 47.74000 27.22000
C  38.95100 44.78500 25.38300
C  38.10400 45.91600 28.55200
O  38.44900 44.83200 28.91700
C  37.57100 47.07400 29.43600
C  36.40500 46.51700 30.15700
O  35.24300 46.51400 29.74200
O  36.75000 46.07400 31.43400
C  35.60700 45.71200 32.25700
H  35.78900 53.67800 28.24400
H  36.55000 52.57700 21.82400
H  38.25800 46.61600 23.06300
H  36.15000 49.46800 30.64800
H  36.59200 52.20400 30.48600
H  34.38300 52.17500 30.98800
H  34.37200 50.39400 30.77600
H  33.90000 51.52200 29.45700
H  38.34500 51.14100 31.12000
H  38.94200 49.74300 30.36500
H  38.79700 50.03000 32.92400
H  38.36600 48.43300 32.32900
H  36.34800 56.11600 26.50600
H  34.90300 55.38000 27.17600
H  34.73800 56.34200 25.74700
H  34.17200 56.53500 23.70300
H  34.96000 56.91700 22.15800
H  35.96400 57.17600 23.59800
H  37.89800 50.82000 20.72000
H  37.15700 48.02200 21.08800
H  34.99000 50.61200 20.88700
H  35.58000 49.05200 20.21400
H  35.92500 50.57400 19.46700
H  39.74800 48.46900 21.97600
H  39.55300 49.47900 20.54000
H  40.01500 46.58600 21.01700
H  40.00100 47.37200 19.44200
H  38.49000 46.77100 20.04000
H  38.51700 43.91800 25.88100
H  40.00900 44.91600 25.61100
H  38.89500 44.47700 24.33900
H  38.35600 47.28600 30.16200
H  35.10800 44.75100 32.13400
H  34.78400 46.42600 32.21400
H  35.78400 45.54000 33.31800

