158

Mg 35.91800 1.43400 29.71600
C  33.88300 2.66800 32.18000
C  38.62700 1.42600 31.96300
C  37.88800 0.76100 27.17100
C  33.27600 2.05700 27.38500
N  36.20600 2.07800 31.74500
C  35.21500 2.42300 32.62600
C  35.79700 2.60700 34.04000
C  37.33300 2.31100 33.89800
C  37.39800 1.88600 32.41500
C  38.29500 3.56800 34.07700
C  35.02300 1.99900 35.25100
C  35.83000 1.45000 36.47700
H  36.15100 2.44700 37.58400
N  38.02100 0.96700 29.62100
C  38.92500 1.06000 30.66100
C  40.17200 0.63500 30.12900
C  40.03500 0.45200 28.75100
C  38.59300 0.72700 28.44400
C  41.47400 0.44100 30.95500
C  41.05300 0.01600 27.59500
O  40.68700 -0.06100 26.43200
C  42.42100 -0.35100 27.91200
N  35.62300 1.41100 27.60900
C  36.63900 1.03100 26.77600
C  36.14400 0.92700 25.26500
C  34.57000 1.22000 25.43900
C  34.49500 1.53200 26.91900
C  36.89600 1.90600 24.29600
C  33.61500 0.17600 24.97100
C  33.21000 -0.96000 25.93100
N  33.94600 2.09300 29.72900
C  33.06100 2.37800 28.72800
C  31.73200 2.78800 29.33500
C  32.06700 2.93500 30.68900
C  33.40100 2.49800 30.85800
C  30.49000 2.99700 28.54800
C  31.51800 3.30500 31.97700
O  30.35300 3.61200 32.23400
C  32.66800 3.12500 32.99000
C  32.83300 4.51800 33.60900
O  33.65000 5.35600 33.20100
O  32.05400 4.49600 34.74100
C  32.21700 5.72600 35.52500
H  39.39700 1.56400 32.72400
H  38.55400 0.54200 26.33400
H  32.46300 2.18300 26.66700
H  35.63900 3.65900 34.27900
H  37.65200 1.44600 34.48000
H  37.80000 4.34600 34.65800
H  38.79100 3.96500 33.19200
H  39.11000 3.25000 34.72700
H  34.64500 1.08100 34.80000
H  34.19900 2.60600 35.62500
H  36.78600 1.03400 36.16000
H  35.30900 0.63100 36.97300
H  42.15500 1.24600 30.67700
H  42.01100 -0.47400 30.70700
H  41.08000 0.59700 31.95900
H  43.03700 -0.53300 27.03100
H  42.37400 -1.32300 28.40300
H  42.85100 0.51700 28.41300
H  36.22700 -0.07300 24.83900
H  34.23300 2.09700 24.88700
H  36.12700 2.53000 23.84000
H  37.48300 1.33400 23.57800
H  37.61200 2.47100 24.89200
H  34.04100 -0.25500 24.06600
H  32.71300 0.71900 24.69000
H  32.13000 -1.07800 25.84800
H  33.43500 -0.95100 26.99800
H  33.46800 -1.87400 25.39700
H  30.56100 2.34200 27.68000
H  30.16500 4.00900 28.31000
H  29.74800 2.48700 29.16300
H  32.33300 2.39100 33.72200
H  31.72900 6.47400 34.90100
H  33.25800 6.01700 35.66600
H  31.72800 5.40700 36.44600
Mg -9.80900 38.16200 42.41100
C  -8.06800 35.29300 41.42800
C  -7.14200 40.01100 41.20300
C  -11.68700 40.89300 42.46200
C  -12.64400 36.08300 42.86900
N  -7.89600 37.74600 41.16100
C  -7.45800 36.46400 40.94000
C  -6.16700 36.51200 40.15900
C  -5.73700 37.98700 40.29700
C  -6.97500 38.66000 40.95200
C  -4.34900 38.29500 40.99300
C  -6.41500 35.99800 38.67500
C  -5.45600 35.01000 38.04200
H  -4.39800 35.55000 37.03800
N  -9.39800 40.16700 42.10500
C  -8.25200 40.72200 41.69900
C  -8.30500 42.12400 41.71100
C  -9.53800 42.45400 42.23400
C  -10.29800 41.14200 42.32300
C  -7.09100 42.98000 41.22800
C  -10.13200 43.82000 42.58400
O  -9.40700 44.78300 42.60700
C  -11.62100 44.14000 42.97400
N  -11.89200 38.41300 42.50200
C  -12.41600 39.69400 42.58400
C  -13.90200 39.59200 42.53400
C  -14.18000 38.09000 42.81600
C  -12.83000 37.43900 42.64700
C  -14.48400 40.60800 43.68500
C  -15.27200 37.43300 41.94900
C  -16.11900 36.30400 42.70600
N  -10.24300 36.04100 42.38900
C  -11.36800 35.37800 42.70300
C  -11.04600 33.96400 42.68500
C  -9.75200 33.89700 42.24900
C  -9.38100 35.18000 41.94100
C  -12.01400 32.89200 43.07000
C  -8.68400 33.03200 41.91400
O  -8.58500 31.81600 41.82300
C  -7.46000 33.90900 41.39000
C  -6.50000 33.71700 42.48900
O  -6.19200 34.49600 43.38900
O  -5.79400 32.60900 42.15400
C  -4.79800 32.28000 43.06900
H  -6.31100 40.57400 40.77300
H  -12.38300 41.69200 42.72700
H  -13.48700 35.39600 42.97900
H  -5.38500 35.87600 40.57300
H  -5.66300 38.37300 39.28000
H  -3.81600 37.36200 41.17500
H  -4.46800 38.73900 41.98100
H  -3.71700 38.98600 40.43500
H  -6.39100 36.85700 38.00500
H  -7.41700 35.57400 38.61200
H  -6.09900 34.21200 37.67200
H  -4.77500 34.57100 38.77100
H  -6.31800 42.99400 41.99500
H  -7.48000 43.99800 41.18100
H  -6.66100 42.71900 40.26100
H  -12.35000 43.77400 42.25200
H  -11.85200 45.20500 42.96600
H  -11.86600 43.82300 43.98700
H  -14.25400 39.80000 41.52300
H  -14.38100 37.95000 43.87800
H  -15.39000 40.20700 44.13900
H  -14.75100 41.56300 43.23300
H  -13.79200 40.93500 44.46200
H  -14.87700 36.93100 41.06600
H  -15.93500 38.24800 41.65900
H  -17.14100 36.67500 42.78400
H  -15.72400 36.01500 43.68000
H  -16.08700 35.44800 42.03200
H  -11.77400 31.97900 42.52500
H  -13.00100 33.30400 42.86300
H  -11.87200 32.80200 44.14700
H  -7.04000 33.62800 40.42400
H  -3.79200 32.20600 42.65500
H  -4.92700 31.25100 43.40500
H  -4.74800 32.82400 44.01200

