158

Mg 16.56700 -1.40900 28.18900
C  15.46300 0.46300 30.93800
C  18.64500 -3.08500 30.27600
C  17.56400 -3.06600 25.62000
C  14.65000 0.72800 26.21600
N  17.05600 -1.24400 30.38800
C  16.38900 -0.48400 31.33300
C  16.83500 -0.82200 32.79500
C  18.17700 -1.66400 32.52900
C  18.05600 -2.00100 30.96900
C  19.54600 -0.84800 32.89900
C  15.72700 -1.67200 33.42700
C  15.39900 -1.34300 34.87900
H  16.43900 -0.63200 35.72800
N  17.81500 -3.00400 27.99500
C  18.53000 -3.63800 28.98700
C  19.18400 -4.87300 28.41100
C  18.88700 -4.78300 27.03700
C  18.02500 -3.61100 26.83800
C  20.13900 -5.73800 29.24700
C  19.50700 -5.56700 25.91800
O  19.12100 -5.45500 24.76000
C  20.48300 -6.55500 26.19000
N  16.12100 -1.17700 26.14800
C  16.75900 -1.99900 25.24600
C  16.36000 -1.59600 23.81600
C  15.39400 -0.35500 24.13000
C  15.31700 -0.29000 25.57700
C  17.63800 -1.32900 22.92500
C  13.99500 -0.47300 23.49000
C  12.85300 -1.24100 24.10700
N  15.33100 0.26200 28.46100
C  14.56700 1.04200 27.59000
C  13.83700 2.08400 28.25400
C  14.10400 1.84500 29.57200
C  15.07200 0.81700 29.60700
C  12.83100 3.00900 27.70900
C  13.61700 2.16200 30.94500
O  12.75100 2.95800 31.30000
C  14.67300 1.39000 31.93200
C  15.32300 2.56200 32.63000
O  16.03700 3.33800 32.03400
O  15.11800 2.63600 33.98700
C  15.65200 3.69400 34.86000
H  19.20100 -3.73700 30.95200
H  17.76600 -3.73900 24.78400
H  14.08700 1.44500 25.61500
H  16.99600 0.07400 33.39400
H  18.22700 -2.56600 33.13800
H  19.33300 0.16700 33.23400
H  20.10200 -0.91500 31.96400
H  20.03400 -1.49400 33.63000
H  15.93400 -2.74100 33.45100
H  14.82500 -1.50600 32.83800
H  15.18800 -2.29300 35.37000
H  14.51200 -0.71500 34.96100
H  19.94500 -5.55600 30.30400
H  21.20900 -5.53600 29.22300
H  19.93600 -6.76000 28.92500
H  20.21100 -7.55700 26.52100
H  21.24700 -6.03300 26.76600
H  20.96500 -6.76400 25.23500
H  15.67700 -2.39300 23.52200
H  15.89700 0.55100 23.79400
H  18.28500 -0.58400 23.38800
H  17.15100 -0.80900 22.10000
H  18.16500 -2.20500 22.54500
H  14.12800 -0.85300 22.47800
H  13.70000 0.56900 23.36700
H  12.50200 -1.89800 23.31100
H  12.05700 -0.52900 24.32600
H  13.14700 -1.93100 24.89800
H  13.27500 4.00500 27.72700
H  11.96000 3.15900 28.34700
H  12.51300 2.74400 26.70000
H  14.20500 0.83800 32.74700
H  16.09500 3.03700 35.60900
H  14.90200 4.16300 35.49700
H  16.24600 4.50600 34.44200
Mg 17.07800 53.05400 26.73400
C  19.10300 51.35300 29.08100
C  14.84300 53.72000 29.19600
C  15.02500 54.38800 24.38100
C  19.19100 51.74700 24.17100
N  17.15600 52.78800 28.90800
C  18.00600 52.07700 29.68700
C  17.57900 52.06900 31.18600
C  16.06100 52.40400 31.09600
C  16.03100 53.02100 29.62800
C  15.02900 51.26000 31.33700
C  18.48700 53.11700 31.85100
C  18.55000 52.97900 33.36700
H  17.56100 52.07900 34.14300
N  15.21600 54.02200 26.75200
C  14.44600 54.25200 27.90700
C  13.26300 54.91800 27.56500
C  13.39900 55.28200 26.21700
C  14.55800 54.55800 25.67600
C  12.22600 55.23500 28.61800
C  12.53400 56.14100 25.28500
O  12.74100 56.34400 24.06000
C  11.44500 56.91100 25.85700
N  17.12100 53.06500 24.60200
C  16.10500 53.66000 23.87100
C  16.34800 53.47900 22.33700
C  17.68600 52.69700 22.31000
C  18.08700 52.57100 23.79800
C  15.24800 52.82100 21.41200
C  18.69900 53.30900 21.30500
C  19.82000 54.22100 21.84600
N  18.92800 51.87000 26.54500
C  19.66100 51.45200 25.46800
C  20.79200 50.66000 25.93900
C  20.67400 50.69000 27.34200
C  19.43800 51.34900 27.66100
C  21.88000 49.88000 25.04700
C  21.26100 50.20600 28.59500
O  22.27600 49.54400 28.77800
C  20.26600 50.63500 29.76600
C  19.87400 49.50000 30.68900
O  18.98800 48.70500 30.40100
O  20.66200 49.51000 31.81200
C  20.24500 48.52000 32.83300
H  14.18300 53.76000 30.06500
H  14.48400 54.81200 23.53300
H  19.85900 51.52100 23.33700
H  17.80400 51.14100 31.71100
H  15.92500 53.21600 31.81100
H  14.20300 51.36900 32.04000
H  15.58800 50.37500 31.64100
H  14.49700 50.94200 30.44100
H  18.28100 54.16200 31.61800
H  19.48200 52.76600 31.57700
H  18.26900 53.92300 33.83500
H  19.57800 52.84200 33.70400
H  12.39200 54.60500 29.49200
H  11.23300 55.17400 28.17200
H  12.33400 56.22000 29.07200
H  10.94300 57.39500 25.01900
H  11.90500 57.70400 26.44600
H  10.72800 56.36100 26.46700
H  16.58700 54.42500 21.85000
H  17.45400 51.67200 22.01900
H  14.81500 53.59100 20.77400
H  14.43400 52.43300 22.02400
H  15.54500 51.91100 20.89100
H  18.21100 54.00100 20.62000
H  19.04500 52.52600 20.63000
H  20.78700 53.73500 21.97200
H  19.46300 54.78200 22.71000
H  19.94800 54.99700 21.09100
H  22.80300 50.44900 25.15900
H  21.50100 49.92900 24.02700
H  22.08100 48.83600 25.28800
H  20.82700 51.34000 30.38000
H  19.18500 48.31900 32.99100
H  20.79200 48.75400 33.74600
H  20.63800 47.58800 32.42700

