158

Mg 26.77900 49.94000 27.42400
C  24.80300 51.04500 30.10800
C  29.05200 48.93800 29.71500
C  28.82600 49.56700 24.76000
C  24.47800 51.53200 25.33400
N  26.92900 50.14400 29.69400
C  25.93000 50.36800 30.60600
C  26.37700 50.04600 32.05500
C  27.80200 49.54800 31.81900
C  27.98400 49.59300 30.31800
C  28.91000 50.34900 32.56000
C  25.41400 48.97700 32.72500
C  24.64300 49.54700 33.96500
H  24.69000 48.71800 35.25200
N  28.58000 49.21700 27.25300
C  29.39400 48.86300 28.35100
C  30.68900 48.42100 27.81600
C  30.74800 48.68300 26.41600
C  29.31200 49.21300 26.08800
C  31.78700 47.83500 28.66200
C  31.97300 48.55700 25.40100
O  31.81000 48.83400 24.23600
C  33.32000 48.15200 25.82200
N  26.52700 50.28500 25.24600
C  27.52900 50.01500 24.38000
C  27.01100 50.18500 22.96700
C  25.50500 50.66100 23.20600
C  25.43000 50.88200 24.67700
C  27.83700 51.15100 22.11900
C  24.43800 49.66700 22.72700
C  23.22200 50.40200 21.99000
N  25.05900 51.16500 27.60000
C  24.18600 51.62900 26.70000
C  23.02700 52.21000 27.30400
C  23.20100 52.03500 28.69600
C  24.45200 51.40100 28.77500
C  21.93200 52.94900 26.70600
C  22.68200 52.17500 30.01900
O  21.55400 52.60100 30.29600
C  23.73900 51.64100 30.97500
C  24.25800 52.79900 31.81200
O  25.11100 53.64300 31.46900
O  23.68200 52.74400 33.07700
C  24.30100 53.73300 34.00200
H  29.82900 48.42600 30.28600
H  29.49800 49.36300 23.92400
H  23.71400 51.96500 24.68500
H  26.52500 50.99600 32.56900
H  27.96400 48.52700 32.16600
H  29.62700 50.83700 31.90000
H  29.54700 49.69900 33.15900
H  28.59500 51.13500 33.24600
H  25.88700 48.03000 32.98400
H  24.69400 48.68700 31.96100
H  23.61400 49.76200 33.67700
H  25.28500 50.40100 34.18100
H  32.52100 48.46000 29.17000
H  32.29600 47.09800 28.04000
H  31.27000 47.23000 29.40700
H  33.21600 47.13800 26.20900
H  33.59900 48.83000 26.62900
H  34.10400 48.20500 25.06700
H  26.99500 49.19100 22.52100
H  25.27900 51.61500 22.72900
H  28.73400 51.40500 22.68400
H  27.41600 52.15600 22.12100
H  27.92700 50.74500 21.11200
H  24.00900 49.16700 23.59500
H  24.89500 48.86300 22.15000
H  22.87600 49.95200 21.06000
H  23.33000 51.48100 21.88200
H  22.32500 50.23000 22.58500
H  21.06300 52.54100 27.22200
H  21.85900 52.67000 25.65400
H  22.02700 54.02400 26.85900
H  23.22900 50.98200 31.67700
H  25.35100 53.89300 33.75600
H  24.36900 53.23500 34.96900
H  23.88700 54.72600 34.17200
Mg -11.96600 16.65700 42.06200
C  -8.83100 15.06900 41.50000
C  -10.70600 19.44700 40.66000
C  -15.05400 17.84000 42.04000
C  -13.17600 13.41600 43.04800
N  -9.99000 17.15900 41.01100
C  -8.86400 16.38400 41.05300
C  -7.68100 17.23300 40.51800
C  -8.23600 18.71400 40.62400
C  -9.72500 18.40700 40.78400
C  -7.55700 19.66300 41.72000
C  -7.18100 16.82700 39.12300
C  -5.69000 17.34700 38.88900
H  -5.63000 18.16600 37.64100
N  -12.75200 18.39300 41.52200
C  -12.05200 19.44900 40.99200
C  -12.80200 20.60400 40.88800
C  -14.11100 20.20900 41.38500
C  -14.00300 18.78600 41.66100
C  -12.19900 22.03500 40.55400
C  -15.31500 21.06300 41.50800
O  -15.23800 22.22000 41.18900
C  -16.63400 20.73300 42.03900
N  -13.85700 15.68800 42.49000
C  -14.96200 16.44700 42.39500
C  -16.26000 15.67200 42.73400
C  -15.60100 14.29900 43.32500
C  -14.14000 14.42400 42.93200
C  -17.33200 16.27700 43.69400
C  -16.16100 13.01400 42.68900
C  -16.29800 11.83600 43.67800
N  -11.28700 14.65500 42.25400
C  -11.82000 13.42900 42.68300
C  -10.79400 12.42800 42.73800
C  -9.64200 13.06200 42.26000
C  -9.98700 14.35500 42.00400
C  -10.87900 11.03900 43.30200
C  -8.24300 12.87600 42.07000
O  -7.54400 11.85700 42.08800
C  -7.66300 14.16700 41.48500
C  -6.48600 14.55200 42.40900
O  -6.55600 14.62700 43.64500
O  -5.32100 14.74400 41.64300
C  -4.07800 15.02500 42.36500
H  -10.21600 20.39700 40.43300
H  -16.07500 18.19100 41.87900
H  -13.53300 12.48600 43.49600
H  -6.90100 17.05900 41.26000
H  -8.22700 19.18600 39.64200
H  -8.36600 19.91700 42.40400
H  -7.28300 20.60100 41.23600
H  -6.63700 19.25400 42.13900
H  -7.73700 17.44300 38.41600
H  -7.27900 15.75300 38.97000
H  -5.05300 16.46700 38.80100
H  -5.29800 17.91300 39.73400
H  -12.21400 22.41100 39.53000
H  -11.19300 22.07300 40.97300
H  -12.79500 22.72400 41.15100
H  -17.21600 21.59900 42.35400
H  -16.60100 20.10200 42.92700
H  -17.22700 20.22200 41.28100
H  -16.68400 15.47900 41.74800
H  -15.69400 14.32400 44.41000
H  -17.17200 17.33800 43.88600
H  -17.52400 15.74200 44.62400
H  -18.23700 16.15600 43.09900
H  -15.54300 12.77100 41.82500
H  -17.14800 13.22700 42.27800
H  -16.33900 12.08400 44.73800
H  -15.60300 11.00200 43.58000
H  -17.30800 11.45700 43.51800
H  -11.44800 10.35500 42.67300
H  -11.39400 11.16000 44.25500
H  -9.87000 10.69400 43.52800
H  -7.30500 14.06400 40.46100
H  -3.85200 14.06900 42.83800
H  -4.22000 15.78900 43.12900
H  -3.17000 15.31600 41.83700

