158

Mg 16.12500 50.95100 25.34900
C  17.81000 50.03400 28.23700
C  13.44400 51.79600 27.32600
C  14.23900 51.37100 22.54400
C  18.77200 49.74300 23.44700
N  15.75700 51.13600 27.53900
C  16.66500 50.75700 28.53200
C  16.19400 51.15100 29.96700
C  14.68600 51.54000 29.70400
C  14.57900 51.56200 28.12200
C  13.68400 50.63800 30.41700
C  17.04900 52.16300 30.61600
C  17.27000 51.87900 32.14800
H  16.29100 51.16400 33.09300
N  14.06000 51.54600 25.02200
C  13.13000 51.74400 25.96400
C  11.87700 52.06400 25.37700
C  12.03700 51.94800 23.95700
C  13.45700 51.55800 23.82100
C  10.76700 52.62600 26.25400
C  11.01800 52.16200 22.84600
O  11.39800 52.13900 21.67900
C  9.52100 52.31800 23.15600
N  16.44000 50.72400 23.33000
C  15.55000 51.00900 22.37200
C  16.09600 50.80700 21.00900
C  17.61200 50.33100 21.26400
C  17.66600 50.29800 22.79600
C  15.34500 49.71300 20.18300
C  18.63900 51.35600 20.71500
C  18.84600 51.38900 19.15600
N  17.88900 49.91500 25.72300
C  18.85000 49.49700 24.83900
C  19.92500 48.88500 25.60400
C  19.55200 49.02500 26.94100
C  18.31000 49.68300 26.94700
C  21.12000 48.17900 25.07700
C  19.95500 48.72200 28.32000
O  20.94600 48.15000 28.75800
C  18.85500 49.44700 29.18200
C  18.34800 48.47300 30.18100
O  17.25000 47.93000 30.19200
O  19.23100 48.49500 31.23100
C  18.72700 47.82900 32.44200
H  12.63400 51.92800 28.04700
H  13.69900 51.43500 21.59700
H  19.64000 49.51200 22.82500
H  16.24500 50.26200 30.59500
H  14.52600 52.56800 30.02800
H  13.07300 51.37800 30.93300
H  14.21300 49.95500 31.08100
H  13.02000 50.12800 29.71800
H  16.71600 53.19300 30.48500
H  18.04800 52.18600 30.17900
H  17.42400 52.88600 32.53400
H  18.16800 51.26100 32.18400
H  10.10500 53.27400 25.67900
H  11.10500 53.21400 27.10700
H  10.15400 51.88300 26.76400
H  9.16700 51.53800 23.83000
H  8.95400 52.43600 22.23300
H  9.43300 53.27100 23.67900
H  16.01000 51.79000 20.54500
H  17.84600 49.34800 20.85400
H  14.60100 49.21100 20.80100
H  16.04700 49.01200 19.73100
H  14.84100 50.12700 19.31000
H  19.62000 51.05900 21.08600
H  18.38700 52.36500 21.03800
H  18.46300 52.37700 18.90200
H  18.30400 50.53500 18.74900
H  19.91500 51.29700 18.96400
H  21.22200 48.59700 24.07600
H  21.00700 47.09600 25.13400
H  22.00800 48.46100 25.64200
H  19.24300 50.23100 29.83300
H  18.79300 46.74200 32.39500
H  17.67800 48.09800 32.56600
H  19.27100 48.17600 33.32000
Mg -5.68700 25.87600 26.06300
C  -3.84100 27.08400 28.68700
C  -6.97100 23.44000 28.26700
C  -7.20900 24.57900 23.43900
C  -3.56700 27.61500 23.82100
N  -5.39800 25.32300 28.14800
C  -4.79900 26.15500 29.03100
C  -5.16900 25.77300 30.52200
C  -5.88600 24.39000 30.35600
C  -6.05000 24.36100 28.85100
C  -5.19100 23.16600 31.01300
C  -5.92300 26.88700 31.21600
C  -5.75600 27.04600 32.74300
H  -5.28900 25.88500 33.51600
N  -6.89500 24.22300 25.91200
C  -7.39500 23.40100 26.89400
C  -8.40900 22.60300 26.29200
C  -8.54300 23.01200 24.93000
C  -7.45700 23.95300 24.72300
C  -9.21700 21.51700 27.20100
C  -9.50800 22.44500 23.95300
O  -9.49300 22.84700 22.78200
C  -10.56400 21.39100 24.24700
N  -5.27300 25.91500 23.88400
C  -6.22900 25.44100 23.07700
C  -6.10000 26.03600 21.66400
C  -4.69900 26.76700 21.72800
C  -4.51700 26.82600 23.24400
C  -6.31700 24.90600 20.59400
C  -4.84200 28.14400 20.99800
C  -5.19500 28.07700 19.52000
N  -4.11900 27.10800 26.14200
C  -3.33100 27.81800 25.16600
C  -2.49200 28.79500 25.80500
C  -2.70400 28.59600 27.19800
C  -3.62900 27.50200 27.32000
C  -1.73500 29.84000 25.15100
C  -2.35200 29.05600 28.52700
O  -1.63400 30.04100 28.85300
C  -3.02700 28.09600 29.57300
C  -2.04900 27.40700 30.39000
O  -1.34900 26.44300 30.08500
O  -2.10900 27.83100 31.72300
C  -1.21900 27.07200 32.61400
H  -7.43700 22.70500 28.92600
H  -7.83500 24.35000 22.57400
H  -2.95300 28.22200 23.15300
H  -4.18500 25.53000 30.92400
H  -6.91500 24.34900 30.71200
H  -5.55300 23.00700 32.02900
H  -4.11500 23.33200 30.96600
H  -5.43100 22.34500 30.33700
H  -6.99100 26.87200 30.99600
H  -5.53200 27.81000 30.78700
H  -6.74300 27.18800 33.18400
H  -5.25400 27.98400 32.98100
H  -8.67400 21.11200 28.05500
H  -9.43100 20.64800 26.57900
H  -10.18100 21.89100 27.54400
H  -10.06100 20.50000 24.62300
H  -11.01100 21.21000 23.26900
H  -11.29500 21.84800 24.91200
H  -6.95100 26.69700 21.49700
H  -3.83900 26.30000 21.24600
H  -7.23000 25.11800 20.03600
H  -6.38900 23.90000 21.00800
H  -5.48200 24.98700 19.89900
H  -3.87400 28.64500 21.02900
H  -5.60400 28.77700 21.45300
H  -4.90700 27.10700 19.11200
H  -4.81400 29.00000 19.08400
H  -6.27500 28.20600 19.45800
H  -0.71600 29.59400 25.44800
H  -2.04200 30.82700 25.49600
H  -1.84900 29.86800 24.06800
H  -3.60100 28.75300 30.22600
H  -0.91600 27.72000 33.43700
H  -0.22100 27.00000 32.18200
H  -1.50900 26.05000 32.85900

