158

Mg 1.61300 -1.44700 43.68500
C  4.86600 -0.82100 43.21700
C  0.72600 1.22300 41.49700
C  -1.67700 -2.35200 43.77400
C  2.51200 -4.71100 44.86100
N  2.63800 -0.01000 42.40400
C  4.06200 0.12300 42.49200
C  4.50200 1.39000 41.76000
C  3.17200 2.07800 41.29200
C  2.08600 1.06300 41.80600
C  2.94900 3.51500 41.82300
C  5.30200 1.00800 40.47400
C  6.35000 2.03200 40.01400
H  6.22400 2.61800 38.61500
N  -0.18800 -0.57000 42.92800
C  -0.31100 0.43700 42.05800
C  -1.76800 0.57500 41.69600
C  -2.45300 -0.26900 42.58200
C  -1.39600 -1.13200 43.18100
C  -2.26600 1.48300 40.66500
C  -3.98200 -0.42700 42.75500
O  -4.75700 0.12900 42.02300
C  -4.60800 -0.99500 43.98200
N  0.55700 -3.40100 44.05200
C  -0.77600 -3.33700 44.25900
C  -1.19300 -4.57900 44.92100
C  0.03200 -5.53000 44.97800
C  1.13500 -4.47900 44.69100
C  -1.79400 -4.24700 46.28200
C  0.00000 -6.69300 43.90500
C  -0.05500 -8.17900 44.34100
N  3.36400 -2.53900 44.10400
C  3.60700 -3.75200 44.56000
C  5.01300 -3.90600 44.80600
C  5.56800 -2.74600 44.34400
C  4.49700 -1.98700 43.84000
C  5.58700 -5.08300 45.47300
C  6.74600 -2.02500 44.19900
O  7.87200 -2.34800 44.42600
C  6.36200 -0.76900 43.44800
C  6.78700 0.32300 44.33000
O  6.35400 0.61500 45.42700
O  7.72000 1.11800 43.68900
C  8.10900 2.25800 44.51600
H  0.40600 1.98200 40.78000
H  -2.74900 -2.54100 43.86900
H  2.85200 -5.64100 45.32100
H  5.09800 2.04500 42.39600
H  3.21400 2.11900 40.20400
H  2.30800 3.45700 42.70300
H  2.56600 4.14300 41.01900
H  3.91200 3.95500 42.07800
H  4.62700 0.78500 39.64800
H  5.80700 0.04200 40.48400
H  7.33600 1.57500 40.10400
H  6.37000 2.88800 40.68800
H  -2.97300 1.04900 39.95800
H  -1.49900 1.86700 39.99200
H  -2.64400 2.36500 41.18100
H  -5.02100 -1.99100 43.82400
H  -5.43400 -0.32300 44.21600
H  -3.82000 -0.93900 44.73300
H  -1.96300 -4.96300 44.25200
H  0.26800 -5.88200 45.98200
H  -2.67200 -3.63800 46.06600
H  -1.20800 -3.63500 46.96800
H  -2.22800 -5.19200 46.60900
H  0.90700 -6.58000 43.31200
H  -0.79800 -6.58500 43.17100
H  -0.56100 -8.20300 45.30700
H  0.93800 -8.58700 44.53000
H  -0.64200 -8.78500 43.65100
H  5.04600 -5.91500 45.02100
H  5.45800 -4.98500 46.55100
H  6.61200 -5.24700 45.14100
H  6.94000 -0.74100 42.52400
H  9.02000 2.71500 44.12800
H  8.35800 2.04200 45.55500
H  7.30400 2.98700 44.61200
Mg 47.69600 16.96600 28.76800
C  46.08700 16.33600 31.69100
C  50.08300 18.78300 30.27200
C  49.13100 17.33500 25.67000
C  44.98800 15.42800 27.06000
N  47.99200 17.57700 30.73000
C  47.28900 17.13500 31.83900
C  47.92700 17.64700 33.11000
C  48.99300 18.62200 32.58800
C  49.04800 18.38400 31.10600
C  48.78800 20.19300 33.01300
C  48.51800 16.39900 33.96100
C  48.59600 16.53300 35.49800
H  48.20900 17.92700 36.13400
N  49.37900 17.94900 28.05700
C  50.27500 18.50700 28.87900
C  51.43600 18.95800 28.12200
C  51.09600 18.69100 26.80100
C  49.78600 17.87300 26.78800
C  52.65900 19.70100 28.68600
C  51.91400 19.00700 25.51500
O  51.46200 18.67700 24.42300
C  53.21700 19.66900 25.57200
N  47.16900 16.26900 26.60800
C  47.93300 16.57000 25.52700
C  47.35800 16.05100 24.20800
C  45.94300 15.58400 24.70800
C  45.98700 15.75500 26.19600
C  47.15700 17.17200 23.07300
C  45.69000 14.11000 24.26800
C  44.76400 14.10000 23.03700
N  45.95500 16.00400 29.21500
C  45.00900 15.40900 28.42300
C  43.94100 14.88900 29.27200
C  44.35100 15.09000 30.59400
C  45.56900 15.90900 30.45600
C  42.69000 14.19400 28.86900
C  44.08100 14.97000 31.99900
O  43.14700 14.34100 32.50100
C  45.19100 15.79100 32.76600
C  44.40800 16.79000 33.47400
O  43.67700 17.67500 32.99100
O  44.61200 16.59400 34.87100
C  43.76500 17.53200 35.62200
H  50.87200 19.38000 30.73500
H  49.53300 17.41400 24.65800
H  44.11500 15.08300 26.50000
H  47.14500 18.12900 33.69600
H  49.95400 18.24900 32.94400
H  48.37700 20.76400 32.18100
H  49.76400 20.57500 33.31200
H  48.06000 20.19700 33.82500
H  49.54700 16.24700 33.63400
H  48.10200 15.43400 33.67100
H  49.56100 16.14700 35.82500
H  47.90000 15.83000 35.95700
H  52.89600 20.60600 28.12700
H  53.45900 18.96100 28.70600
H  52.43700 19.93400 29.72800
H  53.28000 20.69100 25.94300
H  53.76400 19.54900 24.63700
H  53.86200 19.01000 26.15500
H  47.89700 15.18800 23.81700
H  45.18000 16.24700 24.29900
H  47.72300 18.09100 23.22400
H  46.12300 17.36700 22.79100
H  47.69600 16.67300 22.26800
H  45.11000 13.56400 25.01200
H  46.59000 13.49600 24.24400
H  44.71200 15.05800 22.52000
H  43.73500 14.06600 23.39400
H  44.88700 13.12800 22.55800
H  42.62900 13.41800 29.63300
H  42.68700 13.80300 27.85200
H  41.82700 14.84500 29.00900
H  45.73100 15.13200 33.44600
H  43.93700 18.54300 35.25300
H  44.11200 17.61800 36.65100
H  42.74400 17.19500 35.79700

