158

Mg 8.67000 5.34500 27.31800
C  9.58100 3.58200 30.07500
C  6.03600 6.87400 29.08500
C  7.45900 6.94300 24.46800
C  10.42200 3.16800 25.23800
N  8.01400 5.32400 29.35200
C  8.55600 4.49400 30.32900
C  7.90700 4.80500 31.77200
C  6.58900 5.53200 31.18900
C  6.89800 5.97000 29.82400
C  5.33300 4.53200 31.09900
C  8.77000 5.75500 32.58500
C  9.08600 5.37200 34.02000
H  10.14400 6.02700 34.85900
N  7.08100 6.83400 26.87100
C  6.14700 7.27900 27.73600
C  5.28000 8.30400 27.10100
C  5.79800 8.53600 25.79200
C  6.80900 7.42000 25.64900
C  4.34700 9.14100 27.90000
C  5.39200 9.50400 24.69800
O  5.97500 9.55900 23.57000
C  4.32200 10.45800 24.97200
N  8.74300 4.97800 25.13100
C  8.26600 5.85300 24.19400
C  8.78900 5.49200 22.71900
C  9.64700 4.19600 23.08400
C  9.65400 4.10400 24.59100
C  7.62000 5.27100 21.63300
C  11.08300 4.15700 22.56500
C  11.44300 2.84500 21.89000
N  9.86000 3.79600 27.51100
C  10.54400 2.96600 26.63100
C  11.31200 1.98400 27.34700
C  11.04100 2.23800 28.70800
C  10.08700 3.31500 28.74800
C  12.20300 0.83200 26.74100
C  11.47400 1.88500 30.01700
O  12.41800 1.17100 30.32600
C  10.51400 2.69300 30.95800
C  9.69300 1.79400 31.75700
O  8.84300 1.02600 31.33800
O  10.08900 2.02500 33.08700
C  9.50600 1.02400 33.99100
H  5.12300 7.05300 29.65700
H  7.16300 7.39000 23.51700
H  11.15900 2.59800 24.66800
H  7.70800 3.89100 32.33000
H  6.37000 6.35400 31.87100
H  4.61900 4.77300 31.88600
H  5.56300 3.46700 31.09700
H  4.72200 4.63800 30.20300
H  8.36100 6.76300 32.52300
H  9.80300 5.82500 32.24500
H  9.30400 4.30800 34.10800
H  8.13900 5.36800 34.56000
H  4.31600 8.83000 28.94400
H  3.37300 9.09600 27.41200
H  4.62700 10.19500 27.87600
H  3.42100 9.92500 25.27400
H  4.31100 11.03800 24.04900
H  4.59500 11.09400 25.81500
H  9.42700 6.33700 22.45800
H  9.03500 3.41400 22.63500
H  6.73000 5.77500 22.00900
H  7.38800 4.20600 21.64300
H  7.80600 5.70000 20.64800
H  11.75100 4.38100 23.39700
H  11.33500 4.99100 21.91000
H  12.13000 3.07200 21.07400
H  10.61800 2.22900 21.53400
H  12.07800 2.25600 22.55200
H  13.26500 1.07400 26.70400
H  11.84100 0.62700 25.73300
H  12.05900 -0.04600 27.37000
H  11.18600 3.27000 31.59300
H  8.45800 0.82100 33.77100
H  9.34900 1.55600 34.92900
H  10.13200 0.14600 34.15500
Mg 44.48600 5.49600 47.79300
C  42.59300 8.52400 47.60300
C  41.65100 3.89300 46.84800
C  46.27700 2.78500 47.50100
C  47.40500 7.46600 47.97900
N  42.32400 6.17900 47.34900
C  41.77600 7.40900 47.39600
C  40.28400 7.41100 47.07600
C  39.98200 5.89800 47.04800
C  41.38100 5.28200 47.06100
C  39.06100 5.38400 48.20900
C  39.76200 8.08300 45.77700
C  38.24800 7.90800 45.39000
H  37.96600 7.06700 44.17000
N  44.02700 3.55000 47.25100
C  42.83200 3.06900 46.92700
C  42.94300 1.61400 46.92500
C  44.30400 1.26500 47.02400
C  44.95900 2.53300 47.25900
C  41.70100 0.69100 46.77900
C  44.97900 -0.09900 46.94500
O  44.24400 -1.02800 46.65900
C  46.44500 -0.48200 47.22100
N  46.59500 5.22200 47.56900
C  46.99600 3.92600 47.62800
C  48.52000 3.85800 47.95700
C  48.92600 5.39900 48.08600
C  47.57200 6.12400 47.82500
C  48.82400 3.02800 49.27900
C  50.14000 5.85800 47.22200
C  51.19700 6.78100 47.96100
N  44.96600 7.54900 47.74800
C  46.17800 8.18900 47.88000
C  45.95600 9.54100 47.99500
C  44.60100 9.72400 47.86500
C  43.99700 8.45500 47.75500
C  47.01200 10.67300 48.31300
C  43.53900 10.69500 47.93800
O  43.69600 11.88900 48.07800
C  42.16700 9.95700 47.65000
C  41.11800 10.27100 48.64300
O  40.99000 9.63200 49.68000
O  40.26200 11.31300 48.35100
C  39.06700 11.44500 49.23800
H  40.74100 3.29500 46.76400
H  46.85200 1.86000 47.57900
H  48.31000 7.94800 48.35700
H  39.70000 7.77800 47.92000
H  39.45500 5.62600 46.13400
H  39.70200 4.88500 48.93500
H  38.39600 4.60300 47.84100
H  38.56100 6.18000 48.76100
H  40.43200 7.85200 44.94800
H  40.00800 9.14200 45.85200
H  37.77600 8.88100 45.25300
H  37.67100 7.52700 46.23300
H  40.80700 1.28100 46.57700
H  41.66200 0.07200 47.67500
H  41.82700 0.07500 45.88800
H  46.99500 -0.13000 46.34700
H  46.48000 -1.57100 47.18900
H  46.81500 -0.11500 48.17800
H  49.01100 3.28800 47.16800
H  49.21400 5.59800 49.11800
H  49.60100 2.26500 49.23900
H  47.90500 2.56500 49.64000
H  49.20000 3.70000 50.05000
H  49.70900 6.33000 46.33900
H  50.64800 4.96300 46.86200
H  51.39100 7.73200 47.46400
H  52.14200 6.25000 48.07500
H  50.81900 6.99100 48.96200
H  46.43300 11.57300 48.52000
H  47.68400 10.69200 47.45500
H  47.55200 10.44400 49.23100
H  41.77800 10.37400 46.72100
H  39.19200 11.97600 50.18200
H  38.78900 10.42500 49.50200
H  38.17300 11.82900 48.74500

