158

Mg 24.19800 -5.12600 46.60300
C  26.42100 -2.92500 45.00900
C  21.74200 -4.10700 44.50100
C  22.49000 -7.69300 47.70500
C  27.11700 -6.41600 48.31400
N  24.12300 -3.66900 44.86500
C  25.13600 -2.88500 44.40500
C  24.60800 -2.00500 43.23600
C  23.06200 -2.36500 43.15500
C  22.92700 -3.40600 44.25500
C  22.09000 -1.08100 43.38600
C  25.34100 -2.24600 41.92000
C  26.10300 -1.05400 41.25600
H  25.87000 -0.92400 39.71400
N  22.34300 -5.83900 46.09300
C  21.45800 -5.28500 45.28400
C  20.17100 -6.03000 45.38400
C  20.35900 -7.11900 46.35300
C  21.76700 -6.91900 46.76300
C  18.94500 -5.62000 44.59500
C  19.31000 -8.15200 46.77300
O  18.15600 -8.10500 46.32100
C  19.60400 -9.28200 47.72800
N  24.78100 -6.91900 47.73500
C  23.82300 -7.80100 48.09700
C  24.48600 -9.01300 48.81400
C  25.91100 -8.46200 49.17800
C  25.95300 -7.16100 48.35300
C  23.68000 -9.69500 49.99800
C  27.11300 -9.39000 48.87500
C  27.60600 -9.54800 47.43500
N  26.33000 -4.75300 46.74700
C  27.34000 -5.32100 47.49400
C  28.54900 -4.59700 47.28000
C  28.28400 -3.56700 46.32300
C  26.91700 -3.79500 45.99200
C  29.76800 -4.92700 48.00200
C  28.77300 -2.40400 45.64900
O  29.84400 -1.80400 45.73800
C  27.57400 -1.98900 44.71700
C  27.16400 -0.56200 44.95200
O  26.54000 -0.14500 45.92400
O  27.50700 0.20200 43.84700
C  27.20200 1.62900 43.80200
H  20.90400 -3.59300 44.02500
H  21.99300 -8.61400 48.01700
H  28.08100 -6.71500 48.72900
H  24.78300 -1.00100 43.62200
H  22.70000 -2.79300 42.22000
H  21.48000 -1.21000 44.28000
H  21.42700 -0.88600 42.54300
H  22.86800 -0.33100 43.52800
H  24.59400 -2.61500 41.21600
H  26.14600 -2.95900 42.09500
H  27.16300 -1.26400 41.40100
H  25.76700 -0.17300 41.80100
H  19.18900 -4.89700 43.81700
H  18.22500 -5.12600 45.24800
H  18.51300 -6.48100 44.08400
H  19.69100 -8.96400 48.76700
H  20.47300 -9.76300 47.27800
H  18.84300 -10.05900 47.65500
H  24.68800 -9.75500 48.04100
H  25.94100 -8.11300 50.21000
H  24.16800 -9.68200 50.97300
H  23.68800 -10.75200 49.73100
H  22.69600 -9.23100 50.05900
H  26.81900 -10.37900 49.22500
H  27.90400 -9.17500 49.59400
H  27.74500 -10.61500 47.26000
H  28.61800 -9.14300 47.43200
H  26.99100 -9.05600 46.68300
H  30.40900 -5.75700 47.70600
H  29.56100 -5.17000 49.04500
H  30.45600 -4.08300 48.03300
H  27.90700 -2.15700 43.69300
H  27.52000 2.11600 44.72400
H  26.16700 1.81400 43.51600
H  27.69100 2.14500 42.97600
Mg 26.86900 50.76800 26.75600
C  24.89400 51.77400 29.57300
C  29.15100 49.69400 28.81000
C  28.94400 50.60400 24.03600
C  24.66800 52.64600 24.79900
N  26.97700 50.83400 28.97800
C  26.09500 51.15400 29.93800
C  26.56400 50.70800 31.33300
C  27.91900 50.00900 30.98100
C  28.01500 50.07700 29.42800
C  29.09700 50.67500 31.68400
C  25.58200 49.67900 32.02500
C  24.83100 50.18200 33.31000
H  24.82200 49.38200 34.58800
N  28.72500 50.10400 26.45700
C  29.51500 49.63900 27.43900
C  30.73400 49.07400 26.85600
C  30.73400 49.41000 25.44800
C  29.45700 50.11000 25.23400
C  31.80300 48.30200 27.60700
C  31.75000 48.98800 24.33400
O  31.60700 49.37200 23.14200
C  32.89500 48.02100 24.69100
N  26.66900 51.29500 24.62500
C  27.66900 51.09200 23.72900
C  27.19000 51.47900 22.28400
C  25.71400 52.09700 22.50200
C  25.68000 52.10300 24.08000
C  28.23900 52.39700 21.55900
C  24.57000 51.22200 22.00600
C  23.33500 51.93400 21.19000
N  25.12700 51.76700 27.04500
C  24.41100 52.49800 26.15900
C  23.26900 53.10700 26.75100
C  23.38200 52.85200 28.11600
C  24.55700 52.05100 28.24900
C  22.27500 54.05100 26.08000
C  22.94900 53.18100 29.46600
O  22.10900 53.95100 29.91200
C  23.80500 52.31200 30.44600
C  24.19900 53.36700 31.46400
O  25.22000 53.94700 31.45300
O  23.22200 53.45700 32.49100
C  23.42100 54.50500 33.57500
H  29.85200 49.14300 29.44000
H  29.56700 50.44700 23.15300
H  23.90900 53.10800 24.16500
H  26.65000 51.67400 31.83200
H  27.92100 48.93000 31.13600
H  29.64200 49.91900 32.24900
H  28.61700 51.30700 32.43100
H  29.76800 51.25000 31.04600
H  26.11700 48.77000 32.30200
H  24.81500 49.49700 31.27300
H  23.80200 50.37400 33.00500
H  25.24800 51.08000 33.76800
H  31.66800 48.16300 28.67900
H  32.73300 48.87100 27.60200
H  31.91000 47.30500 27.18000
H  33.47500 48.47900 25.49200
H  33.48900 47.79700 23.80500
H  32.61700 47.00500 24.97100
H  27.19400 50.54500 21.72300
H  25.54200 53.13100 22.20400
H  29.00900 52.70000 22.26800
H  27.69100 53.24900 21.15600
H  28.68800 51.91800 20.68900
H  24.17500 50.55700 22.77300
H  24.94400 50.55900 21.22500
H  22.44700 51.30300 21.21000
H  23.69800 51.93500 20.16200
H  23.09700 52.95100 21.50200
H  22.66900 55.06100 25.96500
H  21.38200 54.14100 26.69900
H  22.14900 53.58900 25.10100
H  23.19000 51.54900 30.92300
H  24.04400 54.00400 34.31600
H  22.45500 54.84400 33.94900
H  24.00100 55.32800 33.15700

