158

Mg 1.80400 8.20300 26.29200
C  2.36400 10.31800 28.91700
C  2.92200 5.42100 28.41000
C  1.64600 6.15000 23.60700
C  1.63600 10.94800 24.19700
N  2.54400 7.92800 28.36600
C  2.48500 8.91600 29.33000
C  2.65000 8.33200 30.73900
C  3.04100 6.89600 30.51600
C  2.91900 6.75600 29.00000
C  4.35600 6.41700 31.14900
C  1.42600 8.62300 31.66600
C  1.62700 8.68800 33.20000
H  2.86400 7.90600 33.84600
N  2.19100 6.11500 26.00400
C  2.57800 5.15800 27.01900
C  2.63200 3.87800 26.37900
C  2.22200 3.94800 25.01600
C  1.93800 5.40100 24.82300
C  3.15200 2.63900 27.10300
C  2.02000 2.91000 23.99200
O  1.70100 3.14000 22.81500
C  2.17900 1.41800 24.32400
N  1.67100 8.53900 24.22700
C  1.64400 7.54600 23.32500
C  1.66900 8.05600 21.85200
C  1.39800 9.58600 22.12800
C  1.61500 9.72500 23.61500
C  2.98200 7.74600 21.00600
C  -0.00300 10.13700 21.56100
C  0.09400 11.24500 20.55200
N  1.86200 10.18700 26.49300
C  1.86900 11.19600 25.55300
C  1.97400 12.47000 26.14700
C  2.11100 12.18100 27.54800
C  2.16900 10.78900 27.62900
C  2.08900 13.79900 25.52700
C  2.40700 12.71200 28.85300
O  2.58400 13.84800 29.25700
C  2.31300 11.53300 29.77900
C  3.34500 11.60100 30.81900
O  4.57600 11.48700 30.55900
O  2.82000 11.57400 32.09600
C  3.93200 11.47400 33.12500
H  3.15200 4.61200 29.10700
H  1.82500 5.61700 22.67100
H  1.51400 11.71600 23.43000
H  3.46700 8.81300 31.27800
H  2.18600 6.37100 30.94100
H  4.95500 6.03500 30.32200
H  4.18000 5.57100 31.81300
H  4.89400 7.20800 31.67200
H  0.61900 7.92600 31.43700
H  0.90000 9.50100 31.29100
H  0.75600 8.10200 33.49400
H  1.53800 9.67700 33.64900
H  2.29300 2.09500 27.49600
H  3.69500 3.11400 27.92000
H  3.74700 1.97700 26.47500
H  1.52500 1.18000 25.16300
H  3.24000 1.18600 24.41000
H  1.94700 0.82700 23.43800
H  0.87200 7.55400 21.30400
H  2.27600 10.14000 21.79500
H  2.84400 7.29900 20.02100
H  3.61000 7.14600 21.66500
H  3.47200 8.70900 20.86100
H  -0.52900 10.57000 22.41200
H  -0.65600 9.34700 21.18900
H  -0.59500 10.99500 19.74500
H  1.11100 11.51700 20.26800
H  -0.38600 12.13600 20.95600
H  1.99800 13.64200 24.45300
H  3.02000 14.32000 25.74700
H  1.22100 14.34900 25.89300
H  1.35300 11.47400 30.29100
H  4.48100 10.54600 32.96700
H  3.49200 11.47200 34.12200
H  4.58200 12.34900 33.16400
Mg 52.70200 25.09500 45.21600
C  49.71700 26.77100 44.07900
C  51.20600 22.15800 44.02900
C  55.53700 23.58300 45.70800
C  53.75400 27.99200 46.67200
N  50.71200 24.63500 43.95400
C  49.68400 25.40600 43.76700
C  48.41100 24.64400 43.33200
C  48.94300 23.16700 43.49000
C  50.39800 23.33500 43.86300
C  48.05800 22.39300 44.53100
C  47.86400 24.95200 41.87800
C  48.93100 25.41600 40.96300
H  48.50300 25.56900 39.47100
N  53.34900 23.12100 44.84800
C  52.54700 22.07600 44.53300
C  53.46400 20.93500 44.40300
C  54.76300 21.29100 44.85000
C  54.56400 22.68900 45.28400
C  53.08100 19.65000 43.80300
C  55.95700 20.46900 44.66900
O  55.83000 19.24700 44.35300
C  57.38000 20.95200 44.95600
N  54.45800 25.70400 45.96700
C  55.55100 24.95500 45.99900
C  56.74600 25.71700 46.52300
C  56.10400 27.01500 47.03900
C  54.66300 26.95500 46.50700
C  57.50700 24.91700 47.64200
C  56.79600 28.39500 46.62900
C  57.38600 29.25600 47.77900
N  51.91700 27.04900 45.36900
C  52.45800 28.09000 46.08900
C  51.44700 29.20000 46.06900
C  50.36200 28.65100 45.30100
C  50.71500 27.36600 44.81900
C  51.61600 30.56100 46.75200
C  49.06900 29.01000 44.80800
O  48.38700 30.04900 44.90800
C  48.60700 27.80700 43.98400
C  48.33800 28.40500 42.70400
O  49.12300 29.07200 42.05900
O  47.11600 27.97100 42.29100
C  46.60000 28.65200 41.10700
H  50.70400 21.18900 43.97700
H  56.50800 23.16100 45.97500
H  53.98400 28.94200 47.15800
H  47.69300 24.87600 44.11900
H  48.88400 22.76400 42.47900
H  47.91800 22.84300 45.51400
H  48.66100 21.50800 44.73400
H  47.02200 22.23100 44.23300
H  47.02500 25.64800 41.88400
H  47.63700 23.97600 41.45000
H  49.79700 24.76700 41.09500
H  49.34300 26.37300 41.28400
H  52.01100 19.52000 43.96700
H  53.53300 18.83200 44.36400
H  53.29400 19.54200 42.73900
H  57.59700 21.85800 44.39100
H  58.12300 20.20500 44.67600
H  57.56200 21.24000 45.99100
H  57.45400 25.79400 45.69800
H  56.02400 27.06200 48.12500
H  58.43200 24.66100 47.12600
H  57.03400 24.02000 48.04300
H  57.85000 25.52000 48.48300
H  56.32300 29.03000 45.87900
H  57.74800 28.08700 46.19700
H  57.71700 28.61400 48.59500
H  56.60200 29.99100 47.96600
H  58.31900 29.69200 47.42400
H  50.57100 30.82600 46.91000
H  52.06800 31.21200 46.00400
H  52.22900 30.32800 47.62300
H  47.61500 27.50200 44.31900
H  46.26000 29.63000 41.44900
H  45.71600 28.24800 40.61500
H  47.36800 28.71100 40.33600

