158

Mg 48.70500 45.73600 43.21300
C  45.25800 45.16100 42.94800
C  49.20600 42.39200 42.78900
C  52.06900 46.25200 43.11700
C  48.14000 49.09900 43.33100
N  47.37200 44.00600 42.80700
C  45.91300 43.97300 42.85900
C  45.38800 42.50200 42.83400
C  46.74100 41.66900 42.64800
C  47.90000 42.72100 42.79600
C  46.84000 40.41800 43.48900
C  44.29500 42.00700 41.85700
C  44.17600 42.59900 40.43900
H  44.04400 41.78900 39.16100
N  50.40700 44.45100 43.02500
C  50.41500 43.11400 42.81800
C  51.77400 42.55900 42.81800
C  52.64300 43.69100 42.98800
C  51.74300 44.86900 43.04700
C  52.00500 41.07900 42.75900
C  54.14900 43.59700 43.06200
O  54.73400 42.52100 42.89800
C  55.05800 44.81800 43.25400
N  49.92700 47.40000 43.00400
C  51.22300 47.36600 43.08100
C  51.82700 48.76700 43.29200
C  50.58300 49.70500 43.08900
C  49.49700 48.71900 43.22100
C  52.43300 48.92400 44.70600
C  50.59000 50.47600 41.74500
C  50.73500 52.02700 41.85500
N  47.01900 46.98800 42.97400
C  46.98700 48.34300 43.14400
C  45.61000 48.74200 43.21900
C  44.91100 47.52000 43.10300
C  45.82300 46.47700 43.02500
C  44.93100 50.06500 43.37700
C  43.56100 46.93800 42.96000
O  42.49100 47.47800 42.79900
C  43.78200 45.34200 43.04300
C  43.12600 44.78100 44.26400
O  42.28900 43.94400 44.24600
O  43.63900 45.29200 45.42200
C  43.03600 44.92600 46.74600
H  49.33100 41.31000 42.70300
H  53.12600 46.52500 43.13900
H  48.05300 50.17200 43.51300
H  44.90600 42.40200 43.80700
H  46.86900 41.28800 41.63500
H  47.11300 39.62200 42.79700
H  45.85400 40.21700 43.90800
H  47.66200 40.34100 44.20100
H  43.30800 42.13900 42.30000
H  44.48300 40.95800 41.62700
H  45.01800 43.28800 40.37500
H  43.33700 43.29300 40.46300
H  51.84500 40.88700 41.69800
H  51.16700 40.53000 43.18800
H  52.89100 40.65100 43.22700
H  55.05500 45.31600 42.28400
H  56.06100 44.41900 43.40300
H  54.65300 45.52900 43.97500
H  52.62300 48.66000 42.55500
H  50.54700 50.44900 43.88500
H  52.25700 48.09200 45.38700
H  52.01500 49.84400 45.11300
H  53.50000 49.14000 44.76700
H  49.69200 50.31500 41.15000
H  51.44700 50.07500 41.20400
H  50.35300 52.37300 42.81500
H  50.16700 52.51900 41.06400
H  51.78100 52.33100 41.82900
H  44.20000 50.17100 42.57600
H  45.67900 50.85200 43.28100
H  44.48600 50.07900 44.37200
H  43.20000 44.81800 42.28500
H  43.75600 44.46600 47.42300
H  42.23500 44.18800 46.71700
H  42.58100 45.86600 47.06000
Mg -5.28300 24.67800 25.84700
C  -3.71700 26.32900 28.48600
C  -6.72300 22.59300 28.28200
C  -7.02500 23.28800 23.48000
C  -3.50400 26.71500 23.62100
N  -5.23500 24.55700 28.12200
C  -4.60200 25.37600 28.97300
C  -5.12400 25.15600 30.43800
C  -5.83100 23.78100 30.29100
C  -5.93700 23.61200 28.77100
C  -5.01900 22.67900 31.04100
C  -6.05100 26.35600 30.86900
C  -6.02700 26.76200 32.32800
H  -5.61400 25.72500 33.40800
N  -6.72400 23.15500 25.89300
C  -7.19100 22.44500 26.93300
C  -8.25500 21.58500 26.45800
C  -8.29700 21.70600 25.07100
C  -7.36500 22.72600 24.75700
C  -9.10300 20.83100 27.47700
C  -9.22200 21.00800 24.03500
O  -9.31300 21.30000 22.82700
C  -10.18100 20.04000 24.60800
N  -5.20900 24.88500 23.78000
C  -6.10600 24.21100 23.00700
C  -5.87800 24.54700 21.50100
C  -4.80900 25.73700 21.57200
C  -4.51900 25.81300 23.03400
C  -5.18400 23.44100 20.55500
C  -5.25600 27.06900 21.03700
C  -4.37400 27.59300 19.92400
N  -3.88700 26.22100 25.98600
C  -3.27200 26.93200 24.99900
C  -2.45400 27.95500 25.64000
C  -2.52200 27.75700 27.00700
C  -3.41500 26.61800 27.12800
C  -1.67500 29.04600 25.04000
C  -2.06400 28.14900 28.37900
O  -1.33100 29.07000 28.69400
C  -2.76900 27.17900 29.38100
C  -1.81400 26.40300 30.19100
O  -1.00800 25.55000 29.80700
O  -1.99700 26.83900 31.43100
C  -1.30100 26.06600 32.45100
H  -7.05100 21.97300 29.11900
H  -7.64400 22.89200 22.67100
H  -2.84900 27.33600 23.00600
H  -4.26100 25.08900 31.10100
H  -6.83200 23.90300 30.70400
H  -5.08700 21.73800 30.49700
H  -5.53000 22.61300 32.00100
H  -3.99400 23.02300 31.17900
H  -7.07900 26.09200 30.62000
H  -5.78800 27.15300 30.17300
H  -6.99800 27.16100 32.62100
H  -5.30600 27.58000 32.33000
H  -10.15700 21.01400 27.26400
H  -8.95800 21.15200 28.50900
H  -8.94800 19.75400 27.41400
H  -9.71400 19.23400 25.17500
H  -10.74500 19.63800 23.76600
H  -10.84600 20.54900 25.30500
H  -6.81100 24.80800 21.00100
H  -3.82100 25.52700 21.16200
H  -5.88200 23.12200 19.78100
H  -4.85200 22.57200 21.12300
H  -4.28300 23.70800 20.00300
H  -5.49500 27.80500 21.80400
H  -6.15500 26.76700 20.49900
H  -4.91900 28.21100 19.21000
H  -3.98400 26.80500 19.28000
H  -3.52200 28.14700 20.32000
H  -1.40800 28.61400 24.07600
H  -0.85800 29.36300 25.68700
H  -2.26500 29.93300 24.80800
H  -3.37400 27.80600 30.03600
H  -0.73600 25.24700 32.00600
H  -2.15900 25.76500 33.05300
H  -0.70000 26.59300 33.19200

