158

Mg 2.04500 0.12000 44.03500
C  5.54800 0.26600 43.03400
C  1.59000 2.62000 41.61700
C  -1.20100 -0.64800 43.96200
C  2.84500 -2.94100 45.69100
N  3.41800 1.27000 42.42100
C  4.80100 1.25300 42.32200
C  5.24200 2.35600 41.35800
C  4.05000 3.35500 41.31800
C  2.94500 2.28300 41.68800
C  4.05400 4.49400 42.37800
C  5.70700 1.84700 39.93300
C  7.07400 2.33800 39.38000
H  7.06600 2.89600 37.96600
N  0.43200 0.81000 42.90900
C  0.45400 1.87100 42.05300
C  -0.94500 2.24800 41.75800
C  -1.78100 1.37800 42.47700
C  -0.91200 0.44000 43.16900
C  -1.33800 3.45700 40.97300
C  -3.31800 1.40000 42.40600
O  -3.89000 2.34100 41.91000
C  -4.18500 0.34400 43.01300
N  1.02600 -1.73100 44.47900
C  -0.31800 -1.58700 44.59600
C  -0.87400 -2.70000 45.39600
C  0.40100 -3.48900 45.93700
C  1.51200 -2.69100 45.31800
C  -1.96700 -2.35800 46.46400
C  0.45600 -5.03000 45.48600
C  -0.36500 -6.00300 46.33700
N  3.76600 -0.99200 44.42800
C  3.90200 -2.17500 45.16800
C  5.24700 -2.61500 45.17400
C  5.97100 -1.65200 44.39100
C  4.98600 -0.70300 43.95000
C  5.87200 -3.77200 45.90000
C  7.26700 -1.29700 43.84400
O  8.37200 -1.85500 43.97500
C  7.03800 -0.05300 42.92000
C  7.78200 1.12200 43.38000
O  7.80400 1.67400 44.53200
O  8.54800 1.55100 42.30700
C  9.41900 2.66900 42.67500
H  1.36300 3.42300 40.91300
H  -2.26500 -0.74700 44.18700
H  3.11000 -3.68700 46.44300
H  6.08400 2.92200 41.75600
H  3.87400 3.81600 40.34500
H  3.11500 4.56000 42.92700
H  4.26500 5.42000 41.84400
H  4.88500 4.34000 43.06700
H  4.88400 2.02300 39.24000
H  5.65000 0.76100 40.00700
H  7.74300 1.49700 39.19500
H  7.52700 3.03800 40.08100
H  -2.15200 3.12800 40.32600
H  -0.55900 3.77400 40.28100
H  -1.69800 4.34000 41.50100
H  -5.24600 0.54000 42.86200
H  -4.05200 0.47200 44.08700
H  -3.84000 -0.60900 42.61000
H  -1.47000 -3.34000 44.74600
H  0.59900 -3.59500 47.00400
H  -2.83100 -3.00700 46.32200
H  -2.36600 -1.34600 46.39900
H  -1.64900 -2.50300 47.49600
H  1.45800 -5.40800 45.68900
H  0.18600 -5.08700 44.43100
H  -0.73100 -5.43900 47.19500
H  0.14100 -6.85700 46.78700
H  -1.19200 -6.37800 45.73500
H  6.88200 -3.95200 45.53200
H  5.34800 -4.69000 45.63300
H  6.04800 -3.73100 46.97500
H  7.37200 -0.29100 41.91000
H  8.84900 3.58800 42.81500
H  9.98700 2.86300 41.76500
H  9.97900 2.48000 43.59100
Mg 35.57700 0.40500 29.78200
C  33.17500 1.68700 32.02300
C  37.85000 0.34400 32.42100
C  38.01400 -0.01300 27.62300
C  33.35000 1.23800 27.24600
N  35.56100 1.07100 31.99400
C  34.41000 1.42600 32.67500
C  34.63200 1.40400 34.25000
C  36.28600 1.29500 34.25500
C  36.61800 0.84000 32.80500
C  37.10200 2.61000 34.79200
C  33.82600 0.27900 35.01300
C  33.24400 0.60100 36.39300
H  34.05400 1.60100 37.32000
N  37.63100 -0.06400 29.99400
C  38.38800 -0.09900 31.14900
C  39.72700 -0.63600 30.88200
C  39.76400 -0.69600 29.44500
C  38.46100 -0.27100 28.91800
C  40.65000 -0.88100 31.96200
C  40.95600 -0.99700 28.60100
O  40.94700 -0.80700 27.36800
C  42.14900 -1.56800 29.18500
N  35.68500 0.58400 27.66400
C  36.81500 0.46200 27.03200
C  36.63700 0.68900 25.46200
C  35.16200 1.19500 25.51400
C  34.67400 0.91800 26.87500
C  37.69200 1.76000 24.89500
C  34.35500 0.55800 24.35700
C  33.47000 -0.69300 24.67500
N  33.65700 1.13300 29.57300
C  32.87400 1.40400 28.47200
C  31.62600 1.87900 28.86800
C  31.68900 2.00700 30.21200
C  32.95200 1.58400 30.62000
C  30.53900 2.35700 27.96500
C  31.00800 2.45900 31.41800
O  29.88600 3.04500 31.47700
C  31.88600 2.26000 32.60700
C  32.10500 3.49300 33.38600
O  32.71100 4.47800 32.91300
O  31.46400 3.39800 34.58900
C  31.57700 4.61900 35.39500
H  38.49200 0.40300 33.30200
H  38.72500 -0.13900 26.80400
H  32.65200 1.49100 26.44500
H  34.31600 2.40800 34.53700
H  36.58900 0.50600 34.94300
H  38.02400 2.25500 35.25300
H  36.48400 3.03100 35.58600
H  37.33200 3.35800 34.03400
H  34.49700 -0.56600 35.16000
H  32.99800 0.04200 34.34500
H  33.05900 -0.36700 36.85700
H  32.29700 1.09800 36.18200
H  40.88000 -1.91300 32.22800
H  40.38700 -0.42500 32.91600
H  41.56300 -0.36900 31.65800
H  42.93600 -0.95000 29.61700
H  42.52800 -2.24000 28.41500
H  41.86900 -2.28200 29.96000
H  36.78200 -0.34000 25.13400
H  35.14600 2.27900 25.40300
H  37.17800 2.54700 24.34400
H  38.28600 1.23000 24.15000
H  38.30800 2.16600 25.69800
H  35.08000 0.11000 23.67700
H  33.71100 1.29400 23.87700
H  33.70800 -1.16000 25.63100
H  33.61800 -1.42400 23.88000
H  32.42000 -0.40000 24.65100
H  30.61900 3.44200 27.90100
H  29.60100 2.11500 28.46500
H  30.50000 1.85100 27.00000
H  31.44300 1.54200 33.29700
H  31.45700 4.41200 36.45800
H  30.77600 5.25500 35.01800
H  32.55800 5.09200 35.33700

