158

Mg 2.78400 -2.56700 44.80200
C  6.23800 -1.71000 44.51100
C  1.96300 -0.00200 42.72800
C  -0.28600 -3.93300 44.50400
C  3.86600 -5.41400 46.65800
N  4.02900 -1.09500 43.59000
C  5.36300 -0.88200 43.71400
C  5.74700 0.27500 42.83200
C  4.41000 0.91600 42.43000
C  3.36800 -0.03800 43.02300
C  4.11200 2.27700 43.03100
C  6.75700 -0.12500 41.67500
C  7.79500 0.93000 41.39900
H  7.41500 1.77700 40.20700
N  1.03500 -1.98500 43.83200
C  0.90200 -0.86400 43.04000
C  -0.44600 -0.77000 42.52300
C  -1.15300 -1.85700 43.07900
C  -0.16800 -2.66500 43.85000
C  -0.99400 0.31700 41.56900
C  -2.61200 -2.04100 42.96000
O  -3.27400 -1.25200 42.33500
C  -3.38200 -3.09800 43.71000
N  1.80500 -4.45200 45.67200
C  0.56900 -4.79100 45.25800
C  0.25000 -6.22700 45.75000
C  1.64300 -6.71300 46.37400
C  2.50500 -5.52100 46.17300
C  -0.94900 -6.17200 46.74100
C  2.23000 -7.95100 45.59800
C  2.38300 -9.26900 46.38900
N  4.54500 -3.37100 45.47700
C  4.82200 -4.42900 46.29500
C  6.26600 -4.58800 46.54100
C  6.77500 -3.47300 45.95000
C  5.78000 -2.82800 45.25400
C  6.86100 -5.75500 47.24700
C  8.04400 -2.68700 45.78000
O  9.12800 -2.90300 46.22600
C  7.71000 -1.48700 44.86500
C  7.76200 -0.19600 45.64400
O  6.87900 0.07800 46.46100
O  8.74400 0.62100 45.19500
C  8.70000 1.97600 45.73800
H  1.68100 0.92400 42.22200
H  -1.31100 -4.31000 44.47200
H  4.06200 -6.31600 47.24200
H  6.25600 0.95600 43.51400
H  4.29800 0.99700 41.34800
H  3.49500 2.75800 42.27100
H  5.02600 2.74700 43.39300
H  3.56000 2.22100 43.96900
H  6.20800 -0.22100 40.73800
H  7.20900 -1.08300 41.93400
H  8.75100 0.41200 41.32600
H  7.91000 1.60200 42.25000
H  -0.45100 1.26100 41.62200
H  -2.00300 0.62300 41.84300
H  -0.87400 0.00300 40.53200
H  -3.13500 -2.87700 44.74800
H  -3.14900 -4.07900 43.29700
H  -4.44600 -2.87800 43.61400
H  -0.19900 -6.85900 44.98400
H  1.50700 -6.90600 47.43800
H  -1.75600 -6.82400 46.40600
H  -1.35400 -5.16100 46.79200
H  -0.63800 -6.42300 47.75500
H  3.23500 -7.70500 45.25300
H  1.62100 -8.14100 44.71400
H  1.91000 -9.15400 47.36400
H  3.42000 -9.57900 46.51100
H  1.93100 -10.10300 45.85100
H  7.73300 -5.42300 47.81100
H  7.20100 -6.47300 46.50000
H  6.23500 -6.33700 47.92400
H  8.42900 -1.49300 44.04600
H  9.67900 2.16100 46.17800
H  7.93600 2.30500 46.44300
H  8.45200 2.66300 44.92900
Mg 43.86000 3.91200 47.53700
C  41.99300 6.78500 47.09700
C  41.02700 2.05300 47.02200
C  45.95300 1.27900 47.30800
C  46.75300 6.08400 47.49800
N  41.73200 4.36000 47.26200
C  41.20400 5.60700 47.02200
C  39.69300 5.57500 46.66300
C  39.37200 4.10200 47.07600
C  40.75400 3.46400 47.18800
C  38.73500 4.13200 48.47500
C  39.44000 6.01600 45.24600
C  38.30500 6.98800 44.94200
H  37.45800 6.61900 43.68200
N  43.54100 1.96600 47.35400
C  42.32200 1.40600 47.14800
C  42.54100 0.00200 46.86600
C  43.95100 -0.28200 46.89700
C  44.55600 1.02600 47.20600
C  41.46300 -0.96100 46.64600
C  44.56500 -1.63600 46.57100
O  43.86100 -2.58700 46.21300
C  46.12400 -1.88700 46.56100
N  46.08600 3.76400 47.11700
C  46.65300 2.49900 47.32200
C  48.14300 2.58700 47.58800
C  48.42600 4.07200 47.62700
C  47.00100 4.70700 47.40800
C  48.57300 1.80800 48.91200
C  49.39400 4.55900 46.51000
C  50.34100 5.69700 46.85600
N  44.35900 6.05000 47.43100
C  45.53200 6.74600 47.54300
C  45.28700 8.17400 47.49600
C  43.88000 8.26000 47.32300
C  43.34500 6.94700 47.29700
C  46.28100 9.25700 47.51600
C  42.76900 9.16200 47.24100
O  42.67000 10.35100 47.19500
C  41.52100 8.26600 46.97200
C  40.61200 8.65500 48.05700
O  40.67900 8.32600 49.28200
O  39.60700 9.45100 47.52800
C  38.70200 10.03600 48.53000
H  40.16000 1.42700 46.79900
H  46.56200 0.38600 47.46400
H  47.68100 6.64100 47.64700
H  39.18000 6.27100 47.32600
H  38.79000 3.70600 46.24300
H  39.42900 4.42400 49.26200
H  38.17900 3.22700 48.72300
H  37.97700 4.90200 48.61500
H  39.23200 5.09500 44.70100
H  40.36300 6.43100 44.84200
H  38.72900 7.98500 44.81500
H  37.64100 7.07800 45.80200
H  40.57400 -0.68300 47.21200
H  41.64400 -1.98200 46.98200
H  41.13100 -1.00100 45.60800
H  46.57900 -1.88500 47.55100
H  46.67500 -1.23000 45.88700
H  46.31000 -2.90000 46.20300
H  48.72000 2.20200 46.74700
H  48.82200 4.42200 48.58100
H  47.75600 1.91700 49.62600
H  49.46600 2.21900 49.38200
H  48.64400 0.76200 48.61500
H  48.92000 4.97900 45.62400
H  49.99300 3.72500 46.14300
H  50.07800 6.13600 47.81900
H  50.26700 6.46100 46.08200
H  51.36500 5.32700 46.80700
H  47.11000 8.98900 46.86100
H  46.54000 9.50900 48.54500
H  45.63900 10.03300 47.09800
H  41.18000 8.49200 45.96200
H  39.08300 11.04700 48.67500
H  38.49000 9.47900 49.44300
H  37.73100 10.25500 48.08700

