158

Mg 2.06200 -2.26400 43.92300
C  5.41000 -1.57600 43.38500
C  1.14000 0.55200 42.26700
C  -1.25000 -3.29000 43.95400
C  3.04800 -5.39300 45.20800
N  3.22600 -0.75900 42.77400
C  4.58500 -0.59600 42.81000
C  5.05000 0.75700 42.15300
C  3.63800 1.45500 41.96100
C  2.57500 0.38500 42.34200
C  3.35400 2.81900 42.67900
C  5.94500 0.44800 40.89100
C  7.05300 1.51400 40.61900
H  6.79400 2.51200 39.54800
N  0.15000 -1.46600 43.27900
C  0.05500 -0.29400 42.59700
C  -1.32000 0.04400 42.40600
C  -2.06500 -0.90900 43.07500
C  -1.07400 -2.03800 43.33100
C  -1.79300 1.33900 41.75900
C  -3.58000 -0.98400 43.42500
O  -4.32900 -0.16700 42.93700
C  -4.11100 -1.98700 44.37400
N  1.01900 -4.20600 44.35600
C  -0.32000 -4.33100 44.28600
C  -0.76100 -5.70500 44.91800
C  0.63500 -6.33400 45.33400
C  1.65400 -5.26700 44.98700
C  -1.76500 -5.55300 46.18100
C  0.99100 -7.70300 44.83000
C  1.86000 -8.68900 45.66800
N  3.85100 -3.38300 44.22400
C  4.10100 -4.60900 44.77500
C  5.54300 -4.83500 44.78200
C  6.05600 -3.65800 44.30900
C  5.00700 -2.79700 43.94800
C  6.22100 -5.97500 45.37100
C  7.32900 -2.92300 44.10500
O  8.45900 -3.24500 44.35000
C  6.88800 -1.57700 43.46700
C  7.39800 -0.32400 44.22000
O  8.25600 0.41800 43.87000
O  6.72500 -0.02500 45.38000
C  6.96800 1.28800 46.08300
H  0.88500 1.41700 41.65200
H  -2.28800 -3.62500 44.01400
H  3.25300 -6.37800 45.63200
H  5.58700 1.30600 42.92700
H  3.49300 1.60400 40.89200
H  2.45000 2.84100 43.28700
H  3.23500 3.58000 41.90800
H  4.23500 2.97300 43.30200
H  5.25700 0.42500 40.04600
H  6.41200 -0.53200 40.99300
H  7.94200 1.00900 40.24100
H  7.29900 2.01400 41.55600
H  -0.99300 2.03100 41.49700
H  -2.57600 1.83400 42.33300
H  -2.14000 0.92200 40.81300
H  -3.29400 -2.20600 45.06200
H  -4.34700 -2.93100 43.88300
H  -5.06600 -1.66100 44.78700
H  -1.27300 -6.27600 44.14300
H  0.74700 -6.25200 46.41500
H  -1.40700 -5.91700 47.14400
H  -2.73900 -6.02000 46.03400
H  -1.93300 -4.49600 46.39100
H  1.42100 -7.44500 43.86200
H  0.01700 -8.18600 44.76100
H  2.61200 -9.11700 45.00400
H  1.32000 -9.59300 45.94600
H  2.44700 -8.13800 46.40300
H  6.36400 -6.79000 44.66200
H  5.63500 -6.26500 46.24300
H  7.21800 -5.70800 45.72200
H  7.51300 -1.39300 42.59300
H  6.52200 1.45600 47.06400
H  6.57900 2.03400 45.39000
H  8.01700 1.56300 46.18600
Mg 40.45900 9.51000 29.38400
C  42.31100 10.80200 32.07700
C  38.26400 8.16100 31.67600
C  38.92200 8.07600 26.83000
C  43.29700 10.32600 27.36800
N  40.36300 9.45000 31.62900
C  41.10500 10.20200 32.48400
C  40.50600 10.25900 33.93600
C  39.48300 9.08600 33.74100
C  39.28100 8.92700 32.21600
C  39.75900 7.73300 34.39900
C  39.79700 11.62100 34.30400
C  39.60400 11.70300 35.86700
H  40.29000 12.90400 36.61100
N  38.73800 8.43400 29.23600
C  37.94500 8.00300 30.31800
C  36.72400 7.33200 29.76200
C  36.86600 7.47900 28.31500
C  38.23100 8.02000 28.04800
C  35.63900 6.71400 30.63800
C  35.94000 7.15600 27.20100
O  36.09900 7.51500 26.03500
C  34.68800 6.40100 27.55100
N  40.99400 9.23600 27.42500
C  40.24000 8.54300 26.52200
C  40.96000 8.49500 25.16500
C  42.27800 9.18500 25.38000
C  42.15100 9.62800 26.81400
C  41.02700 7.11300 24.38900
C  42.70200 10.22800 24.34600
C  42.24900 11.70800 24.62800
N  42.35800 10.42300 29.59200
C  43.40100 10.68900 28.72100
C  44.48000 11.37400 29.40600
C  44.04100 11.46100 30.72400
C  42.77000 10.81100 30.76000
C  45.81100 11.72000 28.93200
C  44.47800 11.93300 31.97600
O  45.49300 12.50500 32.25400
C  43.35800 11.56900 32.89700
C  43.74400 10.79300 34.11000
O  43.67000 9.55600 34.27200
O  44.12100 11.70500 35.09900
C  44.31900 11.19800 36.45100
H  37.56700 7.68600 32.37000
H  38.49400 7.72500 25.88800
H  44.09200 10.62900 26.68400
H  41.24100 9.98400 34.69200
H  38.49800 9.35000 34.12600
H  39.03700 7.62100 35.20800
H  40.78000 7.72300 34.78000
H  39.63300 6.86400 33.75300
H  38.77700 11.60400 33.92000
H  40.33600 12.53000 34.03500
H  40.01200 10.81500 36.35000
H  38.52200 11.82400 35.91500
H  34.75800 7.33900 30.78600
H  36.00200 6.37000 31.60600
H  35.42400 5.77600 30.12400
H  34.99800 5.36500 27.69100
H  34.00700 6.43400 26.70100
H  34.13800 6.85800 28.37300
H  40.33500 9.11000 24.51800
H  43.04200 8.41300 25.47100
H  41.98600 6.59900 24.32700
H  40.53100 7.09800 23.41800
H  40.29800 6.50900 24.93000
H  42.25600 9.98200 23.38200
H  43.77300 10.23000 24.14500
H  41.66400 11.81800 25.54100
H  41.73300 12.12500 23.76300
H  43.17500 12.26000 24.79100
H  46.05500 11.27200 27.96900
H  46.46000 11.54800 29.79100
H  45.95000 12.80000 28.87800
H  42.72800 12.37000 33.28300
H  45.26500 11.62700 36.78000
H  44.43600 10.11800 36.54100
H  43.47900 11.50500 37.07400

