158

Mg 35.85300 1.06100 29.53400
C  33.70200 2.27000 32.19400
C  38.48700 1.50400 31.70600
C  37.97000 0.39000 27.03000
C  33.24600 1.66400 27.31500
N  36.03500 1.88200 31.75100
C  35.05500 2.18700 32.64900
C  35.64900 2.24700 34.04900
C  37.20500 2.31000 33.79000
C  37.25800 1.90500 32.29600
C  37.87100 3.69200 34.08700
C  35.18300 1.04800 34.97100
C  35.23100 1.32000 36.53000
H  36.29100 2.27400 37.11800
N  37.92500 0.86600 29.40300
C  38.82300 1.02500 30.44100
C  40.08500 0.52300 29.95900
C  39.99000 0.18400 28.56000
C  38.60800 0.57700 28.26300
C  41.23100 0.25500 30.92800
C  41.09100 -0.29300 27.50900
O  40.79100 -0.39300 26.31500
C  42.45400 -0.57200 27.98900
N  35.63400 1.07200 27.59200
C  36.58700 0.57400 26.64500
C  36.01600 0.48100 25.18900
C  34.59400 0.56500 25.47800
C  34.47600 1.23000 26.86200
C  36.61200 1.55500 24.22800
C  33.80700 -0.76200 25.33700
C  32.65500 -0.82500 24.36900
N  33.87100 1.62900 29.71900
C  32.97900 1.94900 28.69500
C  31.68200 2.34900 29.26100
C  31.90000 2.44300 30.62500
C  33.23100 2.04600 30.84900
C  30.40600 2.45400 28.50900
C  31.24500 2.67100 31.88800
O  30.10500 3.04400 32.11300
C  32.42000 2.50400 33.00100
C  32.41800 3.68200 33.89200
O  32.36600 4.85700 33.47600
O  32.47600 3.29300 35.18300
C  32.88800 4.35900 36.08200
H  39.27200 1.41000 32.46000
H  38.53500 0.17300 26.12100
H  32.39000 1.69100 26.63800
H  35.25600 3.20600 34.38600
H  37.60600 1.55900 34.47100
H  37.08900 4.45100 34.05700
H  38.53600 3.83200 33.23500
H  38.32600 3.64000 35.07700
H  35.62100 0.09300 34.67800
H  34.12600 0.86900 34.77800
H  35.19700 0.34200 37.01000
H  34.28500 1.82400 36.72800
H  41.37600 -0.82500 30.95100
H  40.85700 0.39400 31.94200
H  42.08400 0.89300 30.69400
H  42.43700 -1.41000 28.68600
H  42.94700 0.33200 28.34700
H  42.91900 -1.01000 27.10700
H  36.25300 -0.49900 24.77400
H  34.19500 1.27500 24.75500
H  37.61000 1.86300 24.53700
H  35.85700 2.33400 24.12000
H  36.72600 1.04400 23.27200
H  33.40100 -0.95800 26.32900
H  34.44300 -1.63700 25.20700
H  31.74600 -0.70400 24.95800
H  32.71400 -1.76900 23.82600
H  32.58400 -0.01400 23.64400
H  30.42500 1.58100 27.85700
H  30.32300 3.32800 27.86300
H  29.59200 2.48200 29.23400
H  32.14400 1.62500 33.58300
H  32.03000 5.01400 36.23300
H  33.62400 5.02500 35.63100
H  33.39100 3.92300 36.94500
Mg 48.12100 34.93400 27.20900
C  46.24800 33.82100 29.98400
C  48.93800 37.85800 29.18800
C  50.06300 36.00600 24.64700
C  47.00000 32.25500 25.39400
N  47.83200 35.58800 29.35800
C  47.00300 34.93700 30.28600
C  47.13600 35.60700 31.67000
C  47.51400 37.09700 31.19700
C  48.05000 36.91900 29.77800
C  46.44000 38.18700 31.37000
C  48.14400 34.99500 32.65300
C  47.68200 34.74100 34.08500
H  47.76200 35.85600 35.08200
N  49.32100 36.68900 26.91100
C  49.46400 37.69000 27.82400
C  50.35400 38.72100 27.18400
C  50.76200 38.16900 25.93400
C  50.00300 36.90500 25.77700
C  50.73300 40.06800 27.76400
C  51.76300 38.81500 24.83300
O  52.01400 38.16200 23.77500
C  52.36200 40.21400 25.00800
N  48.45900 34.26900 25.28800
C  49.37500 34.80400 24.48700
C  49.75400 33.84800 23.36700
C  48.72300 32.68000 23.54400
C  47.98400 33.08100 24.86600
C  49.78400 34.43800 21.87000
C  49.32400 31.29700 23.55000
C  48.71200 30.35700 22.55900
N  46.82700 33.42600 27.49700
C  46.48200 32.37200 26.66900
C  45.50600 31.41800 27.33100
C  45.43400 31.97800 28.61200
C  46.20300 33.15900 28.66700
C  44.80500 30.15800 26.81000
C  44.85000 31.78700 29.89600
O  44.22200 30.83500 30.32400
C  45.26000 32.98200 30.78500
C  45.74600 32.47900 32.07600
O  46.84200 31.96900 32.38500
O  44.71800 32.46500 32.95000
C  45.12000 32.14000 34.41400
H  49.10000 38.81700 29.68500
H  50.67600 36.28100 23.78600
H  46.71000 31.40300 24.77600
H  46.15000 35.55400 32.13100
H  48.35300 37.57200 31.70500
H  45.51900 37.74600 31.75300
H  46.29300 38.72900 30.43600
H  46.86600 38.80300 32.16200
H  48.86900 35.80300 32.75700
H  48.70500 34.15000 32.25400
H  48.19400 33.89000 34.53500
H  46.63500 34.49000 33.91600
H  51.73000 39.97100 28.19400
H  50.05800 40.22100 28.60700
H  50.65300 40.86900 27.03000
H  51.52100 40.90200 24.93200
H  53.08100 40.45800 24.22500
H  52.81500 40.41700 25.97800
H  50.80300 33.55500 23.39600
H  47.93800 32.75100 22.79100
H  49.59100 35.50100 22.01100
H  48.92600 34.18400 21.24800
H  50.72000 34.30800 21.32800
H  49.19100 30.99900 24.58900
H  50.39800 31.31800 23.36500
H  47.80900 29.81800 22.84300
H  49.36900 29.55100 22.23200
H  48.45200 30.91700 21.66100
H  45.14500 29.34500 27.45100
H  45.06500 29.80100 25.81300
H  43.72800 30.26400 26.93900
H  44.36800 33.56300 31.01900
H  46.11200 32.38400 34.79400
H  45.05200 31.06100 34.55200
H  44.50700 32.62600 35.17400

