158

Mg 35.48100 2.28200 30.17000
C  33.18500 3.09900 32.58900
C  38.01600 2.41400 32.73900
C  37.89200 2.03000 27.86800
C  33.02900 2.71700 27.71300
N  35.56000 2.76000 32.45600
C  34.44900 3.01400 33.14500
C  34.79200 3.11500 34.58600
C  36.37500 3.13700 34.64600
C  36.74500 2.79400 33.20200
C  36.95400 4.50100 35.10100
C  34.18800 1.87000 35.42200
C  34.03500 2.00600 36.98500
H  34.49300 3.32600 37.56100
N  37.59500 1.94900 30.29600
C  38.44900 2.10900 31.39200
C  39.76000 1.67400 31.08000
C  39.81700 1.69600 29.66900
C  38.41700 1.92900 29.20800
C  40.75500 1.35700 32.15200
C  40.93000 1.46000 28.75000
O  40.79300 1.36000 27.54800
C  42.30300 1.32400 29.25500
N  35.49300 2.24300 28.06600
C  36.61500 2.17700 27.37500
C  36.25000 2.22600 25.87100
C  34.72500 2.34100 25.80900
C  34.36800 2.47000 27.27600
C  36.96800 3.43100 25.13900
C  33.96400 1.11000 25.20800
C  33.74600 -0.18700 26.00300
N  33.50300 2.78500 30.09100
C  32.64400 2.85200 29.04700
C  31.32600 3.13900 29.55200
C  31.52000 3.31600 30.91700
C  32.85800 3.04200 31.23400
C  30.12500 3.31300 28.66600
C  30.82900 3.65300 32.13800
O  29.68400 3.91200 32.34600
C  31.83200 3.50400 33.29300
C  31.78900 4.84500 34.07300
O  32.44300 5.82400 33.78800
O  31.00400 4.81700 35.18100
C  31.22700 5.96100 36.12600
H  38.76500 2.52600 33.52500
H  38.62500 1.93600 27.06400
H  32.29300 2.92800 26.93400
H  34.41000 4.08700 34.89900
H  36.87600 2.41700 35.29400
H  36.26400 5.31600 35.32100
H  37.57600 4.81200 34.26200
H  37.53300 4.43100 36.02200
H  34.84900 1.01100 35.31400
H  33.31100 1.44400 34.93400
H  34.54500 1.21000 37.52700
H  32.96600 1.90500 37.17500
H  41.16800 2.32000 32.45100
H  41.62800 0.85000 31.74200
H  40.33600 0.90500 33.05200
H  42.85500 1.10300 28.34200
H  42.40400 0.43300 29.87600
H  42.59600 2.18300 29.85900
H  36.53100 1.27700 25.41500
H  34.28100 3.20300 25.31300
H  36.40500 4.24400 24.68200
H  37.58000 3.04200 24.32400
H  37.63100 3.85900 25.89000
H  34.45500 0.83800 24.27400
H  32.93700 1.33100 24.91700
H  32.71700 -0.54300 26.03200
H  33.97900 0.06900 27.03600
H  34.30300 -1.00200 25.54000
H  30.21500 2.59600 27.85000
H  30.03700 4.35900 28.37300
H  29.20600 2.96000 29.13500
H  31.53500 2.70900 33.97700
H  30.60300 5.71000 36.98300
H  30.86900 6.83500 35.58100
H  32.30400 5.94800 36.29200
Mg -4.46600 25.42300 25.47700
C  -3.26500 26.73700 28.58500
C  -6.53700 23.28500 27.37800
C  -5.79700 24.46000 22.71800
C  -2.29100 27.59200 23.83300
N  -4.79200 25.01900 27.66200
C  -4.23800 25.77800 28.73300
C  -4.85400 25.34500 30.04700
C  -5.70000 24.09100 29.64500
C  -5.61200 24.05100 28.12700
C  -5.40200 22.80900 30.46800
C  -5.72700 26.45400 30.67600
C  -5.52200 26.61400 32.28100
H  -5.21100 25.31200 33.12500
N  -5.88600 23.98800 25.08900
C  -6.68500 23.26500 26.00500
C  -7.63000 22.47500 25.18200
C  -7.40000 22.82100 23.87200
C  -6.36900 23.84700 23.88000
C  -8.56500 21.41900 25.72900
C  -7.94300 22.19400 22.50700
O  -7.61800 22.59000 21.38300
C  -8.83700 21.04400 22.47000
N  -4.02300 25.94200 23.54300
C  -4.69500 25.36100 22.54400
C  -4.24700 25.88400 21.12200
C  -3.13800 26.92700 21.52300
C  -3.14000 26.82700 23.05200
C  -3.61000 24.68100 20.30200
C  -3.23600 28.42800 21.05500
C  -3.31400 28.66300 19.48600
N  -3.05000 26.90400 26.05500
C  -2.18000 27.61900 25.23500
C  -1.41000 28.58300 26.06200
C  -1.80700 28.28300 27.38100
C  -2.74600 27.23300 27.35600
C  -0.41400 29.57900 25.62200
C  -1.65400 28.62600 28.78600
O  -1.01100 29.50200 29.32200
C  -2.57300 27.58500 29.62600
C  -1.69400 26.92500 30.72000
O  -1.13900 25.81800 30.67500
O  -1.62000 27.65200 31.83900
C  -0.78600 27.11100 32.93400
H  -7.22600 22.74900 28.03400
H  -6.21000 24.26600 21.72600
H  -1.71200 28.31800 23.25700
H  -4.06900 25.05500 30.74500
H  -6.75300 24.35800 29.73800
H  -6.18000 22.72300 31.22700
H  -4.42100 22.88900 30.93500
H  -5.36200 21.97500 29.76700
H  -6.76300 26.24900 30.40900
H  -5.36500 27.36200 30.19400
H  -6.41000 27.06100 32.72600
H  -4.67900 27.28500 32.44600
H  -7.97200 20.61900 26.17400
H  -9.41700 21.14200 25.10900
H  -9.02500 22.13100 26.41400
H  -8.84400 20.70500 21.43400
H  -9.84600 21.32800 22.77100
H  -8.46200 20.25900 23.12800
H  -5.06000 26.41600 20.62700
H  -2.12500 26.60300 21.28400
H  -3.70900 23.84200 20.99100
H  -2.56900 24.68700 19.98000
H  -4.29100 24.47100 19.47700
H  -2.42300 29.02500 21.46800
H  -4.09300 28.86200 21.57000
H  -2.60600 29.46400 19.27300
H  -4.31700 29.01400 19.24700
H  -3.05800 27.94300 18.70900
H  0.01100 29.42400 24.63000
H  0.36800 29.62800 26.38000
H  -0.87300 30.56800 25.64400
H  -3.26800 28.24200 30.14900
H  -0.98600 26.09300 33.26900
H  -1.08300 27.84500 33.68300
H  0.25600 27.23700 32.64100

