158

Mg 39.99600 9.82400 29.88300
C  41.87600 11.04700 32.73400
C  37.55200 8.71900 32.06600
C  38.41800 8.49100 27.26200
C  42.72400 10.68600 27.89300
N  39.88800 9.63400 32.20300
C  40.65500 10.40900 33.14400
C  40.02200 10.32100 34.55900
C  38.70800 9.50500 34.26100
C  38.65100 9.31400 32.74100
C  38.58400 8.16800 35.01400
C  39.77000 11.79200 35.15400
C  40.67500 12.19500 36.35800
H  40.12100 12.60300 37.69800
N  38.14800 8.77300 29.66500
C  37.33900 8.43800 30.69300
C  36.21700 7.76900 30.14200
C  36.47100 7.64600 28.78300
C  37.67000 8.36000 28.45600
C  35.11200 7.24000 30.99000
C  35.60800 6.97100 27.69000
O  35.92500 6.78300 26.53100
C  34.32300 6.42200 28.05500
N  40.45800 9.71100 27.81400
C  39.68200 9.03000 26.93300
C  40.23000 9.02800 25.47800
C  41.64600 9.65700 25.74100
C  41.67600 9.99600 27.26800
C  40.40000 7.52500 24.99600
C  41.97500 10.90800 24.87100
C  41.18000 12.18400 25.25400
N  41.95700 10.69400 30.14400
C  42.90200 11.06100 29.20800
C  43.98600 11.74000 29.91400
C  43.60100 11.79800 31.29800
C  42.34100 11.06600 31.38400
C  45.18000 12.38400 29.30700
C  44.01800 12.31000 32.60100
O  45.12100 12.79300 32.91500
C  42.90800 11.78100 33.59500
C  43.63000 10.84100 34.59300
O  43.80700 9.63600 34.50300
O  44.14400 11.61600 35.59600
C  44.56600 10.98200 36.84500
H  36.72400 8.59100 32.76700
H  37.93900 8.06800 26.37700
H  43.71400 10.88900 27.48100
H  40.81500 9.87200 35.15800
H  37.79700 10.09100 34.38000
H  38.51500 7.37400 34.27000
H  37.62300 8.25500 35.52100
H  39.38000 7.98500 35.73500
H  38.73700 11.89000 35.48900
H  39.82500 12.55200 34.37500
H  41.36800 12.97300 36.03800
H  41.24000 11.28400 36.55400
H  34.21200 7.78100 30.69700
H  35.31400 7.23800 32.06100
H  35.07400 6.17600 30.75900
H  34.45900 5.72900 28.88600
H  33.83300 5.97000 27.19200
H  33.65200 7.20100 28.41800
H  39.57100 9.50300 24.75100
H  42.37100 8.86900 25.53700
H  39.98100 6.74800 25.63700
H  41.44900 7.25300 24.88000
H  39.88400 7.27400 24.06900
H  41.88700 10.49800 23.86400
H  43.04900 11.09200 24.85300
H  41.86000 12.97000 25.58400
H  40.50000 11.98500 26.08200
H  40.56200 12.47900 24.40700
H  44.99500 12.74900 28.29800
H  45.94400 11.60800 29.25700
H  45.43600 13.17400 30.01300
H  42.48200 12.65700 34.08400
H  44.21000 11.55600 37.70100
H  45.64300 11.15000 36.86800
H  44.32400 9.92000 36.88200
Mg 43.19900 42.12800 26.25400
C  42.45900 44.71900 28.64700
C  44.69100 40.41500 28.85600
C  44.43600 40.16500 23.92800
C  42.05200 44.46100 23.79300
N  43.52500 42.58000 28.53300
C  42.98000 43.57900 29.25400
C  42.98500 43.22400 30.78900
C  43.85600 41.89500 30.81600
C  44.07400 41.61100 29.29500
C  45.05900 41.88100 31.71800
C  41.51900 43.12100 31.30500
C  41.05800 44.12800 32.46400
H  40.39500 43.57100 33.71900
N  44.32000 40.43200 26.36000
C  44.83500 39.88300 27.55600
C  45.47100 38.60100 27.14100
C  45.32600 38.47300 25.74100
C  44.64100 39.71200 25.24900
C  46.13800 37.69000 28.09200
C  45.82300 37.37000 24.80500
O  45.56700 37.38000 23.61100
C  46.74700 36.40700 25.37800
N  43.15500 42.32700 24.12600
C  43.69300 41.21700 23.42300
C  43.52200 41.46900 21.93000
C  42.57900 42.78300 21.81700
C  42.57300 43.19900 23.34000
C  44.92300 41.55900 21.21900
C  41.14500 42.45200 21.34800
C  40.45500 41.12400 21.95000
N  42.36900 44.11700 26.15700
C  41.98500 44.87700 25.08900
C  41.41600 46.12600 25.53600
C  41.52900 46.06200 26.94500
C  42.16100 44.89600 27.28700
C  40.87900 47.32500 24.77300
C  41.21800 46.82800 28.16700
O  40.61800 47.91400 28.34000
C  41.82000 45.87700 29.30100
C  42.84800 46.70600 30.13700
O  43.99100 46.84800 29.88700
O  42.27500 47.09300 31.31200
C  43.12700 47.56900 32.40700
H  44.99500 39.75300 29.67000
H  44.83300 39.53400 23.13000
H  41.61500 45.05900 22.99100
H  43.60100 43.94300 31.32900
H  43.19500 41.10600 31.17300
H  45.02100 42.51900 32.60000
H  45.98100 42.21900 31.24700
H  45.23300 40.87500 32.10100
H  41.40100 42.10100 31.67000
H  40.74200 43.19100 30.54400
H  40.35100 44.87500 32.10400
H  41.92400 44.68900 32.81500
H  45.78400 37.75800 29.12100
H  47.20300 37.90000 28.18400
H  45.93400 36.64400 27.86100
H  46.13900 35.70100 25.94400
H  47.46300 36.91300 26.02600
H  47.26200 35.85900 24.58900
H  42.92300 40.67300 21.48900
H  42.93400 43.49200 21.06900
H  45.61900 41.83500 22.01100
H  44.96900 42.29900 20.42000
H  45.23300 40.60900 20.78300
H  41.06100 42.48200 20.26200
H  40.60300 43.34400 21.66300
H  39.82800 40.63000 21.20800
H  39.62200 41.42200 22.58700
H  41.07400 40.42000 22.50700
H  39.87900 47.58200 25.12000
H  40.99100 47.10200 23.71100
H  41.39500 48.22700 25.10100
H  41.08400 45.32100 29.88200
H  42.78800 48.55900 32.71200
H  44.16200 47.83900 32.19700
H  43.20700 46.90000 33.26400

