158

Mg 35.95600 1.10800 29.61400
C  33.87100 2.14800 32.36200
C  38.67800 1.15800 31.62800
C  37.69000 0.49000 26.86700
C  33.10800 1.62400 27.57000
N  36.19100 1.33800 31.77400
C  35.19800 1.84600 32.73000
C  35.80400 1.79500 34.15900
C  37.41900 1.68200 33.83300
C  37.43800 1.29900 32.35700
C  38.37900 2.89000 34.18200
C  35.34200 0.66400 35.09800
C  35.10200 0.89500 36.58700
H  35.57200 2.19800 37.27900
N  37.83300 0.80200 29.28400
C  38.81300 0.92300 30.24300
C  40.11500 0.78800 29.58100
C  39.89000 0.43400 28.24900
C  38.38500 0.48900 28.07600
C  41.44300 0.75700 30.23100
C  40.85200 -0.07200 27.21000
O  40.46500 -0.41600 26.07200
C  42.36500 -0.23800 27.44600
N  35.43900 0.90100 27.52100
C  36.35200 0.74100 26.55900
C  35.74200 0.84100 25.14400
C  34.26500 0.84300 25.48000
C  34.24800 1.03400 26.95800
C  36.35600 2.05400 24.29800
C  33.53300 -0.50100 24.97600
C  32.73100 -0.44100 23.65100
N  33.96200 1.76500 29.89800
C  32.95200 1.95600 28.93100
C  31.76200 2.45800 29.57900
C  32.06300 2.51000 30.95200
C  33.39300 2.14800 31.04400
C  30.44200 2.74800 28.81100
C  31.55300 2.91500 32.29000
O  30.54400 3.35200 32.74900
C  32.74300 2.66300 33.23100
C  32.94200 3.96200 33.96000
O  33.25500 5.02300 33.46600
O  32.58500 3.82400 35.26300
C  32.28200 5.14100 35.98600
H  39.57900 1.21900 32.24300
H  38.35400 0.23500 26.03900
H  32.21300 1.65100 26.94500
H  35.52300 2.77900 34.53300
H  37.82900 0.76300 34.25200
H  38.70400 3.42900 33.29200
H  39.34800 2.64800 34.62000
H  37.69600 3.54600 34.72200
H  35.97800 -0.21700 35.01200
H  34.37000 0.40400 34.67900
H  35.44600 0.04400 37.17400
H  34.02400 0.99300 36.71800
H  41.61900 1.46700 31.03900
H  42.19600 1.05600 29.50100
H  41.73900 -0.24800 30.53200
H  42.84900 0.73800 27.41400
H  42.69100 -0.81500 26.58100
H  42.74000 -0.85900 28.26000
H  35.88500 -0.10200 24.61700
H  33.80100 1.71200 25.01200
H  36.63400 2.90700 24.91900
H  35.50700 2.26100 23.64700
H  37.19600 1.63100 23.74800
H  32.79300 -0.81900 25.71100
H  34.25000 -1.31200 24.85000
H  31.69600 -0.71100 23.86000
H  33.12300 -1.23500 23.01600
H  32.81900 0.53600 23.17600
H  30.24600 2.10700 27.95200
H  30.42900 3.80500 28.54600
H  29.74500 2.61300 29.63800
H  32.50200 1.91300 33.98500
H  31.39000 5.64000 35.60800
H  33.10300 5.83900 36.14900
H  31.99900 4.82600 36.99100
Mg -10.94100 16.70200 42.45700
C  -7.57500 17.40700 42.88500
C  -11.33300 20.05700 41.85900
C  -14.14500 16.07300 41.40000
C  -10.25400 13.30400 42.56500
N  -9.54300 18.48600 42.20400
C  -8.27000 18.54400 42.51600
C  -7.66900 19.93200 42.44900
C  -8.95300 20.75600 42.58200
C  -10.02900 19.74100 42.15600
C  -9.23700 21.28500 43.92900
C  -6.96500 20.01400 41.05500
C  -5.46300 20.11500 41.02700
H  -4.63400 19.03500 40.24500
N  -12.50600 17.87500 41.66700
C  -12.47800 19.22300 41.55800
C  -13.77100 19.67400 41.12300
C  -14.61800 18.52800 40.87500
C  -13.78800 17.45200 41.34800
C  -14.00100 21.18100 40.95700
C  -16.11200 18.54200 40.34000
O  -16.60700 19.63800 39.98800
C  -16.88400 17.28300 40.19200
N  -12.07100 14.95500 42.09600
C  -13.37300 14.92900 41.73200
C  -13.89200 13.48000 41.55000
C  -12.59200 12.65400 41.79200
C  -11.52300 13.72900 42.15200
C  -15.22600 12.99000 42.34800
C  -12.17100 11.63300 40.73000
C  -11.98200 10.11600 41.19300
N  -9.25500 15.53600 42.73700
C  -9.14100 14.17400 42.74300
C  -7.80100 13.86700 43.04000
C  -7.12500 15.05500 43.14700
C  -8.05300 16.05700 42.87500
C  -7.22000 12.49900 43.31500
C  -5.84500 15.67500 43.31800
O  -4.72200 15.17600 43.37600
C  -6.08200 17.29700 43.25600
C  -5.73100 17.70200 44.64800
O  -6.44500 17.65200 45.64900
O  -4.42000 18.06800 44.65200
C  -4.16100 18.90700 45.86000
H  -11.37900 21.14600 41.79200
H  -15.11000 15.66900 41.08800
H  -10.18800 12.22400 42.71100
H  -6.99400 19.95700 43.30400
H  -8.93800 21.52100 41.80600
H  -8.27600 21.41700 44.42600
H  -9.71100 20.54700 44.57600
H  -9.89200 22.15600 43.91000
H  -7.28500 20.97900 40.66300
H  -7.21200 19.25000 40.31700
H  -5.03700 20.22800 42.02400
H  -5.33300 21.07100 40.52000
H  -13.74700 21.53500 39.95800
H  -13.35200 21.71200 41.65400
H  -15.05300 21.33100 41.19700
H  -17.83700 17.41500 39.68100
H  -17.09800 17.04700 41.23400
H  -16.25800 16.57300 39.65100
H  -14.18800 13.31000 40.51500
H  -12.84200 12.12400 42.71000
H  -15.29200 13.64800 43.21500
H  -15.25400 12.01500 42.83600
H  -16.01100 13.18300 41.61700
H  -11.26500 11.99200 40.24300
H  -12.87700 11.57100 39.90200
H  -12.56300 9.42200 40.58600
H  -12.25200 10.14800 42.24900
H  -10.95900 9.74000 41.20200
H  -6.15900 12.60200 43.54200
H  -7.25700 11.95200 42.37300
H  -7.81600 11.92600 44.02500
H  -5.43000 17.83600 42.56800
H  -3.93200 19.92300 45.53700
H  -3.22100 18.53900 46.27100
H  -4.85400 19.00200 46.69500

