158

Mg 16.44400 -1.76300 27.32600
C  15.29100 0.43800 29.80700
C  18.43400 -3.23300 29.58000
C  17.73900 -3.49500 24.81100
C  14.82400 0.34800 25.03600
N  16.67000 -1.47400 29.41800
C  16.13000 -0.53600 30.27500
C  16.58100 -0.79900 31.68400
C  17.75400 -1.89400 31.49700
C  17.62600 -2.25800 30.07900
C  19.09200 -1.38900 31.98200
C  15.49300 -1.14200 32.71800
C  15.36600 -0.40500 34.07100
H  16.65100 -0.08700 34.86500
N  17.77800 -3.28400 27.26400
C  18.51500 -3.79200 28.25300
C  19.38700 -4.82500 27.76100
C  19.13400 -4.96000 26.36900
C  18.17700 -3.91000 26.07500
C  20.33100 -5.67500 28.62200
C  19.65300 -5.99700 25.38500
O  19.27400 -6.08700 24.25700
C  20.66600 -7.10400 25.77900
N  16.15900 -1.71900 25.17800
C  16.81800 -2.48700 24.37100
C  16.56000 -2.18000 22.90100
C  15.56700 -0.97200 23.00900
C  15.51600 -0.74700 24.54700
C  17.84100 -1.81000 22.05100
C  14.06700 -1.21200 22.46000
C  13.63400 -0.42100 21.24800
N  15.18500 -0.06700 27.33200
C  14.58900 0.70900 26.37200
C  13.81800 1.78800 26.90800
C  14.00900 1.70700 28.33000
C  14.93700 0.65900 28.47000
C  12.96400 2.77300 26.11600
C  13.70100 2.31600 29.56200
O  13.00000 3.27500 29.81000
C  14.50700 1.48700 30.67100
C  15.47300 2.37100 31.29100
O  16.59300 2.64500 30.89800
O  15.00500 2.77100 32.54000
C  15.76800 3.69200 33.39500
H  19.18600 -3.71800 30.20700
H  18.25500 -3.94700 23.96100
H  14.27400 0.98700 24.34200
H  17.02800 0.14200 32.00300
H  17.47000 -2.75600 32.10200
H  19.09200 -0.38800 32.41200
H  19.76400 -1.49400 31.13000
H  19.50100 -2.08900 32.71000
H  15.69300 -2.17900 32.98600
H  14.49700 -0.99300 32.30200
H  14.85400 -1.11200 34.72300
H  14.75900 0.48000 33.88500
H  21.37100 -5.51700 28.33700
H  20.00600 -6.68900 28.39000
H  20.16800 -5.50300 29.68500
H  20.24700 -7.70000 26.59000
H  21.58800 -6.60500 26.07800
H  21.07100 -7.67500 24.94400
H  16.07100 -3.05000 22.46300
H  16.03300 -0.05000 22.66300
H  18.14700 -2.69700 21.49700
H  18.48300 -1.40700 22.83400
H  17.64000 -0.98100 21.37100
H  13.41800 -1.04600 23.32000
H  14.09800 -2.26600 22.18200
H  13.09100 -1.13100 20.62500
H  14.36600 -0.01000 20.55300
H  12.98400 0.33100 21.69500
H  12.52600 2.37600 25.20100
H  13.29600 3.80700 26.02400
H  12.12500 2.91400 26.79800
H  13.90200 1.05500 31.46800
H  15.80800 4.70500 32.99400
H  16.73400 3.26500 33.66300
H  15.22100 3.86000 34.32300
Mg 46.64800 16.58600 28.34100
C  45.22700 16.03200 31.50000
C  49.11100 18.56700 29.89400
C  47.77400 17.48900 25.35000
C  44.05000 14.95200 26.90700
N  47.07900 17.26000 30.50700
C  46.37800 16.86400 31.63200
C  47.17500 17.39300 32.87000
C  48.28400 18.26800 32.37700
C  48.12600 18.06100 30.81100
C  48.20100 19.74000 32.77800
C  47.65500 16.19000 33.83100
C  47.61400 16.27700 35.36800
H  47.71500 17.69500 35.95800
N  48.36700 17.69100 27.73400
C  49.23800 18.35800 28.48700
C  50.20800 18.95400 27.62500
C  49.81000 18.77100 26.28800
C  48.61700 17.90100 26.37900
C  51.52400 19.63500 28.09200
C  50.49000 19.33600 25.01900
O  49.99200 19.13900 23.89800
C  51.79400 20.10000 25.01400
N  45.81900 16.44200 26.41800
C  46.59000 16.82500 25.31700
C  45.97300 16.40700 23.96600
C  44.84500 15.41300 24.48600
C  44.89700 15.54900 26.00900
C  45.41000 17.66300 23.16000
C  44.94400 13.94000 23.90400
C  45.70200 12.90800 24.78100
N  44.91600 15.79500 28.99500
C  43.95700 15.05600 28.31500
C  42.99700 14.50900 29.22100
C  43.45800 14.85100 30.50400
C  44.67600 15.64500 30.27900
C  41.73800 13.70500 28.79400
C  43.17300 14.78900 31.89900
O  42.22500 14.26400 32.47400
C  44.30400 15.56800 32.62000
C  43.59600 16.70600 33.28800
O  43.23300 17.69600 32.74900
O  43.52300 16.43700 34.64600
C  42.95300 17.50500 35.37600
H  49.80500 19.21700 30.43100
H  47.93300 17.86900 24.33900
H  43.39800 14.29100 26.33300
H  46.39300 17.91500 33.42100
H  49.29500 17.95500 32.64100
H  47.23300 19.81900 33.27400
H  48.09100 20.44400 31.95300
H  49.10300 19.88600 33.37100
H  48.73700 16.15700 33.70300
H  47.17900 15.27200 33.49000
H  48.34700 15.65800 35.88500
H  46.61100 15.87800 35.52000
H  52.46200 19.13000 27.86300
H  51.46400 19.58500 29.17900
H  51.64900 20.61800 27.63700
H  51.59600 21.12400 25.32800
H  52.10700 20.25800 23.98200
H  52.45200 19.49200 25.63500
H  46.70000 15.88000 23.34800
H  43.85200 15.75700 24.19700
H  44.34400 17.69300 22.93700
H  45.92400 17.86900 22.22000
H  45.77100 18.56800 23.64800
H  45.46200 14.08800 22.95700
H  43.98800 13.45000 23.71700
H  45.85200 12.00400 24.19100
H  45.02800 12.55600 25.56200
H  46.65200 13.21900 25.21500
H  41.79700 12.62800 28.95200
H  41.57900 13.79900 27.72000
H  40.95300 13.99700 29.49200
H  44.84400 14.95600 33.34300
H  43.70500 18.29400 35.37100
H  42.75600 17.30300 36.42900
H  41.99100 17.85200 34.99800

