158

Mg 35.29900 48.48900 24.80200
C  35.53100 46.86400 27.88700
C  33.57700 50.95100 26.33500
C  34.82800 49.82000 21.78300
C  36.34500 45.52300 23.19800
N  34.54700 48.83000 26.89600
C  34.96400 48.11500 28.00500
C  34.71600 48.94900 29.34200
C  33.92000 50.13800 28.83400
C  33.95600 49.98700 27.26000
C  32.48000 50.06600 29.32400
C  35.98400 49.38600 30.05400
C  36.02400 49.66600 31.55000
H  34.72600 49.47800 32.39700
N  34.43000 50.24300 24.13900
C  33.80000 51.11400 24.93300
C  33.35200 52.22000 24.11300
C  33.61200 51.84700 22.76400
C  34.38200 50.62500 22.84500
C  32.63800 53.46900 24.66200
C  33.03000 52.41600 21.45100
O  33.23200 51.85200 20.36700
C  32.25600 53.73700 21.47100
N  35.46700 47.70600 22.85000
C  35.28300 48.50800 21.74100
C  35.70200 47.85100 20.41800
C  36.57600 46.65400 20.98800
C  36.07900 46.55400 22.44000
C  34.56300 47.31500 19.54100
C  38.15700 46.78800 20.82200
C  38.76500 46.53100 19.42700
N  35.80400 46.51900 25.41100
C  36.27600 45.46200 24.68900
C  36.61500 44.41600 25.58700
C  36.38500 44.92100 26.85200
C  35.81600 46.17100 26.71800
C  37.12800 43.07400 25.23800
C  36.49700 44.59100 28.28600
O  36.85700 43.57500 28.80500
C  35.92100 45.93200 29.00400
C  34.70500 45.40500 29.81300
O  33.74800 44.88300 29.28800
O  34.89400 45.54500 31.21300
C  34.04100 44.96500 32.13500
H  32.89400 51.72300 26.69600
H  34.83600 50.37000 20.83900
H  36.83500 44.67900 22.70900
H  34.16400 48.50400 30.16900
H  34.36300 51.09300 29.11500
H  32.34200 50.69400 30.20400
H  32.09300 49.11800 29.69900
H  31.81400 50.43200 28.54300
H  36.41600 50.19000 29.45800
H  36.58800 48.49400 29.88200
H  36.32600 50.70900 31.64300
H  36.73500 48.92800 31.92200
H  31.55400 53.35300 24.63300
H  32.98100 54.39400 24.19700
H  32.93700 53.59000 25.70300
H  32.90500 54.53400 21.83700
H  31.33100 53.78200 22.04600
H  32.16800 54.01300 20.42000
H  36.30900 48.60700 19.91900
H  36.17400 45.79400 20.45100
H  34.44400 47.96700 18.67500
H  33.59800 47.46800 20.02500
H  34.73700 46.30700 19.16300
H  38.50100 45.93000 21.40000
H  38.55100 47.67400 21.31900
H  37.99300 46.40600 18.66700
H  39.38300 45.63300 19.44300
H  39.49000 47.32200 19.23500
H  37.94200 42.91200 25.94400
H  37.50600 42.96500 24.22100
H  36.43100 42.27600 25.49300
H  36.71900 46.30100 29.64900
H  33.17500 44.49600 31.66800
H  33.70000 45.77500 32.78000
H  34.56500 44.25300 32.77200
Mg -12.05000 38.90100 41.68200
C  -9.75900 36.50000 40.89900
C  -10.18000 41.20500 39.85200
C  -14.55900 41.19300 41.83700
C  -14.16500 36.46200 43.04300
N  -10.23300 38.83600 40.49100
C  -9.43400 37.76900 40.37000
C  -8.17900 38.04500 39.55000
C  -8.32200 39.55900 39.16100
C  -9.58100 39.91400 39.96300
C  -7.07400 40.50800 39.43600
C  -8.02300 37.15600 38.19700
C  -6.79300 36.23900 38.15300
H  -5.72400 36.49900 37.01900
N  -12.32300 40.96400 41.00500
C  -11.35900 41.69800 40.40400
C  -11.83700 43.03600 40.24500
C  -13.12900 43.10300 40.74100
C  -13.38900 41.76000 41.23700
C  -11.07000 44.07500 39.47500
C  -14.03000 44.36200 40.81600
O  -13.65200 45.35100 40.22300
C  -15.42600 44.37700 41.48500
N  -14.12200 38.74900 42.04500
C  -14.91200 39.83600 42.12300
C  -16.35000 39.48300 42.56100
C  -16.23300 37.95100 42.91100
C  -14.73400 37.69500 42.71200
C  -16.81200 40.31300 43.83100
C  -17.07900 36.93200 42.02800
C  -18.34400 37.52000 41.25100
N  -11.94500 36.86200 42.03100
C  -12.83500 36.03900 42.68200
C  -12.13600 34.76000 42.99600
C  -10.91000 34.89900 42.24200
C  -10.95500 36.17800 41.68500
C  -12.61800 33.58100 43.79700
C  -9.73000 34.23300 41.94600
O  -9.35900 33.10400 42.27400
C  -8.88600 35.24200 41.09300
C  -7.54100 35.39800 41.69400
O  -6.53800 34.67400 41.37500
O  -7.62300 36.46700 42.56500
C  -6.38100 36.92600 43.20200
H  -9.55400 41.79500 39.17900
H  -15.31100 41.95800 42.03800
H  -14.72500 35.71200 43.60600
H  -7.30800 37.96800 40.20100
H  -8.48600 39.68100 38.09100
H  -6.75000 41.04100 38.54200
H  -6.22500 39.93800 39.81500
H  -7.35600 41.29400 40.13600
H  -7.93100 37.76800 37.30100
H  -8.84400 36.45000 38.07000
H  -7.06600 35.18400 38.18100
H  -6.28600 36.35100 39.11100
H  -11.80000 44.67900 38.93500
H  -10.24600 43.78800 38.82200
H  -10.69900 44.77700 40.22200
H  -15.43700 43.87500 42.45300
H  -16.09100 43.92000 40.75200
H  -15.79300 45.38700 41.66600
H  -17.10800 39.71400 41.81300
H  -16.47700 37.64300 43.92800
H  -17.17000 39.61000 44.58400
H  -17.72700 40.80100 43.49500
H  -16.04400 40.92400 44.30300
H  -17.38700 36.15600 42.72900
H  -16.36700 36.44900 41.36000
H  -18.84300 38.35400 41.74400
H  -19.04000 36.69000 41.13000
H  -17.99200 37.76000 40.24800
H  -11.74600 33.13900 44.27800
H  -13.17000 32.92700 43.12200
H  -13.14600 34.08200 44.60800
H  -8.65000 34.75600 40.14600
H  -5.68000 36.11500 43.39800
H  -6.72500 37.47900 44.07600
H  -5.77900 37.55200 42.54200

