158

Mg 25.66200 0.96500 29.82500
C  27.72500 0.96700 32.63300
C  22.91900 1.49100 31.95900
C  23.64600 1.02500 27.12200
C  28.36300 0.38400 27.69500
N  25.41600 1.24100 32.15000
C  26.40300 1.24100 33.04300
C  25.87700 1.48400 34.42600
C  24.32600 1.59100 34.15100
C  24.19900 1.38300 32.66000
C  23.49700 0.51300 34.92800
C  26.46300 2.73100 35.13400
C  26.61900 2.47900 36.62600
H  26.16700 3.66800 37.53600
N  23.58900 1.05600 29.61400
C  22.62500 1.21100 30.57900
C  21.35900 1.28300 29.96100
C  21.55300 1.19200 28.54200
C  23.02300 1.06900 28.37200
C  20.02600 1.49800 30.65900
C  20.45300 1.14900 27.40200
O  20.76200 1.13200 26.18900
C  18.99500 1.19700 27.64800
N  25.91400 0.69000 27.68000
C  24.97000 1.01400 26.78300
C  25.55900 1.08700 25.40700
C  27.08200 0.86300 25.60400
C  27.08900 0.60800 27.06700
C  24.91600 0.21100 24.23200
C  27.99000 2.01100 25.10200
C  29.38400 1.61200 24.59500
N  27.58500 0.61400 30.01100
C  28.57600 0.33100 29.10800
C  29.79400 0.24100 29.80300
C  29.50300 0.40300 31.17600
C  28.14600 0.64500 31.29600
C  31.09400 0.00900 29.09200
C  30.03200 0.39600 32.44900
O  31.18500 0.31000 32.78100
C  28.93500 0.80000 33.50000
C  28.88100 -0.23800 34.43700
O  28.52500 -1.38300 34.23300
O  29.37700 0.19000 35.66500
C  29.32700 -0.59500 36.84800
H  22.03800 1.66400 32.58100
H  23.13100 1.33000 26.20900
H  29.14500 0.23800 26.94700
H  26.05600 0.61100 35.05400
H  23.97400 2.59700 34.38200
H  23.77200 0.51600 35.98300
H  23.68000 -0.46700 34.48700
H  22.41900 0.67200 34.95400
H  25.75500 3.54100 34.95800
H  27.36900 3.10200 34.65600
H  27.65400 2.24800 36.87600
H  26.01600 1.61900 36.91900
H  19.48800 2.35800 30.25900
H  20.13800 1.68300 31.72700
H  19.33400 0.66300 30.55500
H  18.62200 0.42800 28.32300
H  18.35200 1.10000 26.77300
H  18.78400 2.15400 28.12400
H  25.46400 2.15500 25.20900
H  27.25800 -0.12400 25.17700
H  25.71500 -0.36200 23.76100
H  24.53200 0.89800 23.47900
H  24.22900 -0.54400 24.61600
H  28.25300 2.80000 25.80600
H  27.42600 2.56000 24.34800
H  30.07300 2.22800 25.17300
H  29.35400 1.91200 23.54800
H  29.58200 0.54200 24.66200
H  31.15900 -0.93600 28.55300
H  31.89900 0.15600 29.81200
H  31.19500 0.76800 28.31500
H  29.29200 1.71800 33.96500
H  28.62100 -0.19700 37.57700
H  30.25400 -0.44800 37.40200
H  29.23300 -1.65700 36.61900
Mg 35.24700 2.53500 29.63300
C  32.94300 3.59000 32.10500
C  37.55800 2.42900 32.14000
C  37.52000 2.38400 27.26700
C  32.62900 2.62600 27.27100
N  35.24000 3.03800 31.90000
C  34.18800 3.35600 32.70400
C  34.61100 3.31800 34.24100
C  36.17700 3.07200 34.13700
C  36.31200 2.77000 32.63500
C  37.19500 4.24500 34.65100
C  33.84700 2.16300 34.96900
C  33.71400 2.38800 36.39300
H  34.51000 3.60500 37.00700
N  37.20900 2.28100 29.66600
C  38.04500 2.27500 30.81900
C  39.45500 2.03900 30.37400
C  39.37100 2.06300 28.96200
C  37.99300 2.23300 28.56900
C  40.65200 1.71900 31.30200
C  40.52600 1.84300 28.02800
O  40.39400 1.78600 26.81300
C  42.00200 1.84700 28.52900
N  35.06000 2.32700 27.55200
C  36.15300 2.25700 26.80000
C  35.69800 2.29100 25.31800
C  34.16500 1.91200 25.40700
C  33.92900 2.29300 26.82100
C  35.91400 3.71700 24.61100
C  33.85600 0.44900 25.03800
C  32.66800 -0.22000 25.73900
N  33.24600 2.97300 29.59300
C  32.31500 3.01500 28.59600
C  31.01900 3.52000 29.15800
C  31.24500 3.72600 30.48900
C  32.59600 3.34800 30.77700
C  29.72000 3.67600 28.43000
C  30.62100 4.13300 31.81700
O  29.47500 4.51800 32.09200
C  31.66100 3.98100 32.88600
C  31.85600 5.21700 33.65600
O  32.33000 6.24400 33.28000
O  31.24700 5.07100 34.88200
C  31.34100 6.20300 35.81400
H  38.31000 2.42600 32.93200
H  38.25700 2.31600 26.46400
H  31.71800 2.64200 26.67000
H  34.38400 4.32900 34.58100
H  36.50200 2.24600 34.76900
H  37.40400 4.78800 33.73000
H  38.14100 3.79700 34.95500
H  36.78400 4.87900 35.43600
H  34.40700 1.23000 34.91000
H  32.89200 1.96800 34.48000
H  34.06700 1.49200 36.90300
H  32.65700 2.49000 36.63800
H  40.43100 1.71000 32.37000
H  41.41700 2.45800 31.06400
H  41.11500 0.78300 30.99000
H  42.33500 2.71400 29.09900
H  42.67400 1.99400 27.68300
H  42.28900 0.89700 28.97900
H  36.17800 1.47400 24.77800
H  33.61100 2.64900 24.82600
H  36.40100 3.56900 23.64700
H  36.63600 4.34500 25.13200
H  34.98800 4.29000 24.55900
H  34.73100 -0.10800 25.37400
H  33.65400 0.41800 23.96800
H  32.07400 0.60300 26.13600
H  33.04500 -0.99000 26.41100
H  32.05000 -0.81100 25.06300
H  29.78300 3.57200 27.34700
H  29.38700 4.70200 28.58600
H  28.93200 3.01900 28.79700
H  31.34200 3.20900 33.58600
H  32.38000 6.53300 35.83900
H  31.01500 6.02400 36.83800
H  30.86100 7.09500 35.41100

