158

Mg 6.61300 55.42600 42.25900
C  6.36800 52.00200 41.71200
C  9.95200 55.25900 41.03200
C  6.68700 58.79900 41.94000
C  3.16500 55.49900 43.09400
N  7.89100 53.83700 41.33200
C  7.60000 52.51500 41.22600
C  8.77600 51.65900 40.78000
C  9.95000 52.64300 41.07400
C  9.25200 54.02700 41.19700
C  10.77300 52.20200 42.33400
C  8.76000 51.26300 39.21900
C  9.87300 50.28200 38.72600
H  10.40400 50.36700 37.28400
N  8.03500 56.89500 41.43800
C  9.36300 56.58200 41.12400
C  9.96100 57.73700 40.60200
C  9.13600 58.86600 40.83700
C  7.87700 58.21700 41.51300
C  11.35100 57.90600 39.78700
C  9.39900 60.35200 40.60300
O  10.52500 60.79300 40.27600
C  8.25900 61.36200 40.68000
N  5.12600 56.89900 42.39500
C  5.43700 58.23700 42.39600
C  4.27200 59.10300 42.79800
C  3.26200 58.03100 43.20700
C  3.84200 56.70800 42.81700
C  4.58000 60.16100 43.86600
C  1.89100 58.09600 42.45800
C  0.64800 58.14600 43.33800
N  5.14600 54.00900 42.70700
C  3.80800 54.18500 43.00000
C  3.28900 52.87200 43.35700
C  4.21500 51.96300 42.77500
C  5.27800 52.74100 42.31500
C  2.02100 52.61700 44.17400
C  4.49500 50.52800 42.45100
O  3.79100 49.50800 42.51300
C  6.00500 50.49700 41.80200
C  5.81200 49.85700 40.43500
O  5.24200 50.36100 39.46200
O  6.50900 48.68900 40.37100
C  6.41800 48.05600 39.04000
H  10.97700 55.30900 40.66000
H  6.54800 59.87300 41.79500
H  2.18200 55.51200 43.57000
H  8.86700 50.72100 41.32700
H  10.69000 52.71600 40.27800
H  11.01500 53.09600 42.90900
H  11.63400 51.56700 42.12400
H  10.18000 51.53100 42.95600
H  8.74100 52.18300 38.63500
H  7.82600 50.74300 39.00300
H  9.35000 49.32700 38.67500
H  10.60500 50.18600 39.52700
H  11.23300 58.61600 38.96900
H  11.82900 56.99800 39.42000
H  12.17700 58.38300 40.31600
H  7.96600 61.54500 41.71400
H  7.54900 60.86500 40.01900
H  8.48900 62.29100 40.15700
H  3.90400 59.67400 41.94600
H  3.08200 58.00400 44.28200
H  3.97100 60.01300 44.75800
H  4.60500 61.19100 43.51000
H  5.63900 60.08800 44.11300
H  1.77900 57.23700 41.79600
H  1.83200 58.99900 41.85000
H  0.04900 59.05600 43.31400
H  0.87000 57.97300 44.39100
H  0.03300 57.31200 43.00000
H  1.44100 51.84100 43.67500
H  1.45300 53.52900 44.36000
H  2.25000 52.19100 45.15100
H  6.45000 49.80000 42.51300
H  6.13600 47.04300 39.32700
H  7.39400 48.13900 38.56300
H  5.59600 48.41500 38.42000
Mg 16.17500 52.27200 26.16100
C  18.47100 51.71300 28.66800
C  13.74100 52.06900 28.58200
C  13.84800 52.73300 23.74800
C  18.66700 51.69500 23.74400
N  16.16100 52.11700 28.42800
C  17.24500 52.00500 29.20600
C  16.87900 52.22300 30.64800
C  15.32400 52.02600 30.66600
C  14.99300 52.05600 29.15800
C  14.81400 50.81700 31.52400
C  17.54500 53.55600 31.18100
C  17.96300 53.54700 32.63300
H  17.21400 52.67900 33.69600
N  14.02800 52.29500 26.13100
C  13.22400 52.17700 27.22300
C  11.84800 52.14200 26.75500
C  11.88800 52.36800 25.33000
C  13.32200 52.47600 25.02800
C  10.69100 51.83000 27.67000
C  10.75900 52.43000 24.28000
O  11.01600 52.79300 23.18500
C  9.35700 52.11800 24.68000
N  16.18000 52.24300 24.06300
C  15.16500 52.65600 23.33300
C  15.63600 52.95300 21.86500
C  17.16700 52.61700 21.83200
C  17.33700 52.12000 23.26500
C  14.76000 52.33500 20.74000
C  18.02300 53.83300 21.44100
C  18.97100 53.57200 20.25300
N  18.13800 51.80400 26.12200
C  19.00600 51.55900 25.11700
C  20.30800 51.14400 25.63500
C  20.15100 51.23600 27.02200
C  18.78700 51.60200 27.25200
C  21.54000 50.80200 24.90100
C  20.78700 51.14000 28.29100
O  21.92600 50.79800 28.56700
C  19.72300 51.45700 29.39600
C  19.60600 50.27500 30.19400
O  19.25100 49.13700 29.85400
O  20.08200 50.56800 31.42100
C  20.23900 49.55600 32.42500
H  12.99500 52.10300 29.37900
H  13.20500 53.05300 22.92600
H  19.54300 51.52700 23.11400
H  17.29000 51.41100 31.24700
H  14.90500 52.95400 31.05400
H  14.05600 51.00300 32.28500
H  15.66900 50.29900 31.95800
H  14.35600 50.09000 30.85300
H  16.77100 54.28300 30.93400
H  18.47600 53.81200 30.67500
H  17.82200 54.58200 32.94400
H  18.95800 53.10200 32.66400
H  10.04900 52.71100 27.66700
H  11.01300 51.47500 28.64900
H  10.07500 51.04200 27.23600
H  9.04200 52.61100 25.60000
H  9.30900 51.03900 24.82600
H  8.64100 52.43700 23.92300
H  15.40800 54.01800 21.90100
H  17.32100 51.64900 21.35600
H  15.43600 51.74800 20.11800
H  14.47200 53.17600 20.10800
H  13.95500 51.63400 20.95900
H  18.61300 53.93300 22.35200
H  17.45600 54.72200 21.16400
H  19.09200 54.46400 19.63800
H  18.49300 52.80900 19.63900
H  19.95500 53.38700 20.68100
H  22.33200 50.55600 25.60800
H  21.79300 51.61800 24.22400
H  21.33300 49.97800 24.21800
H  20.17200 52.23200 30.01600
H  20.87500 48.75900 32.03900
H  19.21200 49.21900 32.56300
H  20.70300 50.08400 33.25800

