158

Mg 49.58700 46.69600 42.25100
C  46.33200 46.65600 40.97900
C  50.13500 43.60100 40.97900
C  52.79000 47.15100 43.02300
C  48.78800 49.94900 43.53300
N  48.35400 45.33300 41.20200
C  47.13300 45.52700 40.68200
C  46.67500 44.34100 39.76700
C  47.76800 43.30600 39.99000
C  48.81500 44.10800 40.77400
C  47.39400 41.76700 40.36300
C  46.45700 44.76800 38.27400
C  45.04200 44.70300 37.71500
H  44.87300 43.96000 36.36400
N  51.26200 45.47400 42.01700
C  51.28000 44.22200 41.51400
C  52.59700 43.67100 41.67400
C  53.40200 44.59400 42.35100
C  52.51600 45.80300 42.46400
C  52.97700 42.20100 41.35500
C  54.79000 44.35400 42.75100
O  55.31200 43.26600 42.58700
C  55.63100 45.42100 43.32000
N  50.59200 48.34100 43.05400
C  51.98100 48.28300 43.31500
C  52.52500 49.61700 43.92900
C  51.18900 50.44800 44.01800
C  50.10300 49.43300 43.57600
C  53.26100 49.34200 45.24700
C  51.15500 51.76100 43.14000
C  51.22200 53.06700 43.97900
N  47.95100 48.17800 42.25300
C  47.76900 49.41000 42.78900
C  46.50300 49.97300 42.41300
C  45.91600 48.92100 41.68800
C  46.79700 47.82500 41.63000
C  45.84000 51.25700 42.86100
C  44.71200 48.46400 41.09400
O  43.59900 48.91300 41.11300
C  45.01600 47.05700 40.46200
C  43.96700 46.10500 40.85100
O  43.66300 45.70400 41.94800
O  43.20100 45.99800 39.70900
C  41.88500 45.47700 39.87400
H  50.28400 42.66400 40.43900
H  53.84000 47.29100 43.29000
H  48.56500 50.90100 44.01800
H  45.77500 43.93200 40.22600
H  48.27500 43.20600 39.03000
H  47.99100 41.21000 39.64000
H  46.30900 41.67100 40.33400
H  47.86900 41.53000 41.31500
H  47.04600 44.20100 37.55200
H  46.77800 45.79500 38.10200
H  44.65500 45.72200 37.70300
H  44.48900 44.13500 38.46300
H  53.49400 42.19600 40.39500
H  52.00800 41.75500 41.13100
H  53.38300 41.63600 42.19300
H  56.61600 45.12900 43.68400
H  55.08300 45.79000 44.18700
H  55.52100 46.28800 42.67000
H  53.17700 50.10200 43.20200
H  51.05700 50.78000 45.04800
H  52.83300 49.96800 46.03000
H  54.32700 49.53700 45.12400
H  53.27700 48.32100 45.62800
H  50.24800 51.79400 42.53600
H  51.99200 51.70500 42.44500
H  51.88600 52.93700 44.83400
H  50.19700 53.25400 44.29900
H  51.58200 53.95700 43.46300
H  44.79400 51.29700 42.55700
H  46.36300 52.18100 42.61500
H  45.78600 51.31300 43.94900
H  45.05800 47.13200 39.37600
H  41.88600 44.47300 39.45000
H  41.13300 45.98100 39.26700
H  41.53100 45.52400 40.90400
Mg 9.40800 48.71800 26.02400
C  7.28500 48.61500 28.73900
C  11.93500 49.68100 27.98900
C  11.27300 48.68800 23.22500
C  6.60000 47.57100 24.09500
N  9.58700 49.14100 28.14700
C  8.59100 49.03100 29.12700
C  9.08900 49.40300 30.54100
C  10.64500 49.76900 30.21800
C  10.79900 49.41700 28.71900
C  10.93000 51.23700 30.53900
C  8.97400 48.21600 31.55900
C  9.61100 48.41000 32.94100
H  8.65400 48.56300 34.14300
N  11.33300 49.22600 25.62000
C  12.23400 49.45300 26.59800
C  13.53700 49.49100 25.99400
C  13.42100 49.19800 24.57700
C  11.96600 49.06600 24.38900
C  14.78400 49.82300 26.79500
C  14.50000 49.09700 23.53700
O  14.16100 48.92400 22.36800
C  15.94200 49.02200 23.82800
N  8.93700 48.33800 24.02500
C  9.93000 48.36400 22.98200
C  9.39900 47.97400 21.60900
C  8.02000 47.34900 22.02300
C  7.86800 47.67300 23.49500
C  9.42900 49.06100 20.56800
C  8.10500 45.83000 21.79900
C  8.71700 44.90400 22.83200
N  7.32700 48.18400 26.26700
C  6.36400 47.81800 25.41000
C  5.04700 47.74300 26.11000
C  5.35400 48.06200 27.45300
C  6.72400 48.35900 27.48100
C  3.80600 47.15700 25.60500
C  4.83200 48.23800 28.85700
O  3.74800 48.00500 29.39000
C  6.08100 48.40800 29.68100
C  6.15800 47.19900 30.46700
O  6.95800 46.35400 30.24200
O  5.40100 47.24200 31.66000
C  5.85200 46.28600 32.68600
H  12.79700 49.87100 28.63200
H  11.94900 48.48400 22.39200
H  5.72500 47.17400 23.57500
H  8.52900 50.22300 30.99000
H  11.18300 49.01000 30.78600
H  11.71600 51.47300 29.82300
H  11.27900 51.30900 31.56900
H  10.06400 51.89200 30.44500
H  9.29600 47.25800 31.14900
H  7.89800 48.18000 31.72900
H  10.07100 49.39300 32.83500
H  10.33900 47.60900 33.06600
H  14.51000 50.33400 27.71800
H  15.51200 50.46300 26.29600
H  15.29000 48.87200 26.95900
H  16.16800 48.25800 24.57200
H  16.32000 50.01900 24.05300
H  16.35100 48.55100 22.93400
H  10.17400 47.30700 21.23300
H  7.24600 47.81800 21.41500
H  9.88500 49.95400 20.99500
H  8.42000 49.31900 20.24800
H  10.07300 48.85200 19.71400
H  8.68900 45.55900 20.91900
H  7.09800 45.53700 21.50100
H  7.90200 44.26800 23.17700
H  9.09800 45.36800 23.74100
H  9.34500 44.16600 22.33200
H  3.70700 46.11500 25.91100
H  3.81100 47.23600 24.51800
H  2.97300 47.72600 26.01700
H  5.93500 49.27700 30.32200
H  6.92100 46.47900 32.76900
H  5.55700 45.25900 32.47200
H  5.42600 46.62100 33.63200

