158

Mg 25.44900 -7.52700 48.30200
C  27.78100 -5.11800 47.09200
C  23.31500 -6.52100 45.83600
C  23.58500 -10.24200 48.85700
C  27.99600 -8.74400 50.44800
N  25.71700 -6.05600 46.62500
C  26.64100 -5.12000 46.30700
C  26.27100 -4.14500 45.20400
C  24.72100 -4.53200 45.12800
C  24.58600 -5.82400 45.87600
C  23.67000 -3.48400 45.60700
C  27.05000 -4.46000 43.90500
C  27.70100 -3.27900 43.17400
H  27.53800 -3.01600 41.68900
N  23.57100 -8.28100 47.44100
C  22.86500 -7.67500 46.51800
C  21.55600 -8.29800 46.39600
C  21.54600 -9.30000 47.46200
C  22.96600 -9.41500 47.91800
C  20.46300 -7.89200 45.43400
C  20.39500 -10.17400 47.83400
O  19.30000 -10.07500 47.31800
C  20.47500 -11.24900 48.94400
N  25.80300 -9.32900 49.44900
C  24.78500 -10.18500 49.63200
C  25.12000 -11.35600 50.62400
C  26.52200 -10.88100 51.09400
C  26.80700 -9.56600 50.32500
C  24.00900 -11.69900 51.62000
C  27.65200 -11.97400 50.87500
C  28.65000 -12.07000 52.04800
N  27.38700 -7.07800 48.83100
C  28.27300 -7.56900 49.69600
C  29.49500 -6.83200 49.71700
C  29.27500 -5.82900 48.74600
C  28.03100 -6.01700 48.18200
C  30.60700 -7.13200 50.60900
C  29.95100 -4.70100 48.05900
O  31.06100 -4.24200 48.24900
C  28.92300 -4.19900 47.01400
C  28.55600 -2.84000 47.42200
O  28.10700 -2.61200 48.53500
O  28.82700 -1.86500 46.44400
C  28.22100 -0.61800 46.86100
H  22.55500 -6.32100 45.07800
H  22.89400 -11.00400 49.22400
H  28.65900 -9.12400 51.22800
H  26.44800 -3.15800 45.63100
H  24.51000 -4.82500 44.09900
H  24.13600 -2.69900 46.20100
H  22.86300 -3.89700 46.21300
H  23.11700 -3.13300 44.73600
H  26.44000 -5.02100 43.19700
H  27.78400 -5.24500 44.08800
H  28.78300 -3.35100 43.28100
H  27.40900 -2.36100 43.68500
H  19.42900 -7.83200 45.77300
H  20.36400 -8.55900 44.57800
H  20.62400 -6.95400 44.90300
H  21.18900 -11.95600 48.52100
H  19.50900 -11.73400 49.08300
H  20.79500 -10.74300 49.85500
H  25.28300 -12.21700 49.97600
H  26.52400 -10.59000 52.14400
H  23.67000 -12.72800 51.50000
H  23.20600 -10.96700 51.70600
H  24.44700 -11.67400 52.61800
H  28.20000 -11.76800 49.95600
H  27.18700 -12.95300 50.75800
H  28.39800 -12.97000 52.60900
H  28.56100 -11.18600 52.67900
H  29.69400 -12.04900 51.73500
H  30.10900 -6.88400 51.54600
H  31.57900 -6.65600 50.47800
H  30.74800 -8.21200 50.64300
H  29.37600 -4.09900 46.02800
H  29.00500 0.08200 47.15000
H  27.44600 -0.64400 47.62800
H  27.73800 -0.37800 45.91400
Mg 35.54800 1.08000 30.00100
C  33.28600 1.68000 32.58700
C  38.02200 1.21000 32.35900
C  37.64500 0.91500 27.42500
C  32.83200 1.60000 27.74500
N  35.61000 1.41200 32.23600
C  34.53600 1.53300 33.09100
C  34.99500 1.69500 34.54100
C  36.57800 1.54700 34.41000
C  36.80000 1.45700 32.89900
C  37.28300 2.67100 35.08200
C  34.14300 0.73900 35.51300
C  33.45700 1.41600 36.69700
H  34.13600 2.56200 37.31900
N  37.51200 0.99200 29.87800
C  38.37800 0.90100 31.01400
C  39.64300 0.61300 30.46700
C  39.56800 0.58700 29.02900
C  38.19600 0.88500 28.69500
C  40.83600 0.39300 31.39000
C  40.66500 0.17500 28.05000
O  40.51800 0.04300 26.84300
C  42.00800 -0.24600 28.63500
N  35.28900 1.08200 27.91900
C  36.31800 1.07100 27.04100
C  35.82600 1.13300 25.57200
C  34.28500 1.28000 25.73400
C  34.06400 1.27000 27.23600
C  36.51600 2.11000 24.63600
C  33.41500 0.16500 25.06700
C  32.90400 -1.05200 25.87900
N  33.52600 1.48500 30.12900
C  32.52200 1.67700 29.08000
C  31.29300 1.97200 29.65400
C  31.51700 2.04600 31.03200
C  32.91700 1.66200 31.23700
C  30.05000 2.32300 28.93000
C  30.91000 2.32300 32.38700
O  29.76900 2.57400 32.74900
C  32.03000 2.16900 33.38400
C  32.26000 3.61000 33.78300
O  33.14600 4.33100 33.26400
O  31.60700 3.95100 34.99200
C  31.74700 5.30100 35.37500
H  38.83200 1.32800 33.08300
H  38.34800 0.89900 26.59000
H  32.14100 1.75200 26.91400
H  34.74500 2.73400 34.75500
H  36.85000 0.64900 34.96400
H  37.96200 3.19000 34.40400
H  37.97200 2.32800 35.85300
H  36.57800 3.39700 35.48800
H  34.87300 -0.00100 35.84000
H  33.46300 0.12200 34.92500
H  33.35500 0.72900 37.53700
H  32.49700 1.80800 36.36300
H  41.49000 1.25500 31.25800
H  41.48100 -0.47300 31.24500
H  40.52600 0.43600 32.43500
H  42.45600 0.50500 29.28500
H  42.67700 -0.30500 27.77600
H  41.80200 -1.17700 29.16300
H  36.01000 0.13900 25.16600
H  34.03300 2.25000 25.30600
H  35.82200 2.79300 24.14800
H  37.04600 1.55100 23.86500
H  37.26400 2.69200 25.17500
H  34.04900 -0.24400 24.28000
H  32.52400 0.65500 24.67400
H  33.58200 -1.22400 26.71500
H  32.82600 -2.00100 25.34800
H  31.86100 -0.91000 26.16200
H  30.29900 3.10500 28.21300
H  29.35000 2.64000 29.70400
H  29.75600 1.37800 28.47300
H  31.66600 1.56600 34.21700
H  31.55700 5.99000 34.55200
H  32.73500 5.45000 35.81000
H  31.00300 5.29300 36.17100

