158

Mg 25.82000 -6.70000 47.54500
C  26.85500 -3.53400 46.33700
C  22.75000 -6.08400 46.15100
C  25.09300 -9.75000 48.52000
C  29.24100 -7.43100 48.29000
N  24.95400 -5.04600 46.24300
C  25.50100 -3.84500 45.98800
C  24.53100 -2.91400 45.19100
C  23.13300 -3.66500 45.44200
C  23.62300 -5.05400 45.93700
C  22.31900 -3.07300 46.61300
C  24.89500 -2.76800 43.65100
C  24.83000 -1.31700 43.05400
H  25.93900 -0.92400 42.11300
N  24.13300 -7.79900 47.33500
C  23.00000 -7.34200 46.70700
C  22.07500 -8.47400 46.78100
C  22.69800 -9.52100 47.47400
C  24.02200 -9.11100 47.71700
C  20.75600 -8.45100 46.07700
C  22.06400 -10.94100 47.77800
O  20.91100 -11.10800 47.62800
C  22.77800 -12.13700 48.38400
N  27.00000 -8.35200 48.22100
C  26.40700 -9.39100 48.78800
C  27.36800 -10.20400 49.59000
C  28.75000 -9.78800 49.15500
C  28.34600 -8.45800 48.54500
C  27.05200 -10.25600 51.13100
C  29.47100 -10.80400 48.22200
C  30.95400 -11.22500 48.48800
N  27.72300 -5.74000 47.29600
C  28.96500 -6.17100 47.70600
C  29.90800 -5.13800 47.43300
C  29.16800 -4.01900 46.87300
C  27.83100 -4.46900 46.84300
C  31.36300 -5.15800 47.93900
C  29.15400 -2.69500 46.41800
O  30.06300 -1.89300 46.24100
C  27.66100 -2.38600 45.91800
C  27.32500 -1.11200 46.63200
O  27.23600 -0.99000 47.85800
O  26.95800 -0.09200 45.79100
C  26.61100 1.17000 46.47200
H  21.73500 -5.83300 45.83700
H  24.87900 -10.80700 48.69600
H  30.27000 -7.60800 48.61100
H  24.51800 -1.93000 45.65900
H  22.48800 -3.70900 44.56400
H  22.42200 -3.63500 47.54100
H  21.28800 -3.19000 46.27900
H  22.43600 -2.01100 46.82800
H  24.18300 -3.36500 43.08100
H  25.86200 -3.25700 43.52800
H  24.65300 -0.54400 43.80200
H  23.92400 -1.32600 42.44900
H  20.67100 -7.70100 45.29100
H  20.06600 -8.04800 46.81800
H  20.45500 -9.43300 45.71100
H  23.56600 -12.40500 47.68000
H  22.13900 -13.01300 48.49400
H  23.19700 -11.93200 49.36900
H  27.23100 -11.23300 49.25600
H  29.40400 -9.61100 50.00900
H  26.50200 -9.37800 51.46900
H  27.94500 -10.36200 51.74800
H  26.27600 -11.01700 51.20900
H  29.35700 -10.57500 47.16300
H  28.94900 -11.75100 48.35600
H  30.94800 -12.09400 49.14600
H  31.30800 -10.34200 49.02200
H  31.45700 -11.43800 47.54500
H  32.06100 -4.77400 47.19600
H  31.67300 -6.17800 48.16700
H  31.56900 -4.54500 48.81700
H  27.64700 -2.30400 44.83100
H  25.58300 1.12300 46.83100
H  26.55100 1.93200 45.69400
H  27.31900 1.37400 47.27500
Mg 35.47700 1.68200 28.75100
C  33.51900 3.12700 31.22800
C  38.06200 1.35700 31.03300
C  37.35600 0.71200 26.20800
C  32.93900 2.36900 26.35200
N  35.84600 2.41800 30.91500
C  34.78200 2.82600 31.76900
C  35.27200 2.91600 33.22900
C  36.87700 2.62200 33.04500
C  36.94200 2.05900 31.62000
C  37.69800 3.91300 33.28700
C  34.49700 1.90600 34.08800
C  33.74200 2.38400 35.35800
H  34.35500 3.54300 36.21900
N  37.46700 1.11200 28.66300
C  38.35900 1.05400 29.66300
C  39.63100 0.63000 29.13800
C  39.47200 0.36600 27.74100
C  38.08400 0.82700 27.46000
C  40.81000 0.37300 30.09600
C  40.43900 -0.29300 26.72700
O  40.18100 -0.45100 25.54800
C  41.81600 -0.63300 27.21300
N  35.19400 1.50500 26.53300
C  36.11500 0.95200 25.76900
C  35.70900 0.86000 24.24400
C  34.19700 1.26400 24.34300
C  34.08300 1.74200 25.78300
C  36.47000 1.82600 23.25300
C  33.27400 0.08000 23.99600
C  32.24500 0.36000 22.85300
N  33.58100 2.40500 28.77400
C  32.66200 2.67100 27.73800
C  31.50700 3.48300 28.26400
C  31.82100 3.55200 29.64200
C  33.08700 2.93000 29.86600
C  30.28900 3.87400 27.46500
C  31.21800 4.00000 30.87700
O  30.09600 4.51000 31.08500
C  32.30000 3.61700 31.92800
C  32.57700 4.82100 32.78000
O  33.27600 5.75700 32.43700
O  31.72300 4.83100 33.82600
C  31.62700 6.02000 34.67200
H  38.85400 1.24500 31.77600
H  37.98400 0.14700 25.51600
H  32.23600 2.79200 25.63100
H  35.07700 3.94600 33.52700
H  37.13800 1.78000 33.68600
H  38.30100 3.74400 34.17900
H  37.05200 4.78700 33.37000
H  38.30100 4.15700 32.41200
H  35.26700 1.22000 34.44000
H  33.83500 1.31700 33.45400
H  33.75000 1.52200 36.02600
H  32.73900 2.74000 35.12700
H  40.83100 1.27900 30.70400
H  41.84800 0.32900 29.76700
H  40.55000 -0.49800 30.69700
H  42.44900 -0.90900 26.37000
H  41.77700 -1.39900 27.98900
H  42.10200 0.28200 27.73100
H  35.88500 -0.15000 23.87400
H  33.96800 2.11200 23.69800
H  35.67900 2.09200 22.55200
H  37.14100 1.18200 22.68500
H  36.92600 2.64400 23.81200
H  32.76800 -0.22500 24.91100
H  33.89700 -0.76000 23.68700
H  31.28600 0.16100 23.33000
H  32.33400 -0.41600 22.09200
H  32.22700 1.40200 22.53500
H  30.58500 4.20700 26.47000
H  29.78300 4.64100 28.05000
H  29.62500 3.00900 27.45100
H  31.97700 2.79500 32.56700
H  32.33400 6.81000 34.41900
H  31.65800 5.83500 35.74600
H  30.60600 6.35800 34.49400

