158

Mg 44.43300 2.20500 47.27500
C  44.05200 5.51900 46.30300
C  41.31400 1.52900 46.10000
C  45.14600 -1.08800 47.56300
C  47.84400 2.87300 47.90900
N  42.80000 3.41600 46.49700
C  42.86600 4.73100 46.05400
C  41.60100 5.17500 45.39200
C  40.63300 3.91000 45.55300
C  41.61900 2.88100 46.12900
C  39.44800 4.04000 46.59300
C  41.82700 5.60200 43.90800
C  41.37600 7.00000 43.47500
H  40.20300 7.16500 42.43300
N  43.34100 0.43100 46.96500
C  42.03100 0.39100 46.47700
C  41.60600 -1.01400 46.35300
C  42.70500 -1.80000 46.82300
C  43.79900 -0.85700 47.17600
C  40.21700 -1.45000 45.88500
C  42.73100 -3.32900 46.96600
O  41.70700 -3.93400 46.72700
C  43.90400 -4.12600 47.33500
N  46.27100 1.02000 47.73600
C  46.21200 -0.25600 47.85800
C  47.60000 -0.91000 48.11100
C  48.53200 0.39300 47.95200
C  47.50700 1.54200 47.90300
C  47.78400 -1.71000 49.41700
C  49.56100 0.45100 46.83500
C  51.00600 0.11600 47.16800
N  45.66600 3.89900 47.22500
C  46.98200 4.00500 47.62400
C  47.35300 5.42000 47.51700
C  46.23500 6.02600 47.03400
C  45.26100 5.08700 46.85400
C  48.57500 6.03700 47.90800
C  45.70400 7.28700 46.57100
O  46.20900 8.40800 46.52100
C  44.25200 6.97400 46.01400
C  43.32000 7.81000 46.79700
O  42.90600 7.62500 47.88900
O  43.11600 8.99000 46.09600
C  42.49200 10.04500 46.86300
H  40.33100 1.31500 45.67600
H  45.42000 -2.12500 47.76900
H  48.90600 3.10500 48.01600
H  41.09800 6.04000 45.82500
H  40.08100 3.57100 44.67600
H  39.80500 4.03300 47.62300
H  38.65300 3.30900 46.44400
H  39.09000 5.06100 46.46300
H  41.41000 4.82800 43.26300
H  42.88000 5.38100 43.73600
H  42.21800 7.44800 42.94800
H  41.20200 7.67900 44.31000
H  40.20900 -2.19600 45.09000
H  39.69400 -0.56100 45.53200
H  39.63300 -1.71900 46.76500
H  44.26500 -3.81100 48.31400
H  44.67400 -4.12800 46.56400
H  43.46300 -5.12100 47.40800
H  47.67000 -1.59400 47.26600
H  49.07900 0.47600 48.89100
H  48.47000 -1.16700 50.06700
H  48.10700 -2.72500 49.18700
H  46.87200 -1.66300 50.01200
H  49.60400 1.42800 46.35500
H  49.15300 -0.29400 46.15200
H  51.62900 0.86100 46.67300
H  51.25500 -0.85300 46.73600
H  51.27500 0.11200 48.22500
H  49.43300 5.38300 48.06100
H  48.41900 6.65600 48.79200
H  48.72200 6.66800 47.03200
H  44.26000 7.28500 44.96900
H  42.89100 10.98400 46.47800
H  42.57800 9.89200 47.93900
H  41.44700 9.95200 46.56700
Mg -8.51200 40.58900 43.03600
C  -7.59400 37.38200 41.82800
C  -5.96700 41.92700 41.19000
C  -9.92100 43.69100 43.36200
C  -11.33600 39.20700 44.30600
N  -6.87500 39.69500 41.66800
C  -6.75800 38.37900 41.31300
C  -5.45500 38.14500 40.44300
C  -4.82700 39.55100 40.53400
C  -5.97200 40.47700 41.10400
C  -3.46900 39.66500 41.28600
C  -5.82500 37.64300 39.02600
C  -5.33400 36.25000 38.65200
H  -4.19600 36.12100 37.60200
N  -7.91100 42.57400 42.44100
C  -6.86100 42.85500 41.69800
C  -6.71800 44.20400 41.57800
C  -7.83400 44.86200 42.21400
C  -8.68000 43.69900 42.74500
C  -5.50200 44.83800 40.90800
C  -8.11600 46.25000 42.30700
O  -7.35800 47.03700 41.76600
C  -9.15500 46.82300 43.22200
N  -10.25700 41.37000 43.77000
C  -10.65100 42.67000 43.87400
C  -12.09100 42.80700 44.35600
C  -12.50900 41.37600 44.69600
C  -11.27600 40.58300 44.21700
C  -12.35500 43.84700 45.39500
C  -13.98800 40.92900 44.33500
C  -15.16400 41.83300 44.84100
N  -9.38800 38.64000 43.03100
C  -10.52100 38.22800 43.66000
C  -10.67400 36.77600 43.56100
C  -9.50900 36.40500 42.86800
C  -8.76000 37.59000 42.53500
C  -11.85100 35.98300 44.16400
C  -8.77000 35.27900 42.33500
O  -8.97200 34.06700 42.52000
C  -7.57500 35.90400 41.51800
C  -6.27300 35.32600 41.93800
O  -5.61800 35.70800 42.88200
O  -6.11200 34.21500 41.20900
C  -5.02300 33.38600 41.56800
H  -5.08300 42.35200 40.70900
H  -10.44100 44.64900 43.42900
H  -12.22200 38.81800 44.81100
H  -4.75500 37.43800 40.88700
H  -4.78700 40.09000 39.58800
H  -2.74700 40.19100 40.66200
H  -3.07300 38.67400 41.50400
H  -3.46700 40.05300 42.30500
H  -5.63900 38.44200 38.30800
H  -6.90500 37.49800 39.04400
H  -6.19200 35.67800 38.30100
H  -4.99400 35.74100 39.55400
H  -5.25600 44.37500 39.95200
H  -4.66800 44.73900 41.60300
H  -5.60700 45.92100 40.83700
H  -8.96200 47.88000 43.40200
H  -9.15100 46.35200 44.20500
H  -10.16400 46.83400 42.81100
H  -12.64200 43.04600 43.44600
H  -12.39800 41.30600 45.77800
H  -11.46800 44.15800 45.94700
H  -13.18700 43.68000 46.08000
H  -12.70800 44.74200 44.88300
H  -14.18800 40.02400 44.90800
H  -14.10200 40.72700 43.27000
H  -15.55000 41.39100 45.76000
H  -15.97400 42.09400 44.16000
H  -14.82100 42.86500 44.91700
H  -12.67500 35.90800 43.45500
H  -12.31400 36.60000 44.93500
H  -11.38100 35.05000 44.47600
H  -7.74000 35.76000 40.45000
H  -4.76600 32.76200 40.71300
H  -5.09900 32.80400 42.48700
H  -4.11200 33.94800 41.77300

