158

Mg 7.83400 2.97000 28.16400
C  9.62700 1.56200 30.95300
C  6.38100 5.09100 30.18300
C  6.47800 4.24300 25.42000
C  9.93600 0.90600 26.09600
N  7.80000 3.04700 30.40700
C  8.68400 2.51500 31.35000
C  8.47300 3.12400 32.68400
C  7.35200 4.11400 32.49100
C  7.07600 4.10100 30.93800
C  6.06700 3.84400 33.30200
C  9.76400 3.77000 33.40800
C  9.59700 4.91000 34.44400
H  10.36200 4.66800 35.75100
N  6.52400 4.40400 27.85800
C  6.09000 5.25400 28.79000
C  5.35000 6.40000 28.21000
C  5.32300 6.08300 26.77400
C  6.12600 4.85400 26.63500
C  4.60000 7.44100 29.02700
C  4.70900 6.87300 25.61200
O  4.87200 6.66900 24.42300
C  3.77600 7.96800 25.88200
N  8.19300 2.60400 26.07300
C  7.37100 3.14800 25.12900
C  7.78600 2.74700 23.66600
C  9.07700 1.85900 23.91800
C  9.00100 1.71700 25.43000
C  6.64100 2.07100 22.92200
C  10.34400 2.35300 23.24600
C  11.45000 3.01900 24.14400
N  9.35500 1.47000 28.37400
C  10.09300 0.83400 27.42100
C  11.11200 0.04700 28.05900
C  10.96200 0.24200 29.47500
C  9.90500 1.15500 29.59800
C  12.07800 -0.83700 27.32600
C  11.42900 -0.06700 30.79600
O  12.36700 -0.80000 31.10400
C  10.48300 0.70400 31.80200
C  9.68400 -0.11100 32.74800
O  8.82200 -0.94200 32.46200
O  10.14700 0.02800 34.00300
C  9.40900 -0.67300 35.05000
H  6.10000 5.86500 30.90100
H  6.15300 4.68700 24.47700
H  10.63400 0.38800 25.43500
H  8.31300 2.17900 33.20300
H  7.72000 5.11100 32.73400
H  5.37300 4.67600 33.42000
H  6.39000 3.34900 34.21800
H  5.38700 3.20900 32.73500
H  10.47200 4.10200 32.64900
H  10.31600 3.01600 33.97000
H  8.57700 5.18000 34.71700
H  10.06000 5.79500 34.00600
H  5.07200 8.41000 28.86100
H  4.82000 7.17700 30.06100
H  3.55300 7.63500 28.79300
H  3.05100 7.54000 26.57500
H  3.17500 8.25600 25.01900
H  4.34200 8.80600 26.28800
H  8.04000 3.65900 23.12400
H  8.87100 0.81900 23.66300
H  5.74300 2.00200 23.53600
H  6.95300 1.10200 22.53400
H  6.24000 2.61000 22.06300
H  10.16600 2.88900 22.31300
H  10.77400 1.39200 22.96500
H  11.07500 3.28000 25.13400
H  11.92800 3.86600 23.65300
H  12.21200 2.27200 24.36500
H  12.52100 -0.43000 26.41600
H  11.71100 -1.83800 27.10000
H  12.95400 -0.90100 27.97100
H  11.15500 1.40900 32.29200
H  8.46100 -1.16500 34.83400
H  9.21800 0.08900 35.80600
H  10.19400 -1.30000 35.47300
Mg 30.02500 57.82100 39.47800
C  27.44500 55.77500 38.13500
C  32.36100 55.47500 38.14300
C  32.43000 60.13800 39.78800
C  27.66100 60.32200 39.85700
N  29.92800 55.80000 38.22800
C  28.74400 55.21800 37.83200
C  29.10400 53.80400 37.29900
C  30.57900 53.64500 37.70300
C  31.02700 55.05200 38.00600
C  30.76800 52.74200 38.91100
C  28.73300 53.58200 35.85100
C  29.34500 54.41900 34.79000
H  28.45700 54.95000 33.76900
N  32.10600 57.71100 39.27400
C  32.88100 56.69200 38.74100
C  34.22000 57.10000 38.80200
C  34.35300 58.45600 39.40100
C  32.92700 58.85700 39.50200
C  35.34600 56.20300 38.35100
C  35.52200 59.26600 39.71500
O  36.65500 58.77800 39.43300
C  35.49500 60.65900 40.35400
N  29.99400 59.87100 39.99200
C  31.14200 60.59200 39.92600
C  30.97500 62.08500 40.15200
C  29.39500 62.16800 40.36100
C  29.00300 60.72100 40.04500
C  31.84900 62.80900 41.21000
C  28.73900 63.27400 39.47100
C  27.64600 64.05900 40.21300
N  27.95700 58.00500 39.24200
C  27.15600 59.05800 39.52000
C  25.76100 58.61800 39.26200
C  25.83700 57.31700 38.76400
C  27.17800 57.02600 38.71500
C  24.50300 59.45900 39.35900
C  25.04800 56.23900 38.20900
O  23.86100 56.21000 37.98900
C  26.05600 55.13600 37.90400
C  25.82600 53.87100 38.68900
O  26.37400 53.51500 39.74000
O  24.70700 53.21200 38.09400
C  24.09200 52.09000 38.86700
H  33.09600 54.80400 37.69200
H  33.12700 60.97900 39.79400
H  26.97500 61.15800 40.01400
H  28.47200 53.13600 37.88400
H  31.11800 53.28900 36.82600
H  31.01100 51.78900 38.44300
H  29.90600 52.49000 39.52900
H  31.50600 53.16500 39.59300
H  27.64700 53.60100 35.76100
H  28.78400 52.51000 35.65800
H  30.17000 53.84800 34.36500
H  29.76100 55.31800 35.24600
H  35.93200 55.79600 39.17600
H  35.90100 56.87200 37.69300
H  35.13500 55.28900 37.79500
H  36.38700 61.15700 40.73500
H  34.78000 60.72500 41.17400
H  35.28700 61.31000 39.50500
H  31.24900 62.54900 39.20400
H  29.01700 62.30000 41.37500
H  31.15800 63.16500 41.97400
H  32.30900 63.66900 40.72500
H  32.59200 62.15200 41.66400
H  28.25700 62.74000 38.65200
H  29.48000 64.03700 39.23200
H  28.02100 65.01500 40.57800
H  27.34000 63.43500 41.05200
H  26.78300 64.28800 39.58700
H  24.51500 60.15100 38.51700
H  24.42100 59.97300 40.31700
H  23.66400 58.78500 39.18900
H  25.86100 54.87100 36.86500
H  24.26900 52.33900 39.91300
H  24.64700 51.20100 38.56700
H  23.02200 52.08200 38.66000

