158

Mg 23.18800 -7.86200 45.47500
C  25.58200 -5.55800 44.52800
C  21.01300 -6.28000 43.29000
C  21.07200 -10.40900 45.89700
C  25.69500 -9.59500 47.16800
N  23.32900 -6.18800 44.01800
C  24.37500 -5.31400 43.84900
C  24.06500 -4.20900 42.81000
C  22.50600 -4.41300 42.60300
C  22.28500 -5.72200 43.28000
C  21.55600 -3.25500 43.13200
C  24.95700 -4.25000 41.51700
C  25.64400 -2.94100 41.08700
H  25.83000 -2.57700 39.55400
N  21.25400 -8.24100 44.87500
C  20.52600 -7.49200 43.94600
C  19.17500 -7.97700 43.89000
C  19.21300 -9.18500 44.71300
C  20.50800 -9.28800 45.26200
C  18.09900 -7.39100 43.01600
C  17.96300 -9.99300 45.03100
O  16.98800 -9.76200 44.34500
C  17.77700 -10.92300 46.14200
N  23.50100 -9.92800 46.17300
C  22.39400 -10.68100 46.39300
C  22.75000 -11.86900 47.31000
C  24.12500 -11.47300 47.81500
C  24.50300 -10.29000 47.00800
C  21.64900 -12.29800 48.34000
C  25.20300 -12.72800 47.91000
C  25.65600 -13.36400 46.53800
N  25.20800 -7.58700 45.86000
C  26.04100 -8.40500 46.63500
C  27.31400 -7.70800 46.67900
C  27.23700 -6.62000 45.87500
C  25.91600 -6.61600 45.39900
C  28.60800 -8.26800 47.34300
C  27.91800 -5.42200 45.36200
O  29.00900 -5.00200 45.66100
C  26.88300 -4.79100 44.33700
C  26.63700 -3.42400 44.75500
O  26.10600 -3.08400 45.85200
O  27.27000 -2.60000 43.87700
C  27.19000 -1.22700 44.18500
H  20.25500 -5.69100 42.77100
H  20.42100 -11.25300 46.13400
H  26.48300 -10.12200 47.71000
H  24.29100 -3.27600 43.32600
H  22.42100 -4.56000 41.52600
H  20.88700 -2.98800 42.31300
H  22.04300 -2.30600 43.35400
H  20.94500 -3.52700 43.99200
H  24.41300 -4.64400 40.65900
H  25.70900 -5.00600 41.74500
H  26.67300 -2.83100 41.43100
H  24.99400 -2.11900 41.38700
H  17.47100 -8.17500 42.59300
H  18.64800 -6.87300 42.23000
H  17.64200 -6.54200 43.52400
H  18.36300 -10.47200 46.94300
H  18.24000 -11.82800 45.74800
H  16.82800 -11.15300 46.62500
H  22.95600 -12.70200 46.63900
H  23.99200 -11.04700 48.81000
H  21.26200 -13.28700 48.09500
H  20.73600 -11.70400 48.39600
H  22.00500 -12.17100 49.36300
H  24.73800 -13.50700 48.51400
H  26.06300 -12.49300 48.53700
H  26.65200 -12.99300 46.30000
H  24.97400 -13.22600 45.69900
H  25.75900 -14.44100 46.67200
H  29.10200 -9.02500 46.73300
H  28.48200 -8.50100 48.40000
H  29.31000 -7.43500 47.31000
H  27.26900 -4.82400 43.31800
H  26.20600 -0.80600 44.39200
H  27.48400 -0.53600 43.39500
H  27.78500 -1.01100 45.07200
Mg -5.26400 25.57800 26.26800
C  -3.66200 26.75500 29.07200
C  -6.89700 23.28300 28.37100
C  -6.52500 23.99000 23.57200
C  -3.17500 27.43600 24.18400
N  -5.31500 25.10800 28.45100
C  -4.64300 25.77600 29.40300
C  -5.20400 25.58700 30.84400
C  -5.85900 24.23400 30.62100
C  -6.10400 24.25400 29.11700
C  -5.06700 22.95200 31.14200
C  -6.08000 26.71500 31.42500
C  -5.87600 27.12500 32.94200
H  -5.58500 26.01500 33.92400
N  -6.50900 23.88200 25.94900
C  -7.08000 23.08600 26.96200
C  -7.79700 21.96000 26.33400
C  -7.63100 22.07700 24.91800
C  -6.83200 23.35500 24.75400
C  -8.35300 20.84200 27.20100
C  -8.13000 21.20000 23.75700
O  -7.97000 21.51500 22.54100
C  -8.89700 19.93900 24.07300
N  -4.89200 25.66900 24.21200
C  -5.64900 25.01400 23.31900
C  -5.14000 25.28500 21.87300
C  -4.34500 26.64200 22.03900
C  -4.01200 26.55400 23.54100
C  -4.39800 24.10800 21.22900
C  -5.05300 28.01900 21.72000
C  -5.78000 28.27900 20.33300
N  -3.72300 26.90700 26.53000
C  -2.98500 27.62500 25.58900
C  -2.09100 28.48900 26.28600
C  -2.29200 28.16800 27.63500
C  -3.27900 27.18400 27.72600
C  -1.09200 29.50500 25.68300
C  -1.84100 28.51800 28.95200
O  -1.03700 29.42200 29.27100
C  -2.77200 27.62100 29.98800
C  -1.96900 26.66400 30.88900
O  -1.44400 25.62200 30.57100
O  -1.85500 27.25300 32.07000
C  -1.10300 26.60300 33.13600
H  -7.31700 22.50200 29.00800
H  -7.04200 23.62400 22.68200
H  -2.42100 28.00600 23.63600
H  -4.40800 25.45600 31.57700
H  -6.73200 24.25500 31.27500
H  -4.66400 23.06100 32.14900
H  -4.32700 22.75700 30.36500
H  -5.75200 22.11400 31.27200
H  -7.12200 26.40200 31.35000
H  -5.87900 27.58600 30.80200
H  -6.79100 27.47000 33.42400
H  -5.19200 27.97200 32.99300
H  -8.71400 21.14500 28.18300
H  -7.55600 20.10400 27.30100
H  -9.18100 20.42100 26.63000
H  -9.00100 19.42600 23.11700
H  -9.93900 20.10000 24.34800
H  -8.45400 19.33800 24.86700
H  -6.02800 25.50400 21.28000
H  -3.38100 26.61300 21.53100
H  -4.49600 23.26400 21.91100
H  -3.36700 24.37700 21.00100
H  -4.86500 23.79200 20.29600
H  -4.18800 28.64600 21.94100
H  -5.78700 28.11100 22.52100
H  -6.84200 28.03800 20.37900
H  -5.29500 27.72100 19.53300
H  -5.75400 29.35400 20.15100
H  -0.85600 29.18800 24.66700
H  -0.20400 29.43400 26.31000
H  -1.45700 30.52900 25.60100
H  -3.50400 28.21500 30.53600
H  -0.11300 27.04300 33.25500
H  -0.93700 25.53200 33.02000
H  -1.67300 26.87100 34.02600

