158

Mg -11.86700 38.96800 41.22200
C  -9.88400 36.18300 40.17900
C  -9.15700 41.04500 40.20800
C  -13.82900 41.54000 41.52200
C  -14.48200 36.80900 42.03000
N  -9.79700 38.68400 40.36800
C  -9.28300 37.44600 40.01800
C  -7.87600 37.57600 39.36600
C  -7.56900 39.07500 39.75900
C  -8.94900 39.68800 40.05100
C  -6.54900 39.24800 40.96300
C  -7.90000 37.36400 37.84700
C  -7.06200 36.30700 37.12900
H  -5.79900 36.74000 36.35400
N  -11.55700 41.03900 40.85600
C  -10.40000 41.69900 40.49600
C  -10.58600 43.17200 40.47100
C  -11.93700 43.34000 41.00300
C  -12.52200 41.95000 41.12900
C  -9.55600 44.13100 39.92300
C  -12.58900 44.72800 41.22700
O  -11.94000 45.76600 41.01100
C  -13.89900 44.84800 41.89500
N  -13.92500 39.06600 41.62200
C  -14.42700 40.27500 41.78700
C  -15.87600 40.27000 42.55300
C  -16.01000 38.69800 42.79800
C  -14.73700 38.13500 42.07800
C  -15.95100 41.21900 43.79400
C  -17.36700 38.27000 42.26900
C  -17.95600 36.96900 42.97300
N  -12.18300 36.85400 41.19600
C  -13.30200 36.09000 41.55800
C  -12.92700 34.66300 41.44400
C  -11.62800 34.67900 40.87800
C  -11.21100 36.01000 40.73500
C  -13.74900 33.49400 41.99900
C  -10.48000 33.84200 40.56300
O  -10.40200 32.63900 40.60600
C  -9.37300 34.80000 39.92100
C  -8.03400 34.46100 40.40000
O  -7.65800 34.75300 41.51200
O  -7.30300 33.76200 39.43700
C  -5.93700 33.46400 39.89700
H  -8.23300 41.62500 40.15900
H  -14.54300 42.36300 41.60600
H  -15.25700 36.11600 42.36500
H  -7.21200 36.84700 39.83200
H  -7.08200 39.58900 38.93000
H  -5.56200 39.01200 40.56600
H  -6.79900 38.53300 41.74700
H  -6.60100 40.22900 41.43600
H  -7.82400 38.35100 37.39100
H  -8.92200 37.05000 37.63700
H  -7.68200 35.74600 36.43000
H  -6.64000 35.66100 37.89900
H  -8.57100 43.72300 39.69400
H  -9.35500 44.93500 40.63000
H  -10.00300 44.65500 39.07900
H  -14.74000 44.42700 41.34300
H  -14.11800 45.85400 42.25400
H  -13.71100 44.17900 42.73400
H  -16.62200 40.56500 41.81600
H  -15.88200 38.45800 43.85400
H  -15.01100 41.72500 44.01500
H  -16.32200 40.74900 44.70400
H  -16.64500 42.00000 43.48200
H  -17.17000 38.20000 41.19900
H  -18.06600 39.10200 42.35500
H  -18.98400 37.16600 43.27800
H  -17.40200 36.67900 43.86600
H  -17.89200 36.08700 42.33600
H  -14.83700 33.46200 42.05800
H  -13.45400 33.38200 43.04300
H  -13.57200 32.50100 41.58800
H  -9.34100 34.60000 38.85000
H  -5.30300 33.44900 39.01100
H  -5.74300 32.49400 40.35400
H  -5.56600 34.23400 40.57400
Mg 0.37900 43.68600 26.43500
C  2.78700 43.69400 28.89800
C  -2.06300 43.59700 28.76500
C  -1.72500 43.26400 23.88200
C  3.02600 43.45700 24.00000
N  0.41200 43.53000 28.55400
C  1.48600 43.65000 29.38800
C  1.02600 43.60600 30.91600
C  -0.50900 43.30700 30.85800
C  -0.80000 43.47800 29.33700
C  -0.89900 41.86400 31.27100
C  1.40700 44.80800 31.81100
C  2.11600 44.49500 33.12100
H  1.49400 43.30200 33.83500
N  -1.68800 43.43500 26.34400
C  -2.49600 43.51300 27.43700
C  -3.88300 43.66600 26.92600
C  -3.82900 43.59000 25.54100
C  -2.39900 43.36300 25.17000
C  -5.06300 43.90600 27.86400
C  -4.90300 43.79600 24.52700
O  -4.66100 43.80100 23.28800
C  -6.46400 44.14900 24.96800
N  0.65900 43.27500 24.24100
C  -0.40300 43.29600 23.43600
C  -0.04700 43.03500 21.97500
C  1.52000 43.20300 21.95200
C  1.79400 43.28600 23.49000
C  -0.56600 41.62200 21.51700
C  2.11900 44.47000 21.27800
C  1.77700 45.80900 21.80200
N  2.52600 43.66300 26.40600
C  3.40000 43.57600 25.35800
C  4.74000 43.72500 25.91700
C  4.52600 43.67300 27.28600
C  3.17600 43.69000 27.57000
C  6.03000 43.77100 25.18600
C  5.18900 43.76800 28.60100
O  6.34000 43.96800 28.83500
C  4.04900 43.77800 29.70500
C  4.29700 42.74900 30.67700
O  3.80000 41.62300 30.75300
O  5.18000 43.25200 31.58400
C  5.40000 42.50100 32.86200
H  -2.77400 43.55100 29.59200
H  -2.45300 43.47000 23.09400
H  3.85500 43.41900 23.29000
H  1.52800 42.74900 31.36400
H  -1.15000 43.97300 31.43600
H  -0.02600 41.21700 31.35200
H  -1.59700 41.42000 30.56000
H  -1.35000 41.80600 32.26200
H  0.57900 45.48100 32.03400
H  2.09700 45.51700 31.35400
H  1.99700 45.33800 33.80100
H  3.17300 44.35000 32.89600
H  -5.44900 44.89800 27.62700
H  -4.78600 43.94100 28.91800
H  -5.68500 43.02400 27.71300
H  -6.86500 43.22600 25.38600
H  -7.02800 44.38400 24.06500
H  -6.45800 45.00400 25.64400
H  -0.41600 43.64000 21.14600
H  2.09800 42.35400 21.58600
H  0.19700 40.84700 21.59500
H  -0.96900 41.62000 20.50400
H  -1.41300 41.28700 22.11500
H  1.73500 44.47100 20.25700
H  3.20200 44.35300 21.31400
H  2.73800 46.23800 22.08600
H  1.17800 45.73700 22.71000
H  1.26500 46.42100 21.06000
H  6.73000 44.50400 25.58600
H  5.90500 44.01200 24.13000
H  6.39400 42.74800 25.28300
H  4.14000 44.69400 30.28900
H  6.44000 42.18000 32.80300
H  4.77500 41.61900 33.00600
H  5.17200 43.13900 33.71600

