158

Mg 36.00100 2.65800 30.65800
C  33.51200 3.56100 32.98200
C  38.29600 2.60800 33.33200
C  38.40300 2.04200 28.46800
C  33.63700 2.76300 28.07400
N  35.88600 3.17700 32.90700
C  34.77200 3.43700 33.67800
C  35.10600 3.46400 35.19400
C  36.65400 3.34600 35.23500
C  37.01700 3.00400 33.77500
C  37.38700 4.64300 35.63200
C  34.39400 2.26800 35.85400
C  34.33200 2.24800 37.38000
H  34.87100 3.39200 38.19300
N  38.09800 2.55600 30.86000
C  38.80900 2.47300 32.00100
C  40.24000 2.21400 31.70200
C  40.29100 1.95400 30.28100
C  38.91200 2.17300 29.81500
C  41.39300 2.13200 32.72700
C  41.44100 1.58800 29.42300
O  41.30900 1.36200 28.24300
C  42.85400 1.55500 30.02900
N  36.08000 2.53000 28.61200
C  37.21800 2.30400 27.93000
C  36.91900 2.04800 26.45300
C  35.40800 2.25900 26.28200
C  35.01200 2.51000 27.74900
C  37.80500 2.89600 25.48300
C  34.56800 1.13500 25.74300
C  33.52400 1.48000 24.67500
N  34.03600 3.17100 30.46400
C  33.20500 3.16800 29.33600
C  31.84400 3.52900 29.82600
C  31.91500 3.73000 31.21100
C  33.26300 3.44900 31.57600
C  30.50600 3.66000 28.99900
C  31.19500 4.01400 32.40600
O  29.99600 4.18500 32.54700
C  32.18200 3.88200 33.53900
C  32.18500 5.25000 34.11800
O  32.54400 6.24700 33.55000
O  31.80400 5.11900 35.44800
C  31.83100 6.35400 36.18900
H  39.04300 2.70100 34.12300
H  39.12500 1.78400 27.69100
H  32.98700 2.75800 27.19600
H  34.70700 4.33300 35.71900
H  36.91900 2.45600 35.80700
H  38.14700 4.39600 36.37400
H  36.80500 5.47500 36.02700
H  37.86700 5.06000 34.74600
H  34.92400 1.37100 35.53400
H  33.36800 2.18000 35.49700
H  34.82700 1.30300 37.60400
H  33.33300 2.03300 37.75800
H  41.80900 1.12700 32.80400
H  41.14400 2.55600 33.70000
H  42.14900 2.77400 32.27400
H  42.89500 0.84000 30.85100
H  43.32900 2.47700 30.36500
H  43.55600 1.21600 29.26800
H  37.11900 0.99300 26.27000
H  35.27200 3.14100 25.65600
H  38.28800 3.71500 26.01600
H  37.16700 3.30700 24.70000
H  38.56700 2.24400 25.05700
H  33.96200 0.69400 26.53400
H  35.26500 0.38000 25.37900
H  33.25400 2.51800 24.48500
H  32.62500 0.91300 24.92000
H  33.98600 1.08800 23.76900
H  30.67300 3.32000 27.97700
H  30.42800 4.74700 29.02800
H  29.67600 3.08700 29.41200
H  31.91000 3.16800 34.31600
H  31.11000 7.05300 35.76700
H  32.79900 6.85500 36.17900
H  31.56100 6.16900 37.22900
Mg 27.36600 49.96600 26.54800
C  25.57600 51.31600 29.18800
C  29.91900 49.14700 28.80200
C  29.16000 48.88000 23.96300
C  25.10300 51.32100 24.37100
N  27.61700 50.19000 28.81300
C  26.68100 50.66800 29.70200
C  27.16100 50.46500 31.15500
C  28.61700 49.84800 30.92700
C  28.71400 49.68400 29.41600
C  29.64200 50.89400 31.41800
C  26.26100 49.54700 32.06000
C  25.90400 50.28900 33.39700
H  26.89400 50.05900 34.60100
N  29.28700 49.00900 26.39200
C  30.14400 48.77700 27.36800
C  31.25300 48.09400 26.77900
C  30.98800 47.83000 25.43400
C  29.76700 48.58300 25.17000
C  32.31800 47.60100 27.74700
C  31.76000 46.98100 24.48200
O  31.44400 46.88100 23.31400
C  32.89900 46.03900 25.00400
N  27.27800 50.26400 24.46900
C  28.07300 49.61800 23.63300
C  27.58300 49.79700 22.16200
C  26.20300 50.40300 22.32100
C  26.17900 50.70000 23.79600
C  28.49900 50.52300 21.17400
C  24.98600 49.63000 21.77000
C  24.82700 48.14100 22.29900
N  25.62900 51.03800 26.70500
C  24.79500 51.50200 25.69100
C  23.63100 52.11700 26.31100
C  23.91100 52.06600 27.71600
C  25.14100 51.46800 27.87300
C  22.42200 52.67100 25.67400
C  23.37200 52.42500 29.01500
O  22.25100 52.92800 29.29100
C  24.36000 51.85100 30.06500
C  24.66100 52.97100 30.94600
O  25.66400 53.72500 30.88100
O  23.77000 53.02800 32.01000
C  24.05800 53.99600 33.06700
H  30.67300 48.85000 29.53400
H  29.68100 48.45200 23.10400
H  24.33400 51.71000 23.69900
H  27.22100 51.47400 31.56200
H  28.76700 48.86800 31.38000
H  29.25200 51.38500 32.31000
H  29.82400 51.62300 30.62800
H  30.50300 50.28400 31.68900
H  26.85000 48.72500 32.46800
H  25.32100 49.24900 31.59400
H  24.90300 49.96500 33.68400
H  25.91000 51.35100 33.15500
H  32.07700 46.56800 27.99700
H  32.24800 48.13700 28.69300
H  33.35800 47.68400 27.43000
H  33.86200 46.52600 25.16200
H  32.97400 45.29900 24.20800
H  32.59600 45.47300 25.88500
H  27.34800 48.75500 21.94400
H  26.23300 51.36000 21.80000
H  28.11200 51.46500 20.78700
H  28.85900 49.82900 20.41300
H  29.38000 50.93200 21.66900
H  24.98900 49.53800 20.68400
H  24.08100 50.15900 22.06800
H  23.78100 48.04000 22.58700
H  25.42600 48.02900 23.20300
H  24.98300 47.29700 21.62800
H  21.95000 52.02500 24.93500
H  22.68000 53.56700 25.10800
H  21.66400 52.94800 26.40700
H  23.91400 51.18300 30.80100
H  24.94900 53.70800 33.62600
H  23.25500 54.04200 33.80300
H  24.28000 55.01000 32.73500

