158

Mg 47.99800 14.62700 28.42400
C  45.89100 14.71700 31.10700
C  50.20000 16.59700 30.29200
C  50.09200 14.89300 25.73900
C  45.54400 13.27600 26.41200
N  48.06300 15.41100 30.55600
C  47.07400 15.34800 31.47000
C  47.48600 15.91600 32.82900
C  48.74600 16.74700 32.44700
C  49.08600 16.21100 31.01200
C  48.50300 18.28400 32.47400
C  47.88400 14.64600 33.72800
C  46.89300 14.51200 35.00000
H  47.60700 14.78800 36.33400
N  49.96100 15.47000 28.15300
C  50.66200 16.24800 29.00000
C  52.03000 16.52300 28.39600
C  52.07900 15.81800 27.12700
C  50.68700 15.32600 26.95100
C  53.08000 17.29800 29.13000
C  53.16900 15.70500 26.00000
O  52.98900 15.25400 24.82500
C  54.48800 16.32200 26.27000
N  47.83400 14.25100 26.37400
C  48.83900 14.42900 25.48700
C  48.33100 14.14000 24.05900
C  46.95100 13.36000 24.27000
C  46.74000 13.62100 25.76000
C  48.43900 15.40300 23.07800
C  46.86700 11.83000 23.93500
C  47.52900 10.87500 25.02900
N  46.09000 14.07800 28.60200
C  45.20700 13.46800 27.75400
C  44.00500 13.22800 28.42600
C  44.22000 13.70400 29.77100
C  45.53400 14.20600 29.82100
C  42.71800 12.69800 27.93400
C  43.53200 13.87500 31.06000
O  42.35800 13.74500 31.46100
C  44.55200 14.62300 31.86900
C  44.05000 15.97000 32.26900
O  43.88200 16.95100 31.50700
O  43.58200 15.97200 33.54800
C  42.93900 17.18700 34.08300
H  50.96900 17.12400 30.86100
H  50.69400 14.89000 24.82800
H  44.75200 12.86300 25.78300
H  46.60500 16.38200 33.27100
H  49.54900 16.65900 33.17900
H  47.45400 18.46400 32.23900
H  49.12200 18.81900 31.75400
H  48.63600 18.44700 33.54400
H  48.90100 14.81500 34.08200
H  47.91800 13.73900 33.12400
H  46.47700 13.50800 34.91000
H  46.04300 15.17300 34.83500
H  53.63100 16.62800 29.78900
H  52.48400 18.01900 29.69000
H  53.69800 17.80600 28.39000
H  54.86000 15.99600 27.24200
H  54.22900 17.37600 26.17300
H  55.24100 16.10900 25.51200
H  48.98400 13.36900 23.65000
H  46.13500 13.79700 23.69300
H  47.96300 16.28000 23.51400
H  48.03100 15.22600 22.08300
H  49.51800 15.53600 22.99900
H  47.32800 11.60700 22.97300
H  45.83000 11.49300 23.95700
H  46.89500 10.83200 25.91500
H  48.54700 11.21200 25.22300
H  47.52400 9.85000 24.65900
H  42.36300 13.17800 27.02100
H  41.97600 13.04400 28.65300
H  42.65800 11.61600 27.81700
H  44.67200 14.06200 32.79600
H  42.97500 18.03900 33.40300
H  43.39200 17.46100 35.03600
H  42.01800 16.74900 34.46800
Mg 9.09500 47.29900 27.71400
C  7.37900 46.83500 30.71500
C  11.92800 47.87000 29.58200
C  10.70000 48.07500 24.86000
C  6.02900 47.68200 26.05500
N  9.56300 47.43200 29.84500
C  8.69200 47.13400 30.87700
C  9.34500 47.43800 32.24600
C  10.73500 47.92300 31.88700
C  10.77200 47.75200 30.36900
C  10.99100 49.40600 32.42300
C  9.40800 46.18800 33.22100
C  9.18800 46.49300 34.70400
H  9.67700 45.39700 35.64600
N  11.08300 47.65800 27.29500
C  12.15000 47.78500 28.16100
C  13.34200 48.02100 27.39300
C  12.99700 47.95000 26.02100
C  11.50800 47.89400 25.99000
C  14.62200 48.26100 27.96800
C  13.83500 47.80200 24.77900
O  13.36300 47.80500 23.65200
C  15.30700 47.64900 24.94900
N  8.44500 47.86800 25.74300
C  9.34300 48.08300 24.75600
C  8.69900 48.53200 23.41500
C  7.15600 48.29300 23.76800
C  7.17300 47.87200 25.23400
C  8.95900 49.99900 23.11300
C  6.54200 47.28400 22.78600
C  6.63000 47.57000 21.26000
N  7.07600 47.18300 28.22500
C  5.95100 47.35200 27.44700
C  4.72200 47.09700 28.30900
C  5.23900 46.91000 29.59300
C  6.69900 46.90700 29.49800
C  3.30300 47.10600 27.89600
C  4.92500 46.63800 30.95900
O  3.81300 46.50200 31.42700
C  6.28600 46.63600 31.76200
C  6.34300 45.28800 32.33700
O  6.76300 44.24900 31.82000
O  5.97600 45.45200 33.66300
C  6.33300 44.25000 34.52600
H  12.78100 47.99100 30.25300
H  11.10600 48.27800 23.86700
H  5.07900 47.91200 25.56700
H  8.79700 48.27700 32.67300
H  11.56800 47.31300 32.23700
H  10.22300 50.08300 32.04900
H  11.96900 49.64900 32.00800
H  10.95900 49.39900 33.51300
H  10.40000 45.74500 33.30400
H  8.93500 45.32800 32.74600
H  8.16900 46.72100 35.01600
H  9.65800 47.46500 34.85300
H  15.20000 47.33700 27.93300
H  14.32200 48.54100 28.97800
H  15.03800 49.09400 27.40100
H  15.82500 48.58300 25.16900
H  15.71000 47.12300 24.08300
H  15.37100 46.92300 25.75900
H  8.96800 47.91600 22.55700
H  6.60200 49.23100 23.79800
H  9.61800 50.09400 22.25000
H  9.37200 50.50700 23.98400
H  8.06700 50.55500 22.82300
H  5.47800 47.26900 23.02200
H  7.03700 46.34700 23.04100
H  5.67700 47.57800 20.73300
H  7.30300 46.84400 20.80500
H  7.01100 48.59200 21.26100
H  2.62300 47.53700 28.63200
H  2.92200 46.08800 27.81900
H  3.10700 47.65100 26.97200
H  6.29000 47.43100 32.50900
H  6.36000 44.53800 35.57700
H  7.34800 43.93100 34.29200
H  5.67600 43.39900 34.34700

