158

Mg 53.71300 24.50200 43.92700
C  50.83900 26.34700 43.23300
C  52.19000 21.73300 42.54800
C  56.67000 22.99100 43.59200
C  55.27900 27.54200 44.88800
N  51.76000 24.15500 42.95900
C  50.76200 25.03100 42.73200
C  49.59200 24.42200 41.90800
C  49.85700 22.92700 42.10000
C  51.34300 22.89300 42.51200
C  48.85000 22.12100 43.04700
C  49.54600 24.90500 40.44300
C  48.08100 24.99100 39.96700
H  47.43500 23.67900 39.37300
N  54.33700 22.55500 43.33400
C  53.49900 21.55200 42.89900
C  54.24300 20.33800 42.64800
C  55.57100 20.70000 42.86100
C  55.57900 22.12600 43.30100
C  53.62000 19.04300 42.19100
C  56.79300 19.78600 42.64900
O  56.62900 18.61100 42.34600
C  58.23500 20.17700 42.86500
N  55.60700 25.14500 44.23100
C  56.68800 24.32800 44.01800
C  58.00100 25.12700 44.25000
C  57.55600 26.60000 44.53500
C  56.07200 26.39200 44.58900
C  59.04300 24.47000 45.20200
C  58.16200 27.68800 43.63800
C  58.26900 29.10200 44.24400
N  53.15000 26.56800 44.18400
C  53.84200 27.56500 44.70500
C  52.95400 28.68300 44.94900
C  51.73600 28.30000 44.30200
C  51.96400 26.97600 43.87500
C  53.33100 30.07200 45.62800
C  50.36300 28.63700 43.97200
O  49.66200 29.58700 44.20000
C  49.73600 27.38800 43.21900
C  49.36200 27.93600 41.87700
O  50.05800 28.30500 40.98400
O  47.99700 27.93600 41.83700
C  47.46000 28.22200 40.57600
H  51.75300 20.83000 42.11600
H  57.61700 22.45300 43.66100
H  55.63800 28.51500 45.22700
H  48.65700 24.60800 42.43700
H  49.86000 22.42100 41.13400
H  48.74300 21.08900 42.71100
H  47.87600 22.60800 42.99300
H  49.06100 21.99700 44.10900
H  50.03000 24.18400 39.78400
H  50.14000 25.81600 40.37300
H  48.01000 25.71100 39.15200
H  47.43000 25.30700 40.78200
H  53.06600 19.03200 41.25200
H  52.98800 18.76000 43.03300
H  54.28900 18.18300 42.14300
H  58.41800 21.05600 42.24700
H  58.77300 19.30900 42.48300
H  58.46400 20.26100 43.92700
H  58.58000 25.08700 43.32700
H  57.80200 26.75800 45.58500
H  58.57500 23.55100 45.55500
H  59.29600 25.05300 46.08700
H  59.94400 24.16000 44.67200
H  57.51600 27.86600 42.77800
H  59.13100 27.39800 43.23200
H  59.32200 29.10100 44.52800
H  57.67700 29.27500 45.14300
H  58.07700 29.80600 43.43500
H  54.29800 29.95400 46.11700
H  52.61200 30.13500 46.44400
H  53.21300 31.01200 45.08900
H  48.92000 26.91600 43.76500
H  47.20300 29.28100 40.55000
H  46.63800 27.51700 40.45100
H  47.98900 27.96800 39.65700
Mg 47.34400 35.10500 27.82300
C  45.31500 33.29100 30.24500
C  47.59600 37.55700 30.31500
C  48.36700 37.19500 25.48400
C  46.47100 32.77000 25.47000
N  46.42500 35.40200 29.97900
C  45.84000 34.48900 30.78700
C  45.96900 34.84800 32.23800
C  46.22800 36.34300 32.19700
C  46.87100 36.41400 30.77600
C  45.06500 37.31600 32.36100
C  47.21200 34.07400 32.78600
C  47.35700 34.01400 34.34000
H  46.46700 34.82200 35.32500
N  47.95800 37.08600 27.89700
C  48.14500 37.87000 29.05500
C  48.80400 39.10800 28.65900
C  49.15100 39.00300 27.20800
C  48.51300 37.72700 26.78000
C  49.23600 40.16100 29.69600
C  49.83800 39.93800 26.31900
O  50.14400 39.72400 25.15800
C  50.25900 41.26200 26.96300
N  47.12600 35.10700 25.76400
C  47.76100 36.03600 24.99200
C  48.03700 35.58000 23.55800
C  47.27400 34.19700 23.52200
C  46.93500 33.98700 25.06100
C  47.68000 36.57500 22.45600
C  48.23100 33.02500 22.94900
C  47.60900 32.07400 21.88300
N  46.17100 33.37700 27.80500
C  46.04600 32.45900 26.77900
C  45.40700 31.27400 27.26700
C  45.05900 31.59000 28.62200
C  45.47000 32.89000 28.88600
C  45.02100 30.13900 26.49900
C  44.38700 31.04800 29.85100
O  43.90900 29.97700 30.15100
C  44.33500 32.35700 30.82700
C  44.42600 31.94000 32.29000
O  45.40500 31.41500 32.82500
O  43.18700 32.02300 32.78300
C  42.89300 31.40700 34.13500
H  47.78200 38.37200 31.01700
H  48.84500 37.80300 24.71300
H  46.24400 32.08700 24.64800
H  45.07500 34.60300 32.81000
H  46.97800 36.73000 32.88600
H  45.07300 37.76000 33.35600
H  44.14500 36.75500 32.19900
H  44.90800 38.16600 31.69700
H  48.12400 34.45000 32.32200
H  47.15200 33.02700 32.48900
H  48.40200 34.32100 34.38400
H  47.36200 32.95500 34.59800
H  50.24300 40.53500 29.51200
H  49.31300 39.62900 30.64400
H  48.50300 40.91200 29.98900
H  49.30900 41.69800 27.27400
H  50.72800 41.81700 26.15000
H  51.04600 41.11000 27.70100
H  49.11100 35.44400 23.42700
H  46.40200 34.29200 22.87400
H  48.57600 36.80300 21.88000
H  47.22300 37.39500 23.01100
H  46.94200 36.24100 21.72600
H  48.51000 32.34000 23.75000
H  49.17200 33.36800 22.52000
H  47.30700 31.16700 22.40700
H  48.22200 31.85100 21.01000
H  46.70600 32.50200 21.45000
H  45.89300 29.80900 25.93500
H  44.15400 30.43600 25.90900
H  44.75500 29.41400 27.26800
H  43.35100 32.81900 30.74700
H  43.47400 30.53100 34.42500
H  41.83400 31.16500 34.23200
H  42.98500 32.25200 34.81700

