158

Mg 54.75200 23.75200 45.43100
C  52.29400 25.88700 44.26300
C  52.85400 21.04200 44.27700
C  57.46900 21.70900 45.73700
C  56.73600 26.59600 46.13300
N  52.81400 23.53700 44.36500
C  51.96800 24.53700 44.02200
C  50.67900 24.03200 43.41700
C  50.73800 22.49400 43.88200
C  52.22800 22.28900 44.22400
C  49.81300 22.16600 45.04300
C  50.53400 24.21700 41.93900
C  51.72100 24.19300 41.09100
H  52.49600 22.90300 40.71400
N  55.15200 21.61700 44.96900
C  54.21300 20.68400 44.57500
C  54.88500 19.44900 44.50600
C  56.21200 19.62300 44.89300
C  56.36900 21.08300 45.16500
C  54.16900 18.16300 44.02600
C  57.26700 18.54600 44.84800
O  57.02600 17.36600 44.61900
C  58.70600 18.90900 45.09600
N  56.83900 24.12300 45.68500
C  57.64800 23.09600 46.04600
C  58.99300 23.59700 46.58500
C  58.76500 25.19700 46.74900
C  57.37700 25.37300 46.10600
C  59.57100 22.87300 47.83800
C  59.81500 26.13900 46.21000
C  60.99500 26.62500 47.08700
N  54.64900 25.89900 45.24100
C  55.53200 26.91000 45.61600
C  54.81300 28.17800 45.50600
C  53.56300 27.81300 44.91400
C  53.50000 26.37700 44.80000
C  55.37900 29.46900 45.97100
C  52.34400 28.35400 44.40600
O  51.96600 29.55900 44.32400
C  51.46100 27.13300 43.97200
C  51.21800 27.38000 42.52700
O  51.94900 27.35500 41.55300
O  49.90500 27.60400 42.36400
C  49.39300 28.08500 41.05100
H  52.16800 20.32700 43.81800
H  58.25700 21.05300 46.11200
H  57.24200 27.43500 46.61600
H  49.84600 24.55800 43.88300
H  50.42100 21.85600 43.05700
H  48.87100 22.68300 44.85900
H  50.16200 22.38900 46.05100
H  49.57200 21.11100 44.91300
H  49.77100 24.95700 41.69800
H  49.93300 23.35900 41.63700
H  52.38400 24.87500 41.62400
H  51.56300 24.58900 40.08800
H  54.75100 17.68900 43.23600
H  53.14100 18.19200 43.66600
H  54.34800 17.54900 44.90800
H  59.01400 19.81700 44.57700
H  59.30500 18.09000 44.69600
H  58.75400 18.98800 46.18200
H  59.67400 23.30100 45.78700
H  58.61500 25.33100 47.82000
H  59.68600 23.41200 48.77900
H  60.55500 22.44100 47.65900
H  58.88700 22.04500 48.02900
H  59.21000 26.96200 45.82900
H  60.40200 25.63700 45.44000
H  60.66900 26.54200 48.12300
H  61.18200 27.64400 46.74500
H  61.84100 25.94400 46.98900
H  56.29200 29.71400 45.42800
H  55.64600 29.32800 47.01800
H  54.62600 30.24700 45.84300
H  50.53500 27.12100 44.54600
H  49.99100 28.92800 40.70600
H  48.40700 28.54800 41.09600
H  49.50400 27.26200 40.34500
Mg 47.25600 25.85900 28.37100
C  48.29500 27.99000 30.84700
C  46.42600 23.45900 30.78500
C  46.62600 23.64300 25.91400
C  48.48600 28.16400 25.99600
N  47.54300 25.75900 30.50900
C  47.73400 26.80300 31.40300
C  47.68900 26.42200 32.82600
C  47.31900 24.87400 32.69100
C  47.07700 24.64100 31.20600
C  48.27000 23.81000 33.35000
C  46.62700 27.25200 33.66300
C  47.29800 28.04100 34.76900
H  46.50100 28.17100 36.09700
N  46.62700 23.77900 28.33300
C  46.29700 23.02300 29.46400
C  45.78300 21.68600 28.94700
C  45.79500 21.71500 27.52500
C  46.32900 23.06300 27.21100
C  45.09300 20.66200 29.97600
C  45.35400 20.66500 26.50500
O  45.45400 20.81700 25.27700
C  44.85200 19.39000 27.08400
N  47.53100 25.91200 26.22700
C  47.12700 24.89200 25.43300
C  47.33800 25.23900 23.89600
C  47.92600 26.68600 23.94200
C  47.92300 26.95600 25.44900
C  48.31400 24.20700 23.25300
C  47.02500 27.76100 23.22100
C  47.60000 29.16900 22.88500
N  48.12000 27.69800 28.34500
C  48.61400 28.50000 27.33300
C  49.16300 29.71500 27.90200
C  49.12400 29.53800 29.23900
C  48.41600 28.30100 29.48000
C  49.58200 30.98000 27.21200
C  49.22700 30.25600 30.50700
O  49.54800 31.42500 30.66400
C  48.78600 29.26600 31.62400
C  49.94500 28.91100 32.41800
O  50.75500 27.98400 32.26500
O  49.98900 29.73700 33.52400
C  50.93800 29.38900 34.59500
H  46.00100 22.80600 31.55000
H  46.38900 22.92300 25.12800
H  48.64300 29.02500 25.34400
H  48.72400 26.63100 33.09600
H  46.38300 24.66100 33.20700
H  49.12200 24.35000 33.76300
H  48.66800 23.19800 32.54100
H  47.80600 23.17700 34.10700
H  45.87500 26.68800 34.21500
H  46.06400 28.01700 33.12800
H  47.47700 29.07000 34.45600
H  48.25700 27.57000 34.98500
H  44.00800 20.70100 29.88000
H  45.26000 20.94700 31.01500
H  45.52300 19.66400 29.88400
H  45.52500 18.80300 27.70900
H  44.47400 18.81100 26.24200
H  43.98700 19.78800 27.61600
H  46.34600 25.18900 23.44500
H  48.95800 26.70400 23.59300
H  48.47400 23.37500 23.93800
H  49.24100 24.71500 22.98800
H  47.82200 23.94600 22.31600
H  46.06200 27.84200 23.72600
H  46.85000 27.30900 22.24500
H  48.66300 28.92900 22.88000
H  47.25900 29.81700 23.69200
H  47.30900 29.51600 21.89400
H  50.62500 30.82500 26.93800
H  49.44300 31.84400 27.86100
H  49.05400 31.09900 26.26600
H  47.99000 29.52300 32.32300
H  51.91600 29.54400 34.13900
H  50.80600 28.39400 35.01900
H  50.86600 30.10600 35.41200

