158

Mg 2.22800 -1.09900 43.26300
C  5.63800 -0.33200 42.82800
C  1.54100 2.03800 41.77500
C  -0.88100 -2.16400 42.95400
C  3.21000 -4.37200 44.24700
N  3.44800 0.63700 42.24600
C  4.78300 0.68600 42.29500
C  5.35100 1.96500 41.67100
C  4.05300 2.81500 41.41800
C  2.97100 1.80700 41.92300
C  3.96900 4.20800 42.14300
C  6.07400 1.81400 40.33900
C  5.34700 0.98600 39.25300
H  5.21300 1.55400 37.85200
N  0.58800 -0.12900 42.68100
C  0.47200 1.13600 42.00700
C  -0.86800 1.42600 41.81200
C  -1.64600 0.29300 42.21000
C  -0.67100 -0.75800 42.58100
C  -1.41700 2.69000 41.19100
C  -3.19300 0.05600 42.22500
O  -3.93200 0.98000 41.92100
C  -3.94400 -1.20600 42.62900
N  1.32200 -3.00800 43.46200
C  0.01300 -3.11700 43.35900
C  -0.42000 -4.57100 43.54800
C  0.88900 -5.27400 44.18800
C  1.86600 -4.14400 44.09300
C  -1.76200 -4.79000 44.32100
C  1.36400 -6.46500 43.31300
C  0.37400 -7.57700 43.21900
N  4.03700 -2.23300 43.54100
C  4.34000 -3.52900 43.91600
C  5.76200 -3.73700 44.09600
C  6.29800 -2.47100 43.68100
C  5.23600 -1.62000 43.31700
C  6.43600 -4.93500 44.72400
C  7.50600 -1.68600 43.55600
O  8.70100 -1.96200 43.79300
C  7.14800 -0.41900 42.78200
C  7.70200 0.76700 43.38900
O  8.55300 1.49200 42.83800
O  7.21800 0.90400 44.64100
C  7.89900 1.88500 45.44000
H  1.26700 3.01800 41.37900
H  -1.92200 -2.46400 43.09400
H  3.42800 -5.35300 44.67200
H  6.09200 2.37000 42.36100
H  3.70700 3.00200 40.40100
H  4.60600 4.30300 43.02200
H  2.93100 4.32500 42.45700
H  4.25400 4.93300 41.38100
H  7.03900 1.33100 40.49100
H  6.25700 2.80600 39.92500
H  4.34200 0.70800 39.57100
H  5.83800 0.01400 39.19300
H  -2.15100 2.38300 40.44700
H  -0.76900 3.43400 40.72800
H  -1.95100 3.28200 41.93500
H  -3.58700 -1.50700 43.61400
H  -3.64900 -1.91000 41.85100
H  -5.01300 -1.01300 42.72800
H  -0.53200 -4.98600 42.54600
H  0.79300 -5.70400 45.18500
H  -2.15100 -3.89500 44.80800
H  -1.73000 -5.64900 44.99100
H  -2.45400 -4.94500 43.49300
H  2.30000 -6.83800 43.72800
H  1.58300 -6.06900 42.32100
H  -0.01800 -7.63100 42.20400
H  -0.38500 -7.51900 43.99900
H  1.02400 -8.45100 43.26200
H  6.50900 -5.73800 43.99000
H  5.87100 -5.30800 45.57900
H  7.41400 -4.74000 45.16300
H  7.60100 -0.44500 41.79100
H  8.90900 1.54100 45.66200
H  7.50200 1.92300 46.45500
H  7.75700 2.82900 44.91500
Mg 8.55900 3.28300 28.09800
C  9.83900 2.05300 30.92000
C  6.64400 5.50400 29.99000
C  6.87100 4.25900 25.33300
C  10.41100 1.02200 26.18400
N  8.20100 3.62900 30.19900
C  8.90300 3.01500 31.18500
C  8.51700 3.49700 32.54300
C  7.25600 4.37800 32.18300
C  7.31700 4.48800 30.69100
C  5.88300 3.79500 32.54000
C  9.68600 4.33800 33.17900
C  10.00100 3.95300 34.67000
H  9.01100 3.14700 35.56600
N  6.96000 4.68400 27.73500
C  6.40600 5.56200 28.54700
C  5.59500 6.53500 27.81500
C  5.60000 6.16400 26.52200
C  6.45700 4.93800 26.50900
C  4.85500 7.68300 28.56400
C  4.86800 6.69900 25.26900
O  4.97400 6.25400 24.14900
C  4.01400 7.90600 25.37700
N  8.53900 2.66700 26.03300
C  7.74500 3.23600 25.13700
C  7.91000 2.54600 23.77300
C  9.31600 1.73900 23.87300
C  9.47400 1.78500 25.38200
C  6.77100 1.63700 23.36700
C  10.39800 2.39500 23.12600
C  10.57400 2.01200 21.64600
N  9.85600 1.79700 28.39500
C  10.65300 1.00800 27.55600
C  11.49300 0.18300 28.32700
C  11.23500 0.58600 29.63500
C  10.24300 1.58600 29.62700
C  12.40800 -0.91100 27.83900
C  11.55400 0.32700 31.04400
O  12.33500 -0.44400 31.51100
C  10.65600 1.25200 31.88500
C  9.88500 0.42400 32.87300
O  8.81800 -0.08900 32.66700
O  10.56100 0.37500 34.03100
C  9.95300 -0.45700 35.08300
H  6.04000 6.16800 30.61300
H  6.38300 4.58700 24.41200
H  11.05900 0.34400 25.62500
H  8.36900 2.62300 33.17600
H  7.31800 5.38100 32.60600
H  5.48400 4.35900 33.38400
H  5.87100 2.81300 33.01300
H  5.03600 3.89700 31.86100
H  9.47500 5.40700 33.20800
H  10.67400 4.21900 32.73400
H  10.26700 4.87700 35.18500
H  10.92400 3.37900 34.74400
H  5.26800 8.66400 28.32800
H  4.91000 7.57600 29.64700
H  3.80100 7.69900 28.28600
H  3.32900 8.01300 24.53500
H  4.59400 8.82500 25.29900
H  3.40200 7.90800 26.27900
H  7.87800 3.34100 23.02800
H  9.23600 0.75700 23.40700
H  6.35800 1.09500 24.21800
H  7.11900 0.89300 22.64900
H  6.02300 2.24500 22.85800
H  11.35500 2.23800 23.62300
H  10.22500 3.47200 23.13100
H  10.36100 0.99000 21.33400
H  11.61500 2.13600 21.34600
H  9.88000 2.68500 21.14200
H  12.82200 -0.76200 26.84200
H  11.98500 -1.91400 27.89700
H  13.18500 -0.93800 28.60300
H  11.33700 1.98500 32.31700
H  10.51100 -1.39200 35.02500
H  8.90400 -0.75100 35.06400
H  10.14900 -0.11000 36.09800

