158

Mg 41.51200 8.28600 28.96600
C  43.27400 9.75700 31.51100
C  39.24700 6.95700 31.11600
C  39.70400 6.87400 26.27200
C  43.92000 9.37100 26.71000
N  41.33000 8.36700 31.04200
C  42.17200 8.95800 31.95600
C  41.65900 8.90500 33.35300
C  40.38000 8.03800 33.17400
C  40.27700 7.80600 31.71400
C  40.44600 6.73000 33.94400
C  41.44700 10.19600 34.29700
C  41.10700 9.95900 35.75500
H  41.50800 11.07800 36.70500
N  39.65400 7.12500 28.71900
C  38.93100 6.69600 29.73900
C  37.86500 5.91600 29.29200
C  37.88800 5.92800 27.88700
C  39.07100 6.67800 27.57100
C  36.72500 5.34800 30.22300
C  36.96100 5.27800 26.96600
O  37.26700 5.12700 25.78700
C  35.56600 4.76500 27.38100
N  41.82300 7.94500 26.80300
C  40.85900 7.50200 25.92400
C  41.35100 7.64900 24.44100
C  42.49200 8.76200 24.64800
C  42.85500 8.57400 26.14700
C  41.89100 6.34300 23.85300
C  42.03400 10.18800 24.34500
C  40.56900 10.57400 24.52800
N  43.32100 9.23500 29.08000
C  44.19800 9.62800 28.10500
C  45.26200 10.41900 28.63800
C  44.92300 10.58800 30.02700
C  43.76400 9.85500 30.19800
C  46.36800 11.06300 27.87200
C  45.31500 11.08900 31.28200
O  46.17000 11.87200 31.55500
C  44.22600 10.50100 32.33000
C  44.82400 9.62500 33.32900
O  45.33000 8.49100 33.19900
O  44.62600 10.17200 34.61200
C  45.05600 9.31000 35.68700
H  38.52400 6.61300 31.85900
H  39.09800 6.58800 25.41000
H  44.53100 9.81800 25.92300
H  42.39500 8.30600 33.89000
H  39.47000 8.53000 33.51700
H  39.46500 6.54600 34.38300
H  41.25400 6.82400 34.67000
H  40.65100 5.94900 33.21100
H  40.54300 10.67600 33.92000
H  42.29000 10.88600 34.27000
H  41.60500 9.02600 36.01900
H  40.01800 9.92600 35.72500
H  35.79100 5.85400 29.97800
H  37.00700 5.35300 31.27600
H  36.70800 4.30000 29.92400
H  34.97100 5.49600 27.92900
H  35.87400 3.93600 28.01900
H  35.06100 4.35000 26.50900
H  40.60800 8.04500 23.74900
H  43.26800 8.51500 23.92300
H  42.97500 6.31600 23.74300
H  41.37800 6.33300 22.89200
H  41.53900 5.63600 24.60500
H  42.28500 10.28900 23.28900
H  42.60100 10.95000 24.88100
H  40.41400 11.56400 24.95600
H  39.97400 9.95600 25.20100
H  40.02500 10.66100 23.58700
H  46.11200 11.27600 26.83400
H  47.18400 10.34600 27.95700
H  46.65300 11.93500 28.46100
H  43.62800 11.28700 32.79100
H  44.77900 9.93900 36.53200
H  46.14300 9.22700 35.72800
H  44.51300 8.37400 35.55900
Mg 52.70900 23.81000 43.95500
C  49.63400 25.67500 43.33500
C  50.92200 20.89100 43.35300
C  55.71200 21.99700 43.56700
C  54.41100 26.78900 44.33700
N  50.60100 23.33400 43.20000
C  49.53200 24.24100 43.25300
C  48.21800 23.48300 43.18100
C  48.60100 21.96500 43.32400
C  50.14100 21.99700 43.32400
C  47.88000 21.21800 44.45900
C  47.27700 23.62300 41.92600
C  47.99000 23.91300 40.56200
H  47.26200 23.35900 39.26500
N  53.27600 21.73100 43.45500
C  52.35800 20.70200 43.32100
C  53.09400 19.48600 43.00900
C  54.47400 19.82600 42.87000
C  54.56200 21.19900 43.35500
C  52.46200 18.15400 42.82800
C  55.59000 18.94000 42.38400
O  55.37500 17.76800 42.11600
C  57.02300 19.46000 42.15700
N  54.70200 24.31800 43.95700
C  55.76600 23.42900 43.89000
C  57.10400 24.16800 43.93100
C  56.64700 25.62300 44.35800
C  55.16500 25.61000 44.23200
C  58.21900 23.57800 44.85700
C  57.17600 26.70100 43.42600
C  56.61100 27.02600 42.04100
N  52.16100 25.82600 44.00000
C  53.01100 26.90300 44.17600
C  52.17600 28.08100 44.27400
C  50.88300 27.61500 44.03900
C  50.91200 26.23800 43.72200
C  52.67300 29.44500 44.57300
C  49.53900 28.07900 44.07000
O  49.05400 29.15500 44.34400
C  48.71200 26.81900 43.42300
C  48.27400 27.29200 42.10700
O  49.01600 27.56400 41.18400
O  46.94400 27.36300 42.05800
C  46.43200 27.58600 40.68100
H  50.32000 19.98500 43.26300
H  56.70100 21.55200 43.70100
H  54.97700 27.68500 44.59900
H  47.59200 23.75100 44.03300
H  48.37500 21.45500 42.38800
H  48.35700 21.19000 45.43900
H  47.68200 20.18400 44.17800
H  46.91600 21.71700 44.55400
H  46.92300 24.62300 42.17600
H  46.54700 22.81900 41.83000
H  48.91300 23.34000 40.65600
H  48.25200 24.96000 40.41100
H  53.07500 17.47400 43.42000
H  52.31200 17.95300 41.76800
H  51.56800 18.02300 43.43900
H  56.97900 20.32400 41.49300
H  57.61500 18.59300 41.86500
H  57.35500 19.78900 43.14200
H  57.59100 24.12500 42.95700
H  56.93300 25.77700 45.39900
H  58.14500 24.10600 45.80700
H  59.22800 23.74100 44.47900
H  58.06000 22.51300 45.02900
H  58.23900 26.45900 43.42100
H  57.21800 27.57100 44.08100
H  56.64500 28.11200 41.96600
H  55.61700 26.69400 41.73900
H  57.28700 26.61600 41.29100
H  53.75300 29.45700 44.72200
H  52.17400 29.91800 45.41800
H  52.48300 30.12300 43.74100
H  47.82400 26.68100 44.04000
H  46.15200 26.70200 40.10800
H  46.99000 28.15800 39.94000
H  45.46900 28.09500 40.71300

