158

Mg 25.63300 0.05700 28.85600
C  27.37000 0.24100 31.83200
C  22.78300 0.28600 30.58600
C  24.09900 0.14600 25.81600
C  28.63900 -0.67000 27.29400
N  25.21100 0.24200 31.03400
C  26.02000 0.41200 32.02900
C  25.25700 0.66300 33.34200
C  23.78800 0.64000 32.91100
C  23.92400 0.36000 31.44100
C  22.92300 -0.42600 33.56300
C  25.69100 1.92900 34.13500
C  26.22500 1.71800 35.55200
H  25.39500 2.39700 36.64400
N  23.74600 0.15300 28.28900
C  22.70500 0.20000 29.17600
C  21.45300 0.21500 28.36400
C  21.84300 0.26300 26.99400
C  23.33200 0.20000 26.98200
C  20.09200 0.23800 29.01000
C  20.95400 0.47700 25.76500
O  21.36400 0.43600 24.62000
C  19.45100 0.87500 25.90400
N  26.31500 -0.13300 26.76300
C  25.47600 -0.06100 25.71200
C  26.24700 -0.02900 24.41800
C  27.64400 -0.49200 24.85400
C  27.54000 -0.49700 26.40000
C  25.53900 -0.95400 23.37800
C  28.80900 0.37800 24.31500
C  28.69500 1.87600 24.43200
N  27.54300 -0.29600 29.41000
C  28.68500 -0.63400 28.68500
C  29.82300 -0.87800 29.54600
C  29.30500 -0.49600 30.78700
C  27.95200 -0.11900 30.62600
C  31.07500 -1.48700 29.08400
C  29.75900 -0.42900 32.17600
O  30.83500 -0.73800 32.61100
C  28.44100 0.09700 32.90200
C  28.11900 -1.05400 33.83000
O  27.65100 -2.15000 33.44400
O  28.49700 -0.71500 35.06700
C  28.58900 -1.82700 36.07800
H  21.80400 0.53900 31.00000
H  23.70600 0.35300 24.81800
H  29.58300 -0.88400 26.78900
H  25.36500 -0.27400 33.88800
H  23.41700 1.65500 33.05400
H  23.01800 -0.25000 34.63500
H  23.27000 -1.44600 33.39800
H  21.84900 -0.43700 33.37700
H  24.94500 2.72400 34.13900
H  26.50100 2.40900 33.58600
H  27.22800 2.14100 35.61700
H  26.45100 0.67400 35.77300
H  19.60000 1.16000 28.70100
H  20.02800 0.20600 30.09700
H  19.50300 -0.60400 28.64600
H  18.96800 0.01700 26.37100
H  19.11500 1.16700 24.90900
H  19.36500 1.72100 26.58700
H  26.23300 0.98100 24.00800
H  27.86800 -1.54900 24.71500
H  25.25300 -1.84500 23.93700
H  26.18100 -1.33100 22.58100
H  24.71600 -0.48200 22.84100
H  28.91000 -0.02300 23.30700
H  29.59900 0.06200 24.99600
H  27.84200 2.28100 24.97600
H  28.76100 2.41800 23.48900
H  29.62400 2.18200 24.91300
H  31.82700 -1.38100 29.86600
H  31.45200 -1.01300 28.17800
H  30.76000 -2.52100 28.94200
H  28.59000 0.97700 33.52800
H  28.50400 -2.83900 35.68000
H  27.76900 -1.55800 36.74300
H  29.44400 -1.86100 36.75300
Mg 42.27900 41.43700 26.38500
C  41.16300 43.76800 28.77200
C  42.81900 39.18200 28.90200
C  43.52500 39.34500 24.12600
C  42.01100 43.95800 23.89300
N  42.07500 41.55200 28.54100
C  41.58400 42.59300 29.28100
C  41.62800 42.23500 30.71800
C  42.25200 40.81300 30.81500
C  42.45500 40.49600 29.32600
C  43.52800 40.50600 31.68500
C  40.20000 42.51000 31.44100
C  39.79500 41.56600 32.58700
H  39.35800 42.26800 33.80800
N  43.04600 39.54100 26.47100
C  43.17100 38.75200 27.57400
C  43.53200 37.41900 27.15100
C  43.79400 37.44100 25.77700
C  43.33000 38.79900 25.41600
C  43.82500 36.30200 28.15600
C  44.40600 36.38300 24.95000
O  44.59900 36.50300 23.72900
C  44.77900 34.99600 25.57500
N  42.89700 41.67200 24.33300
C  43.32500 40.54400 23.59600
C  43.23200 40.81000 22.10100
C  42.70800 42.30100 21.99400
C  42.43900 42.66300 23.45300
C  44.52000 40.45600 21.28500
C  41.57000 42.60500 20.97000
C  40.18300 42.41600 21.57700
N  41.72000 43.45700 26.28800
C  41.66400 44.31300 25.21600
C  40.99800 45.49900 25.56600
C  40.77200 45.39200 26.99800
C  41.29400 44.10400 27.36100
C  40.66200 46.75700 24.70500
C  40.37900 46.05800 28.29000
O  39.91400 47.17300 28.43700
C  40.70300 45.05500 29.49200
C  41.84500 45.65300 30.19000
O  42.97200 45.68900 29.68600
O  41.45100 45.88100 31.47500
C  42.58600 46.41900 32.19300
H  42.82100 38.39900 29.66300
H  43.82800 38.57000 23.41900
H  41.85100 44.64600 23.06000
H  42.35900 42.80100 31.29500
H  41.46700 40.09400 31.05200
H  43.67000 41.25800 32.46000
H  44.41500 40.44900 31.05500
H  43.50200 39.55500 32.21700
H  39.34500 42.51100 30.76600
H  40.17000 43.49900 31.89800
H  40.69600 41.01900 32.86600
H  38.98000 40.90600 32.29200
H  43.25400 35.41300 27.88700
H  43.48200 36.37900 29.18800
H  44.86700 35.99600 28.25400
H  45.49200 35.03000 26.39900
H  45.29800 34.32600 24.88900
H  43.93300 34.49400 26.04300
H  42.36300 40.26100 21.73800
H  43.56200 42.93900 21.76500
H  45.34100 40.17000 21.94300
H  44.83300 41.34100 20.73100
H  44.35900 39.69300 20.52300
H  41.54400 41.88300 20.15400
H  41.72800 43.56300 20.47700
H  40.15100 41.92400 22.54900
H  39.57100 41.84100 20.88200
H  39.74900 43.40600 21.71300
H  41.59200 47.31400 24.60100
H  40.01000 47.33900 25.35600
H  40.35100 46.45200 23.70600
H  39.81700 44.82000 30.08100
H  42.67200 47.45900 31.87600
H  43.53900 45.92000 32.02100
H  42.46500 46.24900 33.26300

