158

Mg 43.09900 3.70700 47.76100
C  41.50900 6.73700 47.04700
C  40.18000 2.08400 47.03200
C  44.81900 0.79000 47.72200
C  46.24100 5.40100 47.47700
N  41.03000 4.37800 47.16000
C  40.59000 5.74300 47.07100
C  39.08900 5.67400 46.53800
C  38.71600 4.25000 46.79500
C  40.02800 3.49000 47.02500
C  37.66100 4.18400 47.99500
C  39.01400 6.17100 45.04100
C  37.53200 6.45900 44.62700
H  37.24700 6.11200 43.15000
N  42.58300 1.72700 47.51000
C  41.30300 1.26200 47.23300
C  41.39800 -0.18300 47.07700
C  42.70200 -0.55100 47.45100
C  43.45400 0.72200 47.52800
C  40.11500 -0.93700 46.78100
C  43.15100 -1.98000 47.66200
O  42.35100 -2.89800 47.40900
C  44.53600 -2.41400 48.05200
N  45.26400 3.25100 47.35700
C  45.63700 1.94400 47.65400
C  47.16800 1.77200 47.71400
C  47.63000 3.25100 47.82300
C  46.34200 4.01500 47.52200
C  47.59300 0.93300 48.94500
C  48.70200 3.58700 46.70000
C  49.68500 4.64400 47.08800
N  43.76500 5.69000 47.44100
C  45.06400 6.15000 47.34200
C  44.90600 7.59700 47.33100
C  43.55500 7.89600 47.20600
C  42.90500 6.69400 47.23100
C  46.06300 8.53500 47.43000
C  42.64000 8.97500 47.12200
O  42.87200 10.17700 47.04200
C  41.22800 8.24800 46.94100
C  40.32000 8.77600 47.97200
O  40.13800 8.35900 49.06400
O  39.63200 9.89700 47.39800
C  38.66400 10.47900 48.24300
H  39.21700 1.60700 46.83900
H  45.40100 -0.13100 47.78700
H  47.10800 6.02600 47.70000
H  38.47900 6.34400 47.14500
H  38.32500 3.74200 45.91400
H  36.62200 4.12100 47.67200
H  37.72800 5.07700 48.61700
H  37.85900 3.34300 48.66100
H  39.44800 5.47200 44.32700
H  39.55800 7.11500 45.00400
H  37.42700 7.53600 44.76000
H  36.87000 5.91400 45.30000
H  40.07500 -1.07900 45.70100
H  39.19400 -0.44100 47.09000
H  40.16800 -1.90100 47.28600
H  45.09600 -2.31700 47.12300
H  44.44600 -3.47100 48.30200
H  45.00300 -1.88400 48.88200
H  47.57200 1.29800 46.81900
H  47.85700 3.51100 48.85700
H  48.19300 1.61700 49.54400
H  48.23900 0.09800 48.67400
H  46.67200 0.63900 49.45000
H  48.26800 3.81900 45.72700
H  49.12700 2.59200 46.57000
H  50.71800 4.31700 46.97500
H  49.30300 4.97300 48.05500
H  49.71400 5.46500 46.37200
H  45.74200 9.55700 47.63100
H  46.58400 8.63400 46.47800
H  46.70000 8.18200 48.24100
H  40.94000 8.48300 45.91600
H  37.74500 9.89300 48.21200
H  38.31300 11.34200 47.67700
H  38.92800 10.88200 49.22100
Mg 40.58200 8.23700 29.42000
C  42.35500 9.77600 32.08400
C  38.28600 6.96900 31.66500
C  39.15500 6.57000 26.83200
C  43.27600 9.00300 27.35400
N  40.39300 8.39300 31.64000
C  41.16900 9.07400 32.47200
C  40.62900 9.03200 33.90400
C  39.26900 8.20900 33.73800
C  39.32900 7.76400 32.29900
C  39.10500 7.04200 34.75300
C  40.47600 10.44100 34.64200
C  39.54300 10.51800 35.86900
H  40.03000 11.38900 37.05400
N  38.92700 6.95200 29.20400
C  38.10900 6.63000 30.24600
C  37.02800 5.91500 29.71500
C  37.24000 5.73300 28.29100
C  38.46900 6.44100 28.05900
C  35.81600 5.52000 30.52900
C  36.31800 5.11800 27.22400
O  36.58200 5.05100 26.01600
C  34.93000 4.62100 27.62900
N  41.21500 7.78200 27.36000
C  40.33400 7.16900 26.49000
C  40.93300 7.17100 25.06900
C  42.33000 7.91200 25.27200
C  42.34500 8.22700 26.73300
C  40.98700 5.71400 24.47300
C  42.44200 9.16900 24.35900
C  42.14800 10.57400 24.98500
N  42.40100 9.28400 29.59400
C  43.37300 9.46200 28.66800
C  44.49600 10.21200 29.32600
C  44.07600 10.40700 30.64700
C  42.81400 9.78200 30.78300
C  45.70900 10.73700 28.55200
C  44.44800 11.03500 31.98600
O  45.33200 11.76400 32.35800
C  43.24200 10.69400 32.92500
C  43.79300 10.16700 34.25100
O  44.17600 9.03500 34.50700
O  43.90200 11.22400 35.17500
C  44.68800 10.89900 36.38600
H  37.60500 6.48800 32.36900
H  38.75600 6.15900 25.90200
H  44.09400 9.35600 26.72200
H  41.37500 8.50600 34.50100
H  38.39700 8.85900 33.80800
H  38.39400 7.35100 35.51800
H  40.01600 6.64900 35.20400
H  38.67700 6.14300 34.31000
H  40.03200 11.07400 33.87400
H  41.45300 10.86700 34.87200
H  39.30900 9.53300 36.27300
H  38.60800 10.98500 35.56100
H  35.86600 6.01500 31.49900
H  35.74700 4.43400 30.58600
H  34.90400 5.80500 30.00500
H  34.28600 5.49200 27.75100
H  35.00600 3.96900 28.49900
H  34.50900 4.05200 26.80000
H  40.22800 7.67700 24.40900
H  43.17500 7.22600 25.23800
H  40.86500 4.92200 25.21100
H  41.97200 5.64800 24.01100
H  40.14400 5.66000 23.78400
H  41.84000 9.08900 23.45300
H  43.50700 9.15000 24.12900
H  41.67100 10.47100 25.96000
H  41.52400 11.12000 24.27800
H  43.07100 11.11400 25.19600
H  45.31000 11.49100 27.87300
H  46.05400 9.86600 27.99500
H  46.45000 11.12900 29.24900
H  42.80300 11.66600 33.14800
H  45.76900 10.83300 36.26300
H  44.39600 9.96400 36.86400
H  44.50700 11.71200 37.08900

