158

Mg 35.19100 1.99100 29.90200
C  33.26300 3.42200 32.17900
C  37.95500 2.16000 32.18500
C  37.32400 1.01000 27.39500
C  32.67500 2.36500 27.38900
N  35.47800 2.58900 31.99800
C  34.47400 3.07700 32.78400
C  34.91800 3.19200 34.24100
C  36.46200 2.95400 34.22500
C  36.69300 2.51400 32.70700
C  37.45400 4.17900 34.68300
C  34.20600 2.16600 35.22800
C  33.54900 2.75900 36.48300
H  34.27200 3.82900 37.19000
N  37.29900 1.52800 29.85500
C  38.23300 1.69200 30.88500
C  39.50300 1.26200 30.38900
C  39.31200 0.83900 28.99300
C  37.94500 1.08000 28.68200
C  40.71700 1.23400 31.25200
C  40.41100 0.38100 28.00300
O  40.18800 0.03200 26.82800
C  41.80500 0.13000 28.55900
N  34.97200 1.58400 27.74000
C  36.03900 1.27000 26.97500
C  35.59500 1.27000 25.51100
C  34.07300 1.32000 25.52000
C  33.87100 1.76300 27.00500
C  36.33100 2.45500 24.73100
C  33.32600 0.05600 25.07900
C  32.38500 0.23300 23.88000
N  33.32200 2.65100 29.78500
C  32.37700 2.67900 28.72400
C  31.19100 3.29100 29.27600
C  31.49900 3.63200 30.57500
C  32.81300 3.15600 30.83200
C  29.95900 3.58900 28.47000
C  30.91700 4.15900 31.77500
O  29.76300 4.54800 31.97100
C  31.99100 3.98100 32.88800
C  32.32700 5.25100 33.52000
O  33.19200 6.12700 33.29100
O  31.33900 5.39400 34.49200
C  31.37300 6.56600 35.39500
H  38.79400 2.17700 32.88400
H  37.91300 0.79800 26.50000
H  31.95900 2.41800 26.56600
H  34.70000 4.23000 34.49000
H  36.84300 2.19200 34.90500
H  36.91000 5.06200 35.01600
H  37.92100 4.66900 33.82900
H  38.27900 3.94800 35.35700
H  34.87200 1.35200 35.51500
H  33.49300 1.62200 34.60800
H  33.28300 2.01400 37.23200
H  32.56900 3.12600 36.17800
H  41.13500 0.23100 31.34700
H  40.60700 1.57500 32.28100
H  41.49000 1.79900 30.73100
H  42.37200 1.05800 28.48300
H  42.34200 -0.55500 27.90300
H  41.87000 -0.40100 29.50800
H  35.93900 0.30100 25.14900
H  33.65100 2.01700 24.79600
H  37.10100 1.98800 24.11800
H  36.88700 3.14200 25.36900
H  35.70100 3.05500 24.07500
H  32.72100 -0.29400 25.91600
H  34.04700 -0.73000 24.85600
H  32.38100 -0.74100 23.39100
H  32.56900 1.02800 23.15800
H  31.39200 0.38800 24.30200
H  29.22800 2.78200 28.52000
H  30.18300 3.79600 27.42300
H  29.42000 4.42500 28.91600
H  31.51600 3.29200 33.58700
H  32.28600 6.62400 35.98900
H  30.64000 6.36700 36.17700
H  31.27500 7.51800 34.87400
Mg 7.29600 53.62700 42.22200
C  6.85700 50.15100 41.48500
C  10.52500 53.29800 41.08400
C  7.51300 57.04500 42.10900
C  3.90000 53.89300 42.97100
N  8.47700 51.92400 41.35300
C  8.13300 50.60500 41.22700
C  9.30000 49.83000 40.69000
C  10.53500 50.75200 40.99200
C  9.79900 52.07200 41.15900
C  11.49800 50.33600 42.16800
C  9.16500 49.47400 39.17000
C  8.65100 50.51200 38.14800
H  8.07500 50.05200 36.85600
N  8.71500 54.98500 41.46700
C  10.06600 54.65000 41.16500
C  10.81900 55.88000 40.94300
C  9.94500 56.98300 41.32100
C  8.65500 56.36500 41.64500
C  12.29600 55.93000 40.44300
C  10.40100 58.43500 41.29600
O  11.55400 58.75700 40.96500
C  9.43300 59.57900 41.57500
N  5.91500 55.21400 42.48600
C  6.26700 56.52200 42.47500
C  5.03500 57.41500 42.66700
C  3.89700 56.46800 42.87700
C  4.59100 55.06900 42.80200
C  5.09400 58.50900 43.71600
C  2.67900 56.54100 41.91700
C  1.35300 55.84900 42.21300
N  5.74400 52.32600 42.38300
C  4.41600 52.57700 42.80600
C  3.77400 51.33200 42.97200
C  4.63800 50.33400 42.43700
C  5.85400 51.00000 42.08400
C  2.38100 51.05000 43.52300
C  4.83600 48.92900 42.12400
O  4.03400 48.00200 42.34800
C  6.27500 48.72200 41.54800
C  6.11800 48.13900 40.19400
O  5.43600 48.62400 39.28000
O  6.87900 47.03000 40.12800
C  6.64400 46.26400 38.95600
H  11.60700 53.20500 40.96900
H  7.62300 58.12800 42.19500
H  2.83000 53.90800 43.19000
H  9.43100 48.89500 41.23400
H  11.10600 50.80000 40.06500
H  12.18500 49.51200 41.97700
H  10.89600 50.19900 43.06600
H  12.04500 51.24500 42.42000
H  8.59800 48.55400 39.02300
H  10.17600 49.38900 38.77200
H  9.41800 51.23000 37.85800
H  7.83000 51.09700 38.56400
H  12.30000 56.37900 39.45000
H  12.70200 54.91900 40.41900
H  13.01400 56.53900 40.99200
H  8.63500 59.46500 40.84100
H  10.11400 60.42000 41.44400
H  9.02400 59.55900 42.58500
H  4.91900 57.87500 41.68600
H  3.55600 56.54700 43.90900
H  6.07600 58.97500 43.63100
H  5.00000 58.06400 44.70700
H  4.49700 59.40800 43.55800
H  3.05500 56.06900 41.00900
H  2.51700 57.53900 41.50900
H  0.51400 56.50600 41.98500
H  1.43500 55.51000 43.24600
H  1.29500 54.93300 41.62500
H  1.79900 51.97000 43.57500
H  2.48100 50.66500 44.53800
H  1.69100 50.46100 42.91900
H  7.00900 48.10200 42.06300
H  7.17000 46.59500 38.06000
H  5.55900 46.21800 38.85700
H  6.80300 45.18800 39.01800

