158

Mg 26.52400 50.51900 26.44200
C  24.56000 51.85600 29.07700
C  28.92000 49.85500 28.89500
C  28.64300 49.68500 23.94100
C  24.48700 51.97200 24.17100
N  26.57100 50.66500 28.74300
C  25.62700 51.19400 29.56900
C  26.05600 51.07300 31.09300
C  27.60700 50.62300 30.97400
C  27.72300 50.33900 29.44700
C  28.75200 51.57300 31.51700
C  25.11800 50.09800 31.90000
C  24.75600 50.67300 33.23700
H  25.84900 50.75300 34.30800
N  28.35600 49.74200 26.46600
C  29.20700 49.56600 27.55800
C  30.50500 49.09600 27.02300
C  30.50400 49.14900 25.65900
C  29.10000 49.56400 25.32700
C  31.68900 48.67300 27.97300
C  31.72800 48.87800 24.63500
O  31.58100 48.91300 23.38500
C  33.12800 48.62500 25.12900
N  26.49100 50.65400 24.33400
C  27.51100 50.29900 23.53400
C  27.15700 50.61800 22.09700
C  25.74500 51.14700 22.13500
C  25.52600 51.20500 23.62600
C  28.16400 51.71000 21.54700
C  24.62500 50.41500 21.36800
C  24.20500 51.11800 19.99500
N  24.78700 51.60800 26.57200
C  24.02300 52.15100 25.51100
C  22.87200 52.85100 26.10700
C  23.04700 52.72700 27.44200
C  24.25400 52.06600 27.69300
C  21.85000 53.52100 25.28400
C  22.43600 53.06000 28.66100
O  21.36900 53.57800 28.82500
C  23.43100 52.56700 29.85500
C  23.91000 53.66200 30.69500
O  24.87300 54.40300 30.42100
O  23.22600 53.62900 31.85800
C  23.60700 54.52600 32.92800
H  29.68000 49.71700 29.66700
H  29.31100 49.47400 23.10400
H  23.71900 52.30400 23.46900
H  26.12100 52.08400 31.49600
H  27.67100 49.66600 31.49200
H  28.31600 52.40900 32.06300
H  29.28100 52.00600 30.66700
H  29.49800 51.14100 32.18400
H  25.59000 49.14700 32.14900
H  24.27600 49.91500 31.23200
H  23.90500 50.06100 33.53500
H  24.33700 51.67500 33.14100
H  31.44600 49.12700 28.93300
H  32.63700 49.09200 27.63600
H  31.71400 47.59200 28.10800
H  33.01400 47.87300 25.91100
H  33.63600 49.47800 25.57800
H  33.65700 48.17600 24.28900
H  27.23800 49.69500 21.52300
H  25.82900 52.13800 21.69000
H  28.53100 51.32000 20.59800
H  28.98600 51.86200 22.24700
H  27.83200 52.74200 21.43500
H  23.71800 50.24000 21.94700
H  24.97000 49.38300 21.29300
H  23.88800 50.26100 19.40000
H  24.96400 51.71300 19.48700
H  23.33300 51.71000 20.27500
H  22.21700 53.63500 24.26400
H  21.56900 54.52100 25.61500
H  20.92700 52.94200 25.28800
H  22.84200 51.84900 30.42700
H  23.04000 54.24700 33.81600
H  23.51700 55.53900 32.53700
H  24.67300 54.30600 32.98300
Mg -11.20200 39.51700 41.47000
C  -10.15400 36.20800 40.94000
C  -8.27100 40.49900 39.64500
C  -12.37900 42.58700 41.00300
C  -14.25500 38.33000 42.47700
N  -9.42400 38.44000 40.37400
C  -9.25600 37.06300 40.27800
C  -7.93700 36.68200 39.59500
C  -7.23900 38.12500 39.47200
C  -8.34300 39.08400 39.80000
C  -5.97600 38.37100 40.33400
C  -8.14400 35.96000 38.21000
C  -7.24000 34.79200 37.88100
H  -6.21600 35.03800 36.78800
N  -10.42300 41.32700 40.49000
C  -9.24700 41.51100 39.84800
C  -9.07200 42.94200 39.56900
C  -10.27500 43.55000 39.91700
C  -11.14000 42.47100 40.46600
C  -7.94200 43.42300 38.79100
C  -10.58400 45.00500 39.73700
O  -9.79900 45.74600 39.14000
C  -11.95600 45.66400 40.09100
N  -13.05400 40.31000 41.64900
C  -13.28500 41.64500 41.50500
C  -14.75500 42.01000 41.87200
C  -15.43400 40.59400 42.06200
C  -14.16500 39.68600 42.11400
C  -14.86100 42.83700 43.23200
C  -16.54100 40.11300 41.07000
C  -17.74700 39.25900 41.52100
N  -12.07400 37.66500 41.88000
C  -13.26700 37.36200 42.40800
C  -13.36300 35.88900 42.64100
C  -12.11300 35.34900 42.08500
C  -11.35500 36.47900 41.71600
C  -14.58700 35.12500 43.23800
C  -11.37800 34.14300 41.72800
O  -11.63000 32.99700 41.98700
C  -10.09900 34.65500 40.93100
C  -8.84000 34.05300 41.55100
O  -8.21800 33.03000 41.23900
O  -8.23900 34.94500 42.51500
C  -6.96800 34.44900 43.09500
H  -7.28400 40.71100 39.22800
H  -12.79300 43.59100 41.12200
H  -15.22300 37.99700 42.85800
H  -7.42900 36.05400 40.32700
H  -6.96300 38.26700 38.42700
H  -5.84100 37.66300 41.15100
H  -6.05500 39.30900 40.88300
H  -5.15400 38.26300 39.62600
H  -7.99900 36.74000 37.46300
H  -9.18500 35.63900 38.16700
H  -7.95700 34.04100 37.55000
H  -6.67900 34.41800 38.73800
H  -7.30200 42.60200 38.47000
H  -7.43400 43.93500 39.60900
H  -8.20000 44.16200 38.03200
H  -12.77100 45.19600 39.53800
H  -11.90300 46.72800 39.86000
H  -12.16100 45.57100 41.15800
H  -15.14300 42.50600 40.98200
H  -15.93700 40.43100 43.01500
H  -15.35300 43.79400 43.06500
H  -13.84400 42.96000 43.60500
H  -15.48100 42.45300 44.04200
H  -15.93700 39.72000 40.25300
H  -17.03900 41.05900 40.85700
H  -18.00300 38.72000 40.60900
H  -18.48700 39.89600 42.00500
H  -17.45700 38.59300 42.33500
H  -15.10900 35.87500 43.83200
H  -14.30700 34.29300 43.88400
H  -15.30400 34.77600 42.49500
H  -10.18600 34.29900 39.90500
H  -6.62800 34.86900 44.04200
H  -6.16200 34.69400 42.40300
H  -7.10300 33.40000 43.35800

