158

Mg 1.14500 -1.64500 43.11000
C  4.61100 -0.86600 42.67600
C  0.26700 1.02700 41.33700
C  -1.86300 -2.87000 43.14400
C  2.36800 -4.89300 44.48800
N  2.32000 -0.24700 41.94600
C  3.69500 -0.00100 42.03500
C  4.02700 1.28300 41.31900
C  2.64400 1.96900 41.17800
C  1.66000 0.84100 41.49400
C  2.50300 3.27200 42.02400
C  4.77500 1.01100 39.95900
C  6.10200 1.86900 39.81000
H  6.01500 2.76200 38.59000
N  -0.62300 -0.92700 42.32800
C  -0.80500 0.20000 41.63300
C  -2.13700 0.47500 41.45900
C  -2.82700 -0.67800 41.98200
C  -1.80700 -1.62000 42.50900
C  -2.56700 1.77800 40.83400
C  -4.30800 -0.81800 41.96700
O  -5.02600 -0.05900 41.39700
C  -4.94600 -2.02000 42.60100
N  0.36200 -3.72300 43.47900
C  -0.97200 -3.91200 43.56300
C  -1.35500 -5.33300 44.03800
C  -0.00500 -5.88200 44.62800
C  0.99500 -4.79200 44.12200
C  -2.41300 -5.29100 45.18700
C  0.32900 -7.29400 44.11700
C  0.36200 -8.35000 45.26700
N  3.08100 -2.75000 43.53900
C  3.36400 -4.00300 44.07000
C  4.84600 -4.14200 44.22900
C  5.40500 -2.97500 43.64000
C  4.29400 -2.14300 43.24800
C  5.65500 -5.27300 44.78500
C  6.68600 -2.23600 43.24300
O  7.84000 -2.54900 43.41000
C  6.16300 -0.91500 42.53100
C  6.67800 0.32600 43.24200
O  6.43500 0.59900 44.38500
O  7.57200 1.13900 42.53300
C  7.82500 2.41100 43.26200
H  0.07200 1.92700 40.75100
H  -2.87300 -3.27600 43.23600
H  2.78000 -5.80000 44.93800
H  4.70200 1.91600 41.89600
H  2.53800 2.23900 40.12800
H  2.20200 4.13100 41.42300
H  3.49000 3.51400 42.42000
H  1.76700 3.17500 42.82200
H  4.17200 1.37300 39.12600
H  4.95600 -0.06100 39.89100
H  6.95500 1.19100 39.83600
H  6.26800 2.55400 40.64100
H  -3.59600 2.13400 40.87200
H  -2.37200 1.86400 39.76500
H  -2.03700 2.60600 41.30500
H  -4.54400 -2.95300 42.20500
H  -6.01200 -2.04800 42.37600
H  -4.87500 -1.96000 43.68700
H  -1.72700 -5.91600 43.19500
H  0.00300 -5.83500 45.71700
H  -2.58900 -4.27300 45.53300
H  -2.03300 -5.80500 46.07100
H  -3.31100 -5.81300 44.85700
H  1.31100 -7.21500 43.65200
H  -0.48900 -7.64600 43.48900
H  1.08600 -9.14700 45.10400
H  -0.58800 -8.86800 45.40000
H  0.61400 -7.81900 46.18500
H  6.69100 -4.93300 44.78500
H  5.64000 -6.11100 44.08800
H  5.26600 -5.49300 45.77900
H  6.55700 -0.84900 41.51700
H  8.53900 2.20900 44.06100
H  6.98800 2.90900 43.75200
H  8.22300 3.13000 42.54700
Mg 17.09400 51.95900 26.45000
C  19.10500 50.41000 28.87500
C  14.83300 52.67800 29.07300
C  14.99400 53.40200 24.23900
C  19.06300 50.70800 23.87200
N  16.95200 51.64300 28.63200
C  17.98200 51.01000 29.39000
C  17.60600 51.17800 30.92400
C  16.03400 51.47000 30.88100
C  15.96000 51.96700 29.44300
C  15.16700 50.22500 31.19100
C  18.49200 52.25400 31.60400
C  18.82800 52.03100 33.06800
H  17.82800 51.21900 33.85200
N  15.15300 52.83800 26.62500
C  14.47900 53.17800 27.83700
C  13.16300 53.77400 27.49900
C  13.13500 53.77000 26.06600
C  14.40100 53.32300 25.54300
C  12.02300 53.98100 28.56800
C  12.01500 54.29100 25.15100
O  12.21500 54.38100 23.94100
C  10.68700 54.74300 25.69800
N  17.06900 52.07600 24.44900
C  16.14200 52.79100 23.72400
C  16.48700 52.85700 22.22500
C  17.82800 52.00100 22.14200
C  18.07300 51.60600 23.58600
C  15.34400 52.23300 21.32500
C  19.09200 52.63700 21.50400
C  19.71600 53.83400 22.35200
N  18.77800 50.93300 26.38300
C  19.40600 50.43200 25.21700
C  20.56900 49.61700 25.69200
C  20.53900 49.68200 27.15000
C  19.42900 50.39100 27.46700
C  21.39000 48.81000 24.90200
C  21.09100 49.17800 28.46600
O  22.05200 48.44400 28.66500
C  20.29300 49.77300 29.64400
C  19.82000 48.75800 30.61200
O  19.03900 47.85100 30.53600
O  20.58900 48.97600 31.77500
C  20.59400 47.92700 32.87900
H  14.25500 52.85000 29.98400
H  14.33600 53.78400 23.45600
H  19.80800 50.37300 23.14800
H  17.83100 50.19900 31.34800
H  15.76400 52.22700 31.61700
H  15.78600 49.33500 31.30400
H  14.42400 50.05200 30.41200
H  14.64300 50.42000 32.12700
H  18.10600 53.26300 31.46100
H  19.44700 52.17700 31.08400
H  19.11400 53.01800 33.43100
H  19.66300 51.33400 33.00400
H  12.10400 53.47000 29.52800
H  11.04300 53.59800 28.28300
H  11.98300 55.06300 28.69700
H  10.14600 53.89200 26.11100
H  10.01900 55.07600 24.90300
H  10.99000 55.50100 26.42100
H  16.69800 53.89000 21.94900
H  17.67600 51.07000 21.59600
H  14.45700 52.02400 21.92300
H  15.63000 51.31200 20.81600
H  15.13800 52.95300 20.53300
H  18.85800 53.16400 20.57900
H  19.84200 51.87400 21.29700
H  19.34000 53.97200 23.36600
H  19.58900 54.77000 21.80800
H  20.77900 53.59300 22.37700
H  21.91800 48.15100 25.59100
H  22.15400 49.32200 24.31700
H  20.89200 48.13400 24.20800
H  20.97300 50.46300 30.14400
H  20.45700 46.93600 32.44600
H  19.78100 48.20300 33.55000
H  21.48800 47.91600 33.50400

