158

Mg 36.46600 49.47000 24.73100
C  36.38600 47.86900 27.83600
C  34.96400 52.14600 26.18100
C  35.94900 50.84700 21.61700
C  37.46900 46.42900 23.25600
N  35.74000 49.94900 26.80500
C  35.95200 49.20000 27.91400
C  35.63600 50.01200 29.15000
C  34.93000 51.35500 28.59300
C  35.29900 51.15900 27.11400
C  33.39700 51.43100 28.88100
C  36.94500 50.28800 30.02500
C  36.76100 49.83900 31.52100
H  35.38100 49.75700 32.15600
N  35.75800 51.37800 24.02900
C  35.23800 52.30900 24.76300
C  34.92400 53.51000 23.89500
C  35.16200 53.10100 22.54900
C  35.64900 51.70200 22.70800
C  34.44900 54.81400 24.45100
C  34.93600 53.91600 21.24000
O  35.30900 53.45400 20.19200
C  34.23300 55.30800 21.23600
N  36.61000 48.71500 22.84000
C  36.31100 49.46300 21.71500
C  36.54600 48.63700 20.47900
C  37.43600 47.53400 20.93000
C  37.23500 47.56700 22.41900
C  35.17200 48.08100 19.95700
C  38.91900 47.50100 20.54900
C  39.47000 46.07500 20.30100
N  36.86100 47.51300 25.37600
C  37.25500 46.42400 24.65200
C  37.59500 45.38800 25.64000
C  37.30800 45.95200 26.88700
C  36.76700 47.23300 26.66800
C  38.26400 44.15500 25.26900
C  37.38200 45.69500 28.31800
O  37.78400 44.75900 28.99000
C  36.82200 46.96200 29.06900
C  35.64000 46.58700 29.97600
O  34.46600 46.59900 29.69300
O  36.14500 46.19800 31.23600
C  35.15300 45.74500 32.22400
H  34.49700 53.00600 26.66500
H  35.78600 51.17300 20.58700
H  37.65700 45.50500 22.70400
H  34.94600 49.38800 29.71900
H  35.40800 52.22800 29.03700
H  33.02800 52.34300 29.35200
H  33.24300 50.69400 29.66900
H  32.81900 51.27200 27.97100
H  36.97900 51.37700 30.04500
H  37.80700 49.84300 29.52700
H  37.54500 50.40700 32.02200
H  37.13600 48.81500 31.54300
H  34.76500 54.78400 25.49400
H  33.36700 54.80100 24.58200
H  34.74900 55.69900 23.89000
H  33.69900 55.49500 20.30500
H  35.08200 55.99100 21.21000
H  33.50000 55.44800 22.03000
H  36.89200 49.28700 19.67600
H  37.04500 46.54900 20.67500
H  34.60100 47.47700 20.66200
H  35.35800 47.47400 19.07100
H  34.54300 48.89400 19.59500
H  39.45100 48.00700 21.35500
H  38.94000 48.05700 19.61200
H  39.77500 46.14300 19.25700
H  38.69900 45.31900 20.44900
H  40.39900 45.78800 20.79300
H  37.79200 43.73000 24.38300
H  37.90700 43.46200 26.03000
H  39.34700 44.16300 25.14600
H  37.63500 47.39200 29.65400
H  34.91500 44.71600 31.95500
H  34.18400 46.24100 32.28000
H  35.63800 45.64400 33.19500
Mg 6.34900 55.52200 41.25000
C  3.54100 53.46100 40.83600
C  8.33600 53.18900 40.12200
C  8.76100 57.94800 41.13100
C  4.06700 57.93300 42.31500
N  5.88100 53.64100 40.47900
C  4.70600 52.97900 40.27600
C  5.05000 51.66100 39.56200
C  6.54100 51.43100 39.89900
C  7.02700 52.81400 40.21700
C  6.93500 50.42400 40.97000
C  4.71800 51.83300 38.05300
C  3.93400 50.64300 37.49800
H  4.74100 49.95500 36.35500
N  8.26400 55.58400 40.58800
C  8.92800 54.50500 40.14300
C  10.25300 54.87600 39.87000
C  10.42800 56.22200 40.15900
C  9.10100 56.65400 40.66100
C  11.28200 53.99500 39.38700
C  11.73500 57.06600 39.94100
O  12.86600 56.59400 39.70200
C  11.76000 58.59800 40.04600
N  6.38200 57.69000 41.49100
C  7.57900 58.40400 41.58500
C  7.37600 59.80100 42.33900
C  5.76000 59.80600 42.47200
C  5.34700 58.36300 42.06000
C  8.07900 59.85600 43.68200
C  5.05700 60.92500 41.60300
C  3.87000 61.63800 42.31000
N  4.29500 55.64800 41.71600
C  3.51900 56.68700 42.20200
C  2.15500 56.23800 42.45500
C  2.13600 55.00700 41.90000
C  3.41300 54.70900 41.42500
C  0.96000 57.01700 42.97400
C  1.19800 53.92200 41.64600
O  -0.03500 53.76400 41.75900
C  2.15900 52.84700 40.88400
C  1.51300 52.64400 39.50100
O  1.43500 53.45300 38.59800
O  0.96100 51.35500 39.61300
C  0.26100 50.85000 38.45600
H  9.12100 52.47100 39.87500
H  9.60900 58.60000 41.35000
H  3.38100 58.72100 42.63300
H  4.50300 50.77800 39.89100
H  7.11200 51.14800 39.01400
H  6.03700 50.10500 41.50000
H  7.57500 50.85900 41.73700
H  7.52400 49.57000 40.63500
H  5.60500 51.88900 37.42200
H  4.14800 52.75400 37.93100
H  2.99700 51.04100 37.10900
H  3.61400 49.89200 38.22100
H  10.84600 53.07200 39.00500
H  12.03100 53.64400 40.09700
H  11.80900 54.38400 38.51700
H  12.50500 59.07600 39.41100
H  12.01700 58.71700 41.09900
H  10.80000 59.05200 39.80000
H  7.67000 60.61500 41.67700
H  5.53200 60.00400 43.51900
H  7.99700 58.81300 43.98900
H  7.50600 60.49000 44.35800
H  9.06200 60.28700 43.49200
H  4.66900 60.39300 40.73400
H  5.85500 61.62100 41.34400
H  3.78400 61.29900 43.34200
H  2.95500 61.43000 41.75500
H  4.09800 62.70200 42.25100
H  1.41500 57.96300 43.26500
H  0.59700 56.51300 43.86900
H  0.27900 57.09900 42.12700
H  2.07400 51.88500 41.39000
H  -0.65700 50.49100 38.92100
H  0.78800 50.03000 37.96800
H  0.13500 51.65000 37.72700

