158

Mg 40.06700 9.31000 30.31600
C  42.13500 10.67700 32.92400
C  38.26500 7.60900 32.74900
C  38.26700 7.89700 27.77900
C  42.17500 10.74000 27.98900
N  40.17200 9.16400 32.59900
C  41.01600 9.90600 33.41500
C  40.62200 9.76900 34.87300
C  39.37200 8.76100 34.84600
C  39.19500 8.50100 33.32800
C  39.50000 7.48800 35.79000
C  40.21700 11.16300 35.53400
C  40.91800 11.63500 36.80400
H  40.01800 12.52800 37.73300
N  38.47000 8.02600 30.28900
C  37.90300 7.41000 31.36200
C  36.69100 6.69900 30.89400
C  36.73600 6.64700 29.40500
C  37.90000 7.51400 29.06900
C  35.68900 6.09500 31.99800
C  35.86200 5.85000 28.43100
O  36.09600 5.73900 27.21800
C  34.54900 5.32300 29.07400
N  40.14800 9.35000 28.20200
C  39.26800 8.77100 27.41500
C  39.46000 9.22500 25.98000
C  40.51400 10.37300 26.10600
C  40.98900 10.14500 27.48700
C  39.66900 8.28300 24.71100
C  39.84400 11.75100 25.86900
C  40.69400 12.74300 24.96500
N  41.89100 10.46600 30.40400
C  42.57400 10.88400 29.33800
C  43.73700 11.70300 29.85900
C  43.54600 11.69900 31.26800
C  42.43400 10.85900 31.55100
C  44.82100 12.18800 29.04800
C  44.08100 12.16300 32.51600
O  45.13500 12.78100 32.70400
C  43.22900 11.54200 33.66200
C  44.01700 10.67700 34.60200
O  44.52000 9.53800 34.40800
O  44.05400 11.38000 35.82500
C  44.45400 10.46100 36.92000
H  37.51100 7.20000 33.42500
H  37.60700 7.66400 26.94100
H  42.85000 11.22300 27.27800
H  41.49100 9.38900 35.41000
H  38.43400 9.27400 35.05800
H  39.18000 6.52400 35.39400
H  38.74600 7.71200 36.54400
H  40.45400 7.48700 36.31600
H  39.14400 11.18300 35.72300
H  40.28700 11.90100 34.73500
H  41.78400 12.22300 36.50000
H  41.25500 10.75500 37.35300
H  35.56400 6.75800 32.85400
H  36.01900 5.08900 32.25700
H  34.70400 5.96200 31.55200
H  33.95400 4.79100 28.33200
H  34.07100 6.21200 29.48500
H  34.75500 4.57000 29.83500
H  38.49300 9.69100 25.79300
H  41.43900 10.24800 25.54300
H  39.82900 7.27500 25.09300
H  40.55100 8.49600 24.10700
H  38.83500 8.27200 24.00900
H  39.74400 12.20000 26.85700
H  38.80900 11.64300 25.54400
H  40.96100 13.71200 25.38600
H  40.32100 12.80600 23.94300
H  41.63500 12.23300 24.75900
H  44.91400 11.77400 28.04400
H  45.73900 11.87800 29.54600
H  44.73300 13.27400 29.02500
H  42.77200 12.34800 34.23700
H  43.79300 9.59400 36.92600
H  44.42100 11.04100 37.84200
H  45.46600 10.11200 36.71500
Mg 45.52900 17.34000 28.89700
C  44.04500 16.48800 31.83900
C  47.78000 19.40100 30.57600
C  47.01500 18.15600 25.82700
C  43.09100 15.49500 27.18400
N  45.70700 18.00400 30.87800
C  45.13700 17.33500 31.97300
C  45.88600 17.66000 33.25100
C  46.65900 18.94200 32.78800
C  46.73400 18.78800 31.30300
C  46.03500 20.27100 33.23200
C  46.70800 16.58200 33.88400
C  46.65200 16.56900 35.51300
H  46.58500 17.87100 36.23800
N  47.12800 18.51500 28.32800
C  47.89300 19.35000 29.13900
C  48.72900 20.18900 28.33900
C  48.61900 19.79300 26.99800
C  47.56200 18.81200 27.01100
C  49.62700 21.25600 28.85600
C  49.15300 20.44200 25.71200
O  48.61200 20.28000 24.64800
C  50.32700 21.36100 25.77400
N  45.27000 16.73800 26.75200
C  45.93700 17.25300 25.71600
C  45.37200 16.68900 24.41900
C  44.05400 15.85700 24.84100
C  44.12200 16.01400 26.35500
C  45.14800 17.79300 23.34100
C  44.06100 14.31000 24.36200
C  44.61800 13.20900 25.25000
N  43.94700 16.26100 29.36500
C  43.05700 15.57900 28.60300
C  41.92300 14.96100 29.44700
C  42.42000 15.27400 30.74300
C  43.53600 16.06700 30.63000
C  40.69200 14.12600 29.03800
C  42.15500 15.04800 32.14000
O  41.24400 14.34700 32.66000
C  43.15700 15.82000 32.86300
C  42.56700 16.72900 33.75900
O  41.83100 17.65700 33.42400
O  42.89000 16.41400 35.05800
C  42.29900 17.30100 36.11200
H  48.52700 19.99900 31.10200
H  47.55500 18.31000 24.89000
H  42.28200 14.90800 26.74300
H  45.13800 17.99300 33.97000
H  47.68000 19.02800 33.15900
H  45.87200 20.92000 32.37100
H  46.78000 20.76700 33.85500
H  45.20100 20.18200 33.92800
H  47.73200 16.62500 33.51200
H  46.30300 15.61800 33.57800
H  47.59000 16.04100 35.68700
H  45.86300 15.91600 35.88700
H  50.66000 20.97900 28.64700
H  49.45800 21.56500 29.88700
H  49.31600 22.17700 28.36300
H  50.03700 22.36400 26.08800
H  50.63300 21.31400 24.72900
H  51.05700 20.93500 26.46300
H  46.15500 16.01300 24.07800
H  43.16300 16.42000 24.56400
H  45.84300 17.62700 22.51800
H  45.30300 18.79000 23.75200
H  44.14100 17.80400 22.92300
H  44.52400 14.16900 23.38500
H  43.03400 14.00400 24.16500
H  43.83000 12.47900 25.44200
H  45.12300 13.56200 26.14900
H  45.45300 12.76500 24.70800
H  40.78500 13.99500 27.96000
H  39.85800 14.75400 29.35000
H  40.81400 13.19900 29.59800
H  43.80700 15.16100 33.44000
H  42.68900 18.30500 35.94600
H  42.58600 16.81600 37.04500
H  41.21500 17.18800 36.11800

