158

Mg -2.00100 17.17100 25.80300
C  -2.70700 14.72500 28.49800
C  -2.28800 19.56400 28.12900
C  -1.96400 19.11100 23.29700
C  -2.66800 14.35700 23.61600
N  -2.49100 17.11600 28.10200
C  -2.51500 16.06900 28.96600
C  -2.50900 16.47000 30.39200
C  -2.68300 18.05500 30.26000
C  -2.48300 18.29700 28.74100
C  -4.10500 18.61100 30.64100
C  -1.23200 16.19100 31.31700
C  -0.91100 17.08600 32.48800
H  -0.61600 16.43400 33.82700
N  -2.03700 19.05600 25.73100
C  -2.18600 19.97600 26.72600
C  -2.30200 21.31400 26.27400
C  -2.21300 21.16500 24.85000
C  -2.05900 19.71600 24.57600
C  -2.59300 22.59600 27.18000
C  -2.23900 22.27900 23.76500
O  -2.12700 22.07400 22.55700
C  -2.30100 23.69700 24.24400
N  -2.40400 16.78900 23.73800
C  -2.09200 17.80200 22.91300
C  -2.06200 17.37300 21.38700
C  -2.48400 15.85800 21.49500
C  -2.42000 15.59700 23.03800
C  -3.04700 18.25300 20.65900
C  -1.52500 14.81000 20.67600
C  -2.17400 13.68300 19.81800
N  -2.46800 14.98100 25.97800
C  -2.70400 14.05300 24.97500
C  -2.92300 12.74000 25.52300
C  -2.90700 12.95700 26.95600
C  -2.73000 14.36700 27.11300
C  -2.96100 11.31700 24.83600
C  -2.90200 12.31500 28.19000
O  -3.06500 11.13500 28.48700
C  -3.05000 13.41300 29.26000
C  -2.08200 13.09100 30.33500
O  -0.91000 13.30100 30.21500
O  -2.69700 12.40200 31.35800
C  -1.79600 11.95400 32.37400
H  -2.10000 20.37300 28.83800
H  -1.96600 19.82000 22.46700
H  -2.76600 13.52500 22.91600
H  -3.37300 16.12400 30.95900
H  -1.94600 18.69300 30.74800
H  -4.52000 19.26700 29.87600
H  -4.10000 19.15300 31.58700
H  -4.72300 17.72000 30.74900
H  -0.31400 16.13700 30.73000
H  -1.31000 15.20300 31.77100
H  -1.83000 17.64400 32.66800
H  -0.19100 17.85800 32.21500
H  -1.98100 23.45000 26.88900
H  -2.43400 22.42000 28.24400
H  -3.63900 22.87300 27.04700
H  -2.52500 24.18100 23.29400
H  -1.35000 24.03800 24.65300
H  -3.06300 23.94100 24.98500
H  -1.02400 17.53200 21.09400
H  -3.45000 15.66500 21.02900
H  -3.99200 18.28700 21.20000
H  -3.18800 17.66400 19.75300
H  -2.64300 19.25300 20.50100
H  -0.99800 14.23600 21.43800
H  -0.86000 15.40500 20.05100
H  -2.11800 12.68600 20.25600
H  -1.85600 13.57500 18.78100
H  -3.25000 13.84800 19.85200
H  -3.12600 11.31100 23.75800
H  -3.74100 10.76500 25.36000
H  -2.00300 10.80000 24.89200
H  -4.05400 13.41700 29.68300
H  -0.87900 11.49100 32.00900
H  -2.27100 11.17400 32.96800
H  -1.42600 12.76300 33.00300
Mg -5.74900 24.67400 25.78600
C  -4.02300 26.22800 28.49700
C  -7.02800 22.46700 28.20100
C  -7.11700 22.99600 23.34300
C  -4.13900 26.82800 23.66800
N  -5.57500 24.46700 28.09200
C  -4.88600 25.18400 28.97900
C  -5.28300 24.98200 30.48700
C  -6.02600 23.59300 30.30400
C  -6.26200 23.48200 28.73400
C  -5.34700 22.36000 30.92300
C  -6.08100 26.22800 31.01000
C  -5.77900 26.78500 32.41100
H  -5.23400 25.78700 33.40600
N  -7.00100 23.04500 25.79300
C  -7.44300 22.26500 26.85700
C  -8.28800 21.20300 26.30200
C  -8.48400 21.42300 24.88300
C  -7.47900 22.52100 24.61600
C  -8.98500 20.10000 27.16600
C  -9.44600 20.77200 23.97200
O  -9.56000 20.95000 22.76900
C  -10.51700 19.82700 24.50900
N  -5.53200 24.77300 23.73200
C  -6.22600 23.95700 22.91300
C  -5.93500 24.28500 21.45000
C  -4.96400 25.59500 21.46600
C  -4.87500 25.73100 23.03100
C  -5.39900 22.97200 20.75500
C  -5.57400 26.71700 20.57800
C  -4.59500 27.30200 19.57200
N  -4.23500 26.13400 26.01900
C  -3.84200 27.02100 25.05100
C  -2.87700 27.94400 25.55700
C  -2.92200 27.68700 26.95200
C  -3.78600 26.58500 27.18600
C  -2.15900 29.11800 24.90700
C  -2.52300 28.24200 28.17800
O  -1.87400 29.21200 28.36100
C  -3.19800 27.26000 29.31900
C  -2.10800 26.59300 30.10800
O  -1.15000 25.94300 29.63700
O  -2.36400 26.92600 31.44000
C  -1.26900 26.57900 32.34400
H  -7.36400 21.70000 28.90200
H  -7.57000 22.39800 22.54900
H  -3.64900 27.48700 22.94900
H  -4.37500 24.99600 31.09000
H  -7.05300 23.55900 30.66800
H  -4.67900 22.73000 31.70100
H  -4.81300 21.74400 30.20000
H  -6.24200 21.81100 31.21500
H  -7.12300 25.91200 31.05900
H  -6.18500 27.05800 30.31100
H  -6.67200 27.28800 32.78400
H  -5.10900 27.61100 32.17400
H  -9.26500 19.14000 26.73100
H  -9.91400 20.46500 27.60400
H  -8.22600 19.88800 27.91800
H  -10.96900 20.15900 25.44400
H  -10.16900 18.80100 24.62500
H  -11.32000 19.66800 23.78900
H  -6.88900 24.54900 20.99400
H  -4.00500 25.29900 21.04200
H  -4.44800 23.26600 20.31000
H  -6.02600 22.76100 19.88900
H  -5.13200 22.12000 21.38000
H  -5.86700 27.53900 21.23100
H  -6.49300 26.46200 20.05000
H  -3.80800 26.61400 19.26300
H  -4.19400 28.20000 20.04200
H  -5.07400 27.52300 18.61800
H  -1.72600 29.89100 25.54200
H  -2.92500 29.53300 24.25100
H  -1.40400 28.65800 24.26900
H  -3.77300 27.86900 30.01700
H  -0.44000 27.20900 32.02300
H  -0.87100 25.58700 32.13200
H  -1.49000 26.73600 33.40000

