158

Mg 17.51900 -1.77000 27.22900
C  16.55200 0.15800 29.98200
C  19.32500 -3.68200 29.35500
C  18.85800 -3.18800 24.63700
C  15.53100 0.27500 25.21200
N  17.93900 -1.68800 29.42200
C  17.41500 -0.87200 30.39200
C  17.95700 -1.27300 31.78100
C  18.96500 -2.33600 31.46800
C  18.71300 -2.61400 30.00600
C  20.38500 -2.05100 31.94700
C  16.87700 -1.80900 32.74800
C  16.86900 -1.32700 34.18800
H  18.04000 -0.56900 34.72400
N  18.81300 -3.37300 27.02700
C  19.37800 -4.09900 28.05900
C  20.14400 -5.28300 27.50400
C  19.88900 -5.15800 26.09300
C  19.16300 -3.86500 25.84500
C  20.90800 -6.32900 28.29500
C  20.19300 -6.11100 24.98500
O  19.94500 -5.89200 23.80100
C  20.58500 -7.60500 25.35400
N  17.47200 -1.22300 25.29700
C  18.11700 -2.01200 24.38300
C  17.93700 -1.47100 22.94900
C  16.90700 -0.38500 23.05900
C  16.52700 -0.43800 24.58900
C  19.24400 -0.94200 22.30000
C  15.65900 -0.67700 22.10500
C  15.02200 0.58000 21.50700
N  16.30000 -0.02200 27.45800
C  15.53700 0.64800 26.55000
C  14.86000 1.77300 27.13200
C  15.15600 1.56700 28.56500
C  16.07500 0.48800 28.66800
C  14.05900 2.80600 26.49800
C  14.89500 2.02700 29.93800
O  14.26300 2.98400 30.32800
C  15.89600 1.11700 30.88200
C  16.79800 2.11100 31.51400
O  17.79700 2.55600 30.97500
O  16.50600 2.33100 32.81800
C  17.25000 3.40000 33.45800
H  20.01800 -4.20400 30.01900
H  19.15100 -3.51000 23.63600
H  14.92000 0.87700 24.53500
H  18.45600 -0.36200 32.10800
H  18.69500 -3.21200 32.05800
H  20.51600 -1.02900 32.30100
H  21.06200 -2.05200 31.09200
H  20.74200 -2.80700 32.64600
H  16.71500 -2.88600 32.72600
H  15.96100 -1.32700 32.40700
H  16.60800 -2.25200 34.70300
H  15.94600 -0.76700 34.33400
H  21.15500 -5.90700 29.26900
H  21.80600 -6.79900 27.89300
H  20.14000 -7.07700 28.48800
H  19.80300 -8.12900 25.90500
H  21.56100 -7.60100 25.84000
H  20.81000 -8.03100 24.37600
H  17.50000 -2.31800 22.42000
H  17.37200 0.59400 22.93800
H  19.02500 -0.07800 21.67200
H  19.76600 -1.69000 21.70400
H  19.84500 -0.64500 23.16000
H  14.95500 -1.30700 22.64800
H  15.99000 -1.18000 21.19700
H  15.37000 1.55800 21.84000
H  13.93800 0.48000 21.56900
H  15.30700 0.62500 20.45600
H  14.49000 3.80500 26.56300
H  13.25600 2.91200 27.22700
H  13.65800 2.45900 25.54500
H  15.37300 0.66600 31.72500
H  18.23700 3.52300 33.01100
H  17.52800 3.09600 34.46700
H  16.65800 4.30100 33.62000
Mg -11.42800 38.76700 42.30500
C  -9.70600 35.99600 41.21000
C  -8.85000 40.78600 40.95800
C  -13.33800 41.42400 42.72200
C  -14.17400 36.68800 42.94300
N  -9.52200 38.38500 41.01600
C  -8.96200 37.17100 40.81900
C  -7.48600 37.26000 40.39100
C  -7.29400 38.83700 40.40300
C  -8.65700 39.36700 40.84700
C  -6.15500 39.43300 41.27400
C  -7.18500 36.67400 38.99600
C  -6.16500 35.50800 39.02000
H  -5.05700 35.69300 38.00100
N  -11.03100 40.84500 42.10800
C  -9.95300 41.46400 41.52600
C  -10.16400 42.87500 41.37600
C  -11.47100 43.13700 41.91100
C  -12.03500 41.77900 42.29700
C  -9.20500 43.83200 40.72700
C  -12.22500 44.49300 42.01400
O  -11.74200 45.51600 41.57400
C  -13.58200 44.59800 42.61100
N  -13.46900 39.01800 42.69500
C  -14.00700 40.23400 42.91100
C  -15.44500 40.20300 43.47800
C  -15.58700 38.67100 43.67500
C  -14.32100 38.05200 43.04600
C  -15.52100 41.04700 44.82800
C  -16.94500 38.10900 43.17600
C  -17.66000 37.15400 44.11800
N  -11.87600 36.78000 42.13900
C  -12.99500 36.01300 42.54500
C  -12.69700 34.58200 42.44100
C  -11.47600 34.54200 41.85400
C  -10.93500 35.86900 41.83100
C  -13.71700 33.44300 42.81600
C  -10.44900 33.64400 41.39200
O  -10.51400 32.41200 41.28400
C  -9.23500 34.53500 41.11200
C  -8.19400 34.29000 42.14000
O  -7.79000 35.10500 42.93900
O  -7.44000 33.15400 41.84800
C  -6.10100 33.03800 42.36000
H  -8.00500 41.44700 40.75600
H  -14.09100 42.19400 42.90200
H  -14.97000 36.10000 43.40300
H  -6.82100 36.93300 41.19000
H  -7.05500 39.23900 39.41900
H  -5.40900 39.98600 40.70300
H  -5.64000 38.58300 41.72200
H  -6.55500 40.05500 42.07500
H  -6.73100 37.46600 38.39900
H  -8.12300 36.33100 38.55900
H  -6.63200 34.53000 38.90500
H  -5.70100 35.44400 40.00400
H  -9.62500 44.08500 39.75400
H  -8.24200 43.45300 40.38400
H  -9.17500 44.74700 41.31900
H  -14.28000 44.17700 41.88800
H  -13.82600 45.65800 42.67200
H  -13.59000 44.13100 43.59600
H  -16.19700 40.60300 42.79800
H  -15.33300 38.56600 44.73000
H  -15.96400 42.02900 44.65900
H  -14.51400 41.22400 45.20700
H  -16.13000 40.61700 45.62300
H  -16.83900 37.63300 42.20100
H  -17.58200 38.93800 42.86900
H  -18.54400 37.72600 44.39800
H  -17.07100 36.86900 44.99000
H  -17.87600 36.26400 43.52600
H  -14.07400 33.73800 43.80200
H  -13.06200 32.57600 42.90500
H  -14.53100 33.26200 42.11300
H  -8.83100 34.21200 40.15300
H  -5.59900 34.00300 42.29800
H  -5.62200 32.36900 41.64500
H  -6.13300 32.59500 43.35500

