158

Mg 8.76700 4.18000 27.42200
C  10.29400 2.62300 30.21600
C  6.81700 6.09300 29.74800
C  7.42600 5.85600 24.85600
C  10.26000 1.87200 25.41400
N  8.59100 4.34600 29.77500
C  9.31800 3.56800 30.65400
C  9.00900 4.01200 32.04600
C  7.69800 4.94800 31.89300
C  7.63800 5.13900 30.36100
C  6.39200 4.42500 32.49600
C  10.21500 4.84200 32.64800
C  9.95300 5.26600 34.08100
H  10.91600 4.68300 35.07700
N  7.46800 5.88500 27.31900
C  6.81300 6.53600 28.37900
C  6.03100 7.72000 27.77100
C  6.15500 7.59700 26.34200
C  7.07100 6.43800 26.08900
C  5.21300 8.56100 28.60100
C  5.63600 8.50800 25.22000
O  6.00200 8.29100 24.09200
C  4.44700 9.42300 25.53100
N  8.94800 3.99200 25.50600
C  8.25600 4.74600 24.57200
C  8.41400 4.20900 23.14500
C  9.45700 3.00600 23.41000
C  9.50800 2.87800 24.90300
C  7.01700 3.88300 22.35400
C  10.85500 3.13200 22.80300
C  11.96400 3.96000 23.51400
N  9.86200 2.45700 27.67100
C  10.51100 1.68800 26.73600
C  11.43800 0.78100 27.41600
C  11.36400 1.08300 28.80200
C  10.43500 2.12700 28.93000
C  12.38600 -0.18600 26.69500
C  11.89600 0.77900 30.10800
O  12.75600 -0.02000 30.47900
C  11.28100 1.86300 31.03000
C  10.66900 1.08100 32.16800
O  10.11700 0.03100 32.10100
O  10.84000 1.75100 33.41400
C  10.46800 1.09600 34.69300
H  6.16100 6.61700 30.44600
H  6.93700 6.12800 23.91900
H  10.56200 1.08400 24.72000
H  8.78300 3.15200 32.67700
H  7.87800 5.85700 32.46700
H  5.63200 5.14500 32.80200
H  6.68200 3.82700 33.36000
H  5.92200 3.76800 31.76500
H  10.26000 5.71100 31.99200
H  11.20100 4.41300 32.47000
H  8.92100 5.13900 34.40800
H  10.05800 6.33900 34.24100
H  4.16700 8.26700 28.51500
H  5.40200 9.55000 28.18300
H  5.44400 8.56900 29.66600
H  3.65800 8.84100 26.00600
H  4.08000 9.83600 24.59100
H  4.59000 10.20000 26.28200
H  8.98600 4.97200 22.61600
H  9.03500 2.03000 23.16600
H  6.10900 3.74400 22.94200
H  7.13400 2.91400 21.86800
H  6.92400 4.62400 21.56000
H  10.69500 3.60300 21.83200
H  11.23000 2.11900 22.65900
H  11.64400 4.56800 24.36000
H  12.40000 4.73400 22.88300
H  12.80200 3.30200 23.74600
H  11.82700 -1.07000 26.38900
H  13.04600 -0.56400 27.47600
H  12.87200 0.27700 25.83700
H  11.98700 2.61100 31.39300
H  11.11400 1.57400 35.43000
H  10.68500 0.03000 34.62700
H  9.41000 1.27500 34.88700
Mg 42.01900 41.18400 27.16700
C  41.29200 43.41900 29.56200
C  43.18300 38.99300 29.48400
C  42.55700 38.82900 24.71000
C  41.29700 43.47000 24.74300
N  42.17200 41.22500 29.32500
C  41.75300 42.24800 30.14400
C  42.00000 41.95600 31.63500
C  42.70700 40.49200 31.53800
C  42.67000 40.18800 30.00300
C  44.09400 40.54300 32.15500
C  40.66400 42.02800 32.51000
C  40.69500 42.94300 33.70700
H  39.63300 42.49900 34.82000
N  42.85600 39.24400 27.08200
C  43.26000 38.51600 28.17300
C  43.73100 37.18400 27.75300
C  43.45200 37.10400 26.37100
C  42.85800 38.40300 26.00800
C  44.48600 36.15900 28.61500
C  43.73900 35.96900 25.41600
O  43.39800 35.96400 24.23800
C  44.34300 34.66800 25.92600
N  42.11600 41.20500 25.05400
C  42.32600 40.14000 24.20500
C  42.27900 40.48700 22.78000
C  41.75400 41.90300 22.78400
C  41.73300 42.21900 24.29000
C  43.66700 40.26000 21.90300
C  40.34500 42.19100 22.05800
C  39.01700 42.03400 22.83400
N  41.38000 43.08300 27.11700
C  41.10900 43.87200 26.05400
C  40.62500 45.19000 26.51000
C  40.66700 45.06300 27.95600
C  41.13000 43.77400 28.18400
C  40.44800 46.46200 25.69000
C  40.48900 45.72400 29.24500
O  40.18300 46.88000 29.45700
C  40.96100 44.74700 30.28700
C  42.11800 45.33700 30.96400
O  43.21600 45.46800 30.47200
O  41.71900 45.66500 32.21600
C  42.73000 46.08100 33.13800
H  43.63400 38.28500 30.18200
H  42.75700 38.12800 23.89700
H  41.02700 44.08900 23.88500
H  42.65000 42.75200 32.00000
H  42.10500 39.73000 32.03400
H  44.13500 39.75600 32.90800
H  44.23300 41.52000 32.61900
H  44.79700 40.39600 31.33500
H  40.58000 41.07200 33.02600
H  39.78000 42.36300 31.96800
H  40.40400 43.94300 33.38600
H  41.70800 43.08800 34.08400
H  43.96400 35.20300 28.65300
H  44.65200 36.47500 29.64500
H  45.48100 35.93800 28.22900
H  45.37000 34.83300 26.24900
H  44.18200 33.88300 25.18700
H  43.70500 34.42900 26.77700
H  41.42300 39.91700 22.41800
H  42.54000 42.55900 22.40900
H  43.96600 41.19100 21.42000
H  43.33900 39.49500 21.20000
H  44.45300 39.91600 22.57600
H  40.32000 41.37100 21.34000
H  40.39900 43.16800 21.57700
H  38.41900 42.94200 22.75600
H  39.22400 42.00500 23.90400
H  38.40900 41.18600 22.52000
H  39.40700 46.77500 25.60700
H  40.83100 46.36000 24.67500
H  41.01800 47.24000 26.19700
H  40.21700 44.60800 31.07100
H  42.62600 45.47400 34.03700
H  42.66300 47.13100 33.42200
H  43.74400 45.95500 32.75600

