158

Mg 48.64600 14.95900 28.82800
C  46.56500 15.20700 31.69400
C  51.07700 16.72400 30.37800
C  50.20500 14.93400 25.98900
C  45.75200 13.51800 27.18600
N  48.69200 15.97000 30.72700
C  47.79300 15.87800 31.81400
C  48.43200 16.47600 33.09200
C  49.75900 17.14800 32.58400
C  49.89400 16.61000 31.14600
C  49.67700 18.71200 32.53900
C  48.69900 15.55700 34.24100
C  48.08500 15.89900 35.58600
H  48.91600 15.48300 36.79900
N  50.49600 15.67600 28.26300
C  51.34200 16.36700 29.03800
C  52.53700 16.64300 28.29100
C  52.31800 16.17800 26.97600
C  50.96600 15.56800 26.99300
C  53.76400 17.37500 28.95600
C  53.14700 16.23600 25.67700
O  52.81100 15.65500 24.62200
C  54.49500 16.90200 25.79600
N  47.95200 14.47900 26.78200
C  48.91000 14.53100 25.77100
C  48.31400 13.88900 24.53400
C  46.88800 13.34500 24.93300
C  46.81300 13.72900 26.39100
C  48.29100 14.85600 23.25500
C  46.71100 11.83900 24.78600
C  47.83400 10.81300 25.24500
N  46.64000 14.28100 29.38000
C  45.62600 13.74700 28.56400
C  44.47500 13.50000 29.39000
C  44.77900 13.98900 30.65500
C  46.11800 14.46200 30.57300
C  43.22500 12.80800 29.03900
C  44.24500 14.24800 31.93800
O  43.12400 14.05700 32.44500
C  45.46200 15.01000 32.69300
C  44.86300 16.22000 33.31000
O  44.41500 17.18100 32.66400
O  44.72200 16.10300 34.69200
C  44.04400 17.09500 35.53100
H  51.77700 17.18600 31.07700
H  50.75600 14.54000 25.13200
H  44.80800 13.15100 26.77600
H  47.79100 17.27500 33.46500
H  50.63200 17.00300 33.22100
H  50.54100 19.20800 32.98100
H  48.76600 19.09300 33.00200
H  49.61100 19.07100 31.51200
H  49.76700 15.54600 34.45400
H  48.45100 14.56500 33.86200
H  47.06300 15.52100 35.60300
H  47.97900 16.98300 35.53900
H  53.37500 17.95300 29.79400
H  54.37100 18.05300 28.35600
H  54.41700 16.64200 29.42900
H  55.16800 16.23200 26.33000
H  54.52600 17.90600 26.21800
H  54.95900 16.88100 24.81000
H  49.09900 13.17400 24.28900
H  46.13700 13.96700 24.44500
H  48.87600 14.34400 22.49000
H  48.65300 15.87100 23.41900
H  47.28800 14.87700 22.82900
H  46.46300 11.47700 23.78800
H  45.81700 11.49700 25.30600
H  47.53600 9.78500 25.03400
H  47.93100 10.94400 26.32200
H  48.74700 11.07300 24.71000
H  42.90300 12.76400 27.99900
H  42.38800 13.11500 29.66700
H  43.37800 11.74200 29.20300
H  45.81800 14.30700 33.44700
H  44.70300 17.24300 36.38700
H  43.01300 16.86700 35.80000
H  44.01000 18.04100 34.99200
Mg 9.70500 47.24000 27.68400
C  8.05400 46.77600 30.73100
C  12.71800 47.57500 29.48700
C  11.12200 48.32500 24.88800
C  6.52600 47.79400 26.19200
N  10.27700 46.97000 29.76300
C  9.43500 46.80500 30.86700
C  10.25600 46.88800 32.20100
C  11.63300 47.37300 31.68300
C  11.52800 47.38700 30.22400
C  12.19700 48.76000 32.21800
C  10.29000 45.62100 33.16900
C  9.98900 45.89700 34.65200
H  10.64600 44.86100 35.64200
N  11.67100 47.68800 27.19200
C  12.72500 47.71400 28.02300
C  13.92100 47.96600 27.22600
C  13.49900 48.20000 25.85300
C  12.07000 48.09400 25.90700
C  15.24800 48.13700 27.83300
C  14.25600 48.54300 24.59900
O  13.66200 48.57500 23.50400
C  15.75800 48.52900 24.64400
N  8.88700 47.77000 25.75500
C  9.73300 48.20900 24.75500
C  8.94500 48.60000 23.46800
C  7.51000 48.31500 23.90400
C  7.61500 47.87500 25.31100
C  9.22300 49.99600 22.86800
C  6.61300 47.44900 23.00300
C  6.75800 47.51600 21.42800
N  7.74600 47.22900 28.29700
C  6.58900 47.52300 27.60700
C  5.44700 47.42400 28.50300
C  5.97900 47.12400 29.77000
C  7.35700 47.02600 29.55200
C  3.97100 47.52500 28.18300
C  5.68100 46.95600 31.13400
O  4.60500 47.00300 31.72100
C  7.02500 46.70400 31.81600
C  6.84300 45.28500 32.37000
O  6.70500 44.30100 31.66900
O  6.81700 45.19100 33.73000
C  6.86400 43.84400 34.26200
H  13.66100 47.66700 30.03000
H  11.48800 48.58600 23.89300
H  5.57600 48.07700 25.73400
H  9.90700 47.69900 32.84000
H  12.35100 46.56700 31.83600
H  12.31500 49.38700 31.33400
H  13.17400 48.68600 32.69600
H  11.44000 49.25400 32.82700
H  11.14100 44.93900 33.15100
H  9.50700 44.92300 32.87300
H  8.93700 46.09900 34.85300
H  10.42800 46.88900 34.76100
H  16.01400 47.55500 27.31900
H  15.26200 47.83900 28.88200
H  15.51600 49.19300 27.82400
H  15.98000 47.52700 25.01000
H  16.19900 49.25300 25.32800
H  16.13500 48.74300 23.64300
H  9.28600 47.78600 22.82800
H  6.95100 49.24600 24.00000
H  9.92400 50.59500 23.45000
H  8.26300 50.51200 22.91500
H  9.67700 50.00600 21.87800
H  5.58500 47.78000 23.15100
H  6.65500 46.41600 23.34700
H  7.49000 48.23900 21.06600
H  5.74700 47.77000 21.10900
H  7.13200 46.59200 20.98500
H  3.53600 46.53300 28.30600
H  3.75800 47.89100 27.17800
H  3.42700 48.08400 28.94400
H  7.07300 47.38900 32.66300
H  6.26400 43.19400 33.62600
H  6.60700 43.69500 35.31100
H  7.89300 43.52000 34.10700

