158

Mg 9.82600 47.69400 26.09200
C  8.15800 47.53800 29.22400
C  12.61700 48.71000 27.80200
C  11.32000 47.76700 23.14600
C  6.76900 46.82500 24.53600
N  10.34500 48.00600 28.32100
C  9.49900 47.84400 29.35100
C  10.12800 48.32000 30.68300
C  11.53500 48.86000 30.21800
C  11.50900 48.60500 28.68600
C  11.71600 50.38300 30.59700
C  10.25900 47.18800 31.78200
C  9.87900 47.58000 33.23300
H  10.00600 46.43300 34.26300
N  11.70600 48.27500 25.51000
C  12.68700 48.54100 26.34600
C  13.94600 48.52700 25.62000
C  13.58900 48.34300 24.25500
C  12.16300 48.17000 24.25300
C  15.35700 48.60200 26.25300
C  14.42800 48.07800 22.99900
O  13.95000 48.06800 21.85700
C  15.90000 48.15100 23.10200
N  9.09000 47.57400 24.10000
C  9.95900 47.50100 23.05200
C  9.23100 47.00000 21.76700
C  7.87400 46.52000 22.25900
C  7.88200 46.97400 23.69800
C  9.27600 48.01200 20.53800
C  7.55600 45.01000 22.11600
C  8.61900 44.14800 22.77900
N  7.93700 47.26000 26.72000
C  6.75100 46.94000 25.97300
C  5.62200 46.71500 26.81800
C  6.11000 46.94000 28.10100
C  7.55500 47.19800 28.00200
C  4.26800 46.33500 26.43700
C  5.74000 47.04800 29.47500
O  4.67300 47.04800 30.03200
C  7.08000 47.28600 30.31600
C  7.30700 45.92400 31.01800
O  7.95100 44.97100 30.59000
O  6.51600 45.87300 32.14400
C  6.65900 44.70400 33.03100
H  13.52600 48.98900 28.33900
H  11.72900 47.62400 22.14400
H  5.83300 46.37300 24.20200
H  9.45800 49.06100 31.11900
H  12.33000 48.20600 30.57500
H  12.66200 50.45200 31.13300
H  10.92300 50.76000 31.24400
H  11.81000 51.04200 29.73400
H  11.26200 46.79900 31.95600
H  9.76800 46.25100 31.51900
H  8.82600 47.85200 33.16200
H  10.55700 48.37800 33.53500
H  15.35000 48.86100 27.31200
H  15.96800 49.39400 25.82000
H  15.99100 47.71600 26.22900
H  16.19600 47.41800 23.85300
H  16.25200 49.10400 23.49800
H  16.41900 47.84000 22.19600
H  9.81300 46.16900 21.36600
H  6.97800 46.88800 21.75900
H  9.68700 48.95300 20.90500
H  8.23400 48.32300 20.45700
H  9.59900 47.58100 19.59100
H  7.47700 44.80400 21.04800
H  6.57400 44.85000 22.56100
H  8.22100 43.66100 23.67000
H  9.43800 44.75300 23.16900
H  9.08100 43.47800 22.05400
H  3.74300 47.28400 26.33600
H  3.97700 45.76600 27.32000
H  4.09700 45.75600 25.53000
H  6.97800 48.11900 31.01200
H  5.94300 43.90600 32.83500
H  6.28500 45.03100 34.00100
H  7.70400 44.39900 33.08000
Mg -2.11300 34.51100 27.41100
C  -3.78600 32.50600 29.66000
C  -0.56600 36.07600 30.00900
C  -0.75300 36.46200 25.05800
C  -4.11300 32.98100 24.82100
N  -2.43400 34.53200 29.64700
C  -2.92200 33.39800 30.27000
C  -2.48500 33.40800 31.83600
C  -1.59400 34.69700 31.91000
C  -1.50200 35.08900 30.43900
C  -2.13600 35.89000 32.77300
C  -1.81500 32.04300 32.28500
C  -2.49800 31.44400 33.55300
H  -1.72100 31.43000 34.85200
N  -0.89900 36.14600 27.48900
C  -0.31900 36.53500 28.66600
C  0.72400 37.53700 28.24700
C  0.64500 37.77900 26.81400
C  -0.39500 36.77500 26.39600
C  1.54400 38.27600 29.27800
C  1.43500 38.68000 25.90500
O  1.16100 38.78300 24.70700
C  2.63100 39.42300 26.50700
N  -2.31100 34.58400 25.19800
C  -1.60600 35.51300 24.46800
C  -1.95100 35.51500 23.02600
C  -3.08500 34.33000 22.92200
C  -3.26500 33.98100 24.41200
C  -2.57400 36.85300 22.48300
C  -2.68400 33.06100 22.03300
C  -2.59700 33.25300 20.49400
N  -3.65600 33.09200 27.18700
C  -4.27500 32.56600 26.13100
C  -5.15300 31.53100 26.53300
C  -4.95100 31.34200 27.89300
C  -3.99500 32.35500 28.29800
C  -6.02600 30.79900 25.56700
C  -5.29500 30.62300 29.05600
O  -6.01800 29.63400 29.26900
C  -4.56400 31.32800 30.20600
C  -5.60900 31.76600 31.17400
O  -6.41800 32.68200 30.97500
O  -5.67600 30.97300 32.26400
C  -6.63900 31.26800 33.30300
H  0.17000 36.41500 30.74100
H  -0.26100 36.93200 24.20300
H  -4.68200 32.53900 24.00100
H  -3.37000 33.66500 32.41900
H  -0.58700 34.37800 32.17900
H  -1.26000 36.29300 33.28200
H  -2.67300 35.50200 33.63800
H  -2.71400 36.67700 32.28900
H  -0.77700 32.25200 32.54700
H  -1.67600 31.32900 31.47300
H  -2.46100 30.42000 33.18300
H  -3.49700 31.87300 33.63100
H  2.58900 38.21700 28.97500
H  1.52100 37.99300 30.33000
H  1.19900 39.31000 29.28000
H  3.47200 38.76500 26.72600
H  2.47900 40.11000 27.34000
H  2.95800 40.10600 25.72300
H  -1.09700 35.19800 22.42900
H  -4.06900 34.65500 22.58400
H  -3.49500 36.66000 21.93200
H  -1.80300 37.26100 21.82900
H  -2.83500 37.55200 23.27800
H  -3.45000 32.29000 22.11500
H  -1.76200 32.71800 22.50200
H  -3.02200 32.42800 19.92300
H  -1.54700 33.32500 20.21000
H  -2.95700 34.24800 20.23000
H  -6.74300 30.16700 26.09100
H  -5.44400 30.21700 24.85200
H  -6.58600 31.46600 24.91100
H  -3.95800 30.70300 30.86200
H  -7.25600 32.14700 33.11500
H  -6.00600 31.50500 34.15800
H  -7.33000 30.42500 33.32600

