158

Mg 24.39900 -4.77600 45.39700
C  26.46400 -2.53500 43.82200
C  21.77200 -3.52700 43.48000
C  22.67900 -7.77800 45.92400
C  27.17000 -6.23000 47.00100
N  24.17400 -3.23700 43.82000
C  25.16600 -2.41000 43.44100
C  24.59900 -1.47200 42.41000
C  23.10300 -1.48200 42.72800
C  23.00900 -2.82700 43.41700
C  22.52200 -0.34800 43.59000
C  24.92300 -1.92100 40.96900
C  25.20700 -0.70300 40.03400
H  24.90500 -0.85600 38.53700
N  22.39200 -5.52300 44.85100
C  21.52100 -4.88600 44.00000
C  20.30400 -5.68400 44.03800
C  20.55700 -6.89500 44.65500
C  21.94400 -6.78800 45.21900
C  19.00900 -5.17900 43.37400
C  19.61900 -8.02000 44.90600
O  18.52000 -7.92600 44.32300
C  19.91000 -9.27900 45.86700
N  24.71800 -6.63500 46.55400
C  23.84400 -7.70900 46.58600
C  24.46100 -8.93100 47.31700
C  25.81700 -8.35800 47.75100
C  25.92900 -6.93200 47.08500
C  23.58500 -9.57600 48.41300
C  27.10300 -9.33100 47.70900
C  27.72900 -9.71200 49.12800
N  26.38800 -4.35200 45.55100
C  27.41300 -5.01000 46.26300
C  28.67100 -4.32700 46.01700
C  28.37100 -3.38100 45.05100
C  26.96300 -3.46200 44.84100
C  30.02300 -4.78300 46.53700
C  28.85400 -2.41600 44.12800
O  30.04700 -2.09400 43.92400
C  27.64300 -1.79400 43.28200
C  27.62900 -0.34000 43.59900
O  27.29300 0.08400 44.72500
O  28.03800 0.38300 42.48700
C  27.97400 1.81500 42.77800
H  20.92800 -3.07300 42.95500
H  22.34700 -8.80900 45.78700
H  27.92100 -6.74600 47.60300
H  25.06200 -0.49800 42.57200
H  22.49500 -1.65700 41.84000
H  21.84300 0.28100 43.01400
H  23.38600 0.27400 43.82200
H  22.12800 -0.70900 44.54000
H  24.06000 -2.48400 40.61200
H  25.77900 -2.59600 40.99900
H  26.26600 -0.44800 40.01700
H  24.64900 0.17500 40.36100
H  18.28000 -5.97200 43.20700
H  19.22500 -4.72400 42.40700
H  18.67600 -4.37100 44.02700
H  20.29700 -9.02900 46.85500
H  20.63800 -9.84800 45.29000
H  18.97300 -9.80700 46.04600
H  24.61700 -9.71200 46.57300
H  25.68300 -8.08600 48.79800
H  23.34800 -10.62800 48.24900
H  22.65400 -9.06600 48.65700
H  24.14400 -9.53700 49.34800
H  27.88100 -9.06600 46.99200
H  26.68900 -10.22100 47.23400
H  28.81200 -9.62200 49.04400
H  27.47700 -10.71900 49.46000
H  27.51400 -8.95900 49.88600
H  30.74500 -4.56200 45.75100
H  29.96800 -5.87000 46.46700
H  30.20800 -4.39000 47.53600
H  27.82100 -2.06600 42.24200
H  27.27500 2.21000 42.04000
H  28.95700 2.26900 42.65900
H  27.56600 2.20200 43.71200
Mg -4.72400 25.28800 26.31600
C  -3.55700 26.75800 29.25600
C  -6.92100 23.44300 28.07600
C  -5.69200 23.99400 23.36800
C  -2.31500 27.23400 24.52900
N  -5.14100 25.12600 28.41900
C  -4.58700 25.80300 29.44700
C  -5.17300 25.45500 30.77900
C  -5.83800 24.08700 30.30400
C  -6.02800 24.21800 28.84300
C  -5.11800 22.81400 30.66100
C  -6.10700 26.61500 31.39100
C  -6.21700 26.66600 32.96200
H  -5.64900 25.46800 33.72300
N  -6.09000 23.84200 25.82800
C  -6.99300 23.31600 26.66500
C  -7.96500 22.60200 25.89200
C  -7.61700 22.70600 24.50500
C  -6.44200 23.61700 24.52600
C  -9.02600 21.83700 26.59800
C  -8.34200 22.12900 23.30100
O  -7.96900 22.42200 22.19900
C  -9.55000 21.22800 23.39600
N  -3.99000 25.57800 24.14600
C  -4.54900 24.74500 23.17200
C  -4.01400 25.23000 21.77200
C  -2.97400 26.32400 22.15900
C  -3.01500 26.36500 23.66900
C  -3.49600 23.99700 20.95900
C  -3.25800 27.64100 21.39200
C  -2.17100 28.27400 20.61400
N  -3.28800 26.78500 26.75000
C  -2.36900 27.41200 25.96600
C  -1.57200 28.24200 26.78300
C  -2.00500 28.03100 28.11000
C  -2.95600 27.07600 28.03500
C  -0.60600 29.23900 26.20400
C  -1.88400 28.51500 29.44500
O  -1.17300 29.39200 29.95200
C  -2.87900 27.66100 30.26800
C  -2.05200 26.81600 31.15000
O  -1.41900 25.85100 30.85400
O  -2.06900 27.36700 32.39200
C  -1.14200 26.92400 33.41500
H  -7.57700 22.74700 28.60300
H  -5.92600 23.48200 22.43200
H  -1.52500 27.91100 24.19800
H  -4.25400 25.25300 31.32700
H  -6.85100 24.09200 30.70700
H  -5.13500 22.20600 29.75700
H  -5.68900 22.30200 31.43500
H  -4.06800 23.00900 30.88300
H  -7.12400 26.37300 31.08200
H  -5.88000 27.61600 31.02400
H  -7.20600 26.90600 33.35100
H  -5.60800 27.52700 33.23900
H  -9.99500 21.80300 26.10000
H  -9.31600 22.11400 27.61200
H  -8.63800 20.81900 26.59000
H  -9.48700 20.53800 24.23800
H  -9.49700 20.66800 22.46200
H  -10.38300 21.92700 23.48000
H  -4.93000 25.70800 21.42700
H  -1.95200 26.10800 21.84700
H  -2.43100 24.08500 20.74300
H  -4.17800 23.83000 20.12500
H  -3.65000 23.03700 21.45100
H  -3.66700 28.37100 22.09100
H  -4.08200 27.51400 20.69000
H  -1.88700 27.66700 19.75400
H  -1.36600 28.63500 21.25300
H  -2.49800 29.20200 20.14500
H  0.30800 28.78600 25.81800
H  -0.41600 29.82700 27.10200
H  -1.05000 29.82400 25.39900
H  -3.59800 28.31700 30.76000
H  -1.38300 25.88600 33.64600
H  -1.39600 27.49500 34.30800
H  -0.06700 26.97800 33.24700

