158

Mg 25.57200 0.46700 29.11500
C  27.50800 0.47200 31.91100
C  22.81000 1.24900 30.95600
C  23.74600 0.41700 26.29300
C  28.36100 -0.45500 27.23200
N  25.21700 0.55000 31.28900
C  26.17500 0.73800 32.23800
C  25.52300 1.27200 33.58700
C  23.95000 1.40900 33.25400
C  23.99000 1.04500 31.72800
C  23.04000 0.59500 34.20200
C  26.10200 2.56600 34.18800
C  26.82900 2.47600 35.50300
H  26.37900 3.11700 36.81700
N  23.52400 0.71700 28.64700
C  22.57700 1.10400 29.55200
C  21.30100 1.33100 28.87700
C  21.54800 1.09400 27.46100
C  23.00600 0.79400 27.40200
C  20.04800 1.83800 29.47300
C  20.56100 1.10900 26.27400
O  20.88100 0.93500 25.11700
C  19.10500 1.41700 26.51100
N  25.96600 -0.06500 26.97800
C  25.07800 0.07200 26.02700
C  25.67600 -0.12200 24.56200
C  27.19700 -0.23700 24.92200
C  27.19700 -0.25000 26.45300
C  25.24400 -1.27300 23.77500
C  28.05500 0.98300 24.40400
C  29.38100 0.71200 23.71300
N  27.46900 -0.06600 29.48400
C  28.52700 -0.34100 28.60100
C  29.79700 -0.46700 29.36300
C  29.41000 -0.08300 30.66900
C  28.01100 0.06000 30.69500
C  31.16700 -0.80200 28.85500
C  29.94100 0.14800 31.97700
O  31.10800 0.12300 32.36600
C  28.70600 0.43900 32.83900
C  28.66800 -0.64500 33.90500
O  28.00000 -1.67000 33.78200
O  29.45600 -0.30300 34.90200
C  29.32800 -1.21500 36.01100
H  21.94900 1.65100 31.49500
H  23.29400 0.28100 25.30800
H  29.21200 -0.66200 26.58000
H  25.65800 0.42100 34.25500
H  23.70900 2.46600 33.37200
H  22.04900 1.04900 34.22600
H  23.35100 0.73000 35.23800
H  22.92200 -0.47700 34.03900
H  25.37400 3.36800 34.31000
H  26.73400 2.97400 33.39900
H  27.76400 3.02100 35.37400
H  27.00500 1.46900 35.88200
H  19.16600 1.21100 29.34100
H  19.71600 2.69800 28.89300
H  20.10500 2.16600 30.51100
H  18.76800 0.60300 27.15100
H  18.59600 1.28700 25.55600
H  19.00900 2.37500 27.02200
H  25.30100 0.83800 24.20700
H  27.63700 -1.15500 24.53200
H  24.60800 -0.89300 22.97600
H  24.63100 -1.94200 24.38000
H  25.97800 -1.86100 23.22400
H  28.09600 1.68500 25.23700
H  27.37200 1.44600 23.69200
H  30.05400 0.87900 24.55400
H  29.59800 1.49300 22.98500
H  29.47600 -0.29800 23.31500
H  31.12400 -0.46800 27.81800
H  31.25600 -1.88100 28.97800
H  31.94000 -0.29800 29.43500
H  28.76000 1.41000 33.33200
H  29.13500 -2.23600 35.68300
H  28.53700 -0.82400 36.65100
H  30.25200 -1.18100 36.58700
Mg -10.64700 17.75300 43.42400
C  -7.14300 17.20000 43.26000
C  -9.92400 21.07900 42.47500
C  -13.86200 18.31500 43.05800
C  -11.13800 14.37600 43.77200
N  -8.71900 18.97500 42.91900
C  -7.42100 18.53900 43.03000
C  -6.40500 19.63400 42.64800
C  -7.37000 20.93900 42.62400
C  -8.79700 20.29600 42.65500
C  -7.12000 22.00500 43.79400
C  -5.41700 19.34200 41.42900
C  -5.78300 18.29600 40.37600
H  -5.65100 18.71700 38.88300
N  -11.77000 19.51000 42.72500
C  -11.31200 20.77200 42.45400
C  -12.41700 21.58200 42.14900
C  -13.56200 20.81600 42.37800
C  -13.07300 19.47700 42.70400
C  -12.23400 23.06400 41.75500
C  -15.03200 21.28100 42.27200
O  -15.33400 22.47300 42.03800
C  -16.18600 20.44400 42.60200
N  -12.33800 16.50300 43.28700
C  -13.57800 17.00600 43.37200
C  -14.58400 15.97300 43.85100
C  -13.71600 14.67400 43.72200
C  -12.30000 15.16000 43.47900
C  -15.22400 16.26600 45.20500
C  -14.11300 13.69000 42.54900
C  -15.22900 12.69300 42.75500
N  -9.51500 16.09600 43.53300
C  -9.80900 14.80100 43.68200
C  -8.61300 13.98200 43.72500
C  -7.58300 14.90300 43.58100
C  -8.16100 16.17300 43.42200
C  -8.56900 12.41600 43.83800
C  -6.13400 15.02500 43.58600
O  -5.28100 14.15600 43.67700
C  -5.82700 16.52300 43.42700
C  -4.91600 17.00400 44.55700
O  -3.90200 17.70300 44.44100
O  -5.35900 16.48500 45.77600
C  -4.71400 16.99900 46.96400
H  -9.72700 22.12800 42.24400
H  -14.94900 18.36600 42.96500
H  -11.41100 13.33600 43.96200
H  -5.68800 19.69700 43.46600
H  -7.28100 21.38600 41.63400
H  -6.96000 22.96900 43.31000
H  -6.27300 21.79700 44.44900
H  -8.03100 21.97900 44.39100
H  -4.46300 19.10200 41.89800
H  -5.28600 20.27900 40.88700
H  -6.82600 18.07300 40.60200
H  -5.19200 17.38300 40.46000
H  -13.06500 23.46000 41.17300
H  -11.39700 23.11400 41.05800
H  -12.03800 23.70600 42.61400
H  -16.20100 20.29400 43.68200
H  -16.22900 19.55600 41.97200
H  -17.05800 20.99600 42.25200
H  -15.41300 15.93100 43.14400
H  -13.72400 14.15700 44.68200
H  -14.51800 16.65600 45.93900
H  -15.73900 15.40600 45.63300
H  -15.94300 17.07200 45.05900
H  -13.24300 13.09800 42.26300
H  -14.42400 14.25700 41.67100
H  -16.17000 12.98600 42.28800
H  -15.27700 12.78700 43.84000
H  -14.82300 11.72800 42.45300
H  -9.17100 12.05000 43.00600
H  -9.02300 12.02300 44.74700
H  -7.53800 12.07700 43.73300
H  -5.26800 16.61800 42.49600
H  -4.35000 18.01300 46.80200
H  -3.89800 16.37800 47.33400
H  -5.46600 17.12000 47.74400

