158

Mg 48.80900 35.46900 27.57900
C  46.57500 33.79400 29.69100
C  49.13600 37.91900 29.88900
C  50.74500 37.09300 25.36300
C  47.89600 33.09200 24.97600
N  47.92500 35.77700 29.57900
C  47.09700 34.93400 30.26900
C  47.25500 35.24700 31.72100
C  47.61500 36.80700 31.61900
C  48.29500 36.89400 30.27700
C  46.41700 37.86100 31.72900
C  48.32300 34.37500 32.49800
C  48.24200 34.24600 33.99800
H  47.20700 35.08100 34.72400
N  49.92600 37.20700 27.65200
C  49.89200 38.12200 28.67500
C  50.77500 39.25400 28.26800
C  51.28800 38.98700 27.01100
C  50.59100 37.74800 26.56300
C  51.04100 40.34800 29.20200
C  52.20000 39.77900 26.08500
O  52.37600 39.61300 24.91300
C  52.96700 40.93400 26.70600
N  49.13900 35.18500 25.40900
C  50.17100 35.92000 24.79500
C  50.68000 35.21300 23.55800
C  49.66400 34.03500 23.29600
C  48.83600 34.07200 24.59200
C  50.69300 36.06900 22.25400
C  50.22900 32.65300 23.04300
C  49.67300 31.68200 21.91200
N  47.49600 33.80700 27.31700
C  47.27500 32.90200 26.23500
C  46.40600 31.81500 26.65800
C  46.11800 32.18300 28.03800
C  46.80800 33.36400 28.36800
C  45.96200 30.65200 25.81600
C  45.28200 31.73200 29.09500
O  44.54400 30.75600 29.18700
C  45.50900 32.79300 30.27600
C  45.89200 32.05100 31.57500
O  46.74600 31.16700 31.57400
O  45.08700 32.33200 32.62900
C  45.25600 31.40500 33.75000
H  49.33600 38.70300 30.62300
H  51.65200 37.39800 24.83500
H  47.63700 32.40700 24.16600
H  46.29000 35.29500 32.22500
H  48.41400 36.93600 32.35000
H  46.72400 38.62000 32.44900
H  45.46100 37.42000 32.01300
H  46.39300 38.34700 30.75400
H  49.28000 34.73800 32.12300
H  48.18200 33.36600 32.10900
H  49.28700 34.32500 34.29800
H  47.88000 33.22400 34.10900
H  51.91500 40.17300 29.82900
H  50.10900 40.46800 29.75400
H  51.18700 41.30600 28.70400
H  53.31000 40.54500 27.66500
H  52.24600 41.74400 26.80900
H  53.80700 41.22400 26.07500
H  51.60800 34.68500 23.77700
H  48.96700 34.15200 22.46700
H  50.20600 36.99200 22.57200
H  50.20100 35.62800 21.38700
H  51.74200 36.19200 21.98700
H  50.07800 32.11100 23.97600
H  51.31700 32.67500 22.97700
H  50.34100 31.63500 21.05300
H  48.63600 31.78400 21.59100
H  49.68200 30.65800 22.28400
H  46.81500 29.98100 25.71400
H  45.80800 31.05200 24.81400
H  45.06000 30.12400 26.12300
H  44.60200 33.38400 30.40000
H  45.70000 30.42900 33.55700
H  44.30700 31.24200 34.26000
H  45.92000 31.95100 34.42100
Mg -5.29800 24.61500 26.26000
C  -3.71000 26.23200 29.00300
C  -7.35300 22.92400 28.36100
C  -6.52100 23.12600 23.55500
C  -3.17400 26.54700 24.17500
N  -5.53700 24.59800 28.34700
C  -4.80000 25.31800 29.30300
C  -5.26300 24.88300 30.67400
C  -6.23900 23.73300 30.48500
C  -6.40000 23.75500 28.97300
C  -5.90000 22.39000 31.15800
C  -5.89400 26.08700 31.44500
C  -5.66300 26.19800 32.98000
H  -5.05100 25.05900 33.70000
N  -6.68600 23.11300 26.06300
C  -7.53600 22.60700 27.03200
C  -8.54300 21.75700 26.36500
C  -8.24600 21.70900 24.99600
C  -7.08400 22.62900 24.78800
C  -9.62100 21.01900 27.18100
C  -8.87000 20.85200 23.83200
O  -8.59300 20.91300 22.65200
C  -9.77200 19.79200 24.26000
N  -4.72600 24.60800 24.17600
C  -5.46100 24.07300 23.23400
C  -5.10000 24.44800 21.82500
C  -4.16500 25.65900 22.09400
C  -3.93200 25.58600 23.56700
C  -4.57200 23.23400 21.01700
C  -4.81600 26.98300 21.61200
C  -4.15700 27.63300 20.48400
N  -3.82000 26.20600 26.46300
C  -3.05000 26.87300 25.53100
C  -2.22200 27.85500 26.17700
C  -2.43800 27.63300 27.56700
C  -3.36100 26.55700 27.64600
C  -1.29600 28.91600 25.52300
C  -2.17000 28.08300 28.92100
O  -1.62000 29.10600 29.34600
C  -2.85400 27.12900 29.85700
C  -1.73900 26.48400 30.68400
O  -0.81000 25.79500 30.25300
O  -1.82600 26.79300 32.00800
C  -0.92100 26.25500 32.95900
H  -8.10400 22.52800 29.04800
H  -7.06700 22.86300 22.64600
H  -2.70600 27.29300 23.53000
H  -4.38700 24.57400 31.24400
H  -7.24000 24.04900 30.78100
H  -5.70800 21.59000 30.44400
H  -6.69400 22.12600 31.85700
H  -4.94300 22.40200 31.67800
H  -6.95400 26.09200 31.19200
H  -5.53000 27.00900 30.99200
H  -6.59700 26.54000 33.42800
H  -4.95500 27.01500 33.11300
H  -9.35100 19.98700 27.40500
H  -10.57800 21.23300 26.70500
H  -9.79400 21.40700 28.18500
H  -9.79400 19.04300 23.46900
H  -10.73900 20.16500 24.60000
H  -9.33100 19.27300 25.11100
H  -6.04300 24.77500 21.38700
H  -3.21700 25.44700 21.60100
H  -5.16300 23.16400 20.10400
H  -4.58400 22.34800 21.65100
H  -3.53400 23.44700 20.76100
H  -4.84000 27.65000 22.47400
H  -5.82300 26.87100 21.20800
H  -4.85000 27.52400 19.65000
H  -3.21200 27.17400 20.19300
H  -3.85900 28.67100 20.63000
H  -1.77500 29.84200 25.84000
H  -1.06800 28.85600 24.45900
H  -0.38300 29.01100 26.11200
H  -3.42100 27.77700 30.52500
H  0.07200 26.07700 32.54400
H  -1.24300 25.34800 33.47100
H  -0.85700 26.88500 33.84600

