158

Mg 24.00900 -5.60100 45.32800
C  26.42600 -3.40300 43.83400
C  21.69700 -4.40300 43.09200
C  22.09900 -8.13000 46.27500
C  26.61200 -6.70800 47.40200
N  24.12000 -4.14200 43.58100
C  25.20600 -3.36000 43.17700
C  24.78100 -2.36500 42.14400
C  23.18300 -2.53700 42.06600
C  22.92400 -3.77500 42.95600
C  22.41100 -1.29800 42.55200
C  25.52500 -2.68500 40.78800
C  25.99000 -1.46900 39.90000
H  25.54000 -1.55800 38.43500
N  22.15900 -6.14800 44.82900
C  21.39800 -5.55800 43.86300
C  20.14300 -6.18300 43.79800
C  20.06800 -7.17000 44.87400
C  21.45200 -7.17000 45.42500
C  19.01900 -5.76700 42.89100
C  18.92900 -7.95800 45.36500
O  17.79900 -7.69000 44.82400
C  19.03400 -8.95600 46.46600
N  24.28700 -7.22100 46.54400
C  23.34600 -8.11500 46.81600
C  23.85000 -9.26100 47.71100
C  25.24800 -8.64900 48.26300
C  25.45000 -7.49300 47.34400
C  22.88500 -9.83000 48.81800
C  26.45100 -9.63500 48.37600
C  27.34700 -9.60400 49.64800
N  26.08700 -5.08500 45.64700
C  26.93500 -5.62200 46.55100
C  28.23800 -4.92500 46.42100
C  28.07500 -3.97700 45.39700
C  26.77500 -4.15300 44.95700
C  29.47900 -5.09200 47.21700
C  28.71100 -2.85400 44.70000
O  29.79600 -2.31500 44.89400
C  27.74200 -2.52400 43.54600
C  27.58400 -1.08200 43.52400
O  27.20800 -0.40000 44.41500
O  28.05400 -0.62000 42.28100
C  28.06000 0.81200 42.17200
H  20.96600 -4.02300 42.37500
H  21.56300 -9.04000 46.55100
H  27.35300 -7.01000 48.14500
H  24.99400 -1.33300 42.42200
H  22.78000 -2.90600 41.12300
H  22.90900 -0.42700 42.97900
H  21.76200 -1.53500 43.39500
H  21.97600 -1.00700 41.59600
H  24.87500 -3.30900 40.17500
H  26.43900 -3.24500 40.98300
H  27.07600 -1.50900 39.81500
H  25.63100 -0.52400 40.31000
H  18.29300 -6.52700 42.60300
H  19.47900 -5.30200 42.01900
H  18.40300 -5.01000 43.37600
H  19.39700 -8.57100 47.41900
H  19.61400 -9.81400 46.12700
H  18.01100 -9.27500 46.66600
H  24.18800 -10.05400 47.04400
H  25.03100 -8.15100 49.20700
H  21.92400 -9.31600 48.79200
H  23.16300 -9.84400 49.87200
H  22.85500 -10.88300 48.54000
H  27.00900 -9.54100 47.44500
H  26.00000 -10.62700 48.36100
H  28.38200 -9.85600 49.41500
H  27.04400 -10.44300 50.27400
H  27.21800 -8.68400 50.22000
H  29.26200 -5.21400 48.27800
H  30.12300 -4.21300 47.18900
H  29.98400 -5.97800 46.83400
H  28.13600 -2.75000 42.55400
H  28.36300 1.21400 41.20500
H  28.82400 1.27900 42.79300
H  27.11600 1.32400 42.36000
Mg 36.49100 49.59800 25.93600
C  36.56900 47.57800 28.78000
C  35.42600 52.16800 27.93400
C  36.11500 51.48300 23.15200
C  37.26800 46.84000 23.98900
N  35.90800 49.77200 28.21900
C  36.21300 48.86300 29.17200
C  36.08700 49.50600 30.59000
C  35.49600 50.98300 30.27900
C  35.58500 51.00200 28.70700
C  33.95100 51.17100 30.64200
C  37.42400 49.38100 31.32300
C  37.36600 49.15600 32.83600
H  36.15400 49.66300 33.58200
N  35.92700 51.53100 25.63000
C  35.64400 52.49700 26.57900
C  35.57600 53.79900 25.91800
C  35.67600 53.58800 24.52100
C  36.00000 52.18900 24.36400
C  35.41800 55.00000 26.79300
C  35.57400 54.60900 23.41500
O  35.88500 54.35500 22.24000
C  35.13000 55.98100 23.86400
N  36.53000 49.19200 23.81800
C  36.33900 50.09200 22.88300
C  36.68600 49.58800 21.42600
C  37.17400 48.13700 21.74500
C  36.98000 48.01500 23.28900
C  35.60900 49.67500 20.32900
C  38.62800 47.90500 21.32700
C  38.60700 46.90300 20.21300
N  36.71200 47.59400 26.27100
C  37.06400 46.61000 25.34700
C  37.14600 45.35400 26.05200
C  36.98700 45.68200 27.40400
C  36.77300 47.10400 27.48400
C  37.53800 44.10900 25.39800
C  36.99200 45.14300 28.73800
O  37.14500 43.99400 29.13800
C  36.74300 46.35200 29.70500
C  35.39800 46.09500 30.32300
O  34.36200 46.07800 29.68900
O  35.54100 45.69000 31.66300
C  34.34400 45.45600 32.34300
H  35.12500 53.05600 28.49300
H  36.16200 52.11000 22.25900
H  37.57500 46.05200 23.29800
H  35.28300 48.87600 30.97100
H  36.10900 51.79800 30.66400
H  33.90100 50.47200 31.47700
H  33.34000 50.75000 29.84400
H  33.39500 52.06600 30.92300
H  37.84600 50.38600 31.28300
H  38.16000 48.69900 30.89900
H  38.29400 49.57500 33.22300
H  37.55400 48.10900 33.07500
H  34.48100 55.55700 26.77300
H  36.17900 55.65700 26.37300
H  35.78800 54.87400 27.81100
H  34.81700 56.69200 23.09900
H  35.99100 56.47100 24.31900
H  34.23500 55.83900 24.47100
H  37.55300 50.16600 21.10500
H  36.52900 47.42700 21.22700
H  35.53200 48.72500 19.79900
H  35.74800 50.46900 19.59500
H  34.67400 49.96100 20.81100
H  39.27700 47.48500 22.09600
H  39.13000 48.82000 21.01200
H  37.96400 47.13200 19.36400
H  38.49100 45.91300 20.65400
H  39.61700 46.83000 19.81100
H  37.45600 43.20400 25.99900
H  38.50200 44.22000 24.90200
H  36.87000 43.91400 24.55900
H  37.58400 46.47800 30.38700
H  34.00000 44.44300 32.13400
H  33.55200 46.18800 32.18900
H  34.46500 45.46900 33.42600

