158

Mg 8.27400 3.10000 27.77900
C  9.80200 1.91200 30.68000
C  6.72900 5.59000 29.48700
C  6.36200 3.68400 25.05400
C  10.06600 0.66300 26.01100
N  8.22300 3.62300 29.76800
C  8.91400 3.04900 30.81300
C  8.52000 3.73300 32.18100
C  7.59000 4.85100 31.72400
C  7.47700 4.68900 30.18000
C  6.27600 5.07000 32.57300
C  9.89500 4.09100 32.97100
C  9.76200 5.17300 34.03500
H  10.54900 4.96700 35.39900
N  6.78900 4.48800 27.34700
C  6.35900 5.48300 28.14900
C  5.31600 6.32100 27.44300
C  5.11400 5.66800 26.21400
C  6.06900 4.57200 26.14300
C  4.68700 7.47100 28.01400
C  4.10100 5.99400 25.17000
O  4.05500 5.40400 24.12400
C  3.18200 7.13600 25.27400
N  8.14700 2.23100 25.78200
C  7.22100 2.65800 24.89300
C  7.36400 1.80100 23.55400
C  8.73500 1.11800 23.82800
C  9.00000 1.33800 25.29700
C  6.16900 0.87700 23.25200
C  9.96200 1.56200 22.99900
C  10.91600 0.48700 22.62500
N  9.61600 1.61800 28.18500
C  10.14400 0.59500 27.36900
C  10.93900 -0.31400 28.15600
C  10.87200 0.24100 29.45300
C  10.04600 1.33200 29.44500
C  11.85700 -1.44400 27.75700
C  11.37500 0.08600 30.83400
O  12.25100 -0.62800 31.33500
C  10.57700 1.13000 31.70400
C  9.71400 0.33300 32.59400
O  8.56600 -0.00500 32.30200
O  10.43700 0.10800 33.81200
C  9.59100 -0.70700 34.71700
H  6.29300 6.36500 30.12000
H  5.77600 3.89500 24.15700
H  10.69200 -0.08700 25.52300
H  8.09400 2.87500 32.70000
H  8.19200 5.72600 31.97000
H  5.36500 5.37700 32.05900
H  6.41800 5.86100 33.30900
H  5.98900 4.15200 33.08600
H  10.66600 4.46800 32.29900
H  10.24800 3.19900 33.48900
H  8.68800 5.32600 34.14200
H  10.16000 6.08500 33.59000
H  3.65600 7.40000 28.35900
H  4.56500 8.31700 27.33700
H  5.26100 7.85900 28.85500
H  2.78500 7.11800 26.28900
H  2.42500 6.92300 24.51800
H  3.71800 8.07900 25.17200
H  7.41000 2.53800 22.75200
H  8.77900 0.06200 23.56200
H  6.32800 -0.13500 22.87800
H  5.45400 1.35900 22.58500
H  5.62100 0.78000 24.18900
H  10.60200 2.29200 23.49400
H  9.56100 2.03500 22.10300
H  10.82700 -0.42500 23.21500
H  11.90400 0.91400 22.79300
H  10.83800 0.25400 21.56300
H  12.84000 -1.19600 28.15800
H  11.88500 -1.59000 26.67700
H  11.55900 -2.40800 28.17000
H  11.26400 1.81400 32.20300
H  9.16900 -1.47400 34.06700
H  8.83100 -0.11400 35.22500
H  10.14100 -1.24800 35.48700
Mg 40.85300 9.48200 29.96700
C  42.65200 10.88900 32.60500
C  38.72500 8.03500 32.26200
C  39.45100 7.81200 27.45500
C  43.45200 10.50800 27.69000
N  40.77000 9.55100 32.20600
C  41.57600 10.12300 33.11500
C  41.24800 9.82700 34.56800
C  39.99400 8.81800 34.48000
C  39.80800 8.72600 32.88400
C  40.25800 7.39300 35.11000
C  40.92000 11.11700 35.31000
C  41.55500 11.38600 36.68800
H  40.73500 12.06200 37.66100
N  39.19200 8.35500 29.87000
C  38.42700 7.82900 30.88800
C  37.27300 7.30700 30.31500
C  37.37500 7.36200 28.88300
C  38.72800 7.87000 28.67600
C  36.20100 6.70700 31.20300
C  36.45500 7.02000 27.84900
O  36.63500 7.20600 26.63900
C  35.17200 6.49200 28.32200
N  41.44600 9.12900 27.87200
C  40.61600 8.38200 27.07300
C  41.21200 8.36400 25.63800
C  42.36500 9.47900 25.66900
C  42.43800 9.71700 27.12600
C  41.54400 6.93300 25.08600
C  42.09000 10.72100 24.78400
C  41.68300 12.08400 25.42400
N  42.69300 10.34200 30.06000
C  43.62200 10.75100 29.11500
C  44.69100 11.40100 29.77200
C  44.26000 11.58100 31.06200
C  43.12300 10.91500 31.28200
C  45.87700 11.98600 29.07800
C  44.62800 12.22600 32.28800
O  45.57300 12.97300 32.58700
C  43.58700 11.67300 33.38500
C  44.32300 10.97300 34.41900
O  44.75000 9.82300 34.54100
O  44.62000 11.97100 35.37100
C  45.34000 11.46300 36.60600
H  38.11600 7.49800 32.99200
H  38.92200 7.34700 26.62100
H  44.25300 10.76600 26.99400
H  42.16600 9.46700 35.03100
H  39.10600 9.26400 34.92800
H  41.13200 7.23700 35.74200
H  40.24800 6.76000 34.22300
H  39.34100 7.30100 35.69200
H  39.85500 11.27100 35.48100
H  41.33700 11.92100 34.70400
H  42.34700 12.11000 36.49900
H  41.97100 10.46600 37.09700
H  36.24600 7.23000 32.15800
H  36.40300 5.63900 31.28100
H  35.18200 6.92000 30.87900
H  34.73500 5.87800 27.53400
H  34.56700 7.37500 28.53000
H  35.21600 5.86100 29.21000
H  40.42900 8.84100 25.04800
H  43.26800 8.96100 25.34400
H  41.13800 6.23800 25.82000
H  42.60600 6.69700 25.03000
H  40.89100 6.85300 24.21700
H  41.40200 10.48600 23.97200
H  42.96100 11.07900 24.23500
H  41.44600 11.91400 26.47400
H  40.85400 12.69200 25.06200
H  42.43000 12.86500 25.28400
H  45.46700 12.91600 28.68600
H  46.28500 11.27300 28.36100
H  46.68800 12.17900 29.78000
H  43.15700 12.53600 33.89500
H  44.78900 10.76300 37.23500
H  45.57400 12.37700 37.15300
H  46.30200 11.05300 36.29800

