158

Mg 42.47900 41.86200 26.40900
C  41.46900 44.19700 28.82300
C  43.52100 39.78300 28.90600
C  43.39100 39.52800 24.14800
C  41.86300 44.21700 23.91000
N  42.47500 42.04200 28.61600
C  41.92900 43.00000 29.39200
C  41.87100 42.58200 30.91300
C  42.51300 41.15000 30.91100
C  42.92200 41.00100 29.39500
C  43.76500 40.97100 31.84400
C  40.47100 42.59200 31.56000
C  40.20800 43.44700 32.79800
H  39.37900 42.90000 33.93200
N  43.35600 39.96900 26.51700
C  43.69800 39.29700 27.61100
C  44.14400 37.99800 27.31200
C  43.88300 37.77700 25.92800
C  43.50400 39.14000 25.48700
C  44.66200 37.06800 28.39200
C  44.08300 36.48500 25.07900
O  43.72400 36.45000 23.89700
C  44.43900 35.18500 25.87600
N  42.69500 41.90000 24.30800
C  42.96500 40.79600 23.58700
C  42.87500 41.06200 22.09800
C  42.29300 42.49500 22.04100
C  42.31200 42.93900 23.52700
C  44.26700 40.77800 21.36700
C  40.87200 42.73800 21.39800
C  40.71700 43.89900 20.40800
N  41.81000 43.87500 26.34500
C  41.63900 44.64100 25.26600
C  41.01500 45.91000 25.68800
C  40.84000 45.72500 27.09600
C  41.40800 44.50700 27.41800
C  40.63600 47.00900 24.84500
C  40.44400 46.42400 28.27100
O  40.01900 47.55000 28.40600
C  40.86300 45.38100 29.48000
C  41.85600 46.03300 30.47700
O  43.08000 45.90800 30.46000
O  41.16200 46.59800 31.53600
C  42.00500 47.02000 32.67400
H  43.74700 39.19200 29.79700
H  43.60300 38.79100 23.37200
H  41.63900 44.84800 23.04800
H  42.45400 43.30000 31.48900
H  41.83900 40.31400 31.10300
H  43.63100 41.57600 32.74000
H  44.65800 41.37600 31.36800
H  43.97100 39.94500 32.14800
H  40.06900 41.61400 31.82500
H  39.82100 42.98900 30.78000
H  39.79600 44.44000 32.61500
H  41.17100 43.73900 33.21700
H  43.84900 36.40500 28.68500
H  45.15100 37.59700 29.21000
H  45.33900 36.29900 28.02000
H  45.51600 35.18500 26.04400
H  44.23300 34.33400 25.22800
H  43.77600 34.99900 26.72000
H  42.12100 40.37600 21.71100
H  43.04800 43.06300 21.49800
H  45.11100 40.75100 22.05600
H  44.47100 41.59200 20.67100
H  44.22200 39.81400 20.86100
H  40.21400 42.90300 22.25200
H  40.39200 41.86700 20.95200
H  39.94700 44.47500 20.92000
H  40.04400 43.59100 19.60800
H  41.52400 44.47800 19.95900
H  40.57400 46.59600 23.83800
H  41.35300 47.82900 24.89000
H  39.64000 47.40900 25.03900
H  40.01600 45.03600 30.07400
H  43.05200 47.15300 32.40100
H  41.93300 46.30600 33.49400
H  41.62800 47.98000 33.02700
Mg 9.56400 47.64000 25.92400
C  7.80700 47.65800 28.89000
C  12.27100 49.01100 27.63500
C  11.28900 47.61000 22.99600
C  6.63500 46.68900 24.20400
N  9.92700 48.38400 27.96100
C  9.07200 48.22000 29.00400
C  9.87200 48.52100 30.30900
C  11.07600 49.37800 29.81400
C  11.13200 48.90700 28.38100
C  10.78400 50.93800 29.77000
C  10.33800 47.30600 31.12900
C  10.62400 47.56000 32.65700
H  10.39900 46.40300 33.52400
N  11.54300 48.19900 25.37900
C  12.50200 48.71900 26.26500
C  13.73300 48.67200 25.54300
C  13.50800 48.30800 24.19200
C  12.01600 48.07100 24.16000
C  15.04500 49.00800 26.22700
C  14.37100 48.17300 23.01000
O  13.99900 47.75100 21.89100
C  15.89200 48.44600 23.12500
N  8.94100 47.36300 23.89800
C  9.88900 47.33200 22.90400
C  9.20500 46.90000 21.55800
C  7.89300 46.27100 21.93700
C  7.77800 46.82500 23.36200
C  9.10100 48.10800 20.59200
C  7.94500 44.69000 21.71500
C  8.57100 43.83800 22.83200
N  7.57600 47.32900 26.40400
C  6.48300 46.96100 25.60600
C  5.33100 46.78400 26.40100
C  5.81500 46.99600 27.72200
C  7.18800 47.34300 27.63000
C  3.94100 46.60200 25.87700
C  5.42000 46.93000 29.13700
O  4.36300 46.66600 29.71600
C  6.76100 47.33500 29.96700
C  6.95400 46.13900 30.82000
O  7.30500 45.04600 30.35400
O  6.54000 46.42200 32.06700
C  6.86200 45.42000 33.05300
H  13.14300 49.41200 28.15400
H  11.69500 47.59200 21.98300
H  5.79800 46.14600 23.76000
H  9.23800 49.19100 30.89000
H  11.97900 49.07500 30.34500
H  11.17300 51.34500 30.70300
H  9.71300 51.10500 29.65500
H  11.34100 51.29700 28.90400
H  11.27300 47.09400 30.61000
H  9.70500 46.42200 31.05600
H  10.05000 48.43000 32.97700
H  11.62800 47.98400 32.64300
H  15.04300 48.78600 27.29400
H  15.21300 50.08500 26.23200
H  15.90600 48.52000 25.77000
H  16.24400 47.66400 23.79800
H  16.21800 49.33900 23.65800
H  16.42000 48.30300 22.18200
H  9.95100 46.19900 21.18100
H  7.09500 46.61600 21.28000
H  8.07100 48.23900 20.26000
H  9.67800 48.09400 19.66800
H  9.41900 48.97100 21.17900
H  8.45000 44.47600 20.77300
H  6.90100 44.41600 21.55900
H  9.03900 44.47700 23.58100
H  9.31200 43.19200 22.36000
H  7.80500 43.20200 23.27500
H  3.44300 47.53500 26.14200
H  3.43500 45.73600 26.30400
H  3.83500 46.51900 24.79600
H  6.53400 48.21900 30.56300
H  6.84400 45.87300 34.04500
H  7.81100 44.89900 32.92400
H  6.04700 44.69900 33.11100

