158

Mg 9.67300 48.33200 26.21200
C  7.42100 48.68100 28.89500
C  12.15700 49.57400 28.08400
C  11.54100 48.24900 23.44800
C  6.71400 47.95100 24.12000
N  9.70900 49.08300 28.17800
C  8.75800 48.88400 29.14900
C  9.44000 49.29900 30.52900
C  10.70000 50.12900 30.17500
C  10.85500 49.64900 28.66500
C  10.33800 51.59600 30.30200
C  9.76900 47.91800 31.20200
C  9.79600 47.94200 32.72400
H  9.22500 46.75500 33.46900
N  11.65900 48.79700 25.86000
C  12.58300 49.16500 26.80600
C  13.91400 49.05000 26.20700
C  13.70700 48.82800 24.78500
C  12.27500 48.60600 24.65400
C  15.26100 49.24800 26.93400
C  14.70900 48.60700 23.61000
O  14.45300 48.37600 22.43200
C  16.10900 48.82100 23.82200
N  9.12200 48.31600 24.02700
C  10.17100 48.20800 23.14700
C  9.57800 47.87500 21.69200
C  8.06200 47.63300 22.02900
C  7.93900 47.92400 23.50700
C  9.87900 48.93100 20.66000
C  7.51100 46.16300 21.63800
C  8.47900 44.97800 21.84000
N  7.56600 48.02600 26.43600
C  6.47500 47.93400 25.50300
C  5.20800 47.85600 26.16300
C  5.51900 48.17100 27.52800
C  6.93200 48.35800 27.59500
C  3.89200 47.58000 25.58800
C  5.00000 48.28800 28.90000
O  3.86000 48.10100 29.26000
C  6.27500 48.61100 29.86100
C  6.34600 47.42000 30.77800
O  6.97100 46.40400 30.62800
O  5.32900 47.54700 31.72500
C  5.04100 46.29000 32.48700
H  13.01000 49.75500 28.74100
H  12.20000 48.12100 22.58600
H  5.81800 47.91100 23.49700
H  8.65900 49.77600 31.12000
H  11.52400 49.83500 30.82500
H  9.67300 51.85200 29.47700
H  11.11600 52.36000 30.31600
H  9.79600 51.79200 31.22700
H  10.74200 47.59200 30.83700
H  9.10600 47.12400 30.85600
H  9.06200 48.71700 32.94500
H  10.82300 48.11400 33.04300
H  15.00000 49.58700 27.93600
H  15.60300 50.15000 26.42700
H  15.98600 48.43400 26.89500
H  16.54900 47.99000 24.37400
H  16.36700 49.75200 24.32500
H  16.78500 48.70300 22.97400
H  10.10200 46.97900 21.35700
H  7.42200 48.37200 21.54600
H  9.02000 49.53000 20.35600
H  10.28800 48.35400 19.83200
H  10.61500 49.58500 21.12800
H  7.13700 46.22400 20.61500
H  6.54400 46.00300 22.11500
H  8.72500 44.73700 20.80600
H  7.88700 44.16700 22.26400
H  9.27100 45.16600 22.56500
H  3.21600 47.29700 26.39600
H  4.17500 46.74500 24.94700
H  3.45400 48.39900 25.01900
H  5.93500 49.53700 30.32500
H  5.50800 46.26300 33.47100
H  5.51600 45.40200 32.06900
H  3.96200 46.16900 32.58700
Mg -11.84100 38.36300 42.18600
C  -9.58900 35.98100 40.96600
C  -9.73700 40.88000 40.84000
C  -14.29100 40.53900 42.60600
C  -13.79500 35.73900 43.29000
N  -9.97100 38.43200 40.88900
C  -9.20300 37.32200 40.67900
C  -7.93400 37.79100 39.86400
C  -7.81900 39.37000 40.21700
C  -9.22200 39.55700 40.75500
C  -6.68600 39.87300 41.24100
C  -8.10300 37.37800 38.36500
C  -6.96800 36.47700 37.97200
H  -6.33800 36.89500 36.64200
N  -11.98400 40.42600 41.78200
C  -11.00100 41.28000 41.30500
C  -11.52700 42.63900 41.38700
C  -12.87200 42.56200 41.78100
C  -13.11400 41.15100 42.11800
C  -10.73100 43.83300 41.03200
C  -13.78300 43.76800 42.05900
O  -13.37900 44.88000 41.75400
C  -15.23600 43.74000 42.63700
N  -13.74000 38.17000 42.93800
C  -14.56900 39.27600 43.02500
C  -15.84500 38.78600 43.81000
C  -15.81400 37.20800 43.65900
C  -14.34700 37.00900 43.25200
C  -15.87800 39.38500 45.21400
C  -16.77600 36.73200 42.52600
C  -17.95500 35.86400 42.91700
N  -11.70900 36.30600 42.18800
C  -12.54100 35.35500 42.79000
C  -11.84300 34.06700 42.84100
C  -10.71400 34.28400 42.04700
C  -10.68600 35.63400 41.68500
C  -12.30800 32.76900 43.43900
C  -9.55600 33.60800 41.48700
O  -9.21700 32.41200 41.56800
C  -8.78800 34.69300 40.66500
C  -7.40500 34.70200 41.03400
O  -6.91700 35.40800 41.91100
O  -6.73300 33.80300 40.25800
C  -5.33100 33.45500 40.64700
H  -9.02200 41.69300 40.69900
H  -15.14100 41.20400 42.77100
H  -14.46500 34.90100 43.49200
H  -7.13500 37.23500 40.35300
H  -7.81600 40.03700 39.35600
H  -6.07000 40.66700 40.81900
H  -6.07900 39.05400 41.62600
H  -7.17700 40.34700 42.09100
H  -8.00500 38.21800 37.67700
H  -9.07400 36.89800 38.25200
H  -7.37800 35.46800 37.91000
H  -6.12000 36.39000 38.65200
H  -11.26900 44.33900 40.23000
H  -9.81000 43.42600 40.61600
H  -10.52900 44.38000 41.95300
H  -15.85700 43.20900 41.91600
H  -15.63200 44.74700 42.76600
H  -15.31700 43.30500 43.63300
H  -16.73200 39.14900 43.29100
H  -16.09800 36.72400 44.59300
H  -16.75100 40.01900 45.36900
H  -14.98200 40.00000 45.28900
H  -15.83100 38.60800 45.97700
H  -16.09600 36.35300 41.76300
H  -17.20700 37.64000 42.10400
H  -18.15600 34.99300 42.29200
H  -18.93500 36.34100 42.91900
H  -17.84800 35.56400 43.95900
H  -12.74900 32.02700 42.77400
H  -13.02900 33.13600 44.16900
H  -11.58100 32.39100 44.15800
H  -8.84100 34.52800 39.58900
H  -5.28500 33.46600 41.73600
H  -4.63500 34.14500 40.16900
H  -5.19700 32.42400 40.31900

