158

Mg 25.98000 0.29900 28.98300
C  27.77400 -0.01500 31.91900
C  23.16000 0.75900 31.02600
C  24.04300 0.31600 26.20600
C  28.64500 -0.83200 27.11200
N  25.53500 0.30900 31.31500
C  26.50000 0.37100 32.18600
C  25.92600 0.63700 33.53700
C  24.37000 0.71100 33.36500
C  24.33200 0.54900 31.84800
C  23.49500 -0.30900 34.21500
C  26.62400 1.84200 34.27700
C  25.82800 2.71600 35.17900
H  26.40000 2.93100 36.58500
N  23.98200 0.65100 28.68200
C  22.97400 0.81800 29.60900
C  21.67300 1.20000 28.97700
C  21.97000 1.11700 27.61300
C  23.37900 0.65600 27.45800
C  20.32200 1.45400 29.77100
C  20.96000 1.34300 26.48000
O  21.25300 1.14500 25.33500
C  19.60700 1.85500 26.68400
N  26.33600 -0.08800 26.95500
C  25.37000 -0.06500 26.00400
C  25.93400 -0.28500 24.60700
C  27.40000 -0.66100 24.87500
C  27.53300 -0.44200 26.38500
C  25.30100 -1.39600 23.71300
C  28.55900 0.05700 24.04700
C  28.93100 1.49500 24.43100
N  27.85100 -0.29300 29.35900
C  28.84800 -0.70400 28.52200
C  30.00300 -0.98000 29.30100
C  29.65300 -0.71300 30.64800
C  28.29700 -0.34200 30.66200
C  31.25300 -1.40200 28.60600
C  30.12900 -0.61400 31.96700
O  31.20200 -0.84900 32.42400
C  28.90200 -0.13400 32.88600
C  28.58900 -1.25200 33.81900
O  28.22500 -2.37600 33.54700
O  28.68100 -0.70200 35.14300
C  28.47500 -1.56800 36.32700
H  22.30000 1.08600 31.61500
H  23.37500 0.37800 25.34400
H  29.47000 -1.11200 26.45400
H  26.14700 -0.27300 34.09400
H  24.03600 1.74400 33.46100
H  22.69900 0.23000 34.73000
H  24.09400 -0.81400 34.97200
H  23.04100 -1.02900 33.53400
H  27.03700 2.48700 33.50200
H  27.48800 1.62200 34.90400
H  24.88300 2.24300 35.44800
H  25.55300 3.66600 34.72100
H  19.79300 2.32300 29.38000
H  20.34200 1.55200 30.85600
H  19.79000 0.51500 29.62100
H  19.02700 1.16700 27.29900
H  19.07700 1.91500 25.73300
H  19.72200 2.84900 27.11600
H  25.99500 0.61700 23.99900
H  27.67600 -1.71000 24.77000
H  25.98100 -2.21800 23.48600
H  24.84200 -1.01000 22.80300
H  24.48000 -1.86000 24.25900
H  28.11700 -0.03800 23.05500
H  29.47700 -0.53100 24.03800
H  30.01100 1.57600 24.55200
H  28.44000 1.98600 25.27100
H  28.69700 2.21600 23.64900
H  31.96500 -0.81600 29.18600
H  31.45400 -1.05800 27.59100
H  31.43200 -2.46500 28.44500
H  29.13200 0.78500 33.42400
H  27.70900 -1.18100 37.00000
H  29.41400 -1.58700 36.88000
H  28.28300 -2.60700 36.05700
Mg -10.22100 17.39400 40.73300
C  -6.78400 17.19000 40.90900
C  -9.84800 20.76800 40.16100
C  -13.56500 17.52600 40.09100
C  -10.28600 13.98600 40.55200
N  -8.52400 18.78900 40.45800
C  -7.26700 18.47600 40.68600
C  -6.29800 19.68800 40.46500
C  -7.31200 20.90400 40.72100
C  -8.66000 20.11900 40.49800
C  -7.27700 21.44800 42.11800
C  -5.59900 19.72200 39.06100
C  -4.09400 19.46200 39.03400
H  -3.50900 18.65000 37.92700
N  -11.52100 18.91400 40.18900
C  -11.16600 20.27000 39.96400
C  -12.30500 21.01700 39.59400
C  -13.45300 20.14800 39.74000
C  -12.86900 18.78300 39.95400
C  -12.19800 22.49400 39.13800
C  -14.91300 20.56800 39.66300
O  -15.19900 21.73300 39.50200
C  -15.99200 19.61400 39.60600
N  -11.72800 15.93000 40.47600
C  -13.01500 16.23200 40.36700
C  -13.80900 14.92800 40.22700
C  -12.77700 13.80300 40.17500
C  -11.51900 14.65100 40.39300
C  -14.94500 14.73900 41.26700
C  -12.81500 13.08100 38.86100
C  -12.69600 11.54900 39.03400
N  -8.86900 15.86400 40.76200
C  -9.00600 14.47900 40.76800
C  -7.81400 13.79200 40.87700
C  -6.92700 14.92300 40.97900
C  -7.63100 16.07500 40.92500
C  -7.63300 12.32800 40.87700
C  -5.45800 15.15200 41.04300
O  -4.58300 14.30400 41.08100
C  -5.38600 16.69200 41.19100
C  -4.95900 17.15600 42.55700
O  -3.88000 17.70800 42.72100
O  -5.92300 17.00400 43.48700
C  -5.63600 17.60500 44.82000
H  -9.83700 21.85700 40.07600
H  -14.62300 17.39400 39.85100
H  -10.32200 12.89500 40.53200
H  -5.51200 19.70100 41.22100
H  -7.19300 21.68000 39.96500
H  -6.90600 22.46700 42.00200
H  -6.55800 20.93800 42.75900
H  -8.29300 21.47700 42.51100
H  -5.68300 20.66400 38.52000
H  -6.26000 19.06000 38.50100
H  -3.73100 19.36800 40.05700
H  -3.68800 20.43800 38.76800
H  -12.13200 23.12600 40.02400
H  -13.13900 22.76300 38.65900
H  -11.26000 22.69700 38.62000
H  -16.04400 18.94600 38.74700
H  -16.94000 20.14600 39.67900
H  -15.90800 19.08900 40.55800
H  -14.23000 15.07500 39.23200
H  -13.00300 13.19100 41.04800
H  -15.12300 15.63900 41.85600
H  -14.78600 13.92800 41.97700
H  -15.83500 14.58800 40.65600
H  -11.99000 13.47500 38.26700
H  -13.76900 13.33000 38.39600
H  -11.67500 11.22600 38.82800
H  -13.37300 11.00100 38.37900
H  -12.88100 11.34500 40.08900
H  -7.94000 11.94300 39.90500
H  -8.33000 11.84600 41.56200
H  -6.62000 11.95700 41.03200
H  -4.66600 16.98800 40.42700
H  -4.80400 17.14700 45.35400
H  -6.59600 17.47700 45.32000
H  -5.42100 18.67100 44.74800

