158

Mg 15.80000 -1.70500 27.24700
C  15.01200 0.52500 29.91000
C  18.18500 -3.26400 29.36900
C  17.49500 -2.92600 24.66500
C  14.24700 0.59400 25.14700
N  16.46200 -1.35800 29.32300
C  15.82600 -0.56800 30.24800
C  16.35300 -0.81300 31.64200
C  17.59600 -1.79000 31.35500
C  17.46600 -2.19800 29.95000
C  18.98700 -1.15000 31.64500
C  15.22800 -1.26300 32.55000
C  15.19000 -0.74500 33.98800
H  16.45600 -0.18200 34.64000
N  17.23600 -3.31100 27.06200
C  18.11300 -3.79800 28.03900
C  18.87700 -4.85500 27.51000
C  18.63600 -4.78500 26.10200
C  17.68100 -3.63800 25.86800
C  19.66600 -5.85400 28.30500
C  19.30600 -5.61600 25.02000
O  19.19400 -5.29500 23.82700
C  20.23500 -6.77000 25.33800
N  15.95100 -1.18600 25.26400
C  16.75700 -1.82300 24.37500
C  16.67500 -1.27200 22.96200
C  15.38900 -0.34700 23.11900
C  15.14100 -0.29200 24.62100
C  17.98100 -0.53000 22.63800
C  14.04400 -0.93700 22.44800
C  13.14500 0.08200 21.59500
N  14.71400 0.18600 27.43800
C  14.03400 0.87600 26.52300
C  13.30400 2.00800 27.12600
C  13.68400 1.91600 28.48400
C  14.54700 0.76100 28.60800
C  12.49400 3.03500 26.50300
C  13.63300 2.58700 29.76800
O  13.12300 3.61800 30.22300
C  14.40700 1.68200 30.78200
C  15.43200 2.54300 31.50200
O  16.54100 2.83100 31.05500
O  14.89000 3.05800 32.64600
C  15.88500 3.84600 33.46700
H  18.95200 -3.79300 29.93900
H  18.04200 -3.24700 23.77600
H  13.57700 1.18700 24.52200
H  16.76100 0.06600 32.14200
H  17.45400 -2.64900 32.01000
H  18.93800 -0.09100 31.90200
H  19.67100 -1.18100 30.79700
H  19.46900 -1.67000 32.47400
H  15.19200 -2.35000 32.61500
H  14.30200 -0.93900 32.07400
H  14.84000 -1.54900 34.63600
H  14.59500 0.16700 34.03000
H  20.73000 -5.81600 28.06900
H  19.30400 -6.85900 28.08600
H  19.51200 -5.69800 29.37200
H  19.65300 -7.60100 25.73500
H  21.03100 -6.46200 26.01700
H  20.68400 -7.02000 24.37700
H  16.62300 -2.12800 22.28900
H  15.61200 0.63100 22.69200
H  17.76400 0.52700 22.49000
H  18.38300 -0.96000 21.72000
H  18.79300 -0.71800 23.34100
H  13.43500 -1.35500 23.24900
H  14.26700 -1.77700 21.79000
H  13.59900 1.07300 21.60000
H  12.14400 0.11500 22.02500
H  13.06500 -0.23300 20.55400
H  11.87900 2.70300 25.66700
H  13.13800 3.81200 26.09100
H  12.05700 3.39900 27.43300
H  13.62400 1.30000 31.43600
H  15.43400 3.81000 34.45800
H  15.84900 4.86000 33.06900
H  16.90500 3.55000 33.22000
Mg 54.08200 25.49000 44.80800
C  51.42400 27.66400 44.10400
C  52.27800 22.95500 43.42000
C  56.85700 23.51400 44.78900
C  55.97600 28.22700 45.73500
N  52.15200 25.45700 43.75200
C  51.11900 26.42000 43.58900
C  49.93500 25.83900 42.95500
C  50.22000 24.32800 43.09500
C  51.72400 24.21300 43.34900
C  49.27900 23.59900 44.11800
C  49.76600 26.22800 41.42900
C  48.36800 26.07700 40.70900
H  48.46300 25.44800 39.33700
N  54.47300 23.50200 44.36100
C  53.57300 22.63000 43.78600
C  54.12800 21.29500 43.65600
C  55.46500 21.42700 44.06400
C  55.70600 22.85700 44.43200
C  53.46500 20.11500 42.99100
C  56.44300 20.30900 43.86700
O  56.09100 19.16200 43.52400
C  57.88400 20.45800 44.15800
N  56.11500 25.80800 44.88400
C  57.05700 24.83900 44.96100
C  58.39500 25.38300 45.43500
C  58.14300 26.91400 45.49500
C  56.62100 27.00800 45.40900
C  58.91800 24.74200 46.72300
C  58.87600 27.78800 44.40500
C  59.56600 29.04200 44.98400
N  53.75300 27.58500 45.10700
C  54.57800 28.56900 45.59700
C  53.85400 29.80200 45.69600
C  52.56800 29.51900 45.14700
C  52.61000 28.14500 44.72700
C  54.33400 31.11900 46.16500
C  51.23700 30.04900 44.89900
O  50.76600 31.17600 45.12800
C  50.45100 28.84000 44.27500
C  49.80700 29.33600 42.98900
O  50.37100 29.51300 41.95000
O  48.46600 29.45600 43.11100
C  47.81000 30.05400 41.94700
H  51.53400 22.20000 43.15800
H  57.74000 22.88800 44.93500
H  56.64500 29.05000 45.99500
H  49.01600 26.16400 43.44200
H  50.10500 23.88300 42.10700
H  48.72300 22.85200 43.55000
H  48.61100 24.34600 44.54600
H  49.78000 23.29400 45.03600
H  50.45100 25.61400 40.84400
H  50.12400 27.24400 41.26500
H  48.00900 27.09700 40.57600
H  47.78200 25.37900 41.30800
H  52.39500 20.20300 42.80700
H  53.36900 19.26800 43.67000
H  53.93800 19.76800 42.07200
H  58.36000 19.50100 43.94300
H  57.90400 20.68600 45.22400
H  58.22900 21.27600 43.52500
H  59.15800 25.07700 44.71800
H  58.21100 27.32000 46.50400
H  59.98500 24.53400 46.63300
H  58.48800 23.76300 46.93500
H  58.76700 25.37300 47.59800
H  58.08700 28.19500 43.77300
H  59.71300 27.23600 43.97500
H  59.74100 29.70700 44.13800
H  60.48900 28.88100 45.54200
H  58.89700 29.59000 45.64800
H  54.69300 31.45100 45.19200
H  55.11800 31.04500 46.91900
H  53.51100 31.75800 46.48800
H  49.66500 28.76800 45.02700
H  47.93600 29.33100 41.14000
H  48.21000 31.01300 41.61800
H  46.73900 30.24900 41.99600

