158

Mg 47.71100 44.26000 42.69000
C  44.08500 43.63300 42.83900
C  48.09300 40.80600 42.23200
C  50.94400 44.76200 42.66600
C  46.99600 47.62400 42.85800
N  46.27800 42.42700 42.59100
C  44.84900 42.48000 42.58700
C  44.36200 41.03200 42.51200
C  45.58800 40.09600 42.33300
C  46.74600 41.15700 42.41900
C  45.77900 38.92600 43.42400
C  43.46600 40.90000 41.22500
C  43.95100 41.61200 39.91400
H  44.35000 40.79000 38.78000
N  49.35200 42.97300 42.40000
C  49.26400 41.60500 42.30500
C  50.65800 41.16500 42.03600
C  51.57100 42.26500 42.28100
C  50.67100 43.42900 42.51800
C  51.04100 39.70700 41.69300
C  53.07700 42.16800 42.21400
O  53.71900 41.12100 41.95100
C  53.86000 43.43200 42.53400
N  48.83400 45.93000 42.57900
C  50.17200 45.93800 42.70600
C  50.70800 47.35800 42.79400
C  49.43000 48.26800 42.65800
C  48.37300 47.21900 42.67900
C  51.77000 47.64500 43.97200
C  49.25700 49.11200 41.36700
C  49.82300 50.52600 41.46100
N  45.90600 45.41400 42.78200
C  45.84000 46.81400 42.95000
C  44.47200 47.17200 43.12100
C  43.78300 45.93600 43.01100
C  44.68200 44.86300 42.92600
C  43.73700 48.45300 43.32400
C  42.46600 45.39600 43.22200
O  41.35200 45.86300 43.41600
C  42.57800 43.86800 43.02400
C  41.88700 43.23200 44.14900
O  40.95000 42.45200 44.02100
O  42.43600 43.64100 45.40200
C  41.78100 43.12300 46.60000
H  48.33700 39.76700 42.00200
H  51.99300 45.04000 42.78900
H  46.74400 48.66900 43.05200
H  43.62400 40.97700 43.31200
H  45.75900 39.67500 41.34200
H  44.84800 38.76600 43.96900
H  46.50800 39.34700 44.11600
H  46.16900 37.95300 43.12400
H  42.46500 41.26200 41.45900
H  43.34000 39.84900 40.96500
H  44.80100 42.24800 40.16200
H  43.05600 42.21600 39.77000
H  50.14600 39.14300 41.42800
H  51.60200 39.27400 42.52100
H  51.78900 39.72100 40.90000
H  53.65800 44.11500 41.70900
H  54.94500 43.37500 42.45400
H  53.51400 43.86300 43.47400
H  51.29700 47.61400 41.91400
H  49.19500 48.82100 43.56700
H  52.79400 47.61900 43.60000
H  51.68900 46.83800 44.70000
H  51.53600 48.56800 44.50300
H  48.21800 49.20000 41.04900
H  49.85700 48.58500 40.62600
H  50.70000 50.61100 40.81900
H  50.19500 50.76100 42.45800
H  49.13900 51.33200 41.19400
H  43.17000 48.42500 44.25400
H  43.14200 48.50400 42.41200
H  44.54300 49.18000 43.43000
H  41.97900 43.51000 42.18700
H  40.78000 42.72900 46.42200
H  41.81900 43.81900 47.43800
H  42.44200 42.29400 46.85200
Mg -5.37200 25.56800 25.27500
C  -3.83900 27.08900 28.02000
C  -6.97100 23.45500 27.40400
C  -6.62200 23.91900 22.50300
C  -3.22300 27.30100 23.16200
N  -5.38100 25.30600 27.56100
C  -4.73800 26.11600 28.45900
C  -5.38100 25.92300 29.85500
C  -6.24600 24.67100 29.63400
C  -6.25400 24.44700 28.11000
C  -5.68700 23.33700 30.32100
C  -6.25600 27.16500 30.25700
C  -6.45100 27.47900 31.72600
H  -6.12100 26.42200 32.92900
N  -6.66100 23.97200 25.02500
C  -7.21200 23.26500 26.05300
C  -8.01000 22.18500 25.45900
C  -7.85600 22.25800 24.03600
C  -6.99500 23.43600 23.80200
C  -8.85000 21.20800 26.27000
C  -8.35700 21.37300 22.95900
O  -8.09800 21.46200 21.76100
C  -9.17500 20.14900 23.37300
N  -4.99200 25.58200 23.09700
C  -5.69500 24.87300 22.15200
C  -5.15400 25.18900 20.69800
C  -4.09600 26.37300 21.02000
C  -4.03300 26.42600 22.52600
C  -4.67800 23.93700 19.96000
C  -4.47500 27.77000 20.36700
C  -3.99100 27.86300 18.96300
N  -3.81700 26.92700 25.56500
C  -3.03800 27.56700 24.59900
C  -2.16400 28.53500 25.21600
C  -2.54200 28.39500 26.56800
C  -3.46000 27.40200 26.71900
C  -1.09200 29.38400 24.66000
C  -2.26200 28.92100 27.86700
O  -1.57500 29.86200 28.26800
C  -3.08400 28.05800 28.91400
C  -2.11500 27.45700 29.88700
O  -1.16400 26.76400 29.52400
O  -2.47700 27.80200 31.20800
C  -1.49000 27.36200 32.21100
H  -7.48900 22.71900 28.02300
H  -6.98000 23.50100 21.56000
H  -2.68900 27.98200 22.49600
H  -4.52300 25.73100 30.49900
H  -7.27800 24.82000 29.95300
H  -4.77900 23.59900 30.86400
H  -5.39500 22.55100 29.62400
H  -6.32400 22.91000 31.09500
H  -7.25500 26.97200 29.86500
H  -5.72500 27.98400 29.77200
H  -7.49400 27.76700 31.85900
H  -5.93900 28.40600 31.98300
H  -8.94000 21.47100 27.32400
H  -8.37500 20.22700 26.26800
H  -9.86300 21.12800 25.87700
H  -9.28000 19.47100 22.52600
H  -10.14900 20.52400 23.69000
H  -8.66000 19.73600 24.24100
H  -5.98400 25.63500 20.15100
H  -3.11100 26.08100 20.65500
H  -5.01400 23.93500 18.92300
H  -5.05800 23.00700 20.38500
H  -3.59200 23.98900 20.03400
H  -4.04700 28.58800 20.94700
H  -5.54900 27.94300 20.42500
H  -3.42400 26.99500 18.62700
H  -3.39900 28.76200 18.79600
H  -4.82600 27.88400 18.26200
H  -1.51700 30.34400 24.36800
H  -0.57100 28.88300 23.84400
H  -0.33200 29.68900 25.37900
H  -3.71400 28.75600 29.46600
H  -0.45500 27.27900 31.87900
H  -1.84900 26.37700 32.51000
H  -1.54600 28.07200 33.03500

