158

Mg 16.62600 -2.15100 27.83400
C  15.53700 -0.05600 30.52800
C  18.60600 -3.87500 29.89000
C  18.04100 -3.70500 25.10400
C  14.86200 -0.08200 25.65200
N  16.87200 -1.97700 30.01100
C  16.32500 -1.14400 30.87600
C  17.02700 -1.34500 32.30000
C  17.96500 -2.52000 32.03600
C  17.85400 -2.84200 30.52600
C  19.45900 -2.25500 32.58300
C  15.93900 -1.54900 33.36300
C  16.03300 -0.70500 34.64200
H  17.35400 0.07700 34.88500
N  18.02000 -3.70500 27.52000
C  18.73900 -4.26800 28.54000
C  19.49500 -5.42000 27.99900
C  19.29500 -5.38300 26.60000
C  18.37700 -4.19300 26.33600
C  20.27400 -6.35900 28.88000
C  19.96600 -6.31000 25.53300
O  19.80600 -6.09300 24.33300
C  21.02600 -7.38800 26.01500
N  16.73300 -1.70600 25.60200
C  17.28200 -2.60800 24.69700
C  16.96300 -2.14300 23.28800
C  15.70400 -1.23200 23.51400
C  15.74900 -1.00200 24.99600
C  18.11300 -1.20300 22.79100
C  14.40000 -1.91400 23.05200
C  13.93600 -1.45700 21.63800
N  15.37500 -0.51100 28.01100
C  14.77900 0.29400 26.99900
C  13.93400 1.31600 27.56500
C  14.25800 1.23200 28.94100
C  15.09300 0.08000 29.20000
C  13.07200 2.27100 26.81000
C  14.05300 1.87400 30.19900
O  13.38200 2.92100 30.39700
C  14.89600 1.11100 31.30000
C  15.72700 2.09300 32.05900
O  16.77900 2.49000 31.66800
O  15.10700 2.50500 33.23400
C  15.59400 3.78500 33.75000
H  19.23800 -4.43000 30.58700
H  18.23900 -4.43900 24.32000
H  14.18400 0.38700 24.93500
H  17.59600 -0.44100 32.51900
H  17.55100 -3.37900 32.56500
H  19.93700 -1.48400 31.97800
H  19.84100 -3.26900 32.70400
H  19.29900 -1.71000 33.51300
H  15.89400 -2.62100 33.55500
H  14.93900 -1.31700 32.99800
H  15.72500 -1.36900 35.45000
H  15.28100 0.07900 34.55200
H  21.32200 -6.07100 28.95300
H  20.14800 -7.37600 28.50700
H  19.80800 -6.37200 29.86500
H  21.42300 -7.79500 25.08500
H  20.44200 -8.12000 26.57400
H  21.71700 -6.83600 26.65100
H  16.78700 -3.02300 22.66900
H  15.91200 -0.25900 23.06800
H  19.07300 -1.33300 23.29300
H  17.97300 -0.15200 23.04300
H  18.42900 -1.16400 21.74900
H  13.59500 -1.64200 23.73500
H  14.45200 -2.99700 23.16900
H  14.47700 -0.53700 21.41700
H  12.84900 -1.38800 21.61600
H  14.17400 -2.22700 20.90300
H  13.40900 3.18100 27.30700
H  12.03000 2.07600 27.06200
H  13.21400 2.37600 25.73500
H  14.08100 0.90100 31.99300
H  15.91400 4.42800 32.93100
H  16.34700 3.54900 34.50200
H  14.71600 4.24400 34.20600
Mg 35.16800 2.81700 30.41200
C  32.73400 3.81200 32.74700
C  37.51700 3.29100 32.91400
C  37.63800 2.48400 28.12600
C  32.87900 3.10000 27.88800
N  35.13200 3.49900 32.53900
C  33.99200 3.62600 33.30600
C  34.34900 3.78100 34.77000
C  35.94800 3.98200 34.85700
C  36.22600 3.51000 33.35500
C  36.56900 5.39900 35.20500
C  33.79600 2.69000 35.66100
C  33.88600 2.79700 37.19600
H  34.19300 4.10700 37.92600
N  37.27300 2.78400 30.54800
C  38.02200 2.95000 31.68300
C  39.43600 2.77900 31.30700
C  39.49800 2.39500 29.95700
C  38.07100 2.56100 29.46000
C  40.52400 2.89900 32.38500
C  40.65000 1.91800 29.08400
O  40.46700 1.42300 28.00800
C  42.05400 2.09400 29.60500
N  35.27000 2.74200 28.26900
C  36.35500 2.62700 27.56800
C  36.08200 2.38800 26.05700
C  34.54400 2.50400 26.04400
C  34.22100 2.87500 27.46700
C  36.76600 3.39000 25.08200
C  33.93600 1.14900 25.59500
C  32.58500 1.30600 24.88600
N  33.16300 3.30100 30.34200
C  32.41000 3.40600 29.17000
C  31.07500 3.81700 29.56900
C  31.09300 4.02100 30.96100
C  32.44000 3.77100 31.36900
C  29.84700 3.91300 28.71200
C  30.33400 4.37500 32.23100
O  29.26400 4.90200 32.37700
C  31.34100 4.13000 33.43000
C  31.40700 5.38200 34.13500
O  32.13000 6.34900 33.84000
O  30.60500 5.37300 35.24600
C  30.61200 6.46600 36.13600
H  38.28000 3.44500 33.68000
H  38.37900 2.35900 27.33400
H  32.06700 3.16700 27.16100
H  33.91900 4.72800 35.09500
H  36.38400 3.30500 35.59100
H  35.89700 5.85400 35.93200
H  36.53000 6.07700 34.35200
H  37.58700 5.27600 35.57500
H  34.32300 1.74900 35.50300
H  32.77000 2.54700 35.32100
H  34.51400 2.02500 37.64000
H  32.85700 2.55400 37.46100
H  40.31900 2.50500 33.38100
H  40.55400 3.97300 32.56900
H  41.58100 2.78600 32.14200
H  42.65300 1.96700 28.70400
H  42.32000 1.30000 30.30200
H  42.18700 3.06600 30.08000
H  36.46400 1.42300 25.72300
H  34.12500 3.29800 25.42500
H  36.80100 4.42700 25.41800
H  36.46900 3.40100 24.03300
H  37.80700 3.06700 25.09800
H  33.80200 0.49000 26.45300
H  34.55200 0.65900 24.84100
H  32.36800 2.31700 24.54200
H  31.74900 0.99100 25.51100
H  32.55700 0.56200 24.08900
H  29.05300 3.52800 29.35200
H  29.98700 3.23600 27.86900
H  29.64600 4.89400 28.28300
H  30.94600 3.32700 34.05200
H  30.24000 7.35900 35.63300
H  31.59500 6.64700 36.57200
H  29.99500 6.10000 36.95600

