158

Mg 7.06100 54.12400 41.21900
C  6.36800 50.64500 41.09200
C  10.10600 53.54100 39.86600
C  7.05400 57.33700 40.17000
C  3.75800 54.42900 42.28400
N  8.00500 52.28700 40.41100
C  7.53400 50.97800 40.38300
C  8.61200 50.04300 39.78800
C  9.97300 50.90900 39.85700
C  9.33900 52.31100 40.06500
C  11.01100 50.56500 41.00900
C  8.36500 49.36200 38.38200
C  7.36700 50.00600 37.45000
H  7.38600 49.62400 35.97000
N  8.41700 55.34100 40.21800
C  9.65700 54.91500 39.88500
C  10.52500 56.00600 39.56500
C  9.62800 57.16500 39.56800
C  8.29700 56.64200 39.96000
C  12.07000 55.84000 39.35200
C  9.91500 58.53500 39.17400
O  11.07100 58.92400 39.05500
C  8.88500 59.66300 39.02300
N  5.51200 55.67200 41.02400
C  5.83200 56.94200 40.72600
C  4.66400 57.92400 41.05200
C  3.54200 56.91300 41.58500
C  4.29700 55.59100 41.61400
C  5.02300 59.15200 41.96900
C  2.21000 56.70100 40.67400
C  0.83200 56.87200 41.35100
N  5.45600 52.85000 41.75300
C  4.29200 53.14200 42.30900
C  3.66600 51.96400 42.84200
C  4.43600 50.98900 42.25500
C  5.53700 51.53400 41.66300
C  2.38000 51.87800 43.58400
C  4.54600 49.55900 42.23800
O  3.77500 48.67900 42.60900
C  5.88100 49.20900 41.49500
C  5.71300 48.20400 40.44300
O  5.07900 48.39600 39.41300
O  6.29100 47.07800 40.91600
C  6.18800 45.92200 40.05000
H  11.16400 53.35000 39.67400
H  6.99500 58.39500 39.90600
H  2.71800 54.39500 42.61300
H  8.84300 49.27400 40.52600
H  10.44500 50.98500 38.87700
H  10.92900 49.63800 41.57700
H  11.05000 51.49300 41.58100
H  11.90400 50.44100 40.39600
H  8.03800 48.34300 38.58900
H  9.27800 49.28700 37.79000
H  7.51100 51.07800 37.59100
H  6.33100 49.81900 37.73000
H  12.19100 55.57800 38.30100
H  12.39700 54.95700 39.90200
H  12.59200 56.76400 39.60100
H  8.42800 59.86600 39.99200
H  8.13700 59.55900 38.23700
H  9.47600 60.56700 38.87300
H  4.44600 58.38600 40.09000
H  3.16700 57.12200 42.58600
H  6.07100 59.18900 42.26900
H  4.29300 59.04600 42.77100
H  4.87400 60.08300 41.42100
H  2.14900 55.74900 40.14600
H  2.12500 57.46600 39.90200
H  0.24500 57.65300 40.86900
H  0.86500 57.15300 42.40400
H  0.26000 55.95100 41.24200
H  2.37600 51.09700 44.34400
H  1.61700 51.70600 42.82400
H  2.17100 52.81700 44.09500
H  6.33900 48.77800 42.38500
H  5.25200 45.86300 39.49500
H  6.28600 45.01600 40.64800
H  7.00600 45.84400 39.33400
Mg -5.61500 24.93900 26.48500
C  -3.75400 26.26200 29.07000
C  -7.09200 22.75500 28.72500
C  -7.09900 23.37100 23.79200
C  -3.77600 27.02700 24.20700
N  -5.45500 24.58200 28.67900
C  -4.67000 25.31800 29.51600
C  -5.14100 25.09000 31.02200
C  -6.02100 23.80400 30.88000
C  -6.22800 23.67200 29.36600
C  -5.38900 22.54500 31.50900
C  -5.74800 26.40200 31.49000
C  -5.31000 26.93200 32.89900
H  -5.06200 25.98600 34.05000
N  -7.02900 23.39500 26.24700
C  -7.45000 22.59400 27.28300
C  -8.42800 21.51400 26.71800
C  -8.44200 21.75200 25.38300
C  -7.50300 22.90000 25.08500
C  -9.10100 20.50700 27.59100
C  -9.24300 21.02800 24.32500
O  -9.30300 21.42700 23.19600
C  -10.19400 19.89500 24.65600
N  -5.59200 25.20900 24.37300
C  -6.19900 24.43200 23.44800
C  -6.00900 24.88700 21.99600
C  -5.28800 26.26200 22.25800
C  -4.81000 26.24400 23.65700
C  -5.12700 23.90300 21.10600
C  -6.19600 27.44400 21.98700
C  -6.17800 27.93500 20.49000
N  -3.93400 26.26600 26.57300
C  -3.33000 27.08600 25.59200
C  -2.24600 27.77800 26.21900
C  -2.43000 27.52400 27.58400
C  -3.46200 26.62300 27.76200
C  -1.25500 28.63700 25.52600
C  -1.91400 27.83300 28.81700
O  -0.95200 28.51100 29.17100
C  -2.84200 27.19500 29.90400
C  -2.06700 26.37100 30.87600
O  -1.82300 25.16600 30.75100
O  -1.67100 27.17000 31.92800
C  -0.79300 26.43100 32.89300
H  -7.58700 22.20400 29.52700
H  -7.43900 22.78100 22.93800
H  -3.46800 27.71200 23.41500
H  -4.26700 24.80500 31.60600
H  -7.03700 23.99000 31.22700
H  -5.08400 22.68300 32.54700
H  -4.44600 22.44200 30.97200
H  -6.02200 21.66100 31.43200
H  -6.83500 26.32500 31.50400
H  -5.52300 27.15300 30.73300
H  -6.00000 27.71400 33.21600
H  -4.37500 27.47800 32.77300
H  -10.13600 20.41900 27.26000
H  -9.00800 20.70900 28.65800
H  -8.60900 19.54900 27.42100
H  -10.53500 19.51900 23.69200
H  -11.07900 20.35800 25.09400
H  -9.81500 19.02300 25.18900
H  -6.99600 24.96000 21.53800
H  -4.37600 26.40600 21.67700
H  -5.58700 23.53600 20.18800
H  -4.94900 22.94000 21.58300
H  -4.15700 24.33000 20.85100
H  -5.79100 28.31100 22.50900
H  -7.22900 27.34400 22.32100
H  -5.58100 28.84000 20.38100
H  -7.23500 27.97800 20.22700
H  -5.81300 27.17200 19.80200
H  -1.79000 29.12200 24.71000
H  -0.44700 27.98800 25.18700
H  -0.67400 29.22900 26.23400
H  -3.40700 27.90300 30.51000
H  0.16200 26.16100 32.44400
H  -1.23900 25.45700 33.09700
H  -0.67700 27.02800 33.79800

