158

Mg 8.68700 3.48500 27.77700
C  10.18200 2.31700 30.74300
C  6.67800 5.55400 29.83300
C  7.12600 4.26600 25.04300
C  10.67300 1.12300 26.11200
N  8.44800 3.77500 30.05300
C  9.21700 3.22900 31.04900
C  8.76000 3.74700 32.49200
C  7.50800 4.61300 32.20100
C  7.48700 4.63700 30.59500
C  6.11800 4.17000 32.81800
C  9.91200 4.54000 33.28700
C  10.13400 4.10600 34.75200
H  10.74900 5.06000 35.73000
N  7.16000 4.73000 27.49300
C  6.47000 5.55800 28.40100
C  5.52700 6.36200 27.63700
C  5.63400 5.96600 26.26800
C  6.61400 4.94000 26.20400
C  4.61900 7.30200 28.47000
C  4.85200 6.53200 25.06300
O  4.89500 6.17500 23.90000
C  3.78800 7.60600 25.28000
N  8.90400 2.81300 25.81900
C  8.12500 3.32800 24.86300
C  8.40700 2.65100 23.54600
C  9.62900 1.77000 23.86400
C  9.78300 1.90700 25.34300
C  7.27400 1.90200 22.83000
C  11.03800 2.06100 23.14800
C  11.92800 3.21400 23.67600
N  10.21500 2.02200 28.25600
C  10.87400 1.16200 27.46900
C  11.74100 0.31700 28.31300
C  11.61700 0.82400 29.57400
C  10.57700 1.77200 29.51400
C  12.73600 -0.77300 27.74400
C  11.98000 0.67900 30.97300
O  12.81200 -0.04900 31.48200
C  11.09500 1.64500 31.74500
C  10.31100 0.91700 32.77300
O  9.18000 0.46700 32.54600
O  11.03000 0.75500 33.93100
C  10.22400 0.02600 34.87200
H  6.08700 6.28800 30.38500
H  6.70900 4.56300 24.07900
H  11.32600 0.41400 25.59900
H  8.39800 2.88400 33.05100
H  7.63700 5.55600 32.73400
H  6.15600 3.31700 33.49600
H  5.28900 3.93800 32.14900
H  5.67000 4.98300 33.39000
H  9.54900 5.56500 33.20900
H  10.80200 4.51400 32.65900
H  10.77400 3.24700 34.55200
H  9.23800 3.68700 35.21200
H  4.06500 7.96100 27.80200
H  5.18800 8.05100 29.02000
H  3.89200 6.72600 29.04300
H  3.13600 7.37800 26.12300
H  3.21000 7.77600 24.37100
H  4.36300 8.52900 25.35600
H  8.89200 3.41600 22.93900
H  9.41700 0.72800 23.62300
H  6.74000 1.27100 23.54100
H  7.68500 1.17400 22.13100
H  6.56600 2.62700 22.42700
H  10.77900 2.32500 22.12300
H  11.64600 1.15600 23.14900
H  11.47700 3.81800 24.46400
H  12.26800 3.78800 22.81500
H  12.88400 2.86100 24.06300
H  13.34200 -0.31900 26.96000
H  12.09100 -1.54200 27.31800
H  13.39700 -1.21200 28.49000
H  11.76000 2.36300 32.22400
H  10.82700 -0.11600 35.76900
H  9.97600 -0.92800 34.40500
H  9.27800 0.53600 35.05100
Mg 47.34100 25.08600 29.20200
C  48.27000 27.24900 31.82900
C  46.02200 22.93900 31.64300
C  46.71900 22.88400 26.66900
C  48.82500 27.16600 26.92300
N  47.26800 25.05200 31.58400
C  47.63000 26.09800 32.36600
C  47.23200 25.87800 33.83900
C  46.73600 24.38900 33.74900
C  46.52200 24.13200 32.22100
C  47.62800 23.37600 34.36400
C  46.07300 26.80500 34.24500
C  46.30100 27.64700 35.49300
H  46.85600 26.93600 36.71300
N  46.48400 23.22800 29.11400
C  46.03700 22.49900 30.28100
C  45.47400 21.18600 29.76600
C  45.62000 21.20200 28.35100
C  46.36700 22.50000 28.02800
C  44.96300 20.19600 30.75200
C  45.09400 20.13300 27.29500
O  45.23300 20.29600 26.11000
C  44.37400 18.99600 27.87400
N  48.02200 24.86600 27.14100
C  47.50700 23.96800 26.34000
C  47.99400 24.15900 24.91700
C  48.30700 25.65200 24.85100
C  48.42500 25.92900 26.36900
C  49.20800 23.25700 24.50300
C  47.14400 26.46100 24.26900
C  47.63000 27.83600 23.75100
N  48.26600 26.82300 29.33300
C  48.84100 27.63300 28.29500
C  49.32700 28.81100 28.85100
C  49.11300 28.67400 30.24300
C  48.49800 27.43800 30.51200
C  50.16300 29.78600 28.10300
C  49.32500 29.37500 31.52000
O  49.83600 30.43000 31.71800
C  48.80000 28.46300 32.59700
C  49.84700 28.10700 33.50700
O  50.75900 27.25800 33.35100
O  49.70500 28.81400 34.69500
C  50.87300 28.93300 35.63100
H  45.51900 22.37400 32.43100
H  46.42000 22.21600 25.85800
H  49.00600 28.00800 26.25100
H  48.09300 25.98900 34.49900
H  45.78000 24.29800 34.26600
H  48.66800 23.60200 34.12700
H  47.45400 22.39700 33.91900
H  47.52000 23.38800 35.44900
H  45.14900 26.22800 34.28400
H  45.91400 27.44500 33.37700
H  45.39700 28.23200 35.66400
H  46.94900 28.49800 35.28300
H  43.92300 20.48500 30.89900
H  45.41600 20.28900 31.74000
H  45.05100 19.14600 30.47200
H  45.13200 18.45800 28.44400
H  44.11800 18.36900 27.02000
H  43.43200 19.31100 28.32300
H  47.18500 23.86600 24.24800
H  49.29300 25.87900 24.44600
H  50.10000 23.88100 24.46100
H  49.13200 22.80700 23.51300
H  49.30600 22.49200 25.27300
H  46.35200 26.58900 25.00700
H  46.80400 25.96400 23.36000
H  48.71600 27.86400 23.67000
H  47.23400 28.75200 24.19000
H  47.23900 27.86000 22.73400
H  49.57200 30.45800 27.48100
H  50.93800 29.31800 27.49700
H  50.58700 30.38700 28.90700
H  48.00300 29.05500 33.04800
H  51.68900 28.25000 35.39600
H  50.54200 28.55600 36.59800
H  51.18800 29.96400 35.79600

