158

Mg 24.02900 -5.76300 46.16100
C  26.08700 -3.26800 44.38900
C  21.39500 -4.53600 44.34700
C  22.41800 -8.48200 46.88800
C  27.09900 -7.13200 47.34800
N  23.86600 -4.00800 44.49900
C  24.74200 -3.06600 44.06400
C  24.06300 -2.16700 43.09700
C  22.52900 -2.37700 43.28600
C  22.60000 -3.70800 44.10300
C  21.81700 -1.25700 44.14600
C  24.53500 -2.42700 41.65300
C  25.26900 -1.28900 40.82100
H  26.18700 -1.62000 39.58500
N  22.09400 -6.33800 45.81000
C  21.13300 -5.74100 45.06100
C  19.98800 -6.55000 45.06500
C  20.21900 -7.67600 45.88600
C  21.60900 -7.53800 46.26800
C  18.67300 -6.09000 44.36400
C  19.19800 -8.75300 46.35100
O  17.99600 -8.77400 45.97100
C  19.55000 -9.86300 47.27300
N  24.63200 -7.60200 46.93600
C  23.72100 -8.51200 47.17200
C  24.35400 -9.62400 48.03300
C  25.90200 -9.23600 48.15100
C  25.89400 -7.90600 47.47000
C  23.79000 -9.75900 49.42500
C  26.76700 -10.28300 47.50500
C  27.77100 -10.84300 48.43100
N  26.11500 -5.29300 46.08100
C  27.19300 -5.87000 46.70700
C  28.39200 -5.11400 46.41800
C  28.00600 -4.10300 45.55600
C  26.57200 -4.22500 45.31100
C  29.77300 -5.42700 46.98300
C  28.50000 -2.99100 44.69900
O  29.66600 -2.64300 44.39200
C  27.23900 -2.47000 43.85700
C  26.96800 -1.05800 44.19500
O  26.32700 -0.66100 45.13700
O  27.67400 -0.32100 43.32100
C  27.91900 1.07600 43.58000
H  20.58000 -4.02000 43.83400
H  21.90000 -9.43400 47.02600
H  28.02200 -7.64700 47.62200
H  24.40100 -1.18200 43.42000
H  21.95800 -2.53500 42.37100
H  22.08400 -1.35700 45.19800
H  20.73300 -1.17500 44.06400
H  22.16500 -0.26600 43.85500
H  23.72500 -2.60800 40.94700
H  25.22800 -3.26500 41.58600
H  25.77300 -0.67700 41.56900
H  24.52400 -0.56700 40.48600
H  18.00200 -6.03200 45.22200
H  18.20100 -6.80500 43.69100
H  18.72700 -5.12300 43.86400
H  18.73900 -10.24000 47.89600
H  20.22300 -9.44900 48.02300
H  20.11200 -10.67000 46.80200
H  24.16800 -10.54000 47.47200
H  26.21200 -9.10700 49.18700
H  22.75800 -10.11200 49.42100
H  23.93200 -8.82800 49.97400
H  24.34300 -10.62000 49.80000
H  27.22300 -9.88700 46.59700
H  26.11300 -11.14100 47.35000
H  28.02400 -10.13400 49.21900
H  28.72700 -11.12300 47.98800
H  27.32000 -11.65900 48.99600
H  30.03700 -6.45500 46.73200
H  29.64300 -5.46000 48.06500
H  30.57900 -4.78300 46.63300
H  27.59800 -2.58400 42.83400
H  28.32700 1.44900 42.64000
H  28.74600 1.09200 44.29000
H  27.08600 1.73000 43.83800
Mg 35.29900 48.48900 24.80200
C  35.53100 46.86400 27.88700
C  33.57700 50.95100 26.33500
C  34.82800 49.82000 21.78300
C  36.34500 45.52300 23.19800
N  34.54700 48.83000 26.89600
C  34.96400 48.11500 28.00500
C  34.71600 48.94900 29.34200
C  33.92000 50.13800 28.83400
C  33.95600 49.98700 27.26000
C  32.48000 50.06600 29.32400
C  35.98400 49.38600 30.05400
C  36.02400 49.66600 31.55000
H  34.72600 49.47800 32.39700
N  34.43000 50.24300 24.13900
C  33.80000 51.11400 24.93300
C  33.35200 52.22000 24.11300
C  33.61200 51.84700 22.76400
C  34.38200 50.62500 22.84500
C  32.63800 53.46900 24.66200
C  33.03000 52.41600 21.45100
O  33.23200 51.85200 20.36700
C  32.25600 53.73700 21.47100
N  35.46700 47.70600 22.85000
C  35.28300 48.50800 21.74100
C  35.70200 47.85100 20.41800
C  36.57600 46.65400 20.98800
C  36.07900 46.55400 22.44000
C  34.56300 47.31500 19.54100
C  38.15700 46.78800 20.82200
C  38.76500 46.53100 19.42700
N  35.80400 46.51900 25.41100
C  36.27600 45.46200 24.68900
C  36.61500 44.41600 25.58700
C  36.38500 44.92100 26.85200
C  35.81600 46.17100 26.71800
C  37.12800 43.07400 25.23800
C  36.49700 44.59100 28.28600
O  36.85700 43.57500 28.80500
C  35.92100 45.93200 29.00400
C  34.70500 45.40500 29.81300
O  33.74800 44.88300 29.28800
O  34.89400 45.54500 31.21300
C  34.04100 44.96500 32.13500
H  32.89400 51.72300 26.69600
H  34.83600 50.37000 20.83900
H  36.83500 44.67900 22.70900
H  34.16400 48.50400 30.16900
H  34.36300 51.09300 29.11500
H  32.34200 50.69400 30.20400
H  32.09300 49.11800 29.69900
H  31.81400 50.43200 28.54300
H  36.41600 50.19000 29.45800
H  36.58800 48.49400 29.88200
H  36.32600 50.70900 31.64300
H  36.73500 48.92800 31.92200
H  31.55400 53.35300 24.63300
H  32.98100 54.39400 24.19700
H  32.93700 53.59000 25.70300
H  32.90500 54.53400 21.83700
H  31.33100 53.78200 22.04600
H  32.16800 54.01300 20.42000
H  36.30900 48.60700 19.91900
H  36.17400 45.79400 20.45100
H  34.44400 47.96700 18.67500
H  33.59800 47.46800 20.02500
H  34.73700 46.30700 19.16300
H  38.50100 45.93000 21.40000
H  38.55100 47.67400 21.31900
H  37.99300 46.40600 18.66700
H  39.38300 45.63300 19.44300
H  39.49000 47.32200 19.23500
H  37.94200 42.91200 25.94400
H  37.50600 42.96500 24.22100
H  36.43100 42.27600 25.49300
H  36.71900 46.30100 29.64900
H  33.17500 44.49600 31.66800
H  33.70000 45.77500 32.78000
H  34.56500 44.25300 32.77200

