158

Mg 48.22500 15.09500 28.42300
C  45.79100 15.07800 30.97600
C  50.12700 17.21600 30.30500
C  50.21300 15.44400 25.72600
C  45.88200 13.53100 26.29900
N  47.94800 16.13000 30.38600
C  46.99400 15.80800 31.35100
C  47.30500 16.45800 32.72500
C  48.54800 17.38800 32.32100
C  48.94200 16.89200 30.91400
C  48.17100 18.87400 32.44500
C  47.70800 15.26300 33.66000
C  47.19300 15.33300 35.08500
H  47.21300 16.65700 35.84600
N  49.92800 16.11800 28.10700
C  50.63500 16.81100 29.01400
C  51.92300 17.17900 28.40300
C  52.05200 16.58700 27.12200
C  50.69200 16.04100 26.94600
C  52.92600 18.06100 29.17500
C  53.23200 16.47200 26.16600
O  53.21800 15.73200 25.16400
C  54.54800 17.04600 26.55300
N  47.92700 14.86300 26.25100
C  48.97400 14.94800 25.39600
C  48.70600 14.26600 24.04800
C  47.39900 13.61700 24.32200
C  47.05600 14.00600 25.72900
C  48.79100 15.21600 22.82400
C  47.28700 12.12200 23.86400
C  47.78300 11.11800 24.90500
N  46.30500 14.29100 28.59700
C  45.52300 13.67200 27.68600
C  44.29200 13.22500 28.32100
C  44.40300 13.72700 29.66500
C  45.61300 14.39500 29.77300
C  43.37400 12.23300 27.75300
C  43.72700 13.71700 30.94700
O  42.66800 13.16000 31.26800
C  44.59300 14.60800 31.87900
C  43.79800 15.64200 32.48700
O  43.22000 16.60200 31.98100
O  43.63100 15.38000 33.79700
C  42.69000 16.21400 34.60300
H  50.83100 17.79000 30.91000
H  50.70400 15.39100 24.75200
H  45.22500 13.04500 25.57500
H  46.64600 17.19200 33.19000
H  49.38400 17.28700 33.01300
H  48.67100 19.44900 31.66500
H  48.64900 19.20300 33.36800
H  47.11700 19.14300 32.38200
H  48.77400 15.03800 33.64500
H  47.30500 14.37000 33.18200
H  47.92200 14.74100 35.63900
H  46.23900 14.80600 35.06300
H  53.61800 17.35800 29.63800
H  52.37800 18.65800 29.90400
H  53.44100 18.71800 28.47400
H  54.94300 16.74200 27.52200
H  54.43400 18.13000 26.56800
H  55.28700 16.75000 25.80900
H  49.45300 13.52400 23.76700
H  46.68500 14.13900 23.68500
H  49.80700 15.19100 22.43000
H  48.53600 16.26200 22.99700
H  48.19400 14.85300 21.98700
H  47.82100 11.95200 22.92900
H  46.22700 11.93500 23.69100
H  46.85200 10.79200 25.37000
H  48.54400 11.40400 25.63100
H  48.22400 10.32800 24.29800
H  42.42000 12.46400 28.22900
H  43.77500 11.27500 28.08400
H  43.29100 12.35700 26.67400
H  45.05500 13.95700 32.62100
H  43.34300 17.06500 34.79400
H  42.34700 15.84900 35.57200
H  41.80500 16.52900 34.05000
Mg -5.45000 25.32200 25.59500
C  -3.82500 26.69200 28.44500
C  -6.77900 22.88500 27.59700
C  -6.82900 23.95800 22.77300
C  -3.36200 27.44800 23.59200
N  -5.40900 24.91300 27.75600
C  -4.80800 25.70400 28.71900
C  -5.36700 25.28300 30.10500
C  -5.89300 23.83000 29.81900
C  -5.94700 23.79800 28.29200
C  -4.84000 22.79600 30.33600
C  -6.42400 26.21700 30.78100
C  -6.17500 26.39200 32.24200
H  -5.64500 25.19200 33.08700
N  -6.64600 23.71100 25.26300
C  -7.09000 22.83900 26.24100
C  -8.18200 22.08500 25.64900
C  -8.17200 22.32400 24.24700
C  -7.16600 23.36400 24.01400
C  -9.02000 21.08700 26.44500
C  -8.94100 21.74900 23.12500
O  -8.79600 22.03100 21.92900
C  -10.13000 20.75500 23.39100
N  -5.20100 25.68800 23.45400
C  -5.87400 25.00000 22.47900
C  -5.48500 25.47000 21.03600
C  -4.43500 26.60200 21.33800
C  -4.26400 26.55700 22.90700
C  -4.94600 24.28700 20.22600
C  -4.91600 27.99500 20.77200
C  -3.76300 28.97100 20.24100
N  -3.98000 26.82800 25.88000
C  -3.23600 27.58300 25.01000
C  -2.36200 28.48600 25.75900
C  -2.61000 28.11100 27.08500
C  -3.60000 27.15300 27.10300
C  -1.40300 29.39100 25.32000
C  -2.26600 28.50700 28.45500
O  -1.53800 29.41600 28.82900
C  -3.09900 27.62800 29.40100
C  -2.07800 26.96400 30.26800
O  -1.07000 26.37900 29.85100
O  -2.39300 27.15500 31.54900
C  -1.56800 26.37100 32.50300
H  -7.27900 22.20300 28.28800
H  -7.35300 23.64600 21.86800
H  -2.75300 28.12900 22.99300
H  -4.55100 25.32200 30.82800
H  -6.83400 23.71200 30.35700
H  -4.11800 23.34200 30.94400
H  -4.52600 22.07300 29.58300
H  -5.33900 22.15000 31.05800
H  -7.39600 25.75200 30.61600
H  -6.32300 27.24000 30.41900
H  -7.17100 26.57200 32.64900
H  -5.62000 27.31900 32.38200
H  -8.93700 21.15000 27.53000
H  -8.74800 20.11200 26.04000
H  -10.07200 21.25600 26.21700
H  -10.59900 20.26400 22.53900
H  -10.80800 21.41700 23.93000
H  -9.79000 20.02900 24.13000
H  -6.38200 25.74800 20.48300
H  -3.43400 26.30200 21.02700
H  -5.84400 23.88300 19.75800
H  -4.47200 23.55900 20.88400
H  -4.18000 24.52000 19.48700
H  -5.36300 28.49700 21.63000
H  -5.65600 27.79500 19.99700
H  -3.64200 29.59600 21.12600
H  -3.95700 29.43300 19.27400
H  -2.87200 28.35000 20.14100
H  -0.74400 28.94500 24.57600
H  -0.80800 29.75700 26.15700
H  -2.00300 30.22500 24.95500
H  -3.84000 28.22200 29.93700
H  -2.18000 25.91600 33.28200
H  -0.70900 26.89700 32.92000
H  -1.11900 25.47300 32.07900

