158

Mg 1.81300 -2.68800 44.68700
C  4.90600 -1.21900 43.79800
C  0.23800 -0.16500 42.97700
C  -0.98800 -4.48900 45.05800
C  3.77000 -5.56200 45.79100
N  2.58500 -0.98800 43.50200
C  3.82300 -0.48400 43.33900
C  3.87500 0.84600 42.50600
C  2.40800 1.29600 42.69900
C  1.64800 -0.03700 43.00800
C  2.19300 2.39800 43.81900
C  4.42400 0.78600 41.05000
C  5.77400 1.59600 40.83000
H  6.91400 0.76100 40.33200
N  -0.04800 -2.39300 44.03000
C  -0.51900 -1.30600 43.40300
C  -1.89200 -1.40300 43.13600
C  -2.32600 -2.62200 43.74800
C  -1.10300 -3.21800 44.33800
C  -2.70300 -0.55400 42.27300
C  -3.70900 -3.18600 43.75900
O  -4.60900 -2.53000 43.28900
C  -4.06100 -4.55800 44.35100
N  1.44900 -4.80700 45.24900
C  0.10400 -5.20000 45.43100
C  0.07300 -6.61300 45.99200
C  1.57600 -6.90400 46.33800
C  2.36200 -5.73700 45.76500
C  -0.83400 -6.85400 47.30100
C  2.06400 -8.22200 45.65400
C  3.13200 -9.06700 46.40400
N  3.82800 -3.29200 44.93800
C  4.48500 -4.44600 45.42300
C  5.84900 -4.19800 45.51600
C  6.07600 -2.94800 44.83400
C  4.82800 -2.45800 44.52800
C  6.81000 -5.10400 46.21200
C  7.10900 -2.00500 44.37700
O  8.33500 -1.96900 44.46900
C  6.35700 -0.75700 43.76100
C  6.64100 0.51900 44.60400
O  6.14800 0.88400 45.62900
O  7.50300 1.21600 43.90500
C  8.08100 2.44600 44.49300
H  -0.19300 0.66400 42.41300
H  -1.85700 -5.14500 45.14600
H  4.33900 -6.36600 46.26100
H  4.40900 1.50300 43.19300
H  2.07600 1.64700 41.72200
H  2.44700 3.36500 43.38300
H  2.85900 2.23400 44.66500
H  1.21100 2.39700 44.29200
H  3.80000 1.24300 40.28100
H  4.49500 -0.26700 40.77900
H  6.09200 2.01000 41.78600
H  5.68900 2.41800 40.11900
H  -2.09600 0.15800 41.71600
H  -3.40100 0.03200 42.87200
H  -3.29600 -1.15300 41.58200
H  -3.49800 -5.24300 43.71700
H  -5.13800 -4.57600 44.18200
H  -3.85900 -4.63200 45.42000
H  -0.28700 -7.25700 45.19000
H  1.68200 -6.97900 47.42000
H  -0.92400 -7.90700 47.56800
H  -1.82400 -6.40900 47.20500
H  -0.41400 -6.30900 48.14700
H  2.45300 -7.98400 44.66400
H  1.19800 -8.87800 45.56400
H  3.69300 -9.55000 45.60300
H  2.76900 -9.88500 47.02600
H  3.72500 -8.51700 47.13500
H  7.08100 -5.85000 45.46500
H  6.41900 -5.59900 47.10000
H  7.66400 -4.44300 46.35700
H  6.70700 -0.75600 42.72800
H  8.07200 3.20600 43.71200
H  9.12100 2.20700 44.71800
H  7.63400 2.76600 45.43500
Mg 29.93000 59.65100 39.43800
C  27.42100 57.26500 38.43800
C  32.31300 57.29300 38.51800
C  32.20400 62.10300 39.76600
C  27.28300 62.08000 39.48900
N  29.87300 57.47600 38.61800
C  28.74800 56.70200 38.32100
C  29.12100 55.35000 37.71700
C  30.61300 55.28000 38.26900
C  30.98200 56.79200 38.41600
C  30.82300 54.38700 39.51800
C  28.94100 55.27700 36.12000
C  27.78000 54.41300 35.49500
H  26.90100 55.07800 34.46000
N  31.94500 59.71100 39.16700
C  32.78300 58.64100 38.72000
C  34.21700 59.13400 38.64100
C  34.19900 60.49900 39.21200
C  32.76300 60.86400 39.39000
C  35.30400 58.24200 38.25000
C  35.47600 61.30400 39.48700
O  36.61800 60.86700 39.24100
C  35.42900 62.68200 40.11200
N  29.72700 61.69800 39.72200
C  30.83700 62.48400 39.87200
C  30.41400 63.96700 40.08800
C  28.86400 63.90600 39.96200
C  28.60200 62.41800 39.80100
C  31.07200 64.79700 41.32400
C  28.29000 64.80500 38.83200
C  27.20300 65.80000 39.19300
N  27.74000 59.71100 39.22100
C  26.89600 60.77800 39.30500
C  25.56900 60.23900 39.06800
C  25.70300 58.92300 38.76800
C  27.04000 58.60500 38.79300
C  24.30300 61.02900 39.06300
C  24.98300 57.66600 38.42800
O  23.83200 57.38400 38.25800
C  26.04900 56.59600 38.11500
C  25.84300 55.38700 38.94700
O  25.92200 55.34600 40.18000
O  25.30000 54.33900 38.18100
C  24.84800 53.23100 38.94500
H  33.00400 56.49800 38.22800
H  32.82700 62.98600 39.92000
H  26.53500 62.87300 39.42500
H  28.47500 54.69900 38.30700
H  31.39900 54.94000 37.59500
H  30.54000 53.34800 39.35200
H  30.14500 54.66200 40.32600
H  31.83800 54.46000 39.91000
H  29.91200 54.86300 35.84800
H  28.87400 56.31000 35.77900
H  27.15900 54.02100 36.30000
H  28.17100 53.51800 35.01300
H  35.63300 58.46000 37.23400
H  34.93900 57.21900 38.34600
H  36.12400 58.13400 38.96100
H  34.71500 62.59300 40.93200
H  35.14100 63.46600 39.41200
H  36.41000 62.90600 40.53200
H  30.82500 64.45500 39.20400
H  28.41300 64.13800 40.92600
H  31.37600 64.03900 42.04600
H  30.23900 65.36800 41.73400
H  31.99500 65.30900 41.05100
H  27.90700 64.09500 38.09900
H  29.08400 65.29100 38.26500
H  27.57900 66.80600 39.00900
H  27.04700 65.83700 40.27200
H  26.26000 65.61800 38.67700
H  24.34200 61.71700 38.21800
H  24.11200 61.54600 40.00400
H  23.37100 60.48900 38.90000
H  26.08800 56.23500 37.08700
H  24.82000 52.32600 38.33700
H  23.85900 53.44400 39.35000
H  25.40800 52.87100 39.80800

