158

Mg 43.53500 2.99100 46.77200
C  42.88700 6.24900 45.52700
C  40.32100 2.18200 45.88000
C  44.34700 -0.26200 47.44500
C  47.01800 3.93200 47.04100
N  41.88900 4.02100 45.75000
C  41.81400 5.37300 45.43400
C  40.37500 5.79900 44.94800
C  39.60500 4.49300 45.19000
C  40.65000 3.55600 45.75100
C  38.32900 4.67100 46.02800
C  40.49400 6.12400 43.45100
C  39.73800 7.30500 42.93100
H  38.73500 7.09900 41.73800
N  42.53900 1.16300 46.72000
C  41.21700 1.05700 46.28500
C  40.88200 -0.31800 46.26400
C  41.94800 -1.08300 46.69700
C  43.01500 -0.08900 47.03300
C  39.70100 -0.88400 45.57100
C  42.02000 -2.57500 46.76000
O  40.98500 -3.18900 46.60000
C  43.25400 -3.22700 47.10500
N  45.34900 2.00100 47.16000
C  45.39200 0.63500 47.52500
C  46.69800 0.27900 48.13100
C  47.62600 1.53700 47.84000
C  46.63300 2.60000 47.35500
C  46.59500 -0.06700 49.64100
C  48.81300 1.24900 46.88400
C  48.65200 0.44200 45.59600
N  44.79100 4.70500 46.36700
C  46.12200 4.91500 46.51400
C  46.35800 6.33000 46.15400
C  45.10900 6.92700 45.91400
C  44.21400 5.88400 45.96700
C  47.69600 6.99400 45.97900
C  44.47700 8.19700 45.58200
O  44.96600 9.28900 45.40100
C  42.98800 7.76200 45.27700
C  42.13900 8.49000 46.25900
O  41.90300 8.09700 47.37300
O  41.74800 9.67100 45.73500
C  40.79700 10.44300 46.51300
H  39.26600 1.93900 45.74000
H  44.88300 -1.20400 47.57300
H  48.04700 4.29400 47.07600
H  40.02100 6.67000 45.49900
H  39.25100 4.11700 44.23100
H  37.45200 4.79100 45.39200
H  38.32600 5.53600 46.69000
H  38.12800 3.78000 46.62300
H  40.08900 5.31500 42.84300
H  41.54000 6.29700 43.19900
H  40.45800 8.07000 42.63900
H  39.09600 7.78600 43.66900
H  38.96900 -1.36100 46.22400
H  39.98900 -1.50100 44.71900
H  39.02900 -0.11300 45.19300
H  43.30100 -3.17600 48.19300
H  44.07800 -2.78400 46.54600
H  43.24700 -4.25200 46.73300
H  47.11200 -0.59600 47.63000
H  48.00700 1.93300 48.78100
H  45.62700 0.23700 50.03900
H  47.40900 0.45200 50.14600
H  46.76700 -1.13800 49.75600
H  49.66900 0.85900 47.43400
H  49.11100 2.25900 46.60200
H  49.11500 0.87400 44.70800
H  47.59300 0.58800 45.38200
H  49.05200 -0.56100 45.74100
H  48.29500 6.82900 46.87400
H  47.56900 8.05400 45.75700
H  48.22200 6.60800 45.10600
H  42.82300 8.11300 44.25800
H  41.23200 11.09200 47.27300
H  40.06900 9.78300 46.98600
H  40.16400 11.00500 45.82700
Mg -8.56900 41.35800 42.33900
C  -7.99300 37.86100 41.36400
C  -5.92500 42.05900 40.15500
C  -9.67000 44.51400 42.08700
C  -11.55800 40.34600 43.72300
N  -7.06600 40.08400 41.04700
C  -7.08900 38.69000 40.69900
C  -5.77000 38.18300 40.01000
C  -5.04400 39.61700 39.78100
C  -6.00100 40.68000 40.39800
C  -3.65700 39.68800 40.55600
C  -6.21600 37.43000 38.78400
C  -5.41800 36.11500 38.38900
H  -4.51300 36.44300 37.18400
N  -7.82100 42.99300 41.28900
C  -6.78700 43.08500 40.50700
C  -6.61700 44.39500 39.95800
C  -7.61600 45.16900 40.57700
C  -8.43900 44.26400 41.38800
C  -5.59400 44.85900 38.95500
C  -7.79400 46.74000 40.49600
O  -6.97500 47.34800 39.86500
C  -8.83200 47.50100 41.07400
N  -10.40800 42.32500 42.74600
C  -10.54300 43.65600 42.77100
C  -11.95200 44.05700 43.44600
C  -12.41600 42.72700 44.13600
C  -11.37900 41.71300 43.52700
C  -11.67100 45.17900 44.43900
C  -13.88800 42.42700 43.96300
C  -14.32100 41.52100 42.80900
N  -9.50600 39.49700 42.76500
C  -10.75200 39.27300 43.32200
C  -11.01800 37.83000 43.25500
C  -9.90200 37.24100 42.58900
C  -9.07400 38.28900 42.20800
C  -12.18900 37.10100 43.75200
C  -9.28400 35.97100 42.26300
O  -9.59000 34.84500 42.57600
C  -8.04300 36.28200 41.31500
C  -6.78200 35.76300 41.91900
O  -6.20700 36.27800 42.89000
O  -6.42800 34.60700 41.27600
C  -5.40800 33.77600 41.91400
H  -5.01400 42.22800 39.57600
H  -10.09300 45.51800 42.00800
H  -12.43900 39.98300 44.25600
H  -5.32500 37.57000 40.79400
H  -4.88000 39.81500 38.72200
H  -3.68600 39.06900 41.45300
H  -3.38300 40.69500 40.87000
H  -2.83000 39.49000 39.87400
H  -6.27300 38.11200 37.93600
H  -7.26500 37.13500 38.80400
H  -6.09600 35.31800 38.08300
H  -4.74000 35.82500 39.19200
H  -4.75000 45.40000 39.38200
H  -5.99300 45.62700 38.29300
H  -5.17700 44.08200 38.31300
H  -8.91400 48.49400 40.63300
H  -8.87600 47.53000 42.16300
H  -9.72600 47.07900 40.61500
H  -12.55200 44.52500 42.66600
H  -12.06700 42.78900 45.16700
H  -11.83700 46.16800 44.01200
H  -10.63500 45.16500 44.77700
H  -12.33600 45.01500 45.28600
H  -14.36100 43.37500 43.70500
H  -14.37400 42.10000 44.88300
H  -14.89700 42.20100 42.18100
H  -14.92400 40.65800 43.08900
H  -13.46300 41.18600 42.22600
H  -12.61700 36.56300 42.90600
H  -12.93100 37.71700 44.26000
H  -11.83400 36.27200 44.36400
H  -8.21600 35.87000 40.32000
H  -6.00500 33.23900 42.65100
H  -4.63300 34.28700 42.48600
H  -4.85600 33.12700 41.23400

