158

Mg 55.82900 22.63100 44.87900
C  53.73200 25.15700 43.90500
C  53.61200 20.34600 43.78300
C  58.44400 20.34200 44.59400
C  58.30000 24.96500 45.47100
N  53.95500 22.77500 43.87500
C  53.20200 23.84900 43.61400
C  51.69700 23.47500 43.28800
C  51.63800 21.96400 43.60100
C  53.15900 21.69400 43.79000
C  50.75500 21.44300 44.81400
C  51.06700 23.89200 41.89000
C  49.77100 24.67300 42.07400
H  48.83200 24.57100 40.88100
N  56.00900 20.53400 44.45800
C  54.95200 19.80600 43.88400
C  55.41600 18.43800 43.77600
C  56.77100 18.38700 44.03200
C  57.12100 19.73900 44.43400
C  54.53100 17.35800 43.40700
C  57.71900 17.16800 43.91100
O  57.35400 16.08300 43.40500
C  59.18000 17.18600 44.34800
N  58.11500 22.66300 44.99600
C  58.89700 21.58100 44.91200
C  60.37000 21.90300 45.12500
C  60.27800 23.45700 45.23900
C  58.81200 23.71200 45.26500
C  61.03800 21.26200 46.40400
C  61.06100 24.20400 44.12200
C  62.16500 25.19600 44.64200
N  55.94800 24.64400 44.90200
C  57.01100 25.42500 45.20000
C  56.58400 26.79800 45.30900
C  55.23900 26.81800 44.79300
C  54.95600 25.40100 44.56200
C  57.35300 27.97300 45.82900
C  54.06400 27.55300 44.40300
O  53.78300 28.77500 44.51900
C  53.12000 26.53600 43.69100
C  53.11200 26.95800 42.26300
O  54.01500 26.68100 41.44000
O  51.88100 27.56200 41.95200
C  51.78700 27.75900 40.58100
H  52.83700 19.58500 43.67700
H  59.25000 19.60600 44.55100
H  58.95900 25.79600 45.73200
H  51.16700 24.00700 44.07800
H  51.18000 21.45100 42.75600
H  50.05900 22.22900 45.11100
H  51.34500 21.16600 45.68700
H  50.20500 20.64700 44.31300
H  50.92800 22.99900 41.28100
H  51.74600 24.55800 41.35700
H  50.05000 25.69400 42.33600
H  49.25000 24.23100 42.92200
H  54.73600 16.81100 42.48700
H  53.48600 17.62200 43.24400
H  54.54900 16.58700 44.17800
H  59.81100 17.65800 43.59500
H  59.44500 16.14500 44.53100
H  59.28500 17.68700 45.31000
H  60.92500 21.59200 44.24000
H  60.69500 23.78800 46.19000
H  61.91100 20.64800 46.18600
H  60.23300 20.63200 46.78200
H  61.35400 22.08700 47.04300
H  60.31000 24.70800 43.51400
H  61.46700 23.47600 43.42000
H  62.38600 25.07200 45.70200
H  61.91600 26.21600 44.35100
H  63.11100 24.97800 44.14600
H  56.68200 28.56900 46.44700
H  57.61200 28.64200 45.00900
H  58.24500 27.67000 46.37700
H  52.13600 26.70600 44.12800
H  50.92500 28.39000 40.36500
H  51.71700 26.84100 39.99700
H  52.65500 28.25200 40.14500
Mg 42.12300 41.31300 26.76600
C  41.48800 43.76400 28.95300
C  43.28800 39.27000 29.41900
C  42.72500 38.86800 24.60100
C  41.24500 43.48300 24.06400
N  42.27300 41.57300 28.90900
C  41.90800 42.62200 29.58300
C  41.86900 42.31900 31.09400
C  42.72200 40.99000 31.19000
C  42.90500 40.58700 29.75500
C  44.16500 41.08900 31.79000
C  40.37900 42.09000 31.56000
C  40.01900 42.76400 32.86600
H  39.96000 41.70700 34.05800
N  42.87900 39.33600 27.01500
C  43.28700 38.66100 28.15500
C  43.67100 37.30300 27.81700
C  43.58400 37.21100 26.40700
C  43.04000 38.51900 25.94100
C  44.10700 36.25600 28.83300
C  43.94100 36.06000 25.46100
O  43.76400 35.99700 24.22200
C  44.69200 34.88600 26.00000
N  42.11500 41.21500 24.63500
C  42.37200 40.08500 24.00500
C  42.21400 40.27700 22.45900
C  41.57300 41.71200 22.34800
C  41.58400 42.15900 23.80600
C  43.43500 39.89600 21.52300
C  40.27300 41.72800 21.53400
C  38.96800 41.40500 22.35400
N  41.54200 43.21200 26.41400
C  41.17500 44.04100 25.36100
C  40.85900 45.41500 25.87100
C  40.95900 45.27300 27.22500
C  41.35800 43.96200 27.50800
C  40.23000 46.51600 24.95500
C  40.71100 46.00900 28.43900
O  40.18500 47.11500 28.63000
C  41.03000 45.01800 29.61600
C  42.01600 45.75500 30.48100
O  43.14100 46.05900 30.09200
O  41.54200 45.85100 31.74200
C  42.23300 46.68700 32.67200
H  43.71500 38.69300 30.24200
H  42.92800 38.00900 23.95800
H  40.89600 44.17900 23.29800
H  42.30200 43.14200 31.66400
H  42.25100 40.12500 31.65900
H  44.21500 41.90500 32.51000
H  44.75700 41.15000 30.87700
H  44.37500 40.13100 32.26700
H  40.27000 41.02100 31.74400
H  39.79300 42.27800 30.66100
H  39.05400 43.26600 32.80100
H  40.79100 43.47100 33.16800
H  45.16200 36.04600 28.65700
H  43.52500 35.33500 28.84600
H  44.08400 36.65500 29.84700
H  44.16200 34.21500 26.67600
H  45.66000 35.24200 26.35400
H  44.90800 34.20700 25.17500
H  41.40100 39.55000 22.46400
H  42.40100 42.29200 21.94100
H  44.16400 39.28900 22.06000
H  43.92500 40.77500 21.10500
H  43.13000 39.18000 20.76000
H  40.22400 41.17400 20.59600
H  40.17500 42.74200 21.14800
H  39.09800 40.59400 23.07100
H  38.23200 40.95100 21.69000
H  38.65300 42.35500 22.78600
H  39.53900 46.11000 24.21600
H  40.97900 47.22500 24.60100
H  39.57300 47.11100 25.59000
H  40.16600 44.66700 30.18100
H  43.08400 47.26000 32.30500
H  42.35900 46.05500 33.55100
H  41.51200 47.48600 32.84100

