158

Mg 47.06600 24.45400 27.58200
C  47.91100 26.94500 29.98000
C  45.98200 22.47100 30.05200
C  45.97000 22.34700 25.16200
C  48.39900 26.56400 25.19200
N  46.83800 24.75000 29.77500
C  47.29300 25.82000 30.51100
C  47.15600 25.45200 31.97200
C  46.58700 23.99800 31.99200
C  46.58400 23.65400 30.49400
C  47.40400 23.02100 32.86000
C  46.21700 26.50400 32.71000
C  45.72600 26.30800 34.10000
H  46.14800 27.39900 35.20200
N  46.11200 22.64400 27.60800
C  45.80100 21.98300 28.75000
C  45.25300 20.68600 28.39100
C  45.13700 20.64100 27.00300
C  45.78900 21.92300 26.49400
C  44.87400 19.73800 29.49000
C  44.54300 19.61900 26.14700
O  44.54100 19.68000 24.91300
C  43.96600 18.46300 26.79300
N  47.29800 24.30600 25.47400
C  46.69200 23.40400 24.66300
C  47.01600 23.73200 23.17600
C  47.51200 25.20300 23.13700
C  47.78500 25.34200 24.71300
C  47.91100 22.61700 22.66100
C  46.47300 26.26100 22.77600
C  46.04000 26.31600 21.33400
N  48.03200 26.32300 27.53000
C  48.53900 27.00900 26.44900
C  48.96600 28.34900 26.85100
C  48.82400 28.36500 28.28500
C  48.15900 27.11600 28.65500
C  49.55300 29.30100 25.98400
C  48.95500 29.17000 29.48400
O  49.33300 30.34100 29.58800
C  48.43900 28.26400 30.63800
C  49.61500 28.03100 31.59900
O  50.67700 27.48000 31.33400
O  49.34800 28.60900 32.79700
C  50.12300 28.01000 33.89100
H  45.56000 21.86500 30.85700
H  45.41300 21.75300 24.43400
H  48.61400 27.26800 24.38500
H  48.16000 25.49900 32.39400
H  45.53000 24.07700 32.24500
H  47.50200 22.03100 32.41500
H  46.90500 22.91800 33.82400
H  48.39400 23.42600 33.06900
H  45.32200 26.53100 32.08900
H  46.52400 27.55000 32.74500
H  46.11400 25.37600 34.50900
H  44.63700 26.35200 34.07100
H  44.99500 18.72000 29.12000
H  43.92700 19.99700 29.96500
H  45.50200 19.93700 30.35800
H  43.19500 18.83600 27.46800
H  44.76200 17.90500 27.28600
H  43.47800 17.80900 26.07000
H  46.09600 23.60400 22.60600
H  48.37600 25.26700 22.47500
H  48.66700 23.02000 21.98600
H  47.34400 21.85800 22.12200
H  48.55400 22.16100 23.41400
H  47.03600 27.17900 22.94200
H  45.58200 26.20800 23.40100
H  44.96200 26.18300 21.24900
H  46.55000 25.56100 20.73600
H  46.04000 27.33700 20.95200
H  49.15900 29.36200 24.97000
H  50.59300 28.99800 25.86300
H  49.42200 30.26200 26.48300
H  47.67700 28.81100 31.19400
H  50.95900 28.70800 33.94400
H  50.28300 26.96900 33.61300
H  49.53700 27.99900 34.81000
Mg -5.04200 26.71400 25.63000
C  -4.25300 28.13800 28.57700
C  -6.92500 24.32800 27.08400
C  -5.40500 25.19700 22.59400
C  -3.03400 29.08400 23.97100
N  -5.42200 26.22300 27.56700
C  -5.12800 27.03900 28.61900
C  -5.73500 26.45500 29.88700
C  -6.43400 25.17000 29.46600
C  -6.34300 25.26900 27.94500
C  -5.81800 23.82000 30.07600
C  -6.64800 27.50600 30.63400
C  -6.49300 27.57200 32.19400
H  -6.42900 26.27100 32.98200
N  -5.98700 24.93900 24.98500
C  -6.82000 24.17400 25.69100
C  -7.35100 23.11200 24.86800
C  -6.70900 23.27700 23.61300
C  -5.93200 24.47800 23.67500
C  -8.23200 22.03100 25.44800
C  -6.84200 22.47600 22.34100
O  -6.14300 22.79500 21.34400
C  -7.87200 21.37100 22.21000
N  -4.28100 27.05200 23.56600
C  -4.66700 26.32500 22.52300
C  -4.21300 26.91400 21.20200
C  -3.64600 28.32000 21.73000
C  -3.64300 28.15000 23.21000
C  -3.09600 25.96000 20.56000
C  -4.52700 29.60300 21.28800
C  -4.03500 30.48700 20.19000
N  -3.86100 28.34200 26.10600
C  -3.11900 29.22500 25.39300
C  -2.52500 30.19500 26.23800
C  -2.97000 29.80600 27.55700
C  -3.72900 28.67100 27.38000
C  -1.60200 31.27300 25.98800
C  -2.86100 30.05600 28.93000
O  -2.20900 30.88300 29.58200
C  -3.68200 28.98000 29.73300
C  -2.66300 28.26300 30.59800
O  -1.71600 27.63000 30.21500
O  -2.99000 28.40900 31.96300
C  -1.96900 27.69700 32.81300
H  -7.49400 23.50200 27.51600
H  -5.65200 24.96500 21.55600
H  -2.72500 30.01600 23.49300
H  -4.86300 26.13200 30.45500
H  -7.51900 25.17700 29.56200
H  -4.93900 23.95800 30.70600
H  -5.39200 23.27000 29.23700
H  -6.61000 23.23100 30.53800
H  -7.69800 27.32200 30.40800
H  -6.36500 28.49300 30.26900
H  -7.33200 28.11700 32.62800
H  -5.60000 28.16300 32.39300
H  -8.58200 21.32300 24.69600
H  -8.98500 22.39900 26.14400
H  -7.56200 21.39800 26.03100
H  -7.73300 20.57100 22.93700
H  -7.79600 21.00100 21.18700
H  -8.87700 21.79300 22.22400
H  -5.07100 27.04800 20.54300
H  -2.62200 28.25100 21.36300
H  -2.86700 25.00900 21.04100
H  -2.22800 26.57700 20.32700
H  -3.46800 25.52200 19.63400
H  -5.00600 30.17600 22.08300
H  -5.41800 29.22000 20.79100
H  -4.51700 30.24600 19.24200
H  -2.97200 30.24700 20.14800
H  -4.11900 31.53700 20.47000
H  -1.51200 31.54800 24.93600
H  -0.63200 30.94000 26.35700
H  -1.86300 32.18700 26.52100
H  -4.38700 29.53000 30.35700
H  -2.08300 26.63300 32.60700
H  -2.21100 28.07500 33.80700
H  -0.93500 27.82700 32.49500

