158

Mg 24.24000 -6.82200 46.05900
C  26.53200 -4.37900 45.21000
C  21.88400 -5.29000 43.94000
C  22.15200 -9.42100 46.51400
C  26.81200 -8.56500 47.90700
N  24.26400 -5.09000 44.63400
C  25.30300 -4.21200 44.46100
C  24.93100 -3.07400 43.54200
C  23.37900 -3.31800 43.35700
C  23.14800 -4.67700 43.88500
C  22.47200 -2.15400 44.00100
C  25.77300 -3.13800 42.18000
C  26.70000 -2.00100 41.95600
H  26.85000 -1.32400 40.58400
N  22.21600 -7.26500 45.37400
C  21.47400 -6.53200 44.54200
C  20.27600 -7.26400 44.24800
C  20.25400 -8.45100 45.03200
C  21.51100 -8.43100 45.69700
C  19.19200 -6.71300 43.27300
C  19.17800 -9.44900 45.11400
O  18.22600 -9.36500 44.39100
C  19.08700 -10.60700 46.05600
N  24.54000 -8.78000 46.99700
C  23.41400 -9.62800 47.03400
C  23.83300 -10.97900 47.78200
C  25.32100 -10.67400 48.27400
C  25.64600 -9.26800 47.65900
C  22.77200 -11.46400 48.84700
C  26.37700 -11.62700 47.64600
C  27.36000 -12.22900 48.73000
N  26.26800 -6.54600 46.60900
C  27.12600 -7.31100 47.34500
C  28.36200 -6.51000 47.38600
C  28.14500 -5.42200 46.60800
C  26.87700 -5.48500 46.10700
C  29.63900 -6.94500 47.97600
C  28.74700 -4.19700 46.09200
O  29.86600 -3.76700 46.33600
C  27.76600 -3.55600 45.17000
C  27.55400 -2.16800 45.61800
O  26.87600 -1.75700 46.54000
O  28.13300 -1.31600 44.69800
C  27.97000 0.13300 44.86300
H  21.05200 -4.79800 43.43200
H  21.47200 -10.26900 46.61900
H  27.53100 -9.08200 48.54600
H  25.02900 -2.10400 44.02800
H  23.19700 -3.35300 42.28200
H  21.79500 -2.52800 44.76900
H  21.98000 -1.64000 43.17600
H  22.99800 -1.32300 44.47000
H  25.21400 -3.26600 41.25400
H  26.39800 -4.03100 42.18600
H  27.66900 -2.30800 42.34900
H  26.44600 -1.22900 42.68200
H  19.48500 -7.15200 42.32000
H  19.13600 -5.62400 43.25000
H  18.20900 -7.13400 43.48300
H  18.03400 -10.75300 46.29400
H  19.59100 -10.50300 47.01700
H  19.55500 -11.50100 45.64400
H  23.87900 -11.74000 47.00300
H  25.38900 -10.43800 49.33600
H  22.16300 -12.29600 48.49600
H  22.00000 -10.70200 48.95300
H  23.21000 -11.53500 49.84300
H  26.93900 -11.10700 46.87000
H  25.88200 -12.48200 47.18400
H  27.22600 -13.29900 48.89100
H  27.29200 -11.72200 49.69200
H  28.38400 -12.07500 48.39000
H  29.42600 -7.19500 49.01600
H  30.15900 -5.99300 48.08300
H  30.13100 -7.77500 47.46900
H  28.18400 -3.57800 44.16400
H  26.96200 0.39000 44.53800
H  28.52800 0.73700 44.14700
H  28.09200 0.52300 45.87400
Mg 42.66600 41.76500 25.89000
C  41.72400 44.09400 28.15300
C  43.45800 39.52100 28.41100
C  43.43900 39.34600 23.57000
C  42.17700 44.02400 23.15100
N  42.52100 41.81100 28.01600
C  42.03000 42.84200 28.77400
C  42.19500 42.53200 30.31800
C  43.11800 41.19300 30.22700
C  43.00300 40.83500 28.75700
C  44.57400 41.47400 30.72700
C  40.82800 42.34700 30.93600
C  40.81900 41.82600 32.41700
H  40.18000 42.75600 33.44900
N  43.52800 39.69300 25.93100
C  43.58500 38.94400 27.07800
C  44.01200 37.61000 26.73800
C  43.94900 37.53200 25.29700
C  43.65900 38.89800 24.86600
C  44.54100 36.58100 27.80600
C  44.05100 36.35600 24.34000
O  43.98400 36.32500 23.10600
C  44.21300 35.01600 25.01300
N  42.87500 41.69900 23.70600
C  43.13800 40.58900 22.95700
C  43.16200 40.93300 21.44100
C  42.43000 42.26200 21.34200
C  42.51200 42.70200 22.83600
C  44.46300 40.66200 20.65300
C  41.00600 42.08300 20.88100
C  39.83100 41.77200 21.81300
N  42.02500 43.70200 25.61900
C  41.89300 44.53700 24.49100
C  41.39000 45.75500 24.98700
C  41.32500 45.70600 26.38100
C  41.68300 44.41100 26.73800
C  40.98400 46.90300 24.16500
C  41.04000 46.37500 27.65000
O  40.73800 47.49600 27.90400
C  41.31000 45.35900 28.77500
C  42.17200 45.88300 29.81300
O  43.16000 46.59200 29.65000
O  41.59700 45.78800 31.05800
C  42.59300 46.01000 32.16700
H  43.65000 38.84000 29.24300
H  43.57100 38.58800 22.79500
H  42.04900 44.86400 22.46500
H  42.77100 43.39100 30.65900
H  42.68200 40.40100 30.83600
H  44.78200 40.61400 31.36400
H  44.66300 42.39900 31.29600
H  45.28700 41.41400 29.90500
H  40.32200 41.49200 30.48900
H  40.16800 43.16100 30.63500
H  41.84500 41.61300 32.72100
H  40.28000 40.87900 32.44500
H  44.99300 37.18800 28.59100
H  45.22900 35.82100 27.43900
H  43.63000 36.09500 28.15600
H  45.21600 34.69700 25.29600
H  43.83400 34.17200 24.43800
H  43.66800 35.05100 25.95600
H  42.44800 40.17800 21.11100
H  42.95100 42.95100 20.67600
H  45.16600 40.22200 21.36000
H  44.94400 41.58100 20.31800
H  44.27500 39.94500 19.85400
H  40.94500 41.40500 20.03000
H  40.68900 42.98200 20.35400
H  39.49900 40.73600 21.75100
H  38.95900 42.39800 21.62500
H  40.08600 41.87400 22.86800
H  41.88600 47.49500 24.01500
H  40.27600 47.46100 24.77900
H  40.45200 46.60200 23.26200
H  40.33400 45.07700 29.17100
H  42.23000 45.81300 33.17600
H  42.95200 47.03600 32.09300
H  43.50200 45.41100 32.11400

