158

Mg 27.43300 49.72700 26.48400
C  25.18800 50.62900 29.12000
C  29.72800 49.02100 28.96900
C  29.59900 49.40700 24.05200
C  25.12500 51.00500 24.23300
N  27.41000 49.65100 28.72500
C  26.36200 50.04400 29.60600
C  26.72500 49.80600 31.07900
C  28.30800 49.38000 31.01500
C  28.49900 49.43400 29.45400
C  29.26800 50.24400 31.93100
C  25.71800 48.76700 31.75000
C  24.95300 49.31200 32.97100
H  25.06000 48.55000 34.25900
N  29.31300 49.09700 26.51400
C  30.11000 48.85900 27.59500
C  31.45200 48.56100 27.13200
C  31.44900 48.66900 25.71700
C  30.08100 49.07900 25.36100
C  32.60900 48.24500 28.07700
C  32.62900 48.52800 24.68700
O  32.47200 48.62200 23.51500
C  34.04400 48.19500 25.30200
N  27.42900 50.18500 24.50500
C  28.39400 49.84800 23.67100
C  28.08000 50.15400 22.22800
C  26.53200 50.60300 22.24800
C  26.33400 50.60600 23.77500
C  29.03400 51.15400 21.49000
C  25.60400 49.71300 21.34200
C  24.66900 48.64100 22.00200
N  25.55400 50.65600 26.58900
C  24.77000 51.09800 25.58100
C  23.51300 51.61200 26.15400
C  23.68900 51.51800 27.53200
C  24.92400 50.90700 27.75800
C  22.47300 52.20000 25.30000
C  23.04200 51.76100 28.79700
O  21.95200 52.21300 29.11000
C  24.03400 51.21400 29.84500
C  24.39300 52.24800 30.86600
O  25.16000 53.20200 30.64500
O  23.70400 52.12400 32.01500
C  23.92800 53.16700 33.08700
H  30.46500 48.86900 29.76000
H  30.31700 49.17400 23.26300
H  24.45000 51.42300 23.48300
H  26.56800 50.74900 31.60300
H  28.36100 48.30800 31.20900
H  28.73100 51.07600 32.38800
H  29.97400 50.72800 31.25600
H  29.80600 49.68000 32.69300
H  26.14100 47.77400 31.90700
H  24.98900 48.50200 30.98400
H  23.89700 49.45700 32.74100
H  25.37000 50.28400 33.23300
H  33.04900 47.32400 27.69300
H  32.23700 48.14400 29.09700
H  33.34600 49.04700 28.11400
H  34.28700 48.86200 26.12900
H  34.89400 48.19300 24.62000
H  34.06500 47.18800 25.71900
H  28.28200 49.15200 21.84700
H  26.43500 51.62500 21.88100
H  29.82600 51.54200 22.13000
H  28.48800 51.98500 21.04400
H  29.42300 50.64900 20.60500
H  26.15700 49.16000 20.58200
H  24.95300 50.32100 20.71300
H  24.87800 48.64600 23.07100
H  24.84600 47.68800 21.50400
H  23.62700 48.96000 22.01500
H  21.48600 52.31100 25.74800
H  22.31600 51.63700 24.38000
H  22.87200 53.17900 25.03300
H  23.50900 50.43000 30.39100
H  24.76100 52.90800 33.74000
H  23.04500 53.18100 33.72700
H  23.94700 54.14100 32.59900
Mg 17.35600 51.04400 25.87800
C  19.31300 49.88100 28.46400
C  15.36700 52.65500 28.32300
C  15.88100 52.68900 23.49100
C  19.81300 49.83800 23.56900
N  17.28900 51.20200 28.13100
C  18.14800 50.53600 28.95300
C  17.88500 50.96900 30.45900
C  16.41600 51.54500 30.33100
C  16.36500 51.85200 28.90100
C  15.28400 50.53300 30.71300
C  18.92200 51.92400 31.23000
C  18.82900 51.87300 32.76900
H  17.86400 50.98700 33.50100
N  15.67500 52.24000 25.87000
C  15.04100 52.81800 26.94700
C  13.96600 53.65900 26.45600
C  14.08900 53.76800 25.07100
C  15.26300 52.84400 24.72800
C  12.98500 54.30200 27.31200
C  13.14700 54.46900 24.06200
O  13.16700 54.16700 22.87100
C  12.00900 55.47100 24.55700
N  17.96800 51.39000 23.88400
C  17.09400 52.09300 23.04100
C  17.45800 51.97500 21.56800
C  18.81700 51.27800 21.67200
C  18.88800 50.76900 23.09900
C  16.45600 51.41100 20.48000
C  19.98000 52.38900 21.44400
C  21.19500 51.74900 20.70100
N  19.07500 49.82700 25.98400
C  20.02700 49.47700 24.99300
C  21.13900 48.68500 25.60400
C  20.87000 48.78000 26.96500
C  19.64300 49.59900 27.13300
C  22.28700 47.96300 24.89900
C  21.37200 48.45100 28.29800
O  22.32300 47.86100 28.63300
C  20.32900 49.12800 29.32000
C  19.75200 48.18200 30.26000
O  18.93800 47.33000 29.89200
O  20.29400 48.33500 31.54700
C  19.69400 47.45000 32.51400
H  14.71000 53.11400 29.06500
H  15.38500 53.18200 22.65200
H  20.61900 49.45600 22.93900
H  17.91800 49.97900 30.91400
H  16.14200 52.49700 30.78400
H  14.80400 50.20300 29.79200
H  14.55500 50.95200 31.40700
H  15.71000 49.73200 31.31600
H  18.92600 52.98300 30.97000
H  19.94100 51.63700 30.97200
H  18.59900 52.87700 33.12500
H  19.81600 51.54300 33.09300
H  12.05000 54.01000 26.83400
H  13.12200 55.38200 27.25100
H  12.99700 53.93700 28.33900
H  11.16000 54.87600 24.89300
H  11.71700 56.16700 23.77000
H  12.54800 56.11000 25.25600
H  17.47900 53.03200 21.30400
H  18.85100 50.44100 20.97500
H  17.04800 50.84200 19.76400
H  15.89700 52.20200 19.98000
H  15.68200 50.79100 20.93300
H  20.37400 52.80300 22.37200
H  19.60800 53.15400 20.76200
H  21.42000 52.39800 19.85500
H  20.85400 50.82700 20.22900
H  22.03200 51.52900 21.36500
H  21.90500 47.26500 24.15400
H  22.83800 47.28000 25.54500
H  23.04300 48.62000 24.47000
H  20.91200 49.84700 29.89500
H  18.60700 47.50300 32.45400
H  19.90000 47.78000 33.53300
H  19.97700 46.40500 32.38800

