158

Mg 42.22500 7.88000 29.51600
C  43.81700 9.58800 32.15000
C  40.20500 6.37000 31.77300
C  40.81400 6.37900 26.80900
C  44.69500 9.13900 27.32500
N  42.07500 7.98300 31.70500
C  42.76800 8.80900 32.63700
C  42.05100 8.92500 33.96300
C  41.13500 7.54500 33.86000
C  41.04700 7.36400 32.30600
C  41.81000 6.23700 34.54700
C  41.38500 10.32000 34.33300
C  40.69400 10.31300 35.69100
H  41.25600 11.21300 36.78400
N  40.69400 6.58100 29.26000
C  39.97900 6.02800 30.38600
C  39.01100 5.03800 29.84400
C  39.05100 5.26400 28.43200
C  40.18900 6.15500 28.06000
C  38.18800 4.25200 30.75000
C  38.15800 4.62600 27.31200
O  38.35200 4.91900 26.09500
C  36.93400 3.76000 27.58300
N  42.67300 7.75000 27.38100
C  41.98100 7.01800 26.49200
C  42.58800 7.20000 25.07600
C  43.52700 8.33300 25.25900
C  43.68700 8.41900 26.78000
C  43.34600 5.87400 24.73900
C  42.96300 9.75700 24.75200
C  41.68400 10.41100 25.36300
N  43.92500 9.08700 29.62100
C  44.84800 9.49800 28.67400
C  45.80200 10.42100 29.24100
C  45.43100 10.47900 30.59600
C  44.27700 9.73300 30.79900
C  46.96500 11.17500 28.61600
C  45.71200 11.07200 31.90800
O  46.48800 11.97600 32.16600
C  44.68300 10.53000 32.95900
C  45.30200 9.98200 34.19500
O  46.08900 9.03200 34.26200
O  44.57000 10.42100 35.26100
C  44.61300 9.72500 36.56700
H  39.66400 5.76300 32.50300
H  40.39500 5.73800 26.03100
H  45.40100 9.60400 26.63400
H  42.81500 8.61500 34.67600
H  40.15500 7.76400 34.28300
H  41.96600 5.30800 33.99700
H  41.03500 5.99400 35.27500
H  42.72300 6.42400 35.11200
H  40.58900 10.53800 33.62200
H  42.21000 11.02600 34.23800
H  40.65400 9.28600 36.05300
H  39.66700 10.66100 35.57100
H  37.16600 4.50900 30.47300
H  38.44800 4.30700 31.80800
H  38.38700 3.19200 30.59000
H  36.41800 3.45900 26.67100
H  36.35000 4.47500 28.16300
H  37.32600 2.91300 28.14500
H  41.79900 7.58400 24.43000
H  44.52300 8.27700 24.81900
H  43.11800 5.01700 25.37300
H  44.41500 6.07200 24.65900
H  43.09700 5.64500 23.70300
H  42.75700 9.81700 23.68300
H  43.76700 10.49100 24.80000
H  41.37800 9.82900 26.23300
H  40.86500 10.27300 24.65800
H  41.78700 11.45800 25.64700
H  46.91700 12.22100 28.92100
H  47.06000 10.92700 27.55900
H  47.80400 10.68800 29.11200
H  44.22600 11.47300 33.25800
H  45.01500 8.72400 36.41200
H  43.63500 9.65700 37.04400
H  45.35000 10.26000 37.16500
Mg -9.92900 17.55500 42.13700
C  -6.46500 16.94600 42.80900
C  -9.18800 20.74700 41.43900
C  -13.18100 18.07300 41.43500
C  -10.51100 14.06500 42.56500
N  -7.93100 18.66100 42.06400
C  -6.74000 18.26400 42.38900
C  -5.73700 19.39400 42.14600
C  -6.69400 20.66200 42.08900
C  -8.02400 20.00500 41.78700
C  -6.74500 21.50000 43.40900
C  -4.81700 19.12600 40.91100
C  -5.37600 18.53000 39.64900
H  -5.10000 19.33300 38.35900
N  -11.03400 19.21300 41.57000
C  -10.54100 20.41300 41.39100
C  -11.56500 21.39900 41.21100
C  -12.77600 20.62600 41.09700
C  -12.35000 19.24200 41.34300
C  -11.42300 22.88000 40.93300
C  -14.17400 21.19300 40.92000
O  -14.36500 22.40200 40.99500
C  -15.41400 20.51000 40.54300
N  -11.64300 16.23600 41.95600
C  -12.92500 16.67300 41.73200
C  -13.90400 15.55100 41.88700
C  -13.05200 14.26500 42.17300
C  -11.65200 14.85400 42.27300
C  -14.87900 15.68100 42.96400
C  -13.17000 13.24200 41.02300
C  -14.13900 11.97100 41.25000
N  -8.80500 15.81600 42.44700
C  -9.14400 14.52800 42.58300
C  -7.94700 13.67500 42.81800
C  -6.89300 14.64100 42.94300
C  -7.44400 15.88700 42.76500
C  -7.83000 12.22700 42.94800
C  -5.43800 14.78300 43.26200
O  -4.55700 13.91600 43.32900
C  -5.19200 16.27800 43.20900
C  -4.61400 16.74600 44.47400
O  -3.59700 17.40700 44.53400
O  -5.45000 16.54000 45.55600
C  -5.20100 17.27000 46.82500
H  -9.01300 21.79600 41.19200
H  -14.23600 18.25900 41.22300
H  -10.67300 12.99000 42.66300
H  -5.09900 19.38900 43.03100
H  -6.29700 21.24600 41.25900
H  -7.77100 21.43800 43.77300
H  -6.53400 22.49900 43.02800
H  -5.88100 21.10000 43.93900
H  -4.28600 18.21400 41.18100
H  -4.06700 19.91500 40.85000
H  -6.44600 18.50600 39.85200
H  -4.98600 17.54100 39.40400
H  -11.36800 23.10400 39.86700
H  -10.45400 23.21600 41.30200
H  -12.18100 23.44500 41.47600
H  -15.54900 19.86500 41.41100
H  -15.29000 19.96300 39.60800
H  -16.23800 21.22200 40.48400
H  -14.38200 15.51100 40.90800
H  -13.18100 13.91400 43.19700
H  -15.68600 16.35800 42.68600
H  -14.38800 16.12800 43.82900
H  -15.24100 14.71000 43.30200
H  -12.16100 12.86500 40.85800
H  -13.49800 13.84100 40.17400
H  -15.03500 11.97600 40.63000
H  -14.44600 12.12400 42.28500
H  -13.63600 11.01000 41.14100
H  -8.63800 11.84900 42.32000
H  -7.99300 11.99300 44.00000
H  -6.78900 12.05500 42.67700
H  -4.30800 16.43700 42.59200
H  -5.09400 18.34500 46.68000
H  -4.30400 16.87800 47.30400
H  -6.10000 17.11400 47.42200

