158

Mg 48.19200 15.00900 28.57100
C  45.96800 15.49500 31.27400
C  50.39800 17.25000 30.09200
C  50.08900 14.91900 25.81600
C  45.54900 13.42100 26.83400
N  48.18400 16.36600 30.47600
C  47.23700 16.14600 31.41900
C  47.70900 16.72900 32.77400
C  48.98900 17.59100 32.30100
C  49.22900 17.08200 30.90200
C  48.97300 19.12700 32.47000
C  48.00900 15.70400 33.85700
C  47.34600 15.85400 35.26200
H  47.36400 17.28200 35.86000
N  49.96500 15.91400 27.98300
C  50.70900 16.76900 28.75400
C  51.94500 17.11200 27.97900
C  51.82500 16.48000 26.71000
C  50.61900 15.73300 26.78400
C  52.97100 18.09200 28.54800
C  52.86200 16.56000 25.51100
O  52.66200 15.96300 24.45500
C  54.13300 17.40300 25.67200
N  47.84900 14.39400 26.54600
C  48.85600 14.27000 25.66600
C  48.43500 13.68800 24.27900
C  46.98300 13.18200 24.70600
C  46.75300 13.71100 26.09900
C  48.43100 14.69000 23.12100
C  47.02400 11.60400 24.64800
C  47.45500 10.81300 25.86700
N  46.15800 14.52300 28.91900
C  45.26000 13.82200 28.17900
C  44.11400 13.50300 29.01600
C  44.38700 14.04100 30.28200
C  45.62300 14.72400 30.13100
C  42.94000 12.77900 28.42400
C  43.85800 14.19600 31.71000
O  42.85800 13.71100 32.23800
C  44.89100 15.14800 32.35000
C  44.09200 16.26700 32.99500
O  43.59300 17.17800 32.40900
O  44.06800 16.07500 34.38000
C  43.39800 17.05100 35.20300
H  51.09500 17.90000 30.62500
H  50.78000 14.78900 24.98100
H  44.87000 12.77600 26.27300
H  46.94800 17.41300 33.15000
H  49.87400 17.26800 32.85000
H  48.71600 19.53100 31.49000
H  49.92000 19.53200 32.82600
H  48.12500 19.36400 33.11300
H  49.07400 15.50200 33.97500
H  47.67400 14.73800 33.47800
H  47.97400 15.14400 35.80100
H  46.31300 15.51500 35.19400
H  53.81800 17.41400 28.65400
H  52.72700 18.57500 29.49400
H  53.13800 18.81600 27.75100
H  53.89700 18.45600 25.51900
H  54.85000 17.11600 24.90400
H  54.45000 17.17000 26.68900
H  49.10000 12.87100 24.00000
H  46.23800 13.50400 23.97900
H  47.93800 14.38300 22.19900
H  49.44600 14.90700 22.78600
H  47.85500 15.56900 23.41100
H  47.65500 11.18100 23.86600
H  45.99900 11.28000 24.46800
H  48.00500 9.94000 25.51500
H  46.57300 10.50000 26.42600
H  48.09700 11.43400 26.49300
H  42.10000 13.26700 27.93000
H  42.56400 12.21000 29.27400
H  43.33000 12.03200 27.73100
H  45.42400 14.67800 33.17600
H  43.45600 18.05900 34.79400
H  43.98100 16.98300 36.12100
H  42.34200 16.78400 35.20600
Mg 6.85100 53.21300 42.02900
C  6.25200 49.66000 41.54500
C  10.06000 52.62000 40.71200
C  7.36100 56.48200 41.81500
C  3.47300 53.51800 42.48500
N  7.94700 51.28100 41.02400
C  7.56800 49.96000 41.17500
C  8.78200 49.11200 40.73200
C  9.92500 50.04800 40.62500
C  9.33600 51.42000 40.91000
C  11.13400 49.76500 41.56500
C  8.67900 48.09200 39.60100
C  8.67100 48.65300 38.21200
H  7.35100 48.49800 37.54100
N  8.54400 54.35000 41.47000
C  9.76600 53.96800 40.98000
C  10.65400 55.16000 40.88000
C  9.87500 56.23100 41.34600
C  8.49500 55.71900 41.49900
C  12.11700 55.02300 40.51100
C  10.40300 57.59500 41.60000
O  11.55500 57.83200 41.46100
C  9.62100 58.78100 42.08100
N  5.59000 54.74100 42.04300
C  6.09000 56.01000 42.12600
C  5.04000 56.94400 42.61600
C  3.75200 56.00600 42.63200
C  4.29000 54.65600 42.43000
C  5.21300 57.80300 43.94200
C  2.65400 56.41900 41.63100
C  2.47800 55.58700 40.34600
N  5.17000 51.90200 42.11100
C  3.89800 52.20300 42.39200
C  3.07300 51.08200 42.48600
C  3.99000 50.03800 42.25700
C  5.23000 50.61800 41.98100
C  1.57800 51.01000 42.80800
C  4.15300 48.61900 42.22200
O  3.29900 47.80200 42.60100
C  5.60500 48.22900 41.76100
C  5.23100 47.57500 40.43800
O  4.62200 48.07500 39.48000
O  5.66200 46.26700 40.37900
C  5.14900 45.24400 39.42100
H  11.08100 52.44700 40.36700
H  7.64600 57.51800 42.01100
H  2.45000 53.72100 42.80800
H  8.80800 48.59600 41.69200
H  10.37000 50.01100 39.63100
H  10.65200 49.28200 42.41500
H  11.49800 50.72100 41.94000
H  11.97100 49.29100 41.05300
H  7.76000 47.51100 39.68000
H  9.60100 47.55000 39.81200
H  9.26100 47.98500 37.58400
H  8.78800 49.73500 38.15000
H  12.65800 54.94300 41.45400
H  12.36000 55.94400 39.98200
H  12.42600 54.24700 39.81000
H  8.98000 59.12500 41.26900
H  10.32500 59.58500 42.29200
H  9.10600 58.49700 42.99900
H  5.02000 57.67600 41.80800
H  3.19000 56.17200 43.55100
H  6.23200 58.00700 44.27000
H  4.54300 57.39200 44.69600
H  4.88800 58.83900 43.84000
H  2.78200 57.45700 41.32600
H  1.78300 56.28700 42.27300
H  3.44500 55.17700 40.05700
H  2.12000 56.18300 39.50600
H  1.79200 54.75500 40.50500
H  1.17300 50.81300 41.81600
H  1.24500 51.97200 43.20000
H  1.29400 50.17300 43.44500
H  6.08700 47.45500 42.35800
H  4.95300 45.62500 38.41900
H  4.25500 44.82900 39.88600
H  5.89000 44.44600 39.37700

