158

Mg 0.54100 7.97700 25.08200
C  1.04500 10.01500 27.80400
C  0.74900 5.26400 27.10800
C  0.14700 6.00000 22.38900
C  0.69200 10.78400 22.93200
N  0.85500 7.71300 27.22900
C  0.99500 8.65600 28.17400
C  1.10500 8.10100 29.55600
C  1.23100 6.51600 29.29300
C  0.95900 6.46600 27.77400
C  2.58600 5.82900 29.69000
C  -0.11000 8.48500 30.40400
C  0.00100 8.63300 31.93600
H  1.20200 8.04900 32.61700
N  0.42600 5.86900 24.78400
C  0.45600 4.98100 25.79000
C  0.18200 3.66500 25.20800
C  0.19200 3.80900 23.79500
C  0.21200 5.23200 23.58400
C  0.12600 2.35900 26.08800
C  -0.02700 2.67200 22.66300
O  0.03600 2.84900 21.47800
C  -0.19600 1.21000 23.03600
N  0.43300 8.37300 23.00500
C  0.18600 7.33600 22.14000
C  -0.17000 7.90600 20.83000
C  -0.11500 9.45500 20.96200
C  0.32900 9.58000 22.36800
C  0.71300 7.21200 19.77300
C  -1.54000 10.13400 20.75900
C  -1.61500 11.61200 20.22700
N  0.88100 10.02600 25.25800
C  0.81900 11.03900 24.34500
C  1.06100 12.33700 25.06300
C  1.15900 11.95200 26.43200
C  0.98600 10.53500 26.48300
C  1.05700 13.70700 24.47100
C  1.36700 12.46600 27.80500
O  1.74800 13.56300 28.16800
C  1.21300 11.26300 28.66900
C  2.39900 11.19700 29.47600
O  3.47700 10.68200 29.18900
O  2.06300 11.57200 30.74700
C  3.11100 11.54900 31.80000
H  0.69100 4.37700 27.74200
H  -0.04200 5.50000 21.43700
H  0.72000 11.68700 22.31900
H  2.02500 8.54900 29.93100
H  0.43500 5.99500 29.82500
H  3.05700 5.59200 28.73600
H  2.48400 4.87300 30.20300
H  3.14600 6.45800 30.38200
H  -0.88500 7.73100 30.27000
H  -0.53600 9.46300 30.18000
H  -0.86200 8.24400 32.47700
H  0.15300 9.67000 32.23700
H  1.02100 1.74100 26.01200
H  -0.74600 1.87300 25.65100
H  0.08100 2.53900 27.16300
H  0.72500 0.87900 23.51500
H  -0.16500 0.65400 22.09900
H  -1.03900 1.02400 23.70100
H  -1.19700 7.58700 20.65300
H  0.50300 9.98100 20.23400
H  1.61000 6.80300 20.23800
H  0.96600 7.81000 18.89800
H  0.21600 6.37500 19.28300
H  -2.07400 10.12500 21.70900
H  -2.13800 9.49600 20.10800
H  -1.96800 11.54700 19.19800
H  -0.60300 12.01800 20.21200
H  -2.18300 12.21100 20.94000
H  1.08100 13.69400 23.38200
H  1.97700 14.13800 24.86600
H  0.18900 14.32600 24.69800
H  0.29000 11.38800 29.23500
H  3.92100 10.84700 31.60000
H  2.70400 11.08600 32.69900
H  3.33100 12.60000 31.98500
Mg -6.33400 25.75600 25.70800
C  -4.74700 27.36500 28.54300
C  -7.75800 23.56300 27.89700
C  -7.27600 24.11100 23.11900
C  -4.26100 27.91100 23.71300
N  -6.13700 25.45500 27.85700
C  -5.50600 26.28600 28.85400
C  -5.95700 25.82700 30.25400
C  -6.61000 24.38700 30.05700
C  -6.89300 24.48800 28.50400
C  -5.64200 23.18300 30.43200
C  -7.04100 26.81400 30.84600
C  -7.04000 27.11000 32.38000
H  -6.81800 25.82400 33.22100
N  -7.37800 23.99500 25.57900
C  -7.89100 23.23200 26.59100
C  -8.78100 22.33400 26.06800
C  -8.71300 22.47000 24.59600
C  -7.78500 23.58500 24.35200
C  -9.50000 21.36600 27.02000
C  -9.43900 21.55200 23.58400
O  -9.17000 21.75600 22.43500
C  -10.35100 20.47500 23.95400
N  -5.78600 25.99200 23.72800
C  -6.41000 25.10300 22.83500
C  -6.12100 25.53500 21.40400
C  -5.28700 26.85900 21.58700
C  -5.09400 26.97300 23.12000
C  -5.30600 24.29800 20.72100
C  -6.08700 28.13900 21.16600
C  -5.61100 28.87200 19.90400
N  -4.87900 27.44700 25.97900
C  -4.15700 28.18500 25.10100
C  -3.32300 29.14400 25.77700
C  -3.48800 28.84000 27.17400
C  -4.43900 27.78400 27.20000
C  -2.41300 30.23100 25.20100
C  -3.05100 29.14200 28.59900
O  -2.23100 29.88500 29.04600
C  -3.99100 28.25100 29.46400
C  -3.11400 27.44100 30.33700
O  -2.18700 26.69900 30.00300
O  -3.49200 27.59400 31.62000
C  -2.66200 26.91900 32.63300
H  -8.20500 23.01400 28.72900
H  -7.60700 23.52200 22.26100
H  -3.61400 28.50400 23.06300
H  -5.13300 25.71900 30.95900
H  -7.55500 24.27700 30.59000
H  -4.69200 23.57100 30.80100
H  -5.45200 22.65100 29.50000
H  -6.10900 22.45400 31.09500
H  -8.02600 26.36100 30.74000
H  -6.93900 27.78800 30.36600
H  -7.94600 27.67400 32.59900
H  -6.28100 27.88900 32.45000
H  -10.28700 21.92800 27.52200
H  -8.82600 21.04700 27.81600
H  -9.82900 20.40600 26.62300
H  -11.27300 20.79400 24.44100
H  -9.89300 19.57200 24.35800
H  -10.77900 20.21100 22.98700
H  -7.02500 25.73000 20.82500
H  -4.30500 26.77300 21.12200
H  -5.78200 24.26400 19.74100
H  -5.49200 23.36400 21.25100
H  -4.23000 24.38100 20.56700
H  -5.99900 28.95500 21.88400
H  -7.15100 27.99300 20.97700
H  -6.42000 29.49400 19.52100
H  -5.45100 28.17800 19.07900
H  -4.73000 29.49400 20.06800
H  -2.80800 30.58500 24.24900
H  -1.47300 29.74400 24.94400
H  -2.33800 31.03300 25.93600
H  -4.66800 28.85100 30.07000
H  -3.02500 27.09200 33.64600
H  -1.60600 27.18600 32.57600
H  -2.72300 25.86200 32.37400

