158

Mg 46.37300 44.33900 42.67200
C  43.08200 43.15700 42.35400
C  47.32700 40.96600 42.15700
C  49.46500 45.42100 42.12400
C  45.18400 47.64100 42.63900
N  45.35300 42.29600 42.23400
C  43.98000 42.07600 42.23000
C  43.62800 40.61300 41.86100
C  44.96300 39.88500 42.23600
C  45.96900 41.11800 42.17900
C  44.91900 39.13300 43.62200
C  42.95700 40.42200 40.40000
C  43.53900 41.31500 39.29600
H  44.32800 40.66300 38.08800
N  48.13800 43.29100 42.27800
C  48.34200 41.94700 42.09600
C  49.77700 41.67700 41.79400
C  50.35000 42.95100 41.62100
C  49.31800 43.95400 42.02200
C  50.38900 40.31200 41.67500
C  51.74900 43.24900 41.04400
O  52.35400 42.29500 40.52200
C  52.36800 44.58100 40.84200
N  47.15800 46.22200 42.44500
C  48.49700 46.37900 42.37500
C  48.95100 47.87800 42.55400
C  47.56900 48.62600 42.41900
C  46.59400 47.42700 42.46800
C  49.57600 48.15900 43.95200
C  47.36600 49.45700 41.10900
C  47.47200 50.97500 41.17700
N  44.50500 45.33300 42.50500
C  44.14700 46.66600 42.67200
C  42.61800 46.69900 42.85800
C  42.20900 45.32100 42.73000
C  43.41600 44.58400 42.45500
C  41.80500 47.91000 43.10300
C  41.01700 44.54600 42.77100
O  39.82500 44.80500 42.90700
C  41.51900 43.08000 42.38900
C  41.04200 42.25900 43.57300
O  40.02500 41.56500 43.68200
O  41.80500 42.58200 44.64700
C  41.51200 41.99600 45.99500
H  47.57100 39.91400 41.99600
H  50.45000 45.89000 42.08500
H  44.94800 48.66300 42.94400
H  42.93400 40.38100 42.66800
H  45.19000 39.21500 41.40700
H  43.92900 38.76600 43.89500
H  45.15900 39.81900 44.43400
H  45.59500 38.28500 43.73000
H  41.90900 40.69800 40.51600
H  42.94000 39.40400 40.00900
H  44.41500 41.84600 39.66900
H  42.79500 42.06100 39.01400
H  50.45100 39.98100 40.63900
H  49.80600 39.56700 42.21600
H  51.37900 40.23700 42.12600
H  51.79300 45.21100 40.16300
H  53.38300 44.45400 40.46400
H  52.51800 45.04100 41.81800
H  49.72600 48.12200 41.82600
H  47.50000 49.25400 43.30700
H  48.83400 47.95200 44.72300
H  49.88600 49.20200 44.01300
H  50.48400 47.56000 44.02100
H  46.39300 49.27100 40.65400
H  48.14900 49.26400 40.37600
H  47.70400 51.42400 40.21100
H  48.24200 51.23800 41.90300
H  46.60500 51.48700 41.59600
H  41.34400 48.32800 42.20900
H  42.34600 48.72000 43.59200
H  40.93200 47.55900 43.65400
H  41.14000 42.70600 41.43700
H  41.78600 42.81100 46.66600
H  42.04500 41.11000 46.33900
H  40.49000 41.79300 46.31700
Mg 29.83500 58.50500 40.28400
C  26.81800 57.00400 39.16200
C  31.55100 55.69800 38.95200
C  32.68600 60.47200 39.86800
C  28.02900 61.42000 40.82700
N  29.18700 56.58400 39.16200
C  27.94900 56.17000 38.84700
C  27.90100 54.87000 37.93600
C  29.37700 54.30600 38.23900
C  30.13900 55.61500 38.83300
C  29.33500 53.19400 39.33700
C  27.76500 55.23600 36.40800
C  27.40100 54.15400 35.42900
H  26.60200 54.64100 34.21100
N  31.86600 58.11200 39.68800
C  32.34700 56.93500 39.21300
C  33.79800 57.08200 39.04100
C  34.15100 58.46700 39.27600
C  32.87100 59.05600 39.65700
C  34.63200 55.95200 38.59100
C  35.50100 59.19700 39.07200
O  36.39700 58.64600 38.43500
C  35.80800 60.54800 39.59900
N  30.33300 60.66900 40.35000
C  31.54200 61.19300 40.25400
C  31.60700 62.70600 40.54500
C  30.15900 62.97500 40.90700
C  29.46400 61.63800 40.74400
C  32.68100 63.18800 41.55500
C  29.31500 64.08000 40.07700
C  28.56000 65.13800 40.88300
N  27.75900 59.09400 40.23400
C  27.24300 60.35800 40.48200
C  25.82300 60.23900 40.24500
C  25.60000 58.94600 39.78600
C  26.81600 58.31200 39.74700
C  24.76600 61.34300 40.42800
C  24.54900 58.06400 39.18800
O  23.38800 58.26400 38.92700
C  25.31000 56.66900 38.91400
C  24.89800 55.77300 40.00100
O  24.64700 56.03400 41.11400
O  24.76600 54.49800 39.46200
C  24.06000 53.46400 40.24600
H  32.09200 54.82400 38.58100
H  33.43300 61.24700 39.68500
H  27.50200 62.32100 41.14800
H  27.10200 54.18900 38.22800
H  29.93100 53.96900 37.36400
H  28.33000 52.82700 39.54500
H  29.65600 53.43500 40.35000
H  29.80100 52.30100 38.92000
H  28.71100 55.65800 36.06800
H  26.99500 56.00400 36.33300
H  26.75900 53.45500 35.96400
H  28.34100 53.70000 35.11600
H  34.27300 55.22900 39.32300
H  35.71600 56.05600 38.64000
H  34.37500 55.62600 37.58400
H  36.89400 60.56000 39.70100
H  35.28800 60.44200 40.55000
H  35.43500 61.26900 38.87200
H  31.83300 63.30400 39.66100
H  30.05300 63.21300 41.96500
H  32.17600 63.48300 42.47500
H  33.20800 64.08400 41.22800
H  33.42500 62.45600 41.86900
H  28.66300 63.56000 39.37600
H  30.06500 64.62200 39.50200
H  28.76500 65.05400 41.95000
H  27.49800 64.99400 40.68200
H  28.84700 66.16100 40.64100
H  25.15000 61.94500 41.25100
H  23.80800 60.87900 40.65800
H  24.90900 61.95000 39.53300
H  25.18400 56.24500 37.91800
H  23.53700 52.86400 39.50100
H  23.29300 53.96300 40.83900
H  24.73300 52.84400 40.83900

