158

Mg 1.80800 -0.91200 44.66400
C  5.11700 0.04100 43.77100
C  0.65100 1.84500 42.97300
C  -1.11300 -2.32100 44.88900
C  3.32500 -3.90800 46.05000
N  2.78500 0.72700 43.47400
C  4.15900 0.89300 43.29400
C  4.43400 2.17800 42.49000
C  3.05800 2.81400 42.33700
C  2.10200 1.73700 42.92300
C  2.89300 4.15700 43.10100
C  5.25800 2.03300 41.12900
C  6.02900 3.25900 40.61500
H  5.80700 3.84300 39.22500
N  -0.06600 -0.24000 44.17100
C  -0.35100 0.92200 43.49800
C  -1.80100 1.01300 43.32600
C  -2.36500 -0.15500 43.92300
C  -1.18400 -0.95700 44.43200
C  -2.46000 2.15300 42.50300
C  -3.88600 -0.49900 43.88100
O  -4.69300 0.30200 43.33300
C  -4.42000 -1.74700 44.40500
N  1.19500 -2.86800 45.44000
C  -0.09600 -3.18000 45.34900
C  -0.34800 -4.62900 45.79000
C  1.06200 -5.06600 46.36900
C  1.95500 -3.87600 45.98700
C  -1.53300 -4.74600 46.80500
C  1.57200 -6.50000 45.93000
C  2.22900 -7.34400 47.01800
N  3.73700 -1.81200 44.82000
C  4.23500 -2.98300 45.44100
C  5.64900 -3.09300 45.38500
C  6.01000 -1.87700 44.82700
C  4.87200 -1.12200 44.48200
C  6.55000 -4.23700 45.80600
C  7.18300 -1.07600 44.43500
O  8.38700 -1.42800 44.48600
C  6.60800 0.27100 43.83100
C  7.07900 1.38700 44.63200
O  6.71300 1.56800 45.76900
O  8.01300 2.25500 43.97800
C  8.35300 3.59200 44.60600
H  0.40700 2.71200 42.35600
H  -2.07200 -2.84200 44.90300
H  3.84000 -4.73000 46.55200
H  5.11200 2.80100 43.07400
H  2.78900 3.05800 41.31000
H  2.10400 4.15700 43.85300
H  2.82200 4.89100 42.29800
H  3.81400 4.38200 43.63900
H  4.56400 1.67600 40.36800
H  5.92500 1.18400 41.28000
H  7.09700 3.11500 40.78000
H  5.72000 4.14300 41.17300
H  -3.30900 2.52300 43.07900
H  -2.75100 1.80700 41.51200
H  -1.83500 3.03700 42.37500
H  -5.42800 -1.53300 44.76300
H  -3.88500 -2.00300 45.32000
H  -4.32400 -2.56500 43.69200
H  -0.47700 -5.17100 44.85400
H  0.94700 -5.11100 47.45200
H  -1.98900 -3.76900 46.96900
H  -1.42800 -5.26100 47.75900
H  -2.25100 -5.34900 46.24800
H  2.35800 -6.45300 45.17600
H  0.69900 -7.05900 45.59200
H  1.95900 -8.38000 46.81400
H  1.99900 -7.16500 48.06900
H  3.29000 -7.22000 46.79900
H  6.29600 -4.63900 46.78700
H  7.55900 -3.87900 46.00900
H  6.42500 -5.01100 45.04900
H  7.13700 0.29800 42.87800
H  8.80800 4.30500 43.91900
H  8.87200 3.44200 45.55300
H  7.46800 4.12200 44.95700
Mg 55.65500 23.16700 44.50100
C  53.12000 25.57400 43.55900
C  53.49800 20.78700 43.46700
C  58.12400 21.02300 44.89700
C  57.71600 25.75500 45.44100
N  53.54300 23.21300 43.64700
C  52.74600 24.25100 43.30400
C  51.34700 23.78200 42.82800
C  51.37500 22.34800 43.28000
C  52.88600 22.06900 43.43800
C  50.56800 21.98100 44.59100
C  51.08100 24.08000 41.31600
C  49.58800 24.10000 40.88100
H  49.26000 23.19400 39.73900
N  55.81400 21.17300 44.11900
C  54.80600 20.38700 43.71100
C  55.34700 19.02500 43.62000
C  56.73700 19.06000 44.02700
C  56.97300 20.46700 44.33300
C  54.50900 17.90600 43.12600
C  57.67500 17.87100 43.96500
O  57.31700 16.75900 43.59000
C  59.12900 18.00300 44.28900
N  57.72400 23.35200 45.03400
C  58.45400 22.28900 45.31800
C  59.88700 22.75300 45.78000
C  59.70100 24.25600 46.16200
C  58.29200 24.50500 45.43300
C  60.50600 21.85100 46.90100
C  60.76800 25.23100 45.66000
C  61.10200 26.50300 46.50400
N  55.52900 25.19700 44.37600
C  56.44900 26.13700 44.94200
C  55.90900 27.49900 44.81500
C  54.59800 27.25400 44.26300
C  54.39500 25.87200 44.07100
C  56.56700 28.76000 45.26100
C  53.42100 28.00400 43.99500
O  53.20900 29.25400 44.16800
C  52.40500 26.97900 43.36300
C  52.14900 27.27600 41.92600
O  52.94500 27.47000 41.05400
O  50.77300 27.28000 41.77100
C  50.36800 27.97900 40.52400
H  52.91100 19.89100 43.25800
H  59.09100 20.51900 44.95800
H  58.20800 26.52600 46.03900
H  50.45000 24.15300 43.32400
H  50.87500 21.74900 42.51900
H  51.18800 21.35500 45.23300
H  49.66100 21.48100 44.25400
H  50.40400 22.92600 45.11000
H  51.49800 23.17000 40.88400
H  51.72200 24.95400 41.20600
H  49.17700 25.09000 40.68500
H  49.11400 23.70700 41.78100
H  54.43500 17.91900 42.03800
H  53.51200 17.83300 43.55800
H  54.86800 16.91900 43.41800
H  59.46100 18.52700 43.39300
H  59.59400 17.02600 44.41900
H  59.16900 18.58400 45.21000
H  60.54200 22.62600 44.91800
H  59.57300 24.34000 47.24100
H  59.81600 21.18600 47.42100
H  61.03400 22.45000 47.64300
H  61.27100 21.23400 46.43000
H  60.57600 25.52500 44.62900
H  61.65900 24.61200 45.55500
H  61.19700 27.45500 45.98100
H  62.03100 26.20300 46.98900
H  60.38800 26.66900 47.31000
H  57.07500 29.20700 44.40700
H  57.42700 28.55400 45.89900
H  55.89200 29.31300 45.91400
H  51.42200 26.92700 43.83000
H  51.13400 28.59400 40.05200
H  49.50400 28.57400 40.81900
H  49.99000 27.33800 39.72800

