158

Mg 25.77300 -7.33300 47.38800
C  28.08300 -4.94900 46.34300
C  23.47500 -6.03400 45.04300
C  23.82000 -10.16100 47.79800
C  28.27900 -8.78100 49.38900
N  25.85700 -5.74200 45.90700
C  26.91200 -4.88000 45.66100
C  26.51600 -3.75300 44.60700
C  24.99900 -4.10200 44.38700
C  24.69400 -5.33600 45.25500
C  24.02800 -2.89500 44.57000
C  27.35700 -3.90400 43.30400
C  27.86900 -2.51600 42.70700
H  27.66400 -2.23600 41.19700
N  23.90400 -8.00800 46.60600
C  23.13900 -7.30100 45.66200
C  21.98400 -8.06400 45.33600
C  22.02100 -9.31500 46.06600
C  23.28400 -9.19900 46.92400
C  20.99200 -7.68000 44.24000
C  21.01900 -10.41300 45.94700
O  20.15600 -10.41100 45.08300
C  21.10300 -11.48400 46.87400
N  26.03800 -9.16000 48.46400
C  25.01900 -10.09400 48.55100
C  25.49100 -11.28900 49.56800
C  26.65400 -10.50900 50.31200
C  27.11100 -9.47900 49.29900
C  24.35400 -11.79600 50.51100
C  27.74600 -11.55900 50.61300
C  28.55600 -12.20000 49.56600
N  27.84600 -6.97200 47.78700
C  28.74300 -7.62000 48.63200
C  30.01100 -6.84800 48.59800
C  29.78900 -5.72400 47.74400
C  28.42900 -5.92500 47.26200
C  31.24300 -7.10700 49.39500
C  30.31600 -4.52900 47.16300
O  31.36600 -3.94800 47.23500
C  29.27000 -4.03200 46.18300
C  28.84700 -2.70400 46.58900
O  28.18000 -2.38200 47.54100
O  29.51200 -1.84300 45.84700
C  29.06000 -0.46100 45.69500
H  22.83300 -5.52100 44.32500
H  23.28500 -11.10500 47.92100
H  28.97000 -9.18600 50.13100
H  26.68000 -2.74700 44.99400
H  24.75900 -4.44300 43.38000
H  24.57900 -1.95600 44.51200
H  23.61100 -3.00800 45.57100
H  23.25300 -2.89100 43.80400
H  26.74800 -4.44500 42.58000
H  28.23400 -4.54800 43.37700
H  28.92900 -2.57300 42.95500
H  27.53400 -1.69200 43.33700
H  21.30300 -7.95800 43.23400
H  20.94800 -6.59200 44.29000
H  19.97500 -8.03800 44.40000
H  21.25900 -11.18900 47.91100
H  21.85400 -12.16700 46.47700
H  20.17100 -12.04300 46.78700
H  25.88900 -12.04200 48.88700
H  26.25700 -9.93600 51.15100
H  24.38900 -11.34300 51.50200
H  24.34500 -12.88300 50.58500
H  23.37000 -11.57100 50.09900
H  27.39000 -12.37100 51.24800
H  28.33400 -11.00000 51.34100
H  28.49200 -11.60500 48.65500
H  28.36600 -13.24200 49.30900
H  29.58100 -12.25800 49.93400
H  31.72800 -6.14300 49.55100
H  31.84900 -7.71600 48.72400
H  31.06900 -7.46300 50.41000
H  29.63600 -3.98300 45.15800
H  27.98200 -0.42600 45.85700
H  29.37000 -0.06600 44.72700
H  29.57300 0.12500 46.45800
Mg 6.67600 58.02400 41.24000
C  5.50900 54.62200 41.09100
C  9.67700 57.00400 40.44100
C  7.38700 61.18500 40.73400
C  3.29900 58.91100 41.86900
N  7.48600 56.00800 40.56300
C  6.83000 54.76000 40.70100
C  7.95100 53.64100 40.37700
C  9.36100 54.50100 40.64000
C  8.85400 55.92200 40.56600
C  10.11200 54.27200 41.93000
C  7.83900 53.14400 38.92200
C  8.42600 51.77400 38.60400
H  7.71000 50.83700 37.69900
N  8.26700 58.97000 40.61200
C  9.49300 58.35700 40.45000
C  10.46800 59.40500 40.09300
C  9.89800 60.66300 40.09000
C  8.46200 60.29100 40.42100
C  11.91200 59.04300 39.81100
C  10.57100 62.03900 39.75900
O  11.76200 62.06200 39.44800
C  9.85000 63.36200 39.88600
N  5.50200 59.77500 41.41600
C  6.16500 60.94400 41.21200
C  5.21900 62.08300 41.52300
C  3.82300 61.39700 41.41600
C  4.17500 59.93600 41.65100
C  5.41900 62.76100 42.87200
C  3.05200 61.68600 40.16300
C  1.55800 61.70800 40.36200
N  4.86800 57.06000 41.50000
C  3.56500 57.53200 41.78700
C  2.59200 56.35500 41.96100
C  3.35600 55.20600 41.83000
C  4.62900 55.68900 41.38900
C  1.19300 56.45900 42.42700
C  3.42400 53.79800 41.93700
O  2.47600 53.00100 42.13800
C  4.87000 53.29800 41.47500
C  4.73300 52.25200 40.43400
O  4.47000 52.48900 39.25500
O  4.88000 50.95800 41.00200
C  4.79400 49.86500 40.02900
H  10.75300 56.81900 40.41100
H  7.69400 62.23300 40.70900
H  2.28000 59.30400 41.88400
H  7.79300 52.79600 41.04700
H  10.03700 54.24600 39.82400
H  11.17700 54.31600 41.70100
H  9.79600 53.38700 42.48300
H  9.85700 55.06600 42.63100
H  8.30200 53.97300 38.38800
H  6.79800 53.20900 38.60400
H  8.52700 51.32600 39.59200
H  9.45900 51.86900 38.26800
H  11.90100 58.04200 39.38000
H  12.73500 59.13300 40.52000
H  12.23400 59.65300 38.96700
H  8.96300 63.34700 39.25200
H  10.38900 64.18700 39.42100
H  9.60900 63.61000 40.92000
H  5.34700 62.84400 40.75400
H  3.11600 61.55600 42.23000
H  4.81800 63.65400 43.04400
H  6.48600 62.91300 43.03500
H  5.33300 62.02900 43.67500
H  3.35600 61.15700 39.26000
H  3.29500 62.72500 39.94100
H  0.97500 61.59700 39.44800
H  1.26900 62.68000 40.76100
H  1.23800 60.92700 41.05200
H  1.12800 56.14700 43.46900
H  0.42600 56.03500 41.78000
H  1.00100 57.53100 42.37900
H  5.44400 52.88900 42.30600
H  3.87600 49.33500 40.28200
H  5.61000 49.14600 40.09700
H  4.66700 50.27100 39.02500

