158

Mg 46.41300 24.84200 28.43600
C  47.29900 26.87900 31.20300
C  45.84100 22.33300 30.67200
C  46.01700 22.83800 25.78700
C  47.71900 27.36300 26.34700
N  46.57200 24.66400 30.69000
C  46.78200 25.65000 31.57600
C  46.45700 25.22000 33.02800
C  46.18200 23.62300 32.82100
C  46.21800 23.53800 31.27200
C  47.16800 22.68500 33.52200
C  45.24400 25.99600 33.69500
C  45.45500 26.87700 35.03000
H  44.52700 26.63300 36.24600
N  45.94200 22.89300 28.28700
C  45.69700 22.01700 29.32100
C  45.24900 20.76400 28.77200
C  45.19500 20.90000 27.39900
C  45.71600 22.25800 27.09200
C  45.14200 19.51900 29.67300
C  44.75700 19.81700 26.45700
O  44.90000 19.94400 25.21100
C  44.22600 18.58100 26.92200
N  46.98600 24.97800 26.44800
C  46.55400 24.09500 25.50000
C  46.91300 24.43600 24.08900
C  47.08100 26.01500 24.24500
C  47.33400 26.18900 25.78500
C  48.11600 23.59900 23.41500
C  45.85100 26.83800 23.73300
C  44.46000 26.19900 23.98300
N  47.28600 26.74300 28.66300
C  47.80400 27.58700 27.71400
C  48.33300 28.76100 28.39500
C  48.10400 28.56400 29.78100
C  47.52900 27.29100 29.88200
C  49.02400 29.99400 27.85200
C  48.27100 29.22400 31.11400
O  48.76300 30.32900 31.41900
C  47.72900 28.08000 32.08300
C  48.82700 27.71000 33.04500
O  49.74500 26.89300 32.79500
O  48.52500 28.33500 34.25400
C  49.35700 27.91400 35.35800
H  45.42400 21.64500 31.41000
H  45.93300 22.14300 24.95000
H  47.90000 28.27800 25.78000
H  47.38800 25.21200 33.59400
H  45.12800 23.50500 33.07500
H  47.65600 23.21800 34.33900
H  47.95000 22.36300 32.83400
H  46.45400 21.92400 33.83800
H  44.52500 25.20200 33.89900
H  44.88300 26.65900 32.90900
H  45.29200 27.92900 34.79200
H  46.51200 26.86000 35.29300
H  44.13200 19.15900 29.86800
H  45.74700 19.49100 30.58000
H  45.71000 18.72900 29.18100
H  44.92800 17.90400 27.40900
H  43.76500 18.06700 26.07800
H  43.46900 18.87700 27.64900
H  45.99800 24.12400 23.58500
H  48.01400 26.32500 23.77500
H  48.87800 24.28400 23.04300
H  47.66600 23.06500 22.57800
H  48.47200 22.87500 24.14800
H  45.95100 26.94500 22.65300
H  45.84200 27.86300 24.10300
H  44.19600 25.61900 23.09900
H  43.76200 27.00900 24.19500
H  44.40400 25.47600 24.79700
H  48.49000 30.91700 28.07700
H  49.35800 29.93900 26.81600
H  49.93500 30.09000 28.44300
H  46.80700 28.30100 32.62000
H  48.92000 27.05700 35.87000
H  49.36800 28.75600 36.04900
H  50.41200 27.78000 35.11800
Mg -1.49300 34.49600 26.47400
C  -3.27800 32.59800 29.00600
C  -0.93500 36.82400 28.93300
C  -0.63300 36.65600 24.06900
C  -3.20900 32.47500 24.06400
N  -2.12200 34.68500 28.72200
C  -2.60200 33.65300 29.58900
C  -2.37200 33.95700 31.06700
C  -1.75200 35.44200 31.02100
C  -1.64200 35.70800 29.47100
C  -2.47400 36.55700 31.79100
C  -1.56200 32.81900 31.83500
C  -2.19500 32.20900 33.09900
H  -1.32100 32.26000 34.36900
N  -0.67000 36.33700 26.52000
C  -0.50400 37.13400 27.61000
C  0.37700 38.14200 27.19700
C  0.50100 38.25500 25.80900
C  -0.30800 37.06900 25.38300
C  1.06900 39.10400 28.23500
C  1.24600 39.20000 24.88400
O  1.17700 39.08400 23.64900
C  2.06700 40.27100 25.51600
N  -1.83700 34.45300 24.37700
C  -1.30900 35.50000 23.60300
C  -1.49000 35.19300 22.07300
C  -2.17000 33.80900 22.06000
C  -2.40300 33.49400 23.58500
C  -2.32800 36.31900 21.25800
C  -1.28400 32.73300 21.39600
C  0.04800 32.33900 22.02000
N  -2.93600 32.84800 26.47100
C  -3.50200 32.15500 25.44500
C  -4.40800 31.08800 25.88100
C  -4.32000 31.24800 27.27200
C  -3.43700 32.35200 27.59500
C  -5.09000 30.20400 24.93900
C  -4.79600 30.69900 28.53900
O  -5.60200 29.81900 28.93800
C  -3.96600 31.51000 29.66300
C  -5.00400 31.99200 30.68300
O  -5.92200 32.84700 30.59700
O  -4.95800 31.24900 31.85000
C  -5.89300 31.61300 32.93400
H  -0.60900 37.54200 29.68800
H  -0.09300 37.24300 23.32400
H  -3.58400 31.80100 23.29100
H  -3.38800 34.06800 31.44600
H  -0.75700 35.38900 31.46200
H  -3.00000 37.18600 31.07300
H  -1.65700 37.06700 32.30200
H  -3.21200 36.14500 32.48000
H  -0.55900 33.17900 32.06500
H  -1.30500 32.01800 31.14100
H  -2.57400 31.21200 32.87600
H  -3.05200 32.85600 33.28800
H  1.11300 40.16100 27.97400
H  2.14800 38.96500 28.15800
H  0.71600 39.06600 29.26600
H  2.82100 39.90800 26.21400
H  1.46800 41.08100 25.93100
H  2.61000 40.65200 24.65100
H  -0.44600 35.20500 21.76000
H  -3.17400 33.89100 21.64300
H  -3.33900 35.98800 21.02000
H  -1.83400 36.67200 20.35300
H  -2.30900 37.16800 21.94100
H  -1.14600 32.91600 20.33000
H  -1.92800 31.85400 21.42200
H  0.15700 33.03700 22.85000
H  0.84200 32.41200 21.27700
H  0.15400 31.34200 22.44900
H  -4.51300 29.92700 24.05700
H  -6.09900 30.49500 24.64500
H  -5.26800 29.31000 25.53600
H  -3.43800 30.74600 30.23400
H  -5.38900 32.27600 33.63700
H  -6.14500 30.67000 33.42100
H  -6.86800 31.91700 32.55300

