158

Mg 25.45400 1.47600 29.14300
C  27.37800 1.03700 32.14600
C  22.64500 2.03700 31.07600
C  23.73100 1.83600 26.32700
C  28.26000 0.61800 27.25900
N  25.05500 1.50000 31.37800
C  26.04600 1.39600 32.38900
C  25.33300 1.68300 33.72800
C  23.87300 1.80700 33.31400
C  23.88600 1.83900 31.79500
C  22.74200 0.92700 34.03700
C  25.89500 2.88100 34.53700
C  26.58800 2.65700 35.86600
H  26.39500 3.73800 37.00200
N  23.47900 1.90600 28.75200
C  22.48000 1.96500 29.65800
C  21.24300 2.13500 29.03000
C  21.49100 1.92100 27.59300
C  22.93700 1.86000 27.49800
C  19.95500 2.39800 29.81300
C  20.47900 1.74800 26.46400
O  20.87800 1.63500 25.33000
C  19.00800 1.75200 26.70900
N  26.02100 1.42000 27.02500
C  25.11400 1.66000 26.08100
C  25.79000 1.59800 24.66800
C  27.23200 0.99400 24.95300
C  27.19200 0.99600 26.50600
C  25.16500 0.66000 23.59300
C  28.45100 1.68400 24.36200
C  28.58900 3.22800 24.64800
N  27.41500 0.89100 29.53200
C  28.43900 0.58300 28.66800
C  29.62400 0.33900 29.48700
C  29.28400 0.57400 30.80600
C  27.87500 0.85000 30.79200
C  30.89800 -0.23000 28.87100
C  29.81300 0.68700 32.14500
O  30.92900 0.40900 32.58500
C  28.58500 1.06300 32.98200
C  28.40300 0.03400 34.09400
O  27.57800 -0.86900 34.19200
O  29.23000 0.46900 35.13000
C  29.23800 -0.41200 36.33600
H  21.78900 2.30600 31.69800
H  23.09700 2.04100 25.46200
H  29.06400 0.35900 26.56600
H  25.47800 0.78400 34.32700
H  23.52800 2.80500 33.58500
H  22.24100 0.24800 33.34800
H  22.02500 1.53700 34.58500
H  23.27500 0.26100 34.71500
H  25.10300 3.59300 34.77000
H  26.60300 3.35600 33.85800
H  27.65100 2.46500 35.72600
H  26.16000 1.70200 36.17100
H  20.02200 3.44600 30.10500
H  19.81700 1.77800 30.69900
H  19.02700 2.33600 29.24500
H  18.51200 2.69500 26.93700
H  18.73200 0.97000 27.41700
H  18.55500 1.45500 25.76300
H  25.75800 2.63500 24.33400
H  27.37100 -0.04600 24.65700
H  24.80900 1.31300 22.79600
H  24.37000 0.14100 24.12800
H  25.84700 -0.00400 23.06200
H  28.25500 1.65000 23.29100
H  29.39000 1.14100 24.46600
H  28.30200 3.57200 25.64200
H  27.86600 3.76000 24.03100
H  29.60100 3.62500 24.57400
H  30.68000 -0.91100 28.04800
H  31.40900 -0.64800 29.73800
H  31.55800 0.57100 28.53800
H  28.70200 2.04800 33.43400
H  29.10200 -1.44500 36.01600
H  28.67100 -0.15200 37.23000
H  30.25700 -0.40900 36.72300
Mg 48.28300 34.46500 26.64300
C  46.54600 32.96500 29.25700
C  48.23800 37.46500 28.65800
C  49.61700 36.17800 24.13400
C  47.79900 31.64500 24.64800
N  47.49000 35.11800 28.66000
C  47.03000 34.26000 29.63700
C  47.09800 34.86300 31.04300
C  47.16300 36.34700 30.71600
C  47.75700 36.32100 29.28300
C  45.90000 37.13900 30.85200
C  48.25400 34.36900 31.90800
C  48.05600 34.03000 33.39400
H  47.25100 34.93800 34.31600
N  48.88700 36.48800 26.44600
C  48.80600 37.52900 27.34500
C  49.36300 38.69500 26.69400
C  49.80000 38.31100 25.38100
C  49.49700 36.92200 25.31800
C  49.46500 40.08000 27.26200
C  50.59300 39.14500 24.24100
O  51.03300 38.68800 23.17600
C  50.78800 40.61700 24.51200
N  48.69900 33.94600 24.74100
C  49.24700 34.82700 23.89400
C  49.38800 34.26400 22.49100
C  48.90000 32.78300 22.72100
C  48.44200 32.75500 24.11800
C  48.62200 34.96600 21.29400
C  49.94000 31.67300 22.45900
C  51.27300 31.83200 23.13100
N  47.36300 32.62500 26.83000
C  47.28000 31.54000 25.96100
C  46.32800 30.61000 26.56800
C  46.02600 31.07300 27.87200
C  46.73900 32.32300 27.99200
C  45.78200 29.41400 25.95900
C  45.44100 30.70200 29.13800
O  44.75400 29.76400 29.43800
C  45.53500 32.06200 29.93900
C  45.69300 31.75500 31.35800
O  46.48500 30.93600 31.71900
O  44.80500 32.40800 32.12900
C  44.78900 31.94000 33.56400
H  48.21300 38.36100 29.28100
H  49.87900 36.71100 23.21800
H  47.51800 30.78300 24.04000
H  46.23500 34.63100 31.66700
H  47.91300 36.87700 31.30400
H  45.93900 38.06000 30.27100
H  45.91800 37.47400 31.88900
H  45.03700 36.48300 30.73800
H  49.08600 35.06500 31.80200
H  48.56300 33.43600 31.43700
H  49.07500 34.05400 33.78000
H  47.85400 32.96700 33.52200
H  48.97900 40.03700 28.23600
H  49.09300 40.85300 26.58900
H  50.47000 40.30100 27.62100
H  49.76800 40.92900 24.74000
H  50.91900 41.11300 23.55100
H  51.52900 40.96900 25.22900
H  50.42700 34.25600 22.16200
H  48.00800 32.71400 22.09700
H  48.12100 35.80100 21.78300
H  47.90900 34.33700 20.76200
H  49.29800 35.34400 20.52600
H  50.06400 31.66900 21.37700
H  49.55700 30.66400 22.61100
H  52.07300 32.06700 22.42900
H  51.66400 30.97400 23.67600
H  51.28500 32.57700 23.92700
H  45.77400 29.56900 24.88000
H  44.80200 29.08800 26.30800
H  46.48700 28.58600 26.03800
H  44.54700 32.51100 29.83500
H  44.40900 32.69800 34.24900
H  45.76100 31.70100 33.99600
H  44.26400 30.98900 33.65900

