158

Mg 17.33900 -1.40900 27.53400
C  16.42100 0.50400 30.39300
C  19.66600 -3.11400 29.48000
C  18.67200 -2.86300 24.71700
C  15.70100 0.93100 25.61500
N  17.90500 -1.34200 29.69200
C  17.25200 -0.58500 30.69300
C  17.92500 -0.82400 32.08500
C  19.08200 -1.94600 31.69700
C  18.88500 -2.16000 30.18300
C  20.49800 -1.57600 32.24600
C  16.83500 -1.40900 33.07900
C  16.73500 -0.86500 34.53200
H  18.07300 -0.22800 34.98900
N  18.81200 -2.89200 27.13500
C  19.66800 -3.50100 28.06100
C  20.41000 -4.47700 27.44800
C  20.03000 -4.52200 26.05700
C  19.06400 -3.40300 25.89600
C  21.39800 -5.40900 28.23200
C  20.62100 -5.38900 24.99400
O  20.23600 -5.36400 23.81700
C  21.70400 -6.37400 25.34000
N  16.93500 -1.30300 25.52500
C  17.71800 -1.88300 24.52600
C  17.44100 -1.33400 23.07900
C  16.38800 -0.24800 23.37700
C  16.41200 -0.14500 24.91600
C  18.68200 -0.92300 22.24300
C  15.01800 -0.44800 22.81200
C  14.90400 -0.10500 21.34300
N  16.18400 0.30800 27.82600
C  15.59700 1.18300 26.94800
C  14.95800 2.25600 27.64700
C  15.15400 1.94600 28.99800
C  15.95100 0.80200 29.05100
C  14.21000 3.47600 27.14900
C  14.80700 2.39200 30.36700
O  14.06300 3.31500 30.73800
C  15.64300 1.43500 31.32900
C  16.51700 2.34600 32.09600
O  17.71500 2.58700 31.85900
O  15.68900 2.84200 33.07000
C  16.40600 3.75800 33.96100
H  20.31200 -3.71400 30.12500
H  19.19800 -3.28300 23.85700
H  15.18300 1.70900 25.05000
H  18.33300 0.12700 32.42800
H  18.83000 -2.92700 32.09900
H  20.92600 -2.29500 32.94500
H  20.50800 -0.59100 32.71200
H  21.12800 -1.51900 31.35800
H  17.06900 -2.46300 33.22800
H  15.85500 -1.12500 32.69400
H  16.37600 -1.68300 35.15600
H  16.01500 -0.04900 34.59200
H  21.50100 -5.33100 29.31400
H  22.37900 -5.45800 27.75900
H  20.88300 -6.36600 28.14100
H  21.26400 -7.13400 25.98600
H  22.35700 -5.64800 25.82500
H  22.17300 -6.89900 24.50800
H  17.00300 -2.10200 22.44100
H  16.81100 0.70900 23.07300
H  18.62000 -1.06100 21.16400
H  19.60000 -1.28200 22.70800
H  18.79100 0.15900 22.33100
H  14.25300 0.04200 23.41500
H  14.68400 -1.47800 22.93900
H  15.18600 -0.96400 20.73500
H  15.37300 0.84300 21.07600
H  13.83900 0.12300 21.29800
H  13.86200 3.34600 26.12400
H  14.87500 4.34000 27.11900
H  13.34900 3.58200 27.80900
H  14.96800 0.84100 31.94600
H  16.68300 4.67800 33.44600
H  17.37500 3.34000 34.23100
H  15.78900 3.83600 34.85700
Mg 40.81200 40.27600 27.69800
C  40.52900 42.99100 29.99200
C  41.80800 38.33700 30.39700
C  41.52300 37.88800 25.54200
C  40.09000 42.51100 25.18400
N  41.21700 40.71400 29.91900
C  40.93200 41.80800 30.63800
C  41.07500 41.61900 32.14000
C  41.66700 40.19400 32.17900
C  41.55600 39.68700 30.77200
C  43.08400 40.08600 32.78200
C  39.65500 41.64700 32.80900
C  39.57600 42.66400 34.04300
H  38.86400 42.20000 35.35100
N  41.50900 38.29300 27.93400
C  41.84200 37.67900 29.11300
C  42.16800 36.32600 28.78400
C  42.29600 36.21800 27.35100
C  41.78500 37.46500 26.85700
C  42.45000 35.28600 29.85100
C  42.73600 35.08200 26.48000
O  42.78200 35.09600 25.25300
C  43.11200 33.78600 27.09800
N  40.93000 40.15500 25.68500
C  41.02000 39.02800 24.99600
C  40.83900 39.27700 23.50400
C  40.22000 40.66500 23.46600
C  40.49000 41.18200 24.86300
C  42.05100 39.11200 22.66900
C  38.71400 40.77800 23.05500
C  37.67600 39.93000 23.79000
N  40.39100 42.37500 27.51500
C  40.05300 43.08800 26.42800
C  39.73100 44.40900 26.85800
C  39.83600 44.48200 28.24900
C  40.29100 43.16900 28.60100
C  39.40100 45.56500 25.93100
C  39.73400 45.31800 29.50600
O  39.50600 46.54500 29.60200
C  40.04400 44.35900 30.68100
C  41.07500 44.89500 31.52900
O  42.24800 44.69700 31.35100
O  40.61600 45.60500 32.52400
C  41.59100 46.09500 33.51000
H  41.93600 37.64200 31.23000
H  41.57200 37.00500 24.90300
H  39.87400 43.18700 24.35400
H  41.75000 42.37900 32.53500
H  41.07600 39.57800 32.85700
H  43.76600 40.88400 32.48600
H  43.49600 39.08500 32.65200
H  42.90800 40.18700 33.85300
H  39.26800 40.68900 33.15700
H  38.96800 42.05500 32.06600
H  39.07600 43.57900 33.72800
H  40.58800 42.86600 34.39600
H  41.86200 35.39600 30.76100
H  43.49600 35.44700 30.11500
H  42.26100 34.24200 29.60000
H  42.28300 33.33700 27.64500
H  43.99700 33.97100 27.70800
H  43.41800 33.13300 26.28100
H  40.16600 38.46300 23.23500
H  40.86900 41.27100 22.83400
H  42.89400 38.74300 23.25200
H  42.35600 40.02400 22.15700
H  41.96500 38.36700 21.87700
H  38.74300 40.30000 22.07600
H  38.55300 41.84500 22.90300
H  36.82500 40.60200 23.89700
H  37.95700 39.83100 24.83900
H  37.36100 39.02500 23.27100
H  39.74700 45.25300 24.94600
H  39.94000 46.47600 26.19200
H  38.34500 45.82300 25.85000
H  39.06600 44.36800 31.16200
H  42.30600 46.83100 33.14200
H  42.07200 45.27500 34.04400
H  41.08600 46.55900 34.35800

