158

Mg 1.73400 -1.11600 43.19800
C  5.07600 -1.31300 42.28200
C  1.42000 1.61600 40.85100
C  -1.59900 -1.44000 43.21100
C  2.01500 -4.37000 44.50400
N  3.06400 0.02100 41.74500
C  4.39600 -0.22900 41.65900
C  5.06500 0.82700 40.85600
C  4.00500 1.96000 40.68500
C  2.74400 1.13100 41.04000
C  4.10600 3.34900 41.38500
C  5.47900 0.29000 39.48700
C  6.81900 0.84700 38.82500
H  6.57700 1.61500 37.60900
N  0.12700 0.05600 42.38100
C  0.21700 1.09900 41.49500
C  -1.09000 1.75700 41.34600
C  -2.01200 0.84900 41.97300
C  -1.21500 -0.25300 42.58300
C  -1.28200 3.00000 40.49200
C  -3.49200 1.06800 42.08700
O  -3.96800 2.13100 41.70100
C  -4.41100 0.05700 42.81900
N  0.36900 -2.60600 43.97000
C  -0.94000 -2.54200 43.81400
C  -1.71600 -3.90300 44.03700
C  -0.56300 -4.67900 44.60900
C  0.69900 -3.90300 44.32100
C  -3.03900 -3.95800 44.85400
C  -0.54900 -6.21700 44.11300
C  -0.72600 -7.20800 45.27900
N  3.29300 -2.57100 43.49700
C  3.28900 -3.82900 44.07900
C  4.65200 -4.34400 44.06100
C  5.39900 -3.32500 43.47500
C  4.47500 -2.33300 43.07800
C  5.05400 -5.63500 44.51800
C  6.71600 -2.98600 42.97900
O  7.70200 -3.69100 43.05500
C  6.60900 -1.62400 42.25100
C  7.30600 -0.56300 43.16100
O  6.93200 -0.23700 44.27100
O  8.36200 0.00500 42.47300
C  8.97300 1.20000 43.02900
H  1.42300 2.50700 40.22000
H  -2.65800 -1.70500 43.22900
H  2.12200 -5.39200 44.87300
H  5.88900 1.28600 41.40300
H  3.97500 2.20400 39.62300
H  3.19000 3.70600 41.85600
H  4.38800 4.01900 40.57400
H  4.90700 3.26700 42.12000
H  4.58500 0.38600 38.87100
H  5.75200 -0.74600 39.68800
H  7.46500 -0.01400 38.65200
H  7.29700 1.45600 39.59200
H  -0.65100 3.20700 39.62700
H  -1.12700 3.84500 41.16200
H  -2.29300 3.11600 40.10300
H  -5.40600 0.49400 42.73600
H  -3.93300 -0.04200 43.79300
H  -4.26100 -0.79200 42.15200
H  -1.88700 -4.23000 43.01100
H  -0.73500 -4.54900 45.67800
H  -2.87500 -4.35500 45.85500
H  -3.86300 -4.44000 44.32800
H  -3.37300 -2.92300 44.92800
H  0.38600 -6.54500 43.65900
H  -1.37700 -6.34500 43.41600
H  -0.70900 -6.58900 46.17600
H  -0.02100 -8.04000 45.27100
H  -1.70300 -7.68900 45.23400
H  5.15900 -6.30300 43.66400
H  4.30500 -5.92900 45.25400
H  6.02900 -5.52200 44.99100
H  7.09500 -1.72900 41.28100
H  8.69300 2.11300 42.50400
H  10.05400 1.07600 42.96300
H  8.71000 1.38400 44.07000
Mg 47.99600 34.02400 26.95300
C  46.11400 32.99500 29.62900
C  48.59200 36.99300 28.55900
C  49.56400 35.37500 24.06800
C  47.18900 31.26500 25.13300
N  47.52400 34.78300 28.94700
C  46.75000 34.16800 29.90400
C  46.83800 34.97700 31.19000
C  47.39000 36.36500 30.72600
C  47.82400 36.05700 29.32400
C  46.54700 37.60100 30.92100
C  47.74300 34.28200 32.20800
C  47.63500 34.58200 33.72600
H  47.13200 35.91100 34.15200
N  49.20000 35.81500 26.41900
C  49.20000 36.92500 27.25800
C  50.00700 37.95100 26.62000
C  50.19000 37.62300 25.23500
C  49.67600 36.20100 25.16700
C  50.41300 39.19100 27.33400
C  50.75100 38.37700 24.02900
O  50.93400 37.84900 22.97400
C  51.04300 39.81400 24.08200
N  48.46300 33.40600 25.01300
C  49.08900 34.07900 23.95000
C  49.19000 33.21300 22.68000
C  48.79300 31.84500 23.22300
C  48.11200 32.18700 24.55900
C  48.44600 33.80500 21.49000
C  49.82400 30.71500 23.46200
C  51.13400 30.84100 22.70400
N  46.79200 32.51100 27.19600
C  46.62800 31.42200 26.42600
C  45.73300 30.50500 27.11700
C  45.41600 31.18700 28.32800
C  46.12300 32.37500 28.38300
C  45.21400 29.16300 26.52700
C  44.66500 31.00200 29.52700
O  44.04700 30.03000 29.95300
C  45.01900 32.27100 30.40200
C  45.16300 31.65300 31.76800
O  46.12100 30.95800 32.18400
O  44.20000 32.04700 32.57000
C  44.12000 31.58800 33.96100
H  48.82000 37.94400 29.04500
H  49.95100 35.68700 23.09500
H  46.95900 30.38300 24.53200
H  45.86100 35.02400 31.67100
H  48.30700 36.55500 31.28500
H  47.12500 38.26300 31.56600
H  45.60800 37.29400 31.38100
H  46.29100 38.12000 29.99700
H  48.69800 34.55800 31.76200
H  47.57800 33.20900 32.11000
H  48.57800 34.43100 34.25200
H  47.01600 33.75600 34.07700
H  51.46000 39.36500 27.08700
H  50.34200 39.08500 28.41600
H  49.62500 39.86300 26.99500
H  50.32600 40.41300 24.64400
H  51.27900 40.21900 23.09900
H  51.99800 39.82500 24.60700
H  50.23800 33.22300 22.37900
H  48.04600 31.32100 22.62700
H  48.21200 34.84800 21.70300
H  47.59500 33.13300 21.37500
H  49.05300 33.71700 20.58900
H  49.45800 29.69000 23.41000
H  50.12100 30.80800 24.50700
H  50.97500 31.37000 21.76400
H  51.42700 29.80000 22.56900
H  51.92000 31.30100 23.30200
H  45.52100 29.14200 25.48100
H  44.13600 29.03200 26.43600
H  45.49200 28.25200 27.05800
H  44.16500 32.94900 30.38200
H  43.91500 30.51900 33.90700
H  43.32300 32.15800 34.43800
H  45.05900 31.65100 34.51100

