158

Mg 25.02700 0.51400 29.43100
C  27.35300 0.37000 32.09300
C  22.58400 0.83200 31.72100
C  22.87000 0.41500 26.92000
C  27.69200 -0.31500 27.22400
N  25.02100 0.63000 31.64800
C  26.05000 0.57000 32.53800
C  25.55200 0.74400 33.94200
C  24.03500 0.69000 33.79800
C  23.83500 0.73800 32.30500
C  23.42800 -0.67100 34.37300
C  26.09400 2.04700 34.67000
C  26.75600 1.72400 36.01800
H  26.30500 2.55000 37.33300
N  22.96800 0.72000 29.37300
C  22.16200 0.80600 30.42500
C  20.82200 1.09100 30.01300
C  20.79900 0.99400 28.61400
C  22.22900 0.66300 28.19000
C  19.63200 1.46300 30.98000
C  19.73900 1.23900 27.71400
O  19.92000 1.28800 26.52700
C  18.30600 1.41600 28.07100
N  25.19300 -0.10900 27.37700
C  24.16800 0.11800 26.56500
C  24.62900 -0.01100 25.11400
C  26.14400 -0.16500 25.20200
C  26.40600 -0.18200 26.68700
C  23.84200 -1.12200 24.37100
C  26.93400 0.93100 24.43300
C  26.47300 1.24600 22.99800
N  27.09300 0.10300 29.53700
C  28.04400 -0.17900 28.58300
C  29.29200 -0.29600 29.16100
C  29.12500 -0.01700 30.51600
C  27.70400 0.13100 30.75000
C  30.64300 -0.62100 28.59700
C  29.76700 0.06400 31.83700
O  30.94400 -0.08900 32.16900
C  28.68200 0.52200 32.86000
C  28.68700 -0.45600 33.96500
O  27.95800 -1.41400 34.04900
O  29.62100 -0.09000 34.91500
C  29.72200 -1.09100 36.03900
H  21.78800 0.99700 32.45000
H  22.16200 0.38500 26.08800
H  28.51900 -0.60100 26.57100
H  25.76600 -0.19000 34.46100
H  23.54600 1.53500 34.28200
H  23.17100 -1.30300 33.52300
H  22.47400 -0.34100 34.78300
H  24.08200 -1.24700 35.02900
H  25.21000 2.67900 34.75400
H  26.88300 2.46200 34.04300
H  27.78700 2.05900 35.90300
H  26.73200 0.65300 36.21800
H  19.05600 0.54600 30.85100
H  19.04700 2.31200 30.62700
H  19.86800 1.58300 32.03700
H  18.06400 0.76500 28.91100
H  17.69100 1.29900 27.17900
H  18.26700 2.46200 28.37700
H  24.29200 0.91200 24.64200
H  26.40900 -1.17200 24.87900
H  23.25400 -1.66500 25.10900
H  24.56400 -1.84900 23.99900
H  23.19600 -0.77200 23.56600
H  27.85500 0.42600 24.14200
H  27.17000 1.81900 25.01800
H  25.74000 0.51700 22.65100
H  27.30300 1.07500 22.31400
H  26.01700 2.21900 22.81400
H  30.75400 -0.62100 27.51300
H  30.98600 -1.58500 28.97400
H  31.38300 0.13100 28.86900
H  28.84800 1.52900 33.24400
H  30.02500 -2.07800 35.69000
H  28.75400 -1.13900 36.53800
H  30.50100 -0.71600 36.70200
Mg 45.19600 5.23500 46.86200
C  42.81400 7.75600 46.16000
C  42.75000 2.90100 46.48400
C  47.60200 2.74200 47.19300
C  47.68400 7.55100 46.84000
N  42.96200 5.30400 46.22300
C  42.23500 6.47500 46.09900
C  40.72400 6.16600 46.06800
C  40.77300 4.56100 46.18000
C  42.21500 4.18100 46.27400
C  40.01900 3.96800 47.35900
C  39.86700 6.75500 44.90600
C  40.34200 6.34800 43.53500
H  40.64300 7.48000 42.50700
N  45.15900 3.11900 46.84100
C  44.03600 2.36300 46.70700
C  44.36700 1.01300 46.71700
C  45.78500 0.94500 46.85400
C  46.25900 2.31700 46.91700
C  43.36300 -0.11800 46.52900
C  46.53600 -0.33400 46.93000
O  45.95100 -1.41800 46.86100
C  48.00200 -0.39900 47.01800
N  47.45500 5.10400 46.66300
C  48.15500 4.06600 47.07100
C  49.66900 4.39800 47.10200
C  49.63300 5.90700 47.25100
C  48.18600 6.26100 46.79800
C  50.44200 3.56500 48.14900
C  50.82000 6.55000 46.47300
C  52.03900 6.93400 47.33100
N  45.32300 7.26800 46.58600
C  46.38800 8.10100 46.59800
C  45.94200 9.47200 46.62100
C  44.57500 9.37700 46.39100
C  44.25800 7.98100 46.40700
C  46.78500 10.66100 46.79600
C  43.40300 10.17100 46.20900
O  43.26200 11.35700 46.27900
C  42.16000 9.13100 46.03800
C  41.23700 9.30100 47.23100
O  41.20900 8.64500 48.27700
O  40.36700 10.27000 46.84000
C  39.29200 10.57700 47.82500
H  41.91800 2.25100 46.20600
H  48.43700 2.04500 47.28600
H  48.43600 8.33600 46.95000
H  40.32700 6.58100 46.99400
H  40.31900 4.07200 45.31900
H  40.21100 4.68500 48.15700
H  40.29100 2.92900 47.54300
H  38.95500 3.95600 47.12300
H  39.90700 7.83800 45.02100
H  38.80400 6.53100 44.98700
H  39.61600 5.74300 42.99200
H  41.26300 5.77400 43.64200
H  43.61900 -0.77400 45.69700
H  42.40800 0.27800 46.18400
H  43.25200 -0.74400 47.41500
H  48.34500 0.26500 46.22500
H  48.35200 -1.40700 46.79500
H  48.47600 -0.17400 47.97400
H  49.98200 4.19900 46.07700
H  49.77700 6.12800 48.30900
H  50.93400 4.26200 48.82800
H  51.14300 2.84300 47.73000
H  49.78800 2.91800 48.73500
H  50.51600 7.48500 46.00400
H  51.23000 5.90800 45.69400
H  51.96200 6.56300 48.35400
H  52.20600 7.99800 47.49400
H  52.92200 6.54200 46.82700
H  47.67800 10.60400 47.41900
H  46.03400 11.36400 47.15700
H  47.12000 10.99400 45.81400
H  41.69700 9.33700 45.07300
H  38.29800 10.72100 47.40000
H  39.38800 11.57200 48.25900
H  39.17700 9.76000 48.53800

