158

Mg 41.02000 8.21300 29.84600
C  42.57600 9.69200 32.72100
C  38.80600 6.60000 32.01600
C  39.90100 6.61300 27.26100
C  43.68200 9.56600 27.81800
N  40.67400 8.31100 32.17400
C  41.54300 8.88000 33.10700
C  40.82500 8.75500 34.47100
C  39.70000 7.66600 34.23600
C  39.71100 7.53400 32.70900
C  39.99900 6.32500 34.91700
C  40.26800 10.09700 34.97500
C  39.66000 10.20600 36.37500
H  40.37400 11.21900 37.31500
N  39.50900 6.87000 29.67500
C  38.71500 6.30600 30.63900
C  37.70400 5.50300 30.00000
C  37.90700 5.57800 28.57400
C  39.18000 6.32500 28.43900
C  36.65800 4.58000 30.68600
C  37.07800 4.97200 27.46600
O  37.25600 5.13900 26.31400
C  35.82500 4.24700 27.75300
N  41.83000 8.00800 27.90200
C  41.01100 7.47500 26.99900
C  41.70100 7.52900 25.59500
C  42.63100 8.78600 25.79300
C  42.74700 8.70600 27.32300
C  42.38200 6.23700 25.08000
C  42.28200 10.18100 25.18400
C  40.86000 10.65100 25.06900
N  42.85800 9.37100 30.13900
C  43.74900 9.87000 29.22900
C  44.66600 10.68500 30.02300
C  44.26400 10.76500 31.36000
C  43.16900 9.86700 31.36900
C  45.74700 11.44600 29.33500
C  44.50700 11.21800 32.67700
O  45.46500 11.89900 33.05700
C  43.42100 10.55000 33.65900
C  44.17100 9.75400 34.65700
O  45.14900 9.05000 34.37300
O  43.71400 10.06800 35.87700
C  44.18900 9.30200 37.06800
H  38.00800 6.10800 32.57600
H  39.50400 6.18100 26.34000
H  44.38500 10.14100 27.21300
H  41.60000 8.35800 35.12700
H  38.78600 8.07400 34.66900
H  41.02700 6.28700 35.27500
H  39.90200 5.60300 34.10700
H  39.39200 6.19900 35.81400
H  39.55200 10.22300 34.16200
H  40.93100 10.95800 34.90200
H  39.94900 9.28500 36.88100
H  38.58800 10.39100 36.43700
H  35.57500 4.64700 30.58200
H  36.76600 4.71500 31.76200
H  36.92700 3.58800 30.32400
H  36.00100 3.29500 28.25300
H  35.28800 4.12500 26.81200
H  35.26700 4.89400 28.43000
H  40.91100 7.85700 24.91900
H  43.60600 8.57200 25.35400
H  43.40800 6.40000 24.74900
H  41.75500 5.84200 24.28100
H  42.43300 5.51200 25.89200
H  42.63900 10.18300 24.15400
H  42.82800 10.91400 25.77800
H  40.24400 10.05000 25.73800
H  40.49400 10.50700 24.05300
H  40.65900 11.69100 25.32500
H  45.50600 11.69400 28.30100
H  46.65300 10.86900 29.52100
H  45.86400 12.32500 29.96900
H  42.88600 11.37600 34.12600
H  44.26700 8.23800 36.84500
H  43.58000 9.54900 37.93800
H  45.21800 9.62500 37.22600
Mg 46.48800 35.24600 28.79000
C  45.00300 33.46400 31.11300
C  46.66600 37.92800 31.15000
C  48.10200 37.16200 26.48300
C  46.11100 32.75000 26.42800
N  46.00100 35.63100 30.91900
C  45.43700 34.65200 31.65600
C  45.55200 35.03900 33.11100
C  45.58200 36.60100 33.06000
C  46.15700 36.76200 31.64000
C  44.13000 37.17400 33.29100
C  46.91500 34.43800 33.65300
C  46.86700 34.09200 35.13300
H  45.89900 34.70300 36.09100
N  47.09200 37.23300 28.73900
C  47.07700 38.11600 29.79300
C  47.58700 39.41400 29.29600
C  48.03700 39.21600 27.97600
C  47.74300 37.77700 27.61900
C  47.54300 40.56700 30.20700
C  48.55900 40.24000 26.98600
O  48.94900 39.92300 25.85800
C  48.75700 41.58400 27.40400
N  46.99100 34.95700 26.68500
C  47.73200 35.89900 25.98700
C  48.22300 35.29500 24.64900
C  47.57100 33.89000 24.67000
C  46.81600 33.86100 25.98000
C  47.78800 36.20900 23.54200
C  48.56600 32.67000 24.42400
C  48.26200 31.79300 23.14800
N  45.83200 33.48700 28.74500
C  45.58900 32.54700 27.72300
C  45.09000 31.27400 28.30500
C  44.79800 31.62100 29.64900
C  45.25800 32.95200 29.82400
C  44.86400 29.91600 27.56700
C  44.23900 31.17100 30.85700
O  43.83200 30.06200 31.13100
C  44.27200 32.33000 31.85400
C  44.98100 31.76000 32.97500
O  46.14900 31.41400 33.01800
O  44.12800 31.73000 33.97200
C  44.59100 30.80700 35.01300
H  46.69500 38.74500 31.87400
H  48.76200 37.69800 25.79800
H  45.85500 31.88800 25.80900
H  44.67900 34.64000 33.62800
H  46.29600 36.97400 33.79500
H  43.93500 37.20600 34.36300
H  43.43900 36.55600 32.71800
H  44.11100 38.22100 32.99000
H  47.65800 35.22500 33.52600
H  47.30800 33.64100 33.02100
H  47.84300 34.42900 35.48200
H  46.72100 33.01200 35.11400
H  47.75800 41.53000 29.74500
H  48.19700 40.34000 31.04900
H  46.49500 40.53200 30.50400
H  49.30100 42.12500 26.63000
H  49.38100 41.40100 28.27800
H  47.78800 42.03400 27.62400
H  49.31300 35.29500 24.61000
H  46.77200 33.96200 23.93100
H  47.01700 36.90600 23.87200
H  47.37500 35.57800 22.75500
H  48.54200 36.70200 22.92900
H  48.47400 32.07600 25.33200
H  49.62800 32.91700 24.40700
H  48.12400 30.76100 23.47100
H  49.04100 31.83500 22.38700
H  47.39500 32.15200 22.59400
H  44.95500 29.04700 28.21700
H  45.54900 29.92400 26.71900
H  43.86200 29.92200 27.13800
H  43.24000 32.64600 32.00600
H  44.98700 29.89400 34.56900
H  43.67400 30.61000 35.56900
H  45.29700 31.26200 35.70700

