158

Mg 47.76600 25.04300 28.44100
C  49.01300 27.21300 30.99200
C  46.96500 22.83500 30.81600
C  47.65400 22.86000 26.09500
C  49.04700 27.51900 26.12800
N  47.88200 25.16200 30.63100
C  48.21400 26.19000 31.47300
C  47.90000 25.88700 32.89800
C  47.44500 24.37700 32.79000
C  47.39400 24.06500 31.33300
C  48.21400 23.45300 33.73800
C  46.99800 27.02400 33.55000
C  46.09500 26.72100 34.74700
H  46.04500 27.74800 35.90900
N  47.32100 23.07800 28.44000
C  46.95900 22.31300 29.53600
C  46.54800 20.97600 29.19900
C  46.86200 20.93400 27.80000
C  47.28600 22.28600 27.37300
C  45.98000 19.87800 30.12200
C  46.77100 19.73000 26.81900
O  47.17100 19.87100 25.65300
C  46.20200 18.33300 27.35100
N  48.24700 25.13200 26.38900
C  48.08700 24.09300 25.62000
C  48.31900 24.47200 24.13500
C  48.49800 25.98500 24.15300
C  48.55500 26.26900 25.63000
C  49.66500 23.78400 23.57500
C  47.33900 26.76600 23.30700
C  47.74200 27.35100 22.00200
N  48.81500 26.98300 28.49000
C  49.19700 27.85800 27.50600
C  49.96300 28.96700 28.05200
C  49.86600 28.85900 29.41700
C  49.23600 27.54300 29.61700
C  50.43400 30.12100 27.22600
C  50.07100 29.47700 30.77400
O  50.68500 30.47800 31.14300
C  49.47400 28.42700 31.78900
C  50.54400 28.17100 32.75100
O  51.42600 27.38500 32.48000
O  50.30600 28.72700 34.00400
C  51.27700 28.33000 35.05400
H  46.63800 22.12500 31.57900
H  47.56500 22.17500 25.24900
H  49.33800 28.30200 25.42600
H  48.86100 26.05700 33.38300
H  46.39300 24.42500 33.07000
H  48.93500 23.98700 34.35600
H  48.76700 22.69200 33.18700
H  47.47600 22.94100 34.35600
H  46.27200 27.16200 32.74800
H  47.66500 27.84900 33.80100
H  46.43500 25.73600 35.06900
H  45.08100 26.50200 34.41000
H  44.98400 19.67800 29.72700
H  45.83200 20.34200 31.09700
H  46.58600 18.97500 30.19300
H  45.26500 18.42700 27.89900
H  46.97600 18.03700 28.05900
H  46.13300 17.62100 26.52900
H  47.52100 24.04700 23.52600
H  49.48100 26.25400 23.76500
H  50.53200 24.44200 23.63200
H  49.64400 23.46500 22.53300
H  49.85900 22.91800 24.20700
H  47.11900 27.62600 23.93900
H  46.44800 26.13900 23.31900
H  47.13100 26.95600 21.19100
H  48.75200 27.05700 21.71600
H  47.69400 28.43900 21.97100
H  50.83600 29.77000 26.27500
H  51.09500 30.77400 27.79500
H  49.62900 30.83300 27.04600
H  48.65000 28.95300 32.27100
H  52.26100 28.79800 35.07100
H  51.37400 27.24900 34.95800
H  50.88700 28.73400 35.98900
Mg 9.54500 47.93500 25.95200
C  7.79200 47.88000 29.00400
C  12.37500 48.62400 27.72800
C  11.02000 47.94100 23.03300
C  6.48400 47.01300 24.38700
N  9.90700 48.52000 28.09900
C  9.15500 48.36800 29.17700
C  9.88600 48.84600 30.47600
C  11.22800 49.33600 29.94000
C  11.23200 48.83500 28.50500
C  11.51600 50.95600 30.18100
C  9.94300 47.69000 31.45600
C  10.95700 47.92900 32.53100
H  10.56500 47.55300 33.99100
N  11.39700 48.36500 25.42100
C  12.49500 48.44500 26.27700
C  13.68700 48.57800 25.47800
C  13.34500 48.19900 24.18800
C  11.88100 48.08500 24.16700
C  15.06400 48.81800 26.11500
C  14.23600 47.87400 23.03200
O  13.84400 47.45500 21.95900
C  15.69600 47.99600 23.13900
N  8.83500 47.62200 23.91300
C  9.67700 47.58200 22.90900
C  8.94400 47.31400 21.59100
C  7.64300 46.78300 22.09400
C  7.60000 47.18300 23.58000
C  8.77800 48.72400 20.90800
C  7.41300 45.23800 21.93100
C  8.37400 44.28200 22.64600
N  7.47700 47.68600 26.50200
C  6.44100 47.22000 25.74300
C  5.21800 47.02700 26.60300
C  5.74200 47.24500 27.89500
C  7.10900 47.65800 27.76400
C  3.85700 46.72600 26.09200
C  5.38900 47.24100 29.35800
O  4.34800 46.97100 29.86700
C  6.69800 47.62100 30.18400
C  6.95400 46.34400 30.95500
O  7.71900 45.41600 30.65400
O  6.20100 46.30800 32.10100
C  6.57200 45.28700 33.11500
H  13.32200 48.56800 28.26900
H  11.50600 48.02200 22.05800
H  5.62400 46.65100 23.82100
H  9.25700 49.61400 30.92600
H  12.03500 48.75500 30.38600
H  11.76100 51.44000 29.23600
H  12.42200 51.05200 30.78000
H  10.72700 51.31300 30.84300
H  10.09800 46.68000 31.07600
H  8.99200 47.70700 31.98700
H  11.29600 48.96500 32.56600
H  11.82600 47.35200 32.21500
H  14.95900 49.13000 27.15400
H  15.57000 49.55700 25.49400
H  15.59200 47.86600 26.08000
H  16.19100 47.23500 23.74200
H  15.92900 49.01800 23.43800
H  16.08400 47.81800 22.13600
H  9.48700 46.63600 20.93300
H  6.77900 47.24200 21.61400
H  9.34400 48.85200 19.98600
H  9.07300 49.50900 21.60500
H  7.73700 48.94200 20.66800
H  7.39400 45.01600 20.86400
H  6.40200 44.98900 22.25300
H  8.98600 44.80400 23.38100
H  9.02000 43.79500 21.91500
H  7.78300 43.58800 23.24400
H  3.46200 47.70100 25.80700
H  3.26700 46.42900 26.96000
H  3.89000 45.97200 25.30600
H  6.48500 48.46400 30.84200
H  7.62700 45.35700 33.38200
H  6.41300 44.29600 32.69000
H  5.96400 45.37000 34.01500

