158

Mg 44.81900 3.66200 46.87100
C  42.69600 6.42600 46.92600
C  42.10000 1.56600 46.94800
C  46.93700 1.16400 46.44700
C  47.61500 5.99500 46.87300
N  42.63400 3.99400 46.75100
C  41.99200 5.18700 46.73500
C  40.43700 5.03700 46.88400
C  40.24700 3.46100 47.07700
C  41.74100 2.93600 46.90600
C  39.52900 2.96700 48.35200
C  39.56700 5.65900 45.79400
C  39.84800 5.25800 44.42100
H  40.22900 6.40700 43.52400
N  44.56900 1.66000 46.64300
C  43.36300 0.97200 46.75500
C  43.70100 -0.39100 46.68000
C  45.01000 -0.59400 46.26800
C  45.61700 0.75200 46.43600
C  42.62700 -1.45400 46.86200
C  45.71400 -1.90700 45.86500
O  45.11700 -2.98200 45.83600
C  47.13000 -1.94100 45.54100
N  46.94600 3.65700 46.40900
C  47.49900 2.40300 46.54200
C  48.96800 2.44700 46.81500
C  49.26700 4.03000 46.62800
C  47.86400 4.65200 46.75600
C  49.41000 1.81400 48.19700
C  50.14700 4.50800 45.45600
C  51.65300 4.18200 45.66200
N  45.11700 5.77900 46.82900
C  46.31600 6.52700 46.87300
C  45.88600 7.91600 47.07000
C  44.48300 7.90100 47.09300
C  44.07100 6.53900 46.99400
C  46.83300 9.13800 47.16700
C  43.36000 8.80900 47.33400
O  43.23700 10.02800 47.47900
C  42.15400 7.86600 47.23800
C  41.40300 7.82500 48.45700
O  41.74500 7.15200 49.40600
O  40.15700 8.36900 48.27500
C  39.22100 8.38100 49.40500
H  41.19900 0.94900 46.93600
H  47.63400 0.34900 46.24100
H  48.46100 6.68600 46.87300
H  40.10200 5.49400 47.81500
H  39.73900 3.08000 46.19100
H  38.83100 2.22700 47.96100
H  39.06000 3.73000 48.97300
H  40.21400 2.42400 49.00300
H  39.73100 6.73200 45.89900
H  38.50900 5.51500 46.01400
H  38.91000 4.84300 44.05300
H  40.70200 4.59800 44.26600
H  41.76500 -1.17400 47.46700
H  43.03300 -2.35300 47.32500
H  42.28600 -1.77600 45.87800
H  47.67800 -1.76900 46.46700
H  47.30500 -1.19500 44.76600
H  47.29200 -2.93100 45.11500
H  49.53300 1.91600 46.04900
H  49.77300 4.36600 47.53300
H  50.22700 1.11700 48.01200
H  48.62900 1.15100 48.56900
H  49.72000 2.60600 48.87800
H  50.01200 5.57700 45.29400
H  49.79300 3.93800 44.59700
H  52.03700 3.51700 44.88900
H  51.82300 3.84800 46.68600
H  52.19500 5.12800 45.62300
H  47.83500 8.76700 47.38100
H  46.35100 9.65300 47.99800
H  46.77400 9.77500 46.28500
H  41.50700 8.12000 46.39800
H  38.38500 7.76300 49.07700
H  38.88400 9.39600 49.61800
H  39.49900 7.80800 50.28900
Mg 30.10000 57.60700 40.53000
C  27.08500 56.16800 39.44900
C  31.79500 55.01800 39.08700
C  32.77700 59.72600 40.26200
C  28.18200 60.54700 41.44200
N  29.46600 55.92200 39.35100
C  28.19200 55.41300 39.11900
C  28.23500 54.06600 38.42600
C  29.75700 53.71100 38.51100
C  30.35100 54.90700 39.06200
C  30.03300 52.47000 39.52800
C  27.64100 54.10100 36.95200
C  27.96700 55.35600 36.15600
H  27.92600 55.26900 34.62100
N  32.02300 57.37200 39.81400
C  32.51500 56.24500 39.33200
C  33.90400 56.49700 39.14800
C  34.23500 57.83600 39.34000
C  33.01700 58.43300 39.80300
C  34.80700 55.37100 38.70000
C  35.64900 58.49200 39.16300
O  36.58300 57.89700 38.62900
C  35.90200 59.97800 39.64500
N  30.53500 59.70700 41.20200
C  31.73700 60.27900 40.98900
C  31.67100 61.78800 41.24300
C  30.18400 62.05100 41.63600
C  29.58400 60.63300 41.39900
C  32.75400 62.32300 42.22500
C  29.56700 63.16700 40.81200
C  28.86900 64.21800 41.65400
N  28.11600 58.12700 40.78400
C  27.47800 59.35100 41.13900
C  26.05700 59.20900 41.00000
C  25.82500 57.96200 40.39500
C  27.12000 57.35000 40.20800
C  24.96200 60.15600 41.35300
C  24.80800 57.08200 39.83800
O  23.58600 57.11300 39.86100
C  25.65700 55.87800 39.21400
C  25.16800 54.59300 39.81600
O  25.22900 54.33800 40.98600
O  24.52100 53.81300 38.93700
C  23.92100 52.61100 39.49900
H  32.39200 54.17700 38.72800
H  33.63700 60.39000 40.14700
H  27.56900 61.38900 41.77100
H  27.59000 53.36700 38.95800
H  30.11600 53.51800 37.50000
H  30.82200 52.81600 40.19600
H  30.24200 51.68000 38.80700
H  29.22200 52.11800 40.16600
H  26.60000 53.78300 37.01800
H  28.13200 53.25800 36.46600
H  28.96900 55.73900 36.35100
H  27.23400 56.12900 36.38800
H  35.51900 55.65900 37.92600
H  34.36800 54.40200 38.46600
H  35.48400 55.13900 39.52200
H  35.39700 60.63100 38.93300
H  36.96300 60.20300 39.53400
H  35.64000 60.10600 40.69500
H  31.97600 62.28000 40.32000
H  30.05300 62.33400 42.68000
H  33.45700 63.01100 41.75500
H  33.33400 61.51500 42.67000
H  32.36700 62.93500 43.04000
H  28.79100 62.86700 40.10700
H  30.29700 63.66000 40.17000
H  29.10300 64.15500 42.71700
H  27.80000 64.18100 41.44600
H  29.29800 65.18600 41.39300
H  25.36500 60.90400 42.03600
H  24.15500 59.61100 41.84200
H  24.59600 60.64300 40.44900
H  25.50700 55.88000 38.13500
H  23.69300 51.96000 38.65500
H  22.96600 52.73500 40.01000
H  24.55400 52.05000 40.18700

