158

Mg 47.51200 15.75700 28.43500
C  45.34500 15.47100 31.46200
C  49.72100 17.09400 30.50000
C  49.00500 16.66900 25.71500
C  44.76600 14.40900 26.67700
N  47.48300 16.19300 30.74200
C  46.57100 16.05600 31.72400
C  47.07000 16.53000 33.07600
C  48.51100 17.12100 32.72600
C  48.58100 16.70200 31.19900
C  48.68900 18.66400 33.02400
C  47.14400 15.45300 34.13800
C  46.87500 15.82300 35.56300
H  47.07300 17.27300 36.00600
N  49.19200 16.61400 28.14700
C  50.00300 17.08800 29.13800
C  51.16600 17.61600 28.52000
C  51.01700 17.50200 27.13500
C  49.68000 16.92900 26.94500
C  52.32500 18.18600 29.35800
C  51.91000 17.96900 26.05700
O  51.70700 17.85100 24.81800
C  53.23200 18.73700 26.38400
N  46.91200 15.68600 26.47700
C  47.75500 16.04200 25.51200
C  47.20500 15.70600 24.12300
C  45.95900 14.81000 24.37200
C  45.82200 14.95500 25.92600
C  46.79800 16.97500 23.45700
C  46.11000 13.30700 23.87700
C  47.06400 12.36500 24.62400
N  45.59200 15.04300 28.94100
C  44.61100 14.54800 28.05700
C  43.49200 14.11200 28.75300
C  43.68200 14.58800 30.07200
C  44.98100 15.11500 30.14200
C  42.28800 13.47200 28.22400
C  43.03500 14.64200 31.38800
O  41.90900 14.30700 31.67000
C  44.12600 15.18700 32.39100
C  43.69500 16.42000 33.04300
O  43.39400 17.48800 32.45200
O  43.75300 16.33400 34.42300
C  43.30500 17.63500 35.01700
H  50.40800 17.59700 31.18400
H  49.59100 16.94000 24.83400
H  43.97300 13.89800 26.12700
H  46.34900 17.29500 33.36200
H  49.26300 16.58000 33.29900
H  47.84300 18.93100 33.65700
H  48.72500 19.27100 32.11900
H  49.50800 19.05900 33.62600
H  48.11400 14.95900 34.19600
H  46.51400 14.60400 33.87000
H  47.55100 15.12400 36.05500
H  45.86200 15.45900 35.73800
H  53.29900 17.73900 29.15500
H  52.12600 18.24700 30.42800
H  52.42900 19.24000 29.10300
H  53.90100 18.02100 26.86000
H  52.96900 19.55800 27.05100
H  53.72500 19.03600 25.45900
H  48.03700 15.24100 23.59500
H  45.07000 15.28800 23.95900
H  46.65800 16.83300 22.38500
H  47.61300 17.68200 23.61500
H  45.91100 17.46200 23.86200
H  46.13300 13.20700 22.79200
H  45.10200 12.95100 24.09100
H  47.69400 11.93700 23.84400
H  46.53600 11.54400 25.11000
H  47.65900 12.98900 25.29100
H  42.18200 13.39500 27.14200
H  41.44200 14.06800 28.56600
H  42.14900 12.52300 28.74200
H  44.29800 14.51800 33.23400
H  42.22100 17.56200 34.93000
H  43.79100 18.50700 34.57900
H  43.60200 17.64100 36.06600
Mg 9.04200 48.14300 26.00400
C  7.38200 48.33800 29.08300
C  11.84700 49.61100 27.43700
C  10.67000 47.95800 22.98500
C  6.04700 47.63000 24.41300
N  9.56400 48.87800 27.99500
C  8.76400 48.69900 29.15300
C  9.53200 49.02500 30.39400
C  10.85300 49.66700 29.83300
C  10.75700 49.43800 28.27800
C  10.92400 51.18200 30.30400
C  9.80700 47.82500 31.34200
C  9.19300 47.95000 32.79200
H  9.45700 46.79300 33.77500
N  11.01700 48.66200 25.35800
C  12.01900 49.22800 26.11300
C  13.28700 49.21200 25.36400
C  12.92500 48.66500 24.09000
C  11.50100 48.43500 24.01800
C  14.70900 49.49300 26.04400
C  13.87700 48.38700 22.92700
O  13.54100 47.91800 21.83300
C  15.25300 48.71100 23.11900
N  8.38000 48.04300 24.02400
C  9.28900 47.80600 22.96800
C  8.54700 47.52500 21.59800
C  7.05600 47.53400 22.06500
C  7.15200 47.70500 23.58800
C  8.92800 48.51200 20.46300
C  6.31600 46.25900 21.56600
C  6.29300 45.05000 22.48500
N  7.03700 48.02200 26.58100
C  5.91300 47.74500 25.85100
C  4.79100 47.67300 26.76300
C  5.30100 47.92800 28.02900
C  6.69100 48.10800 27.84000
C  3.48000 47.28700 26.23400
C  4.97600 48.20000 29.44600
O  3.88500 48.27200 29.94600
C  6.35400 48.21800 30.21100
C  6.45600 46.87100 30.87400
O  7.11600 45.90400 30.51200
O  5.78000 46.90600 32.12000
C  5.69100 45.60400 32.78100
H  12.69900 50.12500 27.88600
H  11.12400 47.71600 22.02100
H  5.07000 47.49600 23.94500
H  8.96800 49.76400 30.96300
H  11.74000 49.12900 30.16800
H  11.42400 51.27300 31.26800
H  9.93300 51.54500 30.57600
H  11.35100 51.77900 29.49700
H  10.86600 47.65800 31.54100
H  9.42600 46.89500 30.91800
H  8.12900 48.17000 32.88500
H  9.76300 48.83300 33.07900
H  14.49300 49.79100 27.07000
H  15.34400 50.21600 25.53200
H  15.23700 48.55500 26.21300
H  15.67600 48.16800 23.96400
H  15.28100 49.80100 23.13100
H  15.78200 48.25700 22.28100
H  8.83000 46.57400 21.14900
H  6.47700 48.30500 21.55700
H  9.52000 49.36500 20.79600
H  8.04100 48.83900 19.92100
H  9.60900 48.06200 19.74000
H  6.65700 45.93100 20.58400
H  5.27100 46.48500 21.35600
H  6.64600 44.17000 21.94800
H  5.35700 44.81000 22.99000
H  6.95900 45.28800 23.31500
H  3.24500 48.09700 25.54400
H  2.70000 47.23700 26.99300
H  3.44500 46.35800 25.66400
H  6.47900 49.04400 30.91200
H  4.99900 44.91900 32.29100
H  5.50800 45.82200 33.83300
H  6.71500 45.23000 32.77800

