158

Mg 44.61200 4.75900 46.65900
C  42.84300 7.88300 46.75600
C  41.68700 3.28800 45.69300
C  46.32900 2.12200 45.64500
C  47.55400 6.61400 47.09800
N  42.50300 5.52200 46.27400
C  41.97600 6.76300 46.45500
C  40.47900 6.83800 46.12600
C  40.15300 5.31500 45.94100
C  41.55300 4.62600 46.02000
C  39.18700 4.77800 47.05900
C  40.28400 7.68100 44.78100
C  41.42500 7.47500 43.70200
H  40.88500 7.41300 42.23400
N  44.09700 2.94400 45.80500
C  42.80600 2.45400 45.54000
C  42.88600 1.06100 45.13000
C  44.24100 0.76900 45.09600
C  44.94900 1.94400 45.56000
C  41.70900 0.26100 44.73500
C  44.80900 -0.57700 44.69200
O  44.05300 -1.38700 44.24100
C  46.28000 -0.82100 44.55200
N  46.60100 4.51300 46.29400
C  47.03800 3.25900 46.07900
C  48.59600 3.08800 46.16100
C  49.06000 4.42900 46.65700
C  47.69000 5.29000 46.65200
C  49.13000 1.88500 46.97000
C  50.35200 5.02700 45.93600
C  51.70200 4.83600 46.68900
N  45.10100 6.82100 47.17200
C  46.35500 7.38200 47.22300
C  46.19200 8.82900 47.40100
C  44.81400 9.04500 47.35100
C  44.21700 7.76600 47.04500
C  47.31900 9.81600 47.59800
C  43.86200 10.07800 47.24400
O  43.92700 11.28800 47.33200
C  42.58100 9.37300 47.00800
C  41.86200 9.58900 48.30300
O  41.95500 8.87600 49.29200
O  41.02700 10.59900 48.18700
C  40.34700 10.89400 49.38500
H  40.76500 2.89000 45.26500
H  46.99400 1.26300 45.53300
H  48.52300 7.04100 47.36200
H  39.97500 7.32200 46.96200
H  39.72700 5.05100 44.97300
H  39.73600 4.33000 47.88700
H  38.48200 4.03300 46.69300
H  38.56900 5.59300 47.43600
H  40.54300 8.68800 45.10600
H  39.30800 7.59800 44.30400
H  42.04400 6.58600 43.82400
H  42.15800 8.28200 43.69200
H  41.70600 0.11500 43.65500
H  40.78500 0.73100 45.07300
H  41.64800 -0.68100 45.27900
H  46.28300 -1.78600 44.04600
H  46.86500 -0.84200 45.47200
H  46.62000 -0.02000 43.89500
H  49.00600 2.98100 45.15700
H  49.44300 4.32600 47.67300
H  48.31500 1.36500 47.47300
H  49.89500 2.06400 47.72500
H  49.65800 1.09600 46.43500
H  50.24000 6.10000 45.78100
H  50.48400 4.69600 44.90600
H  52.41200 4.51600 45.92600
H  51.66900 4.14700 47.53300
H  52.12000 5.81700 46.91700
H  46.79900 10.75800 47.42300
H  48.07000 9.61400 46.83300
H  47.70500 9.96000 48.60700
H  41.99800 9.83700 46.21300
H  39.49700 11.53600 49.15200
H  40.80300 11.51900 50.15300
H  39.92000 10.02400 49.88500
Mg -6.23100 25.40800 25.98300
C  -4.50800 26.68400 28.76900
C  -8.04200 23.52600 28.03200
C  -7.48900 24.03400 23.24100
C  -3.74500 26.94500 23.91200
N  -6.42000 25.34000 28.15300
C  -5.61700 25.85900 29.13000
C  -6.05200 25.37300 30.55000
C  -6.92100 24.13300 30.19200
C  -7.12300 24.34500 28.68200
C  -6.15800 22.73200 30.43000
C  -6.84800 26.52300 31.33600
C  -7.14200 26.24500 32.88700
H  -6.30100 25.13200 33.55000
N  -7.71700 24.08900 25.69100
C  -8.40800 23.43200 26.67400
C  -9.37900 22.56000 26.05400
C  -9.15700 22.66400 24.69500
C  -8.10900 23.65800 24.47800
C  -10.38900 21.67300 26.92100
C  -9.95500 21.97500 23.60500
O  -9.60700 22.04000 22.41200
C  -11.02000 20.95800 23.87300
N  -5.68300 25.53700 23.85800
C  -6.32200 24.68200 22.96500
C  -5.74000 24.84800 21.53500
C  -4.67300 25.95500 21.66700
C  -4.70300 26.21500 23.21500
C  -5.30600 23.49600 20.89400
C  -5.08100 27.28100 20.95000
C  -4.37300 27.54000 19.57300
N  -4.56800 26.61600 26.23400
C  -3.67100 27.10200 25.32100
C  -2.53700 27.77700 26.00900
C  -2.85000 27.66000 27.31600
C  -4.03900 26.91500 27.44400
C  -1.38100 28.49100 25.37100
C  -2.38700 28.01200 28.64500
O  -1.34400 28.54500 28.97300
C  -3.48600 27.47100 29.70100
C  -2.87700 26.59100 30.71400
O  -2.30900 25.56400 30.40900
O  -3.05200 27.05000 32.01600
C  -2.54100 26.19000 33.10400
H  -8.68100 22.88000 28.63700
H  -7.88800 23.65100 22.29900
H  -2.89000 27.40200 23.40800
H  -5.12700 25.07300 31.04200
H  -7.79800 24.15300 30.83900
H  -5.91900 22.12000 29.56000
H  -6.81600 22.10600 31.03200
H  -5.23300 22.90000 30.98200
H  -7.77900 26.60400 30.77600
H  -6.34100 27.48700 31.30800
H  -8.20300 26.06500 33.05600
H  -6.69100 27.10300 33.38600
H  -9.97800 20.66400 26.92200
H  -11.33700 21.50200 26.41100
H  -10.53500 22.08300 27.92000
H  -11.30900 20.51600 22.92000
H  -11.90800 21.45000 24.26900
H  -10.71700 20.24800 24.64300
H  -6.63700 25.21700 21.03800
H  -3.72300 25.54300 21.32700
H  -5.20900 22.79700 21.72500
H  -4.31200 23.56900 20.45200
H  -6.05600 23.14000 20.18800
H  -4.71100 28.15300 21.49000
H  -6.16800 27.32100 20.88000
H  -4.95100 27.53200 18.65000
H  -3.64500 26.74200 19.42500
H  -3.78000 28.45400 19.60600
H  -1.69300 28.86200 24.39500
H  -0.49600 27.88000 25.19400
H  -1.05300 29.35500 25.94900
H  -3.85700 28.35700 30.21700
H  -1.49900 26.50900 33.12200
H  -2.77900 25.16900 32.80600
H  -3.02500 26.40500 34.05600

