158

Mg -2.13800 16.78500 26.67300
C  -2.64800 14.32700 29.21100
C  -3.09600 19.19300 28.70900
C  -2.18600 18.70000 23.87200
C  -1.80200 14.02000 24.46100
N  -2.80900 16.67800 28.66600
C  -2.87400 15.65800 29.56200
C  -2.94800 16.15400 31.01700
C  -3.53700 17.63600 30.83400
C  -3.17800 17.87800 29.31200
C  -5.11900 17.81300 31.02400
C  -1.62700 16.19900 31.84900
C  -1.49200 17.17200 33.04900
H  -0.67700 16.67400 34.26500
N  -2.36900 18.70900 26.36800
C  -2.79100 19.59100 27.38100
C  -2.84700 20.91600 26.78500
C  -2.56800 20.77200 25.40800
C  -2.36500 19.33200 25.13700
C  -3.26100 22.19500 27.60600
C  -2.55400 21.83600 24.36000
O  -2.52600 21.53400 23.16000
C  -2.70200 23.27700 24.64400
N  -1.88900 16.36000 24.41700
C  -1.95600 17.35700 23.50500
C  -1.84700 16.79000 22.09000
C  -1.37700 15.28800 22.37400
C  -1.74300 15.16800 23.82500
C  -3.27300 16.78300 21.41000
C  0.11700 15.02200 22.03800
C  1.18100 15.81700 22.71700
N  -2.23600 14.56200 26.77800
C  -2.04600 13.69400 25.77600
C  -1.91000 12.34200 26.38900
C  -2.24400 12.53600 27.74400
C  -2.37600 13.88500 27.90000
C  -1.75500 11.03300 25.68200
C  -2.42100 11.89400 28.97100
O  -2.34200 10.72700 29.24200
C  -2.53200 13.01800 29.99100
C  -1.25400 12.86800 30.76100
O  -0.23800 13.51200 30.62700
O  -1.44400 12.02500 31.82500
C  -0.37800 12.15300 32.76700
H  -3.09500 20.01500 29.42800
H  -2.26400 19.29500 22.96000
H  -1.46600 13.20400 23.81800
H  -3.70100 15.64600 31.62000
H  -2.96500 18.37700 31.39200
H  -5.55400 16.99900 31.60300
H  -5.60900 17.91000 30.05500
H  -5.23300 18.78200 31.51000
H  -0.85400 16.26200 31.08200
H  -1.42200 15.18600 32.19500
H  -2.45800 17.45400 33.46900
H  -1.01700 18.10900 32.75700
H  -2.47000 22.94500 27.62100
H  -3.52000 22.01300 28.64900
H  -4.13100 22.71200 27.20200
H  -1.83000 23.72500 25.12100
H  -3.64300 23.40300 25.18000
H  -2.84600 23.76100 23.67800
H  -1.06200 17.37400 21.60900
H  -1.89300 14.49700 21.83000
H  -3.55000 15.76000 21.15500
H  -3.20300 17.34500 20.47900
H  -3.98300 17.34200 22.02000
H  0.27000 15.11000 20.96300
H  0.19400 13.94300 22.17600
H  0.68600 16.69200 23.13900
H  1.92300 16.17000 22.00100
H  1.65000 15.16100 23.45000
H  -1.25500 11.30900 24.75400
H  -2.72500 10.59300 25.45300
H  -1.11900 10.44200 26.34200
H  -3.29700 12.79700 30.73600
H  0.56900 11.77000 32.38500
H  -0.65900 11.52400 33.61200
H  -0.16400 13.16300 33.11600
Mg 30.64300 59.17600 39.11800
C  27.61200 57.51700 37.95700
C  32.36700 56.61900 37.91300
C  33.23400 61.23700 39.27800
C  28.48000 62.15600 39.52200
N  30.03800 57.41800 37.96800
C  28.78800 56.91100 37.66000
C  28.87800 55.46500 37.09100
C  30.41900 55.11800 37.42900
C  30.94700 56.42800 37.89800
C  30.67600 53.98900 38.43700
C  28.70600 55.43000 35.56500
C  27.69100 54.38000 34.99600
H  26.78700 54.84400 33.81300
N  32.57400 58.90800 38.92200
C  33.15000 57.77500 38.35400
C  34.58200 57.94600 38.47800
C  34.80400 59.23600 39.03800
C  33.50600 59.87900 39.10500
C  35.63500 57.00800 38.06200
C  36.19100 59.75100 39.45900
O  37.20400 59.14900 39.23200
C  36.36600 61.08500 40.17200
N  30.81000 61.45600 39.37800
C  32.08100 62.04600 39.43700
C  31.98400 63.55200 39.57300
C  30.48300 63.71800 40.00800
C  29.83200 62.37300 39.60400
C  33.11900 64.24400 40.38800
C  29.88600 65.01400 39.45600
C  28.88400 65.80200 40.39200
N  28.45200 59.70000 38.96500
C  27.81700 60.87600 39.22500
C  26.43200 60.74300 38.89200
C  26.31000 59.36500 38.46100
C  27.55300 58.79400 38.45500
C  25.34700 61.81300 38.86100
C  25.28900 58.34200 37.99300
O  24.06200 58.35300 37.79500
C  26.11500 57.08600 37.71400
C  25.61100 56.11500 38.68900
O  25.98500 55.95000 39.90000
O  24.80400 55.23400 38.02300
C  24.33200 54.06100 38.83400
H  33.03100 55.79400 37.64600
H  34.06400 61.94600 39.28100
H  27.84600 63.04400 39.53000
H  28.24600 54.71000 37.55700
H  31.06700 54.92700 36.57400
H  30.94000 54.45500 39.38600
H  31.46700 53.28300 38.18500
H  29.78500 53.38700 38.61500
H  29.64300 55.32700 35.01800
H  28.30200 56.34800 35.13700
H  27.00900 54.13600 35.81000
H  28.17800 53.45400 34.69200
H  36.46100 56.76800 38.73100
H  36.11100 57.43800 37.18100
H  35.27600 56.04200 37.70800
H  37.26900 61.22500 40.76700
H  35.46400 61.19700 40.77300
H  36.30500 61.86900 39.41700
H  32.19000 63.76200 38.52300
H  30.35800 63.75000 41.09100
H  32.66800 64.87600 41.15300
H  33.81800 64.75600 39.72700
H  33.74200 63.54200 40.94200
H  29.35200 64.61800 38.59100
H  30.62900 65.64800 38.97200
H  29.04000 65.61400 41.45400
H  27.83500 65.92500 40.12500
H  29.31300 66.78800 40.21300
H  25.60900 62.71500 38.30900
H  25.11100 62.12700 39.87800
H  24.50200 61.40900 38.30200
H  25.88400 56.70700 36.71900
H  25.06200 53.70700 39.56100
H  24.11900 53.21700 38.17700
H  23.43100 54.23200 39.42300

