158

Mg 46.61400 34.47300 28.08400
C  44.82800 32.82500 30.64900
C  47.25500 36.97200 30.29400
C  47.71400 36.34500 25.49900
C  45.53200 32.05300 25.84100
N  46.03700 34.80500 30.22600
C  45.45900 33.96200 31.10200
C  45.76300 34.45500 32.54400
C  46.06900 35.96400 32.36800
C  46.45600 35.93500 30.81000
C  44.78000 36.78700 32.50900
C  47.00900 33.72100 33.20800
C  46.96900 33.58400 34.74000
H  46.14100 34.62200 35.49800
N  47.50000 36.29500 27.87800
C  47.69700 37.18700 28.95500
C  48.42200 38.36300 28.50200
C  48.46200 38.21300 27.11500
C  47.89700 36.91100 26.77300
C  48.85000 39.49900 29.46500
C  48.93900 39.28300 26.13000
O  48.94800 39.13400 24.94500
C  49.39100 40.57700 26.69100
N  46.45700 34.27700 25.91400
C  46.93800 35.22900 25.10600
C  46.89900 34.73100 23.62400
C  46.09200 33.37800 23.77000
C  46.06300 33.15700 25.23000
C  46.37900 35.72800 22.59300
C  46.50400 32.17400 22.93000
C  45.55500 31.61000 21.87600
N  45.59800 32.67900 28.21800
C  45.15200 31.83900 27.23000
C  44.52000 30.70600 27.79000
C  44.39800 31.07000 29.08600
C  45.01600 32.28400 29.33800
C  44.01800 29.43600 27.14500
C  43.76700 30.70600 30.34600
O  43.12600 29.70800 30.63100
C  43.82100 31.93000 31.32100
C  44.05000 31.52800 32.68700
O  45.05500 31.01300 33.11900
O  42.96600 32.15500 33.35700
C  42.93300 32.03200 34.75200
H  47.35600 37.83100 30.96000
H  48.14300 37.07900 24.81300
H  45.19700 31.32300 25.10200
H  44.86200 34.32900 33.14400
H  46.87000 36.34000 33.00400
H  43.94000 36.16500 32.81700
H  44.54700 37.33100 31.59300
H  44.97300 37.58400 33.22800
H  47.96600 34.14100 32.89700
H  46.88600 32.73700 32.75600
H  47.99500 33.56100 35.10900
H  46.45000 32.66000 34.99500
H  48.96400 39.24600 30.51900
H  48.06400 40.25200 29.41400
H  49.82500 39.88100 29.16100
H  48.81000 41.03500 27.49200
H  49.65500 41.17000 25.81600
H  50.36900 40.32600 27.10000
H  47.92500 34.50100 23.33600
H  45.04800 33.65000 23.61300
H  47.19300 35.96600 21.90800
H  46.15400 36.65100 23.12600
H  45.53000 35.31100 22.05000
H  46.71400 31.39200 23.66000
H  47.49300 32.25200 22.47900
H  44.62500 32.16500 21.75300
H  45.27500 30.58100 22.10300
H  45.97700 31.70200 20.87600
H  44.58200 29.42900 26.21300
H  42.93100 29.43600 27.05700
H  44.44100 28.51800 27.55500
H  42.93800 32.56100 31.22300
H  42.78400 30.97900 34.99000
H  42.06700 32.44500 35.26900
H  43.81800 32.45800 35.22500
Mg 15.91800 52.06100 25.02800
C  17.86400 51.20300 27.78300
C  13.36400 52.95200 27.13500
C  14.10000 52.76100 22.26200
C  18.52400 50.90300 22.89700
N  15.57500 51.86800 27.25100
C  16.59900 51.67500 28.18000
C  16.01700 51.98800 29.57400
C  14.51900 52.26000 29.37100
C  14.47400 52.36900 27.82500
C  13.51500 51.14600 29.92000
C  16.71200 53.17300 30.26300
C  16.56900 53.30100 31.83600
H  15.76300 52.18700 32.49300
N  14.00800 52.89200 24.75100
C  13.14100 53.18400 25.73100
C  11.95100 53.72900 25.09200
C  12.03800 53.56000 23.70000
C  13.41300 53.00300 23.52700
C  10.92200 54.43100 25.85600
C  11.08600 53.79900 22.58100
O  11.38500 53.71100 21.37500
C  9.72000 54.19000 22.87700
N  16.27400 51.89300 22.90100
C  15.33700 52.17300 21.98800
C  15.86700 52.02900 20.60400
C  17.30400 51.58600 20.78500
C  17.43600 51.49600 22.28800
C  15.01200 51.01800 19.84800
C  18.43900 52.52700 20.21100
C  19.72800 51.86900 19.62100
N  17.77700 51.14800 25.23300
C  18.76200 50.78800 24.28500
C  19.86300 50.25500 25.03500
C  19.53500 50.35400 26.41700
C  18.25500 50.92600 26.43200
C  21.02900 49.57900 24.46700
C  20.05000 50.11600 27.72200
O  21.14800 49.63800 28.08700
C  18.96900 50.61500 28.72900
C  18.38700 49.46500 29.44400
O  17.85800 48.46800 28.96900
O  18.76700 49.57200 30.76700
C  18.43600 48.36500 31.61600
H  12.53900 53.25000 27.78600
H  13.53500 52.85600 21.33200
H  19.25100 50.50500 22.18700
H  16.25200 51.05000 30.07900
H  14.28200 53.25700 29.74200
H  14.00800 50.21800 30.21100
H  12.88400 50.82500 29.09100
H  12.87000 51.53900 30.70500
H  16.12400 54.05500 30.01200
H  17.71800 53.41100 29.91700
H  16.21200 54.31300 32.02900
H  17.60800 53.15800 32.13300
H  10.89700 55.45700 25.48800
H  11.11900 54.47700 26.92700
H  9.90700 54.03400 25.84900
H  9.01900 54.07200 22.05100
H  9.75600 55.26700 23.04400
H  9.34400 53.53000 23.65900
H  15.88200 52.99700 20.10400
H  17.43000 50.61000 20.31700
H  15.45600 50.04500 19.63700
H  14.65400 51.36900 18.87900
H  14.04800 50.76100 20.28600
H  18.78400 53.15200 21.03600
H  18.14800 53.23100 19.43100
H  19.47600 50.92900 19.13100
H  20.30500 51.70500 20.53100
H  20.40900 52.55600 19.11800
H  21.58900 49.19700 25.32000
H  21.61400 50.33400 23.94200
H  20.68500 48.80500 23.78100
H  19.38300 51.32400 29.44700
H  18.80500 47.40700 31.25000
H  17.35300 48.32300 31.73800
H  18.84100 48.43800 32.62600

