158

Mg 23.93300 -8.33000 47.48100
C  26.81700 -6.25100 46.39400
C  22.38400 -7.16100 44.65800
C  21.75100 -10.64400 47.93900
C  26.12200 -9.79600 49.70000
N  24.56200 -6.81300 45.78000
C  25.68200 -6.05200 45.60000
C  25.58400 -5.06900 44.42500
C  24.09100 -5.37900 43.98300
C  23.62600 -6.45900 44.88500
C  23.22600 -4.17700 43.93800
C  26.58000 -5.47100 43.19300
C  27.41100 -4.25800 42.61200
H  27.16800 -3.89300 41.22100
N  22.23800 -8.69400 46.59700
C  21.77800 -8.13400 45.43800
C  20.44500 -8.57400 45.21700
C  20.19800 -9.61800 46.11800
C  21.45900 -9.72600 46.93500
C  19.49000 -8.04900 44.12000
C  18.88600 -10.42800 46.32900
O  17.99100 -10.19900 45.60000
C  18.62800 -11.30300 47.48700
N  23.92400 -9.93500 48.82000
C  22.85000 -10.80800 48.78500
C  23.02200 -11.88800 49.79900
C  24.52100 -11.66400 50.28500
C  24.86200 -10.40900 49.51700
C  21.92700 -11.94400 50.90200
C  25.53400 -12.77800 49.84400
C  26.38200 -13.48900 50.87600
N  26.03000 -8.19300 47.91100
C  26.69500 -8.80000 48.93000
C  27.98100 -8.27000 49.10300
C  28.04000 -7.18900 48.21000
C  26.85000 -7.24700 47.41600
C  29.13100 -8.81100 50.01400
C  28.82000 -6.05000 47.73100
O  29.92500 -5.70400 48.16800
C  28.14200 -5.47600 46.42600
C  27.90100 -3.99600 46.56600
O  26.93200 -3.43700 47.15500
O  28.73300 -3.26700 45.79300
C  28.41300 -1.87400 45.59800
H  21.85600 -6.77400 43.78400
H  20.89800 -11.30300 48.11600
H  26.73900 -10.33500 50.42200
H  25.72500 -4.00300 44.60100
H  24.11100 -5.86900 43.01000
H  22.33100 -4.33100 44.54100
H  22.79800 -3.98600 42.95400
H  23.75700 -3.29600 44.29900
H  26.00800 -5.89900 42.37000
H  27.31900 -6.22200 43.47100
H  28.44300 -4.58900 42.72500
H  27.46100 -3.40500 43.28800
H  19.78400 -7.09000 43.69300
H  18.45900 -8.02900 44.47500
H  19.67400 -8.71600 43.27900
H  18.87100 -10.87900 48.46100
H  19.23200 -12.20900 47.44000
H  17.59400 -11.63500 47.58000
H  22.93400 -12.84700 49.28900
H  24.53600 -11.60700 51.37300
H  22.29900 -11.52000 51.83500
H  21.67500 -13.00300 50.96600
H  21.01700 -11.37400 50.71900
H  26.21300 -12.51500 49.03300
H  24.90800 -13.49800 49.31700
H  25.89200 -14.38300 51.26100
H  26.67700 -12.85200 51.71000
H  27.37600 -13.67500 50.46800
H  29.23000 -9.89400 49.94700
H  29.16300 -8.35800 51.00600
H  30.05400 -8.43400 49.57400
H  28.77900 -5.80200 45.60300
H  28.56200 -1.68900 44.53400
H  28.88700 -1.11100 46.21400
H  27.34500 -1.74900 45.77300
Mg -0.64500 44.11800 26.80900
C  1.63000 44.11700 29.43900
C  -3.09100 42.92500 28.98100
C  -2.82500 43.74700 24.18300
C  1.86400 44.82000 24.61800
N  -0.68900 43.59500 28.98900
C  0.30000 43.88600 29.87600
C  -0.17900 43.57900 31.25400
C  -1.56400 42.89500 31.02400
C  -1.86100 43.12000 29.56900
C  -1.64400 41.33000 31.40200
C  -0.28300 44.90100 32.14000
C  0.00200 44.78300 33.60000
H  0.15700 43.47500 34.24700
N  -2.70100 43.52800 26.65000
C  -3.46800 43.02500 27.59500
C  -4.71600 42.57300 27.04100
C  -4.73400 42.92700 25.64300
C  -3.36300 43.44600 25.42500
C  -5.73100 41.78700 27.93800
C  -5.80700 42.68500 24.57500
O  -5.67700 42.93200 23.39900
C  -7.09900 42.16200 25.06000
N  -0.51500 44.36200 24.68200
C  -1.51100 44.24800 23.84300
C  -1.11700 44.54800 22.36600
C  0.23500 45.24400 22.62900
C  0.57200 44.78300 24.05900
C  -1.15500 43.21900 21.44600
C  0.19200 46.76800 22.67500
C  1.34700 47.41900 21.92600
N  1.47000 44.45300 26.96300
C  2.29600 44.68900 25.96200
C  3.64400 44.74000 26.54400
C  3.47900 44.57100 27.93400
C  2.12100 44.38200 28.08500
C  4.95800 44.86400 25.83800
C  4.12800 44.44200 29.22300
O  5.29600 44.56400 29.58900
C  2.95900 44.09200 30.23900
C  3.19800 42.73400 30.74800
O  3.16200 41.72100 30.06400
O  3.56400 42.75400 32.05800
C  3.76100 41.40400 32.63800
H  -3.80600 42.52600 29.70300
H  -3.50500 43.56100 23.35000
H  2.67200 45.03400 23.91500
H  0.54500 42.87200 31.66000
H  -2.30400 43.46100 31.59000
H  -0.83700 41.01600 32.06500
H  -1.57000 40.67400 30.53500
H  -2.49900 41.18900 32.06400
H  -1.28300 45.31500 32.01400
H  0.39500 45.67400 31.77900
H  -0.80000 45.37800 34.03700
H  0.94600 45.30900 33.74400
H  -6.78600 41.98300 27.74500
H  -5.64500 42.15600 28.96000
H  -5.60800 40.71000 28.04300
H  -7.63400 41.89100 24.15000
H  -7.62700 42.93000 25.62500
H  -7.02300 41.28300 25.70000
H  -1.71200 45.34000 21.91100
H  0.89500 44.75300 21.91400
H  -0.19000 42.92600 21.03300
H  -1.91600 43.45200 20.70100
H  -1.55300 42.37700 22.01200
H  0.16800 47.08700 23.71700
H  -0.72700 47.15500 22.23500
H  2.08500 46.66000 21.66800
H  1.85200 48.20100 22.49300
H  0.83700 47.89600 21.08800
H  5.00400 43.97700 25.20600
H  5.84300 44.87200 26.47600
H  4.90200 45.74700 25.20200
H  2.90500 44.78100 31.08200
H  2.92300 41.01000 33.21200
H  4.56100 41.32000 33.37300
H  4.12400 40.68700 31.90200

