158

Mg 40.13200 9.20400 29.92400
C  42.40400 10.60300 32.26300
C  38.26800 8.11600 32.57800
C  38.15400 7.86400 27.77900
C  42.36300 10.03800 27.37100
N  40.44000 9.32500 32.17400
C  41.29000 10.07500 32.88900
C  40.86000 10.12900 34.35400
C  39.82600 8.92400 34.32600
C  39.44700 8.78900 32.97400
C  40.27900 7.62300 35.01500
C  40.28300 11.52800 34.78500
C  40.07200 11.43100 36.31200
H  40.93700 12.23400 37.21600
N  38.43400 8.19100 30.17100
C  37.79200 7.76900 31.33300
C  36.47000 7.16400 30.97000
C  36.52400 7.02100 29.55700
C  37.75100 7.66200 29.11200
C  35.46700 6.54200 31.96900
C  35.51900 6.30300 28.60900
O  35.65300 6.10700 27.41700
C  34.44400 5.63500 29.27700
N  40.31200 8.82900 27.85900
C  39.23800 8.42800 27.20500
C  39.38000 8.56600 25.68800
C  40.87200 9.09300 25.52900
C  41.22900 9.34800 26.94200
C  39.07400 7.12200 24.98500
C  40.95000 10.29500 24.59000
C  40.47500 11.63400 25.14100
N  42.05400 10.09300 29.76500
C  42.78000 10.39400 28.65400
C  44.03500 11.02200 29.08500
C  43.89200 11.20500 30.49300
C  42.73000 10.56800 30.89700
C  45.10800 11.49300 28.11400
C  44.43500 11.87700 31.66300
O  45.44500 12.60500 31.79000
C  43.57700 11.42500 32.84500
C  44.46500 10.68400 33.77200
O  44.82200 9.53700 33.61200
O  44.69600 11.49600 34.87700
C  45.43900 10.92600 36.00300
H  37.71300 7.67100 33.40700
H  37.42600 7.55000 27.02800
H  43.02600 10.20200 26.52000
H  41.71400 9.86300 34.97700
H  38.93700 9.25300 34.86400
H  40.15100 6.77000 34.34800
H  39.85100 7.32100 35.97100
H  41.34600 7.77800 35.17400
H  39.41400 11.76300 34.17100
H  40.99500 12.29900 34.49100
H  40.01100 10.43800 36.75800
H  39.03800 11.76900 36.37000
H  34.53100 7.00100 31.65200
H  35.73200 6.88200 32.97000
H  35.50300 5.46100 31.84000
H  34.91500 4.83700 29.85000
H  33.72700 5.19100 28.58600
H  33.88200 6.26600 29.96500
H  38.63600 9.31000 25.40500
H  41.59700 8.34100 25.21900
H  39.95600 6.76100 24.45600
H  38.21400 7.13600 24.31600
H  38.87100 6.36800 25.74600
H  40.31100 10.17000 23.71600
H  41.99600 10.34100 24.28400
H  40.20100 11.76200 26.18800
H  39.74800 12.10600 24.48000
H  41.33100 12.30300 25.06500
H  44.65000 12.42600 27.78500
H  44.89900 10.72800 27.36600
H  46.05300 11.55700 28.65200
H  43.13200 12.29500 33.32900
H  44.63600 10.55700 36.64000
H  46.04700 11.70600 36.46100
H  46.07000 10.10300 35.66800
Mg 6.01900 53.60000 40.70300
C  4.87400 50.26600 40.39100
C  9.14400 52.66100 39.60700
C  6.84800 56.79700 40.70800
C  2.66700 54.47700 41.11600
N  6.88600 51.70800 40.10300
C  6.23700 50.48700 40.05900
C  7.27400 49.45000 39.71700
C  8.66300 50.19300 39.94200
C  8.18600 51.62300 39.81800
C  9.47700 49.75200 41.21000
C  7.18400 48.82900 38.29100
C  7.00100 49.74600 37.10100
H  6.14200 49.17600 35.96600
N  7.79100 54.65700 40.21500
C  8.94300 54.05700 39.77100
C  9.89100 55.14000 39.49500
C  9.36100 56.34900 40.03300
C  7.95000 55.97100 40.34100
C  11.25300 54.81500 38.97600
C  10.08900 57.70100 40.20700
O  11.24200 57.81600 39.83300
C  9.50400 58.76400 41.08300
N  4.94100 55.34500 40.68900
C  5.53600 56.49900 40.88200
C  4.51700 57.61700 40.94300
C  3.13600 56.94600 41.06900
C  3.63200 55.47400 40.99300
C  4.75100 58.64800 42.06700
C  2.03200 57.28700 40.01700
C  0.65800 57.59800 40.61600
N  4.14800 52.62700 40.75300
C  2.86000 53.07600 40.96400
C  1.93300 52.01300 41.18500
C  2.72400 50.86100 40.92300
C  4.02500 51.31900 40.67100
C  0.47400 52.07600 41.51600
C  2.68100 49.40800 40.83800
O  1.79400 48.67800 41.22900
C  4.08300 48.98100 40.46100
C  3.95400 48.17400 39.28900
O  3.51400 48.54700 38.21500
O  4.20100 46.86500 39.57300
C  3.84300 45.90500 38.48000
H  10.11500 52.26700 39.29800
H  7.04800 57.84700 40.48600
H  1.65700 54.71000 41.46100
H  7.14600 48.72900 40.52500
H  9.33500 50.11200 39.08700
H  9.39500 50.53500 41.96500
H  10.52500 49.64000 40.93200
H  9.15200 48.79800 41.62500
H  6.48800 47.99500 38.37700
H  8.10600 48.28400 38.08900
H  8.06600 49.86700 36.90100
H  6.66400 50.73200 37.42100
H  11.16200 54.13000 38.13400
H  11.87000 54.48700 39.81300
H  11.69200 55.74000 38.60300
H  10.13900 59.39000 41.71100
H  8.76400 58.27400 41.71400
H  8.96800 59.27100 40.28100
H  4.59200 58.07600 39.95800
H  2.80200 57.23100 42.06700
H  3.79200 59.13500 42.24300
H  5.41900 59.47800 41.83600
H  5.14000 58.18000 42.97200
H  2.03600 56.54700 39.21600
H  2.24800 58.27300 39.60500
H  0.44100 58.65500 40.46100
H  0.66000 57.34000 41.67500
H  -0.08600 57.01300 40.07600
H  0.60100 52.17500 42.59500
H  -0.13200 51.22100 41.21600
H  0.02800 52.98500 41.11300
H  4.52400 48.39000 41.26300
H  2.80400 45.98500 38.16000
H  4.27700 44.97100 38.83500
H  4.56300 46.17200 37.70600

