158

Mg 8.52400 2.02800 27.58500
C  10.19800 0.96500 30.42800
C  6.93000 4.35900 29.56500
C  7.07300 3.09800 24.79400
C  10.16000 -0.46200 25.78000
N  8.60000 2.57800 29.80000
C  9.31800 2.00700 30.73700
C  9.06200 2.67600 32.14300
C  8.05800 3.79200 31.79400
C  7.81000 3.60600 30.28800
C  6.81700 3.99700 32.57100
C  10.28100 3.15900 32.93100
C  10.07700 4.25600 34.07500
H  10.52400 3.89700 35.46400
N  7.23500 3.50700 27.20300
C  6.67300 4.33400 28.20000
C  5.73000 5.17600 27.53500
C  5.83300 4.92300 26.08200
C  6.67400 3.74900 25.99000
C  4.73100 6.14400 28.11700
C  5.03400 5.51600 24.92500
O  5.25300 5.13800 23.78700
C  3.90400 6.60600 25.09500
N  8.60800 1.46300 25.58200
C  7.94600 2.08500 24.60100
C  8.19600 1.49400 23.26100
C  9.10600 0.27700 23.57900
C  9.34300 0.43700 25.03900
C  6.87600 1.08500 22.45300
C  10.37400 0.18200 22.69000
C  10.15300 -0.32200 21.34000
N  9.86300 0.56300 27.97500
C  10.39700 -0.42600 27.14200
C  11.23500 -1.31800 27.87900
C  11.23000 -0.76500 29.20000
C  10.33000 0.33100 29.20100
C  12.03300 -2.54600 27.32600
C  11.71900 -0.87700 30.58800
O  12.51300 -1.66300 31.07800
C  11.06400 0.19300 31.43600
C  10.23500 -0.34900 32.48100
O  9.16000 -0.95300 32.31900
O  10.80400 -0.25500 33.76200
C  9.91000 -0.81600 34.88300
H  6.47800 5.12400 30.20100
H  6.62800 3.40600 23.84600
H  10.70200 -1.20600 25.19300
H  8.51000 2.03300 32.82900
H  8.60400 4.73600 31.78400
H  5.99700 3.54700 32.01000
H  6.59500 5.05200 32.73100
H  6.87700 3.55500 33.56500
H  10.95100 3.57100 32.17600
H  10.79000 2.28900 33.34500
H  9.03400 4.51100 34.26400
H  10.55900 5.15600 33.69200
H  4.98600 7.07800 27.61700
H  4.95000 6.21800 29.18200
H  3.67500 5.89200 28.01700
H  3.42800 6.96500 24.18200
H  4.27800 7.56900 25.44100
H  3.14600 6.21300 25.77300
H  8.74000 2.26800 22.72000
H  8.55700 -0.66500 23.59400
H  6.00800 1.10000 23.11200
H  6.86000 0.06200 22.07800
H  6.79100 1.74200 21.58700
H  11.02300 -0.54600 23.17600
H  10.83000 1.17100 22.63700
H  10.20300 0.45500 20.57700
H  9.14200 -0.70700 21.47300
H  10.85600 -1.10400 21.05200
H  11.34500 -3.33200 27.01400
H  12.65800 -2.76300 28.19300
H  12.74100 -2.14500 26.60000
H  11.79200 0.85600 31.90400
H  9.57300 0.07300 35.41700
H  10.57400 -1.30200 35.59800
H  9.05100 -1.44100 34.63900
Mg -4.82400 24.85700 26.56700
C  -3.12400 26.41700 29.20400
C  -6.36500 22.79600 28.97900
C  -6.79700 23.50200 24.13400
C  -3.15200 26.64000 24.31200
N  -4.77600 24.67600 28.79900
C  -4.11100 25.52000 29.66100
C  -4.35200 25.15000 31.18300
C  -5.22300 23.82400 31.01700
C  -5.50000 23.75700 29.51800
C  -4.49400 22.56700 31.55200
C  -5.08300 26.45200 31.78700
C  -5.98000 26.17000 33.00500
H  -5.47000 25.08100 33.98700
N  -6.29400 23.24200 26.53600
C  -6.72800 22.48700 27.60500
C  -7.71200 21.51400 27.07300
C  -7.96500 21.89200 25.75700
C  -6.98500 22.85300 25.43300
C  -8.37000 20.43100 27.96500
C  -9.08800 21.36200 24.80400
O  -9.17500 21.73900 23.62400
C  -10.06900 20.31000 25.25700
N  -4.89300 24.91700 24.43200
C  -5.89600 24.40100 23.63000
C  -5.75100 24.77300 22.13000
C  -4.67600 25.86500 22.28000
C  -4.21100 25.82300 23.81100
C  -5.45200 23.57500 21.19600
C  -5.03500 27.26600 21.69200
C  -5.26200 27.41700 20.15200
N  -3.39400 26.21600 26.68400
C  -2.75700 26.81000 25.66100
C  -1.67300 27.61800 26.14000
C  -1.78300 27.50900 27.52900
C  -2.89800 26.71900 27.82500
C  -0.75500 28.38000 25.34700
C  -1.26300 27.94800 28.76800
O  -0.27400 28.69500 28.81300
C  -2.17000 27.30400 29.96300
C  -1.28900 26.53600 30.89900
O  -0.55300 25.60400 30.56300
O  -1.33700 26.94300 32.14600
C  -0.36200 26.47100 33.13900
H  -6.87200 22.25300 29.77900
H  -7.35200 23.15000 23.26200
H  -2.54600 27.19900 23.59600
H  -3.42600 24.90700 31.70300
H  -6.17600 23.79100 31.54300
H  -3.45800 22.48600 31.22400
H  -4.98300 21.62300 31.31400
H  -4.47400 22.64300 32.63900
H  -5.77700 26.89700 31.07500
H  -4.40800 27.27900 32.00800
H  -7.01000 25.97500 32.70600
H  -5.94400 27.03800 33.66300
H  -8.36800 19.50700 27.38700
H  -9.32700 20.79200 28.34100
H  -7.70700 20.23900 28.80800
H  -10.83100 20.11800 24.50300
H  -10.69700 20.50600 26.12600
H  -9.57900 19.35900 25.46900
H  -6.68300 25.27000 21.86100
H  -3.85100 25.55500 21.63900
H  -4.90300 22.79800 21.72800
H  -4.86300 23.93700 20.35300
H  -6.37400 23.17000 20.77800
H  -4.23700 27.97200 21.92200
H  -5.96700 27.57200 22.16800
H  -6.29200 27.71100 19.95000
H  -5.10100 26.44600 19.68500
H  -4.56000 28.20000 19.86700
H  -1.22300 29.09500 24.67100
H  -0.09900 27.87500 24.63800
H  -0.24800 29.00700 26.08100
H  -2.73300 28.01900 30.56200
H  0.59300 26.26500 32.65500
H  -0.72200 25.59100 33.67200
H  -0.18100 27.40000 33.67900

