158

Mg 25.32200 2.23200 29.54300
C  27.49900 1.75400 32.25600
C  22.83900 2.68200 31.66600
C  23.39000 2.47900 26.84500
C  28.10400 1.52800 27.35900
N  25.17400 1.96200 31.74900
C  26.20700 2.07000 32.63100
C  25.64700 2.35800 34.01500
C  24.13000 2.56900 33.91800
C  24.03500 2.44300 32.33800
C  23.18400 1.60900 34.62500
C  26.41300 3.44600 34.86100
C  26.94700 3.01300 36.28000
H  26.59800 4.03500 37.45200
N  23.33100 2.42000 29.31300
C  22.46400 2.63900 30.36000
C  21.12100 2.73900 29.79900
C  21.28100 2.52100 28.36300
C  22.72800 2.49500 28.09200
C  19.91500 2.88700 30.63700
C  20.35300 2.26300 27.29300
O  20.58800 2.12600 26.10300
C  18.90900 2.14300 27.75900
N  25.70500 2.03200 27.39300
C  24.67700 2.19600 26.50100
C  25.12200 2.06300 25.08600
C  26.72000 1.93100 25.22500
C  26.88600 1.89500 26.76700
C  24.33100 0.96900 24.37400
C  27.58400 3.00700 24.51900
C  27.14600 4.43500 24.71800
N  27.36000 1.73100 29.75900
C  28.37600 1.48100 28.78000
C  29.59500 1.10600 29.42400
C  29.28800 1.19900 30.75900
C  27.95400 1.52400 30.89700
C  30.90100 0.71600 28.81000
C  29.84900 1.14400 32.11700
O  31.02600 0.96500 32.46300
C  28.70900 1.58000 33.17900
C  28.66000 0.48500 34.19800
O  28.02000 -0.53200 34.17100
O  29.34500 0.91500 35.17400
C  29.07700 0.39300 36.48900
H  22.01300 3.01900 32.29600
H  22.75900 2.79600 26.01200
H  28.86000 1.20300 26.64200
H  25.94000 1.41800 34.48300
H  23.92300 3.62200 34.10800
H  23.00100 0.81600 33.90000
H  22.30500 2.19500 34.89200
H  23.61300 1.06400 35.46600
H  25.65000 4.18400 35.11200
H  27.15500 3.93700 34.23200
H  28.03500 2.96300 36.24000
H  26.53500 2.02600 36.49200
H  20.08200 3.16900 31.67700
H  19.46000 1.89600 30.66000
H  19.14600 3.56200 30.26300
H  19.10200 1.40600 28.53900
H  18.32300 1.65900 26.97800
H  18.44900 3.06200 28.12300
H  24.82900 3.01600 24.64500
H  27.02600 0.94700 24.86900
H  23.42300 0.63000 24.87300
H  24.96800 0.09100 24.26800
H  24.01800 1.35600 23.40400
H  27.54700 2.73300 23.46400
H  28.62900 2.91500 24.81500
H  26.76600 4.72800 23.74000
H  27.93200 5.15300 24.94800
H  26.31100 4.70300 25.36700
H  30.75400 -0.16100 28.17800
H  31.58700 0.46200 29.61700
H  31.29800 1.49900 28.16400
H  29.02000 2.49900 33.67500
H  28.00900 0.52700 36.65900
H  29.60800 1.10600 37.11900
H  29.39500 -0.64900 36.45300
Mg 35.67900 48.44200 24.75600
C  36.00800 46.76500 27.91400
C  34.40500 51.13400 26.47100
C  35.14300 49.87900 21.78100
C  36.67500 45.45400 23.14600
N  35.14100 48.81000 27.01700
C  35.38600 48.04400 28.05200
C  34.99600 48.76200 29.38700
C  34.24200 50.06400 28.85600
C  34.53400 50.00200 27.30900
C  32.64500 50.08300 29.06300
C  36.16500 49.06200 30.44300
C  35.90100 48.74200 31.87000
H  34.55500 49.04000 32.48200
N  35.07200 50.37000 24.16400
C  34.62900 51.34700 25.06000
C  34.55800 52.56800 24.25400
C  34.78600 52.20900 22.88600
C  34.89000 50.75600 22.89600
C  34.37600 53.85600 24.91600
C  34.84300 52.99800 21.68100
O  35.15900 52.56300 20.58500
C  34.33900 54.37200 21.67500
N  35.99900 47.76200 22.77700
C  35.65800 48.55900 21.70900
C  35.98200 47.81400 20.40300
C  36.59500 46.44100 20.86300
C  36.34400 46.53300 22.36800
C  34.84700 47.67800 19.47000
C  38.11800 46.30700 20.59700
C  39.01900 47.38200 21.23500
N  36.24400 46.49300 25.31000
C  36.64900 45.38500 24.57900
C  37.06800 44.30500 25.42300
C  36.81900 44.84100 26.74800
C  36.32800 46.16300 26.65500
C  37.60800 43.08300 24.89700
C  37.00100 44.51300 28.19500
O  37.40500 43.50800 28.79100
C  36.53500 45.86600 29.00400
C  35.43200 45.37200 29.89200
O  34.20700 45.43500 29.58900
O  35.88300 45.06000 31.12700
C  34.84600 44.58300 32.02200
H  34.05000 52.04500 26.95700
H  35.03700 50.35500 20.80400
H  36.98900 44.53700 22.64400
H  34.32800 48.07000 29.90000
H  34.66200 50.94800 29.33600
H  32.08500 50.12400 28.12800
H  32.58200 50.90800 29.77300
H  32.34400 49.17400 29.58300
H  36.32000 50.14000 30.48600
H  37.07200 48.69400 29.96400
H  36.60600 49.36800 32.41700
H  36.11900 47.67900 31.97200
H  35.02300 54.52900 24.35300
H  34.75900 53.73300 25.92900
H  33.36500 54.24500 24.79500
H  34.08500 54.67600 20.65900
H  35.17200 55.00100 21.99000
H  33.35300 54.55300 22.10200
H  36.72100 48.52400 20.03100
H  35.99800 45.64700 20.41400
H  33.85900 47.80000 19.91400
H  34.76700 46.69300 19.01100
H  34.90000 48.42600 18.67800
H  38.17900 46.51200 19.52800
H  38.41100 45.28800 20.85100
H  39.88900 46.88100 21.66000
H  38.67600 48.06000 22.01600
H  39.21600 48.09000 20.43000
H  36.87400 42.75000 24.16300
H  37.69700 42.38300 25.72800
H  38.60200 43.22600 24.47100
H  37.37100 46.29000 29.56100
H  35.14100 44.20800 33.00200
H  34.27200 43.76600 31.58500
H  34.15000 45.38100 32.28000

