158

Mg 42.25400 41.42100 26.68700
C  41.44300 43.54400 29.31700
C  43.20800 39.04700 28.97200
C  43.36900 39.46400 24.08700
C  41.51900 43.92500 24.46100
N  42.28300 41.34100 28.93900
C  41.94000 42.35200 29.78800
C  42.17700 41.87900 31.24800
C  42.59600 40.41900 31.15200
C  42.64000 40.14900 29.59500
C  43.96700 40.02300 31.75200
C  41.08600 42.35100 32.24000
C  40.64800 41.38500 33.32400
H  39.96600 41.78100 34.62500
N  43.27300 39.54800 26.53100
C  43.51600 38.76700 27.59200
C  43.99800 37.48900 27.05500
C  44.01000 37.53800 25.62600
C  43.55500 38.90400 25.36400
C  44.46200 36.41700 28.05300
C  44.49700 36.48700 24.67900
O  44.46200 36.63600 23.48100
C  44.83200 35.12300 25.15700
N  42.43100 41.61800 24.57800
C  42.80500 40.65000 23.70000
C  42.68500 41.01600 22.22500
C  41.83000 42.32100 22.38300
C  41.98800 42.73300 23.86800
C  44.07400 41.14900 21.54300
C  40.43800 42.16000 21.79900
C  39.41600 41.61600 22.69700
N  41.70200 43.36900 26.78700
C  41.44900 44.30000 25.86700
C  40.88000 45.48000 26.43700
C  40.86900 45.18900 27.77600
C  41.49100 43.95200 27.97500
C  40.58500 46.68800 25.57900
C  40.48800 45.71000 29.05800
O  39.99700 46.83200 29.25100
C  40.88900 44.74200 30.09700
C  41.76400 45.39800 31.06600
O  43.01200 45.35700 31.07600
O  41.01400 46.14800 31.91300
C  41.68400 46.46400 33.28100
H  43.63800 38.36400 29.70800
H  43.58300 38.87100 23.19600
H  41.10700 44.57700 23.68800
H  43.02100 42.53500 31.46000
H  41.93600 39.71700 31.66200
H  44.76800 40.23100 31.04300
H  43.88500 38.98800 32.08200
H  44.18300 40.76800 32.51700
H  40.19900 42.47800 31.61900
H  41.40300 43.35700 32.51500
H  41.53100 40.80700 33.59700
H  40.01200 40.66200 32.81400
H  45.42800 36.16400 27.61700
H  43.69300 35.64500 28.09700
H  44.64700 36.72800 29.08100
H  45.73400 35.05600 25.76600
H  44.90700 34.49600 24.26900
H  43.96800 34.92400 25.79100
H  42.14800 40.18500 21.76900
H  42.17800 43.13100 21.74100
H  44.82400 40.85400 22.27700
H  44.37400 42.16200 21.27500
H  44.15700 40.44600 20.71400
H  40.54800 41.60400 20.86800
H  40.22600 43.19500 21.52900
H  39.91200 41.18700 23.56800
H  38.87200 40.86000 22.13100
H  38.73200 42.36900 23.08900
H  41.42700 46.89000 24.91700
H  40.27800 47.55300 26.16800
H  39.64500 46.41500 25.10000
H  39.92300 44.62700 30.58900
H  42.07900 45.53500 33.69300
H  41.01500 46.79600 34.07500
H  42.47900 47.19400 33.12700
Mg 0.53800 42.92900 26.77000
C  3.00500 42.93700 29.37900
C  -1.81500 42.32200 29.08800
C  -1.48100 41.79900 24.35500
C  3.27500 42.87900 24.46600
N  0.69700 42.45900 29.02300
C  1.68100 42.72500 29.91900
C  1.12500 42.84100 31.30500
C  -0.33200 42.34400 31.13200
C  -0.52400 42.38700 29.61800
C  -0.58100 40.92200 31.83100
C  1.25200 44.34700 31.91800
C  0.85700 44.42000 33.46000
H  0.70800 43.08600 34.21900
N  -1.43100 42.27500 26.75800
C  -2.28700 42.14000 27.77100
C  -3.60000 41.86800 27.31900
C  -3.51600 41.59300 25.90300
C  -2.03900 41.81500 25.60900
C  -4.82600 41.95200 28.33000
C  -4.63700 41.34400 24.95300
O  -4.44100 41.04900 23.75900
C  -6.03300 41.30300 25.37100
N  0.84600 42.53600 24.70700
C  -0.20100 42.03500 23.92700
C  0.23400 41.99600 22.40700
C  1.70700 42.48000 22.48700
C  2.00600 42.65900 23.97000
C  0.08900 40.68800 21.58800
C  2.01200 43.82300 21.68200
C  1.79700 45.15100 22.37200
N  2.64900 43.03800 26.84800
C  3.60300 43.08500 25.81200
C  4.90100 43.37900 26.38900
C  4.75500 43.24600 27.80300
C  3.31400 43.02700 27.99300
C  6.18300 43.67900 25.66400
C  5.47400 43.27700 29.08300
O  6.66100 43.31000 29.29500
C  4.27400 43.27200 30.09500
C  4.60800 42.24000 31.03000
O  5.04400 41.17200 30.67100
O  4.61800 42.67800 32.29200
C  5.30700 41.84500 33.24200
H  -2.60500 42.22800 29.83600
H  -2.09400 41.52500 23.49400
H  4.05000 43.06300 23.71900
H  1.78000 42.17600 31.86700
H  -0.94100 43.14800 31.54500
H  -1.40300 41.20900 32.48700
H  0.22200 40.53400 32.45700
H  -0.86300 40.18600 31.07800
H  0.58300 44.97000 31.32400
H  2.26900 44.72200 31.80000
H  0.00300 45.07500 33.63600
H  1.76100 44.75500 33.96900
H  -5.82300 41.86800 27.89700
H  -4.77600 42.83200 28.97200
H  -4.76600 41.07200 28.97100
H  -6.62600 41.32800 24.45600
H  -6.30300 42.20300 25.92400
H  -6.18900 40.30700 25.78500
H  -0.38100 42.74600 21.90900
H  2.36900 41.73100 22.05100
H  -0.34500 40.93800 20.62000
H  -0.53400 39.92900 22.06200
H  1.06700 40.24600 21.40200
H  1.38400 43.86500 20.79200
H  2.99600 43.84900 21.21300
H  2.69300 45.73000 22.59700
H  1.14800 45.06800 23.24300
H  1.09900 45.68800 21.73000
H  6.90100 44.14700 26.33800
H  6.00000 44.37100 24.84200
H  6.43400 42.74100 25.17000
H  4.22800 44.22200 30.62700
H  5.18300 42.28900 34.23000
H  6.37200 41.93000 33.02900
H  4.88100 40.84500 33.15800

