158

Mg 29.13600 56.66400 41.21000
C  26.38800 54.85200 39.77000
C  31.21600 54.44300 39.92000
C  31.39900 59.14800 41.27600
C  26.67900 59.21900 41.91400
N  28.79000 54.95700 39.77200
C  27.67300 54.30700 39.52300
C  28.05700 53.05000 38.65200
C  29.49800 52.64500 39.23100
C  29.88100 54.10200 39.65900
C  29.49400 51.60200 40.38400
C  28.10900 53.49900 37.16000
C  27.02600 52.89300 36.25600
H  26.34500 53.80800 35.25700
N  31.03400 56.68100 40.88300
C  31.72700 55.64500 40.33100
C  33.12200 56.01400 40.41400
C  33.21900 57.35400 40.74900
C  31.86900 57.80900 40.97600
C  34.21800 54.99200 40.01400
C  34.55500 58.07500 40.69900
O  35.63400 57.57000 40.41400
C  34.66700 59.48200 41.00000
N  29.08300 58.92800 41.57300
C  30.18300 59.65100 41.64900
C  29.93900 61.08800 42.06400
C  28.41800 61.03600 42.50000
C  28.03300 59.66400 41.89900
C  30.92300 61.60000 43.16500
C  27.56300 62.23400 41.92600
C  26.80600 62.99600 42.93000
N  27.00300 57.01800 40.98300
C  26.17100 58.04000 41.35600
C  24.74500 57.77100 41.02600
C  24.85800 56.42200 40.52000
C  26.25400 56.06700 40.44300
C  23.57700 58.64700 41.31300
C  24.08700 55.33300 40.02600
O  22.88400 55.24200 39.86000
C  25.00400 54.23100 39.52500
C  24.75800 53.10400 40.32400
O  25.27500 52.86300 41.41200
O  23.90100 52.15200 39.64100
C  23.58300 50.98600 40.49900
H  31.92400 53.64800 39.67700
H  32.14000 59.94700 41.34100
H  26.00900 60.01900 42.23700
H  27.38100 52.19900 38.74000
H  30.10500 52.37700 38.36700
H  29.83100 50.64100 39.99600
H  28.54700 51.50700 40.91500
H  30.12400 51.86500 41.23400
H  29.05800 53.27300 36.67600
H  27.89600 54.56800 37.16900
H  26.32000 52.30600 36.84200
H  27.51200 52.14400 35.63000
H  34.68200 55.35500 39.09700
H  33.79000 54.00700 39.82200
H  34.95500 54.85700 40.80500
H  34.09100 60.14000 40.34900
H  35.71500 59.74100 41.15700
H  34.31900 59.57100 42.02900
H  30.14500 61.62200 41.13600
H  28.31600 60.82500 43.56500
H  31.52600 62.38600 42.71000
H  31.61000 60.90200 43.64500
H  30.24000 62.11800 43.83700
H  26.88600 61.79400 41.19400
H  28.19700 62.84300 41.28200
H  26.89600 62.59000 43.93700
H  25.76800 62.80800 42.65400
H  27.10100 64.04100 42.83700
H  23.10200 58.53400 42.28800
H  22.87600 58.43400 40.50600
H  23.94000 59.66300 41.15800
H  24.79800 54.02100 38.47500
H  23.55300 51.25300 41.55600
H  24.34600 50.21500 40.39400
H  22.65100 50.49400 40.21800
Mg 17.61000 51.49000 25.74000
C  19.38900 50.14800 28.40100
C  15.22100 52.46700 28.00600
C  15.89000 52.79700 23.15500
C  19.80000 50.06500 23.46300
N  17.44400 51.50600 28.04100
C  18.30400 50.88100 28.90000
C  17.75400 50.85500 30.30800
C  16.34400 51.59800 30.17200
C  16.25200 51.82300 28.63200
C  15.14300 50.74800 30.57500
C  18.65000 51.54200 31.39500
C  18.45800 51.06200 32.83800
H  17.50400 51.78100 33.84800
N  15.89300 52.43200 25.61800
C  15.03000 52.72500 26.60500
C  13.83000 53.33900 26.11400
C  13.99800 53.54300 24.64300
C  15.30100 52.93700 24.42400
C  12.76500 53.80700 27.02200
C  13.09600 54.24600 23.60800
O  13.24300 54.31100 22.38600
C  11.90100 54.85800 24.20700
N  17.73300 51.31000 23.59900
C  16.97100 52.00700 22.73400
C  17.27900 51.75000 21.20700
C  18.59400 50.99000 21.39200
C  18.79900 50.79200 22.90700
C  16.15400 51.07700 20.33500
C  19.85800 51.67500 20.73600
C  20.83200 52.60800 21.52600
N  19.18300 50.32600 25.83200
C  20.01400 49.73800 24.84800
C  21.03600 48.99100 25.52400
C  20.80600 49.10100 26.90800
C  19.73100 49.92700 27.02500
C  22.14400 48.29100 24.81600
C  21.29100 48.70700 28.16800
O  22.23000 48.00300 28.47900
C  20.35500 49.41000 29.22700
C  19.88500 48.38500 30.12200
O  19.18400 47.39000 29.87200
O  20.51400 48.55800 31.36300
C  20.24400 47.57500 32.43100
H  14.42500 52.77900 28.68600
H  15.36800 53.14300 22.26000
H  20.40500 49.51400 22.74000
H  17.61100 49.80200 30.55400
H  16.21600 52.56300 30.66300
H  14.28600 50.94300 29.93100
H  14.76000 50.80500 31.59400
H  15.20600 49.74500 30.15200
H  18.34200 52.58600 31.44100
H  19.70100 51.39600 31.14600
H  19.48700 51.08400 33.19500
H  18.20500 50.00500 32.75300
H  11.74800 53.64500 26.66500
H  13.00700 54.86300 27.14400
H  12.73100 53.19700 27.92500
H  11.36500 55.38700 23.41900
H  12.19800 55.49500 25.04000
H  11.07500 54.19500 24.46400
H  17.58000 52.68200 20.72800
H  18.42700 49.99500 20.98200
H  16.55800 50.46600 19.52900
H  15.61700 51.91500 19.88900
H  15.60900 50.43600 21.02800
H  19.58800 52.20900 19.82500
H  20.46200 50.86900 20.31900
H  21.76700 52.12100 21.80100
H  20.32800 52.91000 22.44400
H  21.05400 53.44400 20.86300
H  22.83400 49.06400 24.47900
H  21.73900 47.95800 23.86100
H  22.66400 47.51200 25.37200
H  20.96400 50.06500 29.84900
H  19.90600 46.62400 32.02100
H  19.54200 47.80600 33.23300
H  21.23700 47.51300 32.87700

