158

Mg 1.27600 6.95100 25.87600
C  1.87500 8.95600 28.69400
C  1.35400 4.25800 27.88300
C  1.47800 5.10100 23.13600
C  1.65300 9.94800 23.86300
N  1.62500 6.70600 27.94800
C  1.67100 7.66000 28.96900
C  1.44200 7.00400 30.36400
C  1.63100 5.49800 30.02800
C  1.44900 5.50700 28.54400
C  2.92300 4.81500 30.41800
C  0.01900 7.39600 30.86300
C  -0.18200 7.53300 32.40400
H  0.87700 6.79900 33.26000
N  1.16200 4.99000 25.56400
C  1.29400 4.02400 26.51700
C  1.22400 2.71600 25.88000
C  1.16400 3.00200 24.43100
C  1.20900 4.41100 24.32100
C  1.12200 1.46900 26.67300
C  1.06900 2.07100 23.30300
O  0.77900 2.38600 22.14200
C  1.25100 0.57300 23.59700
N  1.54100 7.44500 23.78700
C  1.52700 6.47300 22.87000
C  1.62600 7.10900 21.42300
C  1.40600 8.57700 21.71800
C  1.55800 8.65000 23.19700
C  3.03900 6.77500 20.90800
C  -0.04400 9.03800 21.34700
C  -0.03800 10.38000 20.38900
N  1.66500 9.09000 26.14300
C  1.78600 10.13400 25.24700
C  2.06300 11.30900 25.96900
C  2.09300 10.90100 27.31600
C  1.88500 9.53600 27.37400
C  2.27800 12.72700 25.44700
C  2.31200 11.40200 28.64900
O  2.71100 12.51200 29.03700
C  2.01300 10.24800 29.59300
C  3.12100 10.17000 30.64100
O  4.26400 9.88700 30.37300
O  2.64400 10.51200 31.87400
C  3.63300 10.50000 32.94300
H  1.17100 3.37800 28.50300
H  1.47200 4.47600 22.24100
H  1.68200 10.76600 23.14000
H  2.24200 7.45600 30.95000
H  0.86000 4.92600 30.54300
H  3.62400 5.57300 30.76900
H  3.46700 4.47400 29.53800
H  2.81300 4.09200 31.22700
H  -0.66500 6.64000 30.47800
H  -0.12000 8.34500 30.34500
H  -1.19200 7.19500 32.63700
H  -0.18300 8.59700 32.63900
H  0.10400 1.16800 26.92000
H  1.61700 1.53100 27.64200
H  1.68000 0.78800 26.03000
H  2.20800 0.51200 24.11500
H  1.30500 0.15000 22.59300
H  0.37300 0.21600 24.13500
H  0.87500 6.64500 20.78300
H  1.98800 9.26600 21.10500
H  3.67400 6.36200 21.69200
H  3.49800 7.64700 20.44400
H  3.07000 6.07600 20.07200
H  -0.52100 9.45400 22.23500
H  -0.64700 8.28300 20.84300
H  -0.13300 10.11600 19.33600
H  0.88400 10.95000 20.50400
H  -0.96300 10.88400 20.67200
H  1.34200 13.28400 25.40600
H  2.73800 12.71000 24.45900
H  2.86400 13.27500 26.18500
H  1.07700 10.51700 30.08200
H  3.61900 11.46800 33.44300
H  4.64700 10.43500 32.54700
H  3.35000 9.74600 33.67700
Mg 47.67400 24.64000 28.36600
C  48.24300 27.06100 30.81200
C  46.19100 22.64200 30.86500
C  46.95400 22.30800 26.12700
C  49.18400 26.65700 25.93100
N  47.13900 24.88200 30.57500
C  47.51300 25.95800 31.35500
C  47.08300 25.75800 32.81000
C  46.55400 24.22300 32.85500
C  46.53400 23.91400 31.37200
C  47.17500 23.28500 33.83100
C  46.09600 26.67600 33.44500
C  45.99700 26.90200 35.00300
H  46.84600 26.11200 36.00400
N  46.58700 22.77400 28.47500
C  46.13700 22.14700 29.53500
C  45.44300 20.91200 29.12700
C  45.56600 20.83200 27.73800
C  46.39300 21.99300 27.36800
C  44.83600 19.90200 30.08300
C  45.00300 19.87400 26.67600
O  45.12000 19.97400 25.45100
C  44.26800 18.68100 27.24400
N  48.12400 24.42500 26.34500
C  47.67600 23.40200 25.61300
C  48.08400 23.55100 24.14200
C  48.63100 25.03500 23.99000
C  48.65400 25.40000 25.47100
C  49.17100 22.50500 23.72300
C  47.63500 25.94900 23.26500
C  48.19200 27.12000 22.22200
N  48.62600 26.41800 28.33900
C  49.17400 27.10700 27.26500
C  49.57300 28.39900 27.72600
C  49.27700 28.38000 29.06800
C  48.68200 27.16300 29.43600
C  50.26900 29.45800 27.01100
C  49.44900 29.18200 30.23400
O  49.98900 30.26700 30.44800
C  48.67200 28.36600 31.40800
C  49.54400 28.23300 32.58300
O  50.60600 27.60600 32.54500
O  49.17200 29.06600 33.67600
C  50.01100 29.02400 34.90000
H  45.71800 21.96500 31.58000
H  46.80600 21.51000 25.39600
H  49.60300 27.38100 25.22900
H  47.91400 25.89700 33.50100
H  45.51400 24.29800 33.17300
H  47.93500 23.74900 34.46000
H  47.60900 22.45800 33.26900
H  46.49000 22.92800 34.60000
H  45.09800 26.47500 33.05600
H  46.31500 27.68400 33.09400
H  44.98900 26.76400 35.39200
H  46.21500 27.96500 35.09900
H  43.75800 19.95300 29.93400
H  45.08900 20.03000 31.13600
H  45.11000 18.85900 29.92600
H  45.02700 18.18100 27.84500
H  43.83700 18.00500 26.50500
H  43.46900 19.01100 27.90800
H  47.21100 23.38400 23.51100
H  49.62600 25.16800 23.56300
H  48.68000 21.62400 23.30900
H  49.75400 22.39500 24.63700
H  49.78200 23.00700 22.97300
H  47.07300 26.59700 23.93800
H  47.02400 25.33300 22.60500
H  48.05000 28.14600 22.55900
H  47.98800 26.95900 21.16300
H  49.26200 27.03300 22.41200
H  50.27800 30.42500 27.51400
H  49.68300 29.55200 26.09700
H  51.27900 29.06500 26.88900
H  47.78800 28.92900 31.70900
H  49.38900 28.53100 35.64700
H  50.18800 30.04800 35.23000
H  50.92900 28.44400 34.80800

