158

Mg 34.42400 3.15100 29.81500
C  32.27500 4.17600 32.41100
C  36.91700 3.24400 32.22100
C  36.53700 3.02000 27.26500
C  31.74700 3.56300 27.52200
N  34.64200 3.91000 32.05800
C  33.54200 4.11100 32.89700
C  33.93400 4.04100 34.36500
C  35.51400 4.23900 34.28200
C  35.72400 3.61700 32.79700
C  36.16900 5.69900 34.51900
C  33.53900 2.74800 35.10100
C  33.32300 2.92600 36.60000
H  33.94900 4.12700 37.34900
N  36.44900 2.98600 29.75100
C  37.32100 3.02000 30.83400
C  38.66100 2.87300 30.42100
C  38.57100 2.80900 28.96700
C  37.14900 2.86100 28.58200
C  39.84700 2.82300 31.34400
C  39.69100 2.65700 27.98400
O  39.54700 2.64900 26.77000
C  41.09300 2.42600 28.42800
N  34.21400 3.51800 27.74100
C  35.24900 3.28300 26.84300
C  34.70100 3.22300 25.33700
C  33.15900 3.21200 25.48900
C  33.02600 3.42900 26.98500
C  35.29400 4.33600 24.52000
C  32.44000 2.05800 24.88400
C  32.30100 0.70500 25.61300
N  32.46900 3.72200 29.90400
C  31.50900 3.76800 28.91500
C  30.25400 4.13900 29.52100
C  30.46600 4.20600 30.82900
C  31.87000 4.02500 31.03500
C  29.00300 4.44000 28.73900
C  29.83400 4.39400 32.11400
O  28.63100 4.62000 32.44700
C  30.95400 4.41100 33.16500
C  30.92800 5.69300 33.97900
O  31.34600 6.78500 33.64200
O  30.33000 5.47500 35.24200
C  30.47600 6.48800 36.31800
H  37.64600 3.07200 33.01500
H  37.20500 2.86500 26.41500
H  30.89600 3.44100 26.84800
H  33.41300 4.84600 34.88400
H  35.98400 3.52700 34.96200
H  36.65500 5.74300 35.49400
H  35.25300 6.22600 34.78900
H  36.65300 6.21500 33.69000
H  34.05400 1.81800 34.86000
H  32.50100 2.57900 34.81500
H  33.68600 2.01000 37.06500
H  32.28000 2.81500 36.89600
H  39.62300 2.74400 32.40800
H  40.47800 3.68900 31.14300
H  40.41100 1.90800 31.15800
H  41.35800 3.17900 29.17000
H  41.77600 2.62200 27.60200
H  41.08900 1.41600 28.83900
H  35.03100 2.25500 24.95800
H  32.70700 4.13300 25.12200
H  35.74300 4.97000 25.28400
H  34.59500 4.96200 23.96400
H  36.12000 4.03500 23.87600
H  32.91100 1.67800 23.97700
H  31.50000 2.48000 24.52700
H  31.22800 0.77500 25.79300
H  32.87100 0.83800 26.53200
H  32.50800 -0.17200 24.99900
H  28.32100 5.10400 29.27000
H  28.51400 3.53100 28.38800
H  29.25500 4.99400 27.83500
H  30.80600 3.52700 33.78600
H  29.90200 7.35700 35.99700
H  31.50600 6.66400 36.62800
H  30.00600 6.09700 37.22000
Mg 51.31400 46.29100 43.43200
C  48.33200 47.11300 41.95100
C  50.75300 43.01400 42.16100
C  54.37800 45.47200 44.43900
C  51.87500 49.59000 44.31500
N  49.57800 45.21400 42.32500
C  48.54200 45.79900 41.69400
C  47.68100 44.77200 40.89900
C  48.54000 43.53600 41.00800
C  49.69000 43.94400 41.96400
C  47.69900 42.24400 41.34400
C  47.43100 45.21500 39.38000
C  46.03700 44.89500 38.83900
H  45.88500 44.12100 37.59700
N  52.44800 44.55000 43.29800
C  52.05500 43.30800 42.72000
C  53.13400 42.35500 42.84300
C  54.20800 43.04200 43.53400
C  53.68200 44.38100 43.87200
C  53.05800 40.92100 42.38300
C  55.55800 42.45700 43.81700
O  55.86100 41.34300 43.46600
C  56.50700 43.29000 44.55100
N  53.04200 47.48300 44.05800
C  54.15200 46.89400 44.57800
C  55.06900 47.99700 45.32200
C  54.13100 49.15500 45.32300
C  52.98600 48.75600 44.46400
C  55.55300 47.45200 46.76100
C  54.70600 50.57300 44.99000
C  54.11000 51.69300 45.78400
N  50.33100 48.03900 43.37600
C  50.62500 49.27400 43.74900
C  49.59400 50.22000 43.35700
C  48.65200 49.40900 42.62700
C  49.12800 48.09800 42.68000
C  49.53700 51.67400 43.73900
C  47.39800 49.39200 42.04200
O  46.55100 50.29600 41.96800
C  47.17200 47.96100 41.40600
C  45.85800 47.41100 41.67000
O  45.41500 47.13400 42.75300
O  45.13700 47.37800 40.53200
C  43.70200 47.05300 40.58400
H  50.66600 42.02500 41.70500
H  55.30000 45.32500 45.00600
H  51.92900 50.61000 44.70100
H  46.85600 44.64700 41.60100
H  48.93800 43.34500 40.01100
H  47.90400 42.15900 42.41100
H  48.19100 41.41500 40.83600
H  46.62000 42.34900 41.23300
H  48.13500 44.68400 38.73900
H  47.54600 46.29700 39.31800
H  45.48400 45.81400 38.64600
H  45.43200 44.37100 39.57900
H  53.92900 40.74300 41.75300
H  52.21200 40.72800 41.72300
H  52.94900 40.23000 43.21900
H  57.43900 42.80100 44.83300
H  56.05100 43.49500 45.52000
H  56.79500 44.21100 44.04400
H  55.92700 48.32100 44.73400
H  53.70400 49.18600 46.32600
H  55.18800 48.16200 47.50300
H  56.61400 47.48900 47.00800
H  55.25500 46.40800 46.86000
H  54.49600 50.98900 44.00500
H  55.78700 50.60100 45.13200
H  53.63800 52.35200 45.05600
H  54.87700 52.20200 46.36800
H  53.35300 51.36600 46.49600
H  48.58300 52.11800 43.45800
H  50.41000 52.22300 43.38800
H  49.51900 51.67200 44.82900
H  47.45000 48.22500 40.38600
H  43.40800 46.32200 41.33600
H  43.43700 46.65400 39.60400
H  43.16500 47.98300 40.77100

