158

Mg 5.48800 54.39500 41.45400
C  3.20900 51.60500 41.57300
C  7.68500 52.36800 39.86700
C  7.13100 57.11200 40.57500
C  2.53700 56.41700 41.82000
N  5.34500 52.30700 40.60500
C  4.33800 51.36200 40.74200
C  4.71200 50.12800 39.94600
C  6.21900 50.23000 39.81800
C  6.46000 51.70400 40.16000
C  7.14400 49.19600 40.49200
C  3.98300 50.13100 38.56700
C  3.44600 48.83500 38.00600
H  4.15900 48.27800 36.75700
N  7.33800 54.68700 40.61900
C  8.12200 53.69400 40.06400
C  9.44000 54.33400 39.76800
C  9.26900 55.74900 40.00300
C  7.87200 55.93400 40.44900
C  10.50300 53.46900 39.22800
C  10.43500 56.74800 39.88100
O  11.52700 56.41000 39.41300
C  10.30100 58.16000 40.25600
N  4.84700 56.42200 41.17800
C  5.75200 57.37300 40.81100
C  5.09100 58.80900 40.77900
C  3.58600 58.58900 41.16300
C  3.64100 57.04200 41.38300
C  5.80300 59.95600 41.57100
C  2.55900 59.07800 40.10200
C  2.03800 60.53700 40.29800
N  3.35900 54.13100 41.97400
C  2.30900 55.05000 42.07400
C  1.17100 54.34000 42.58300
C  1.49600 52.95700 42.45700
C  2.81300 52.91900 42.02500
C  -0.09700 54.98200 42.91500
C  0.97500 51.63400 42.58400
O  -0.08400 51.21200 43.00900
C  2.14300 50.73400 42.10700
C  1.59500 49.76800 41.10700
O  1.14900 50.13900 40.05100
O  1.92000 48.51100 41.58000
C  1.45300 47.42800 40.69100
H  8.47700 51.69100 39.53900
H  7.79100 57.97300 40.45500
H  1.65800 57.04400 41.98300
H  4.37600 49.20200 40.41300
H  6.52700 50.19100 38.77300
H  6.55900 48.33400 40.81300
H  7.47500 49.55400 41.46700
H  8.02700 48.99900 39.88400
H  4.58900 50.47400 37.72800
H  3.19800 50.88400 38.64000
H  2.37000 48.87300 37.83400
H  3.52500 48.02900 38.73500
H  10.50000 53.58400 38.14400
H  10.48400 52.41200 39.49700
H  11.44900 53.88600 39.57100
H  11.28000 58.57100 40.50200
H  9.75200 58.28600 41.18900
H  9.87900 58.71400 39.41700
H  5.18300 59.12600 39.74000
H  3.32300 59.05000 42.11500
H  5.15400 60.50800 42.25100
H  6.19400 60.65000 40.82700
H  6.67800 59.80400 42.20200
H  1.60600 58.55000 40.13200
H  3.13200 58.97400 39.18000
H  2.77700 61.16200 39.79700
H  2.07200 60.80000 41.35500
H  1.01100 60.76100 40.00800
H  0.15500 55.72000 43.67600
H  -0.85500 54.37400 43.40800
H  -0.58800 55.40100 42.03600
H  2.47800 50.17400 42.98000
H  1.17900 47.71800 39.67700
H  0.67100 46.87500 41.21300
H  2.42000 46.93500 40.59000
Mg -5.90600 25.84100 26.35400
C  -4.66300 27.22700 29.24600
C  -7.86300 23.65700 28.55400
C  -6.46200 23.71700 23.81700
C  -3.59200 27.59900 24.52000
N  -6.32700 25.54500 28.64200
C  -5.60200 26.18900 29.58000
C  -6.06800 25.76800 30.97400
C  -6.78300 24.42200 30.73600
C  -7.01700 24.53600 29.24000
C  -6.03200 23.09900 31.24400
C  -7.00600 26.86800 31.58600
C  -6.88200 26.94100 33.17800
H  -6.14100 25.87900 34.00400
N  -7.07100 24.07200 26.17000
C  -7.88400 23.44200 27.10900
C  -8.72900 22.45400 26.45000
C  -8.26200 22.38900 25.08300
C  -7.20400 23.41700 24.93500
C  -9.78900 21.72900 27.14100
C  -8.74100 21.42200 23.99200
O  -8.11900 21.34400 22.98000
C  -10.00500 20.61800 24.11600
N  -5.08000 25.65400 24.52000
C  -5.52100 24.77500 23.57300
C  -4.86100 25.02000 22.17500
C  -4.17100 26.36500 22.40600
C  -4.24300 26.57200 23.96100
C  -3.97600 23.84300 21.70300
C  -4.68100 27.65600 21.59700
C  -3.53100 28.42400 20.75500
N  -4.51200 27.27200 26.80100
C  -3.57600 27.92100 25.95400
C  -2.83200 28.88500 26.63600
C  -3.21400 28.65900 27.94900
C  -4.25500 27.68300 27.97700
C  -1.90300 29.80100 25.94700
C  -3.00100 29.09900 29.35700
O  -2.31700 29.94100 29.85500
C  -3.84400 28.07500 30.21800
C  -2.91900 27.37700 31.22100
O  -2.24600 26.36900 31.07000
O  -2.85700 28.11500 32.37600
C  -2.15000 27.36300 33.48000
H  -8.31900 22.91400 29.21100
H  -6.57300 22.96700 23.03200
H  -2.94800 28.20000 23.87400
H  -5.08500 25.65300 31.43100
H  -7.71900 24.46700 31.29200
H  -6.16100 22.28100 30.53600
H  -6.39100 22.80900 32.23200
H  -5.00800 23.35300 31.51700
H  -8.04100 26.58000 31.40100
H  -6.82900 27.85600 31.16200
H  -7.94500 27.05700 33.38900
H  -6.39700 27.90300 33.34000
H  -10.78100 22.01600 26.79300
H  -9.66500 21.85500 28.21600
H  -9.55300 20.66500 27.13600
H  -9.75800 19.75800 24.73800
H  -10.34200 20.25000 23.14700
H  -10.63700 21.34800 24.62200
H  -5.64600 25.11800 21.42500
H  -3.14300 26.26200 22.06000
H  -3.99300 23.16000 22.55200
H  -2.92100 24.11900 21.68600
H  -4.36600 23.34200 20.81700
H  -5.23500 28.30100 22.27900
H  -5.46400 27.31500 20.91900
H  -3.54000 29.49100 20.97700
H  -3.83800 28.20700 19.73200
H  -2.54500 27.98900 20.91600
H  -1.95000 29.73700 24.86000
H  -0.87500 29.50100 26.15300
H  -2.06500 30.84600 26.21000
H  -4.55200 28.64900 30.81600
H  -1.12900 27.74100 33.42300
H  -2.19800 26.27500 33.51700
H  -2.61800 27.75200 34.38400

