158

Mg -11.04700 37.89800 41.99800
C  -9.48400 34.86000 40.94600
C  -8.81700 39.63400 40.18000
C  -12.99500 40.48300 42.62000
C  -13.73800 35.58500 43.13000
N  -9.39700 37.27800 40.68400
C  -8.95400 35.98000 40.36500
C  -7.96300 36.06600 39.17600
C  -7.57600 37.58200 39.25000
C  -8.70300 38.25300 40.00200
C  -6.15400 37.98100 39.80100
C  -8.55000 35.57300 37.85800
C  -7.67400 34.68600 36.96100
H  -6.69600 35.34600 36.07700
N  -10.81300 39.85000 41.67500
C  -9.78000 40.37000 40.91300
C  -9.86000 41.75300 40.99300
C  -11.11200 42.09900 41.74900
C  -11.68900 40.82200 42.10700
C  -8.88200 42.75500 40.36400
C  -11.69700 43.48400 42.04100
O  -11.20600 44.52000 41.57500
C  -12.81800 43.64600 43.02500
N  -13.00200 37.96700 42.85200
C  -13.58100 39.21200 42.98000
C  -15.06500 39.15000 43.47700
C  -15.24500 37.60500 43.71300
C  -13.89800 37.00000 43.16200
C  -15.33400 40.00600 44.69400
C  -16.44700 36.94100 42.90300
C  -17.32900 35.89100 43.65500
N  -11.54900 35.66400 42.19100
C  -12.62000 34.94900 42.60700
C  -12.44600 33.55200 42.30800
C  -11.18600 33.40700 41.78000
C  -10.67200 34.77300 41.68500
C  -13.29000 32.43100 42.75800
C  -10.15500 32.48100 41.21700
O  -10.08400 31.28300 41.10600
C  -9.02500 33.44900 40.71300
C  -7.77400 33.17000 41.44000
O  -6.66600 33.28600 40.90400
O  -8.00000 32.98200 42.78900
C  -6.76700 33.27500 43.58600
H  -8.03500 40.08700 39.56700
H  -13.82300 41.19400 42.64800
H  -14.56400 34.92100 43.39200
H  -7.10900 35.42600 39.40100
H  -7.54700 38.02600 38.25500
H  -5.56500 38.55100 39.08300
H  -5.55500 37.11800 40.09100
H  -6.32000 38.58900 40.69100
H  -8.77600 36.41000 37.19700
H  -9.53900 35.12200 37.94300
H  -8.30100 33.92800 36.49000
H  -7.05700 34.00700 37.55000
H  -9.29900 43.10000 39.41700
H  -7.97500 42.19700 40.13200
H  -8.80100 43.49200 41.16300
H  -12.82900 44.50200 43.69800
H  -12.69600 42.85000 43.76000
H  -13.75200 43.61900 42.46400
H  -15.70500 39.45300 42.64800
H  -15.35100 37.54600 44.79700
H  -16.31100 40.42800 44.45800
H  -14.68300 40.87000 44.82500
H  -15.44300 39.53500 45.67100
H  -16.07500 36.51800 41.97000
H  -17.08700 37.78000 42.62800
H  -17.51500 34.98300 43.08200
H  -18.33200 36.31300 43.72800
H  -17.00900 35.58100 44.64900
H  -13.43000 31.72300 41.94100
H  -14.21800 32.84600 43.15000
H  -12.74400 31.88900 43.52900
H  -8.88000 33.17500 39.66800
H  -6.07200 32.43600 43.54200
H  -7.19000 33.58500 44.54200
H  -6.29200 34.19500 43.24700
Mg 1.05900 41.39600 25.17600
C  2.93200 41.90000 28.10300
C  -1.60500 40.46200 27.23700
C  -0.64300 40.57800 22.42800
C  4.09600 41.67300 23.28900
N  0.63500 41.32900 27.49200
C  1.61100 41.51400 28.39600
C  1.04600 41.30800 29.80700
C  -0.42200 40.77200 29.54900
C  -0.51100 40.86700 28.04200
C  -0.64200 39.22100 29.92200
C  1.04200 42.62900 30.65400
C  0.28200 42.71100 31.93100
H  0.07400 41.45400 32.76000
N  -0.82700 40.87600 24.87300
C  -1.77200 40.48200 25.86300
C  -3.02200 40.12300 25.15300
C  -2.75000 40.23700 23.76000
C  -1.34300 40.60400 23.58600
C  -4.34500 39.87600 25.91100
C  -3.79500 40.15400 22.60900
O  -3.43900 40.17400 21.42200
C  -5.25100 39.99400 22.80300
N  1.63200 41.06200 23.14600
C  0.74400 40.82500 22.16600
C  1.35500 40.87500 20.73500
C  2.82700 41.32800 21.03300
C  2.87500 41.44200 22.59400
C  1.33000 39.50500 19.99400
C  3.12500 42.69100 20.28800
C  3.06500 43.98500 21.18100
N  3.05200 41.79400 25.52900
C  4.17800 41.91800 24.66600
C  5.29100 42.20600 25.45900
C  4.91900 42.26000 26.78200
C  3.52100 41.96000 26.73600
C  6.63400 42.43900 24.93800
C  5.32200 42.43800 28.16200
O  6.43000 42.66300 28.59700
C  4.02700 42.19000 29.04200
C  4.29600 41.10500 30.03500
O  4.37600 39.88200 29.77500
O  4.75600 41.70600 31.16700
C  5.33800 40.66200 32.09800
H  -2.43400 40.04500 27.81400
H  -1.26200 40.50700 21.53100
H  5.04700 41.74900 22.75700
H  1.68100 40.61700 30.36100
H  -1.19100 41.36900 30.03900
H  0.24400 38.70600 30.29400
H  -1.04600 38.69100 29.06000
H  -1.39200 39.28800 30.71000
H  0.68600 43.41200 29.98500
H  2.06700 42.91600 30.89000
H  -0.65600 43.26200 31.86700
H  0.85700 43.26600 32.67200
H  -4.34900 39.94900 26.99900
H  -4.73600 38.90900 25.59500
H  -5.05500 40.62000 25.54900
H  -5.70600 40.85700 23.29100
H  -5.43900 39.06000 23.33300
H  -5.61100 39.98200 21.77500
H  0.83900 41.54900 20.05100
H  3.50200 40.54000 20.70000
H  2.27300 38.96900 20.10800
H  1.11900 39.68900 18.94100
H  0.55900 38.84800 20.39800
H  2.30300 42.98600 19.63600
H  4.02600 42.66200 19.67400
H  4.05000 44.15900 21.61300
H  2.35500 43.89300 22.00300
H  2.73300 44.80000 20.53800
H  6.52000 43.17600 24.14400
H  7.00200 41.52600 24.47100
H  7.25700 42.77500 25.76700
H  3.87600 43.11000 29.60700
H  5.95800 40.98300 32.93500
H  5.88400 39.92000 31.51500
H  4.43000 40.27800 32.56300

