158

Mg 47.05600 24.40000 28.26000
C  47.66700 26.80000 30.95200
C  46.26400 22.14200 30.73200
C  46.76900 22.17100 25.83000
C  48.49500 26.71700 26.17400
N  46.85800 24.51400 30.59200
C  47.05800 25.62000 31.41500
C  46.79400 25.14900 32.82300
C  46.56700 23.61400 32.73600
C  46.61900 23.39500 31.25800
C  47.63000 22.82100 33.54500
C  45.69600 25.95700 33.65700
C  46.16600 26.54500 35.05100
H  46.45900 25.61200 36.18300
N  46.54800 22.43600 28.26500
C  46.14300 21.72100 29.37800
C  45.64100 20.40000 28.96500
C  45.79300 20.35800 27.53000
C  46.34800 21.68000 27.12400
C  45.21200 19.38100 29.89000
C  45.30300 19.31200 26.51600
O  45.35500 19.46800 25.29300
C  44.56500 18.14700 27.02500
N  47.52300 24.47600 26.31000
C  47.30900 23.41600 25.45300
C  47.57800 23.76700 23.98700
C  48.06100 25.21200 24.10800
C  47.99100 25.52800 25.60100
C  48.63600 22.83100 23.39500
C  47.11400 26.14500 23.26700
C  45.63200 26.15000 23.71400
N  47.82900 26.38400 28.43300
C  48.43900 27.16500 27.46900
C  48.81300 28.36400 28.04200
C  48.57500 28.29300 29.43800
C  47.92000 27.05500 29.61700
C  49.40100 29.53100 27.27300
C  48.61000 29.09900 30.68900
O  48.91500 30.24200 30.78700
C  48.07800 28.05100 31.71700
C  49.18000 27.73900 32.72400
O  50.05000 26.95400 32.50100
O  49.06000 28.48500 33.87900
C  50.02800 28.19700 34.98900
H  46.01600 21.39000 31.48300
H  46.48500 21.55500 24.97400
H  48.88300 27.40400 25.42000
H  47.77500 25.27900 33.27900
H  45.61700 23.37500 33.21300
H  47.87500 21.92200 32.97900
H  47.23700 22.62600 34.54300
H  48.57900 23.32900 33.71600
H  44.78400 25.37500 33.79400
H  45.30000 26.73700 33.00700
H  45.35900 27.23100 35.30800
H  47.06400 27.14600 34.90700
H  46.09500 18.74500 29.95600
H  44.26700 18.95000 29.56000
H  45.09600 19.71600 30.92100
H  44.23800 17.48700 26.22200
H  43.69500 18.55000 27.54200
H  45.36600 17.69500 27.61100
H  46.60200 23.63800 23.51800
H  49.12600 25.37300 23.94000
H  49.00800 22.02500 24.02700
H  49.51700 23.43900 23.18800
H  48.32200 22.37800 22.45500
H  47.24600 25.86400 22.22200
H  47.46000 27.17700 23.32400
H  45.18100 27.13800 23.81000
H  45.53600 25.63400 24.66900
H  44.94900 25.62800 23.04400
H  48.59600 30.12700 26.84500
H  49.92000 29.09500 26.41900
H  50.07500 30.14700 27.86800
H  47.20000 28.44700 32.22600
H  49.60300 27.52200 35.73200
H  50.26500 29.13700 35.48700
H  50.98300 27.81200 34.63200
Mg -11.71500 37.82700 42.03900
C  -9.10900 35.32800 41.33200
C  -9.76000 40.13200 40.67900
C  -14.33600 39.69100 42.32200
C  -13.73100 35.03000 43.06400
N  -9.56000 37.71500 41.04600
C  -8.74100 36.61100 40.82700
C  -7.68900 37.07200 39.82900
C  -7.66500 38.67200 39.99800
C  -9.09300 38.86000 40.60800
C  -6.55700 39.17400 41.02000
C  -7.80400 36.57700 38.34000
C  -6.53000 35.99500 37.75200
H  -5.63200 36.69900 36.75900
N  -11.96700 39.66700 41.59800
C  -11.01700 40.48600 41.09200
C  -11.51600 41.82400 41.08500
C  -12.85800 41.72400 41.52900
C  -13.13600 40.28100 41.78900
C  -10.79800 42.96400 40.49600
C  -13.82400 42.91500 41.64900
O  -13.35700 44.02400 41.37700
C  -15.27100 42.76600 42.01500
N  -13.85900 37.38000 42.40300
C  -14.73100 38.41900 42.61800
C  -16.14800 37.92400 42.98100
C  -15.90800 36.37900 43.29600
C  -14.37900 36.25100 42.91500
C  -16.77600 38.68800 44.12000
C  -16.72600 35.39400 42.46600
C  -18.07100 35.06500 42.98300
N  -11.53400 35.63100 42.27800
C  -12.37500 34.72400 42.73600
C  -11.68000 33.46500 42.88700
C  -10.48300 33.66300 42.27500
C  -10.38200 35.01500 41.94700
C  -12.30500 32.21500 43.57700
C  -9.24400 33.04700 41.97600
O  -8.91400 31.89600 42.25900
C  -8.26900 34.11000 41.25500
C  -7.00400 34.17400 42.06600
O  -6.81600 34.67600 43.15700
O  -6.06200 33.35900 41.39000
C  -4.96900 33.07300 42.28900
H  -9.11100 40.94400 40.34400
H  -15.16700 40.39200 42.41700
H  -14.32700 34.21900 43.48900
H  -6.75300 36.81500 40.32500
H  -7.67400 39.14900 39.01800
H  -6.87700 39.16200 42.06200
H  -6.21300 40.15900 40.70500
H  -5.64400 38.59900 41.17500
H  -7.91700 37.43000 37.67000
H  -8.65300 35.90700 38.20000
H  -6.84400 35.07700 37.25400
H  -5.83700 35.80900 38.57300
H  -11.02500 43.16900 39.45000
H  -9.73800 42.87000 40.73200
H  -10.95200 43.87700 41.07200
H  -15.74000 42.37500 41.11200
H  -15.61300 43.79900 42.07000
H  -15.36700 42.24800 42.96900
H  -16.84100 38.06900 42.15200
H  -16.17100 36.09900 44.31600
H  -17.75800 38.94800 43.72500
H  -16.18300 39.55600 44.40700
H  -16.92600 38.17100 45.06800
H  -16.15500 34.49400 42.23800
H  -16.83300 35.85500 41.48400
H  -18.07900 33.97500 42.98400
H  -18.74900 35.46700 42.23000
H  -18.25700 35.43500 43.99100
H  -11.88100 31.30900 43.14300
H  -13.38200 32.28100 43.42400
H  -12.26700 32.20600 44.66600
H  -8.08700 33.63900 40.29000
H  -5.36400 32.37100 43.02300
H  -4.54900 33.94100 42.79500
H  -4.11100 32.60800 41.80200

