158

Mg 35.64300 1.87300 29.89500
C  33.46500 3.17500 32.34500
C  38.21700 2.11600 32.19600
C  37.85800 1.60600 27.36500
C  33.17100 2.54500 27.41900
N  35.83700 2.75000 31.91400
C  34.81500 2.90100 32.77600
C  35.16400 2.84200 34.22200
C  36.76400 2.85400 34.16000
C  36.98900 2.62000 32.60700
C  37.45900 4.15700 34.63000
C  34.54000 1.71900 35.10400
C  34.43900 2.08300 36.60100
H  35.15200 3.25800 37.19400
N  37.69900 1.55600 29.80500
C  38.49600 1.60700 30.87300
C  39.78400 1.09900 30.43600
C  39.78700 1.14400 28.98600
C  38.42000 1.44100 28.66000
C  40.94300 0.86500 31.36100
C  40.90000 0.86100 27.99500
O  40.78900 0.90600 26.79400
C  42.31000 0.46500 28.45200
N  35.51300 1.94600 27.70500
C  36.54900 1.78900 26.95300
C  36.17500 1.74000 25.45000
C  34.61400 1.74800 25.48600
C  34.37000 1.99300 26.98400
C  36.80400 2.97200 24.58000
C  33.93500 0.44900 24.97000
C  33.36600 0.59200 23.51900
N  33.65400 2.61800 29.91900
C  32.80600 2.87900 28.78000
C  31.56500 3.34500 29.29600
C  31.74100 3.41800 30.72500
C  33.05500 3.03700 31.02500
C  30.42300 3.73400 28.40800
C  31.09200 3.82800 31.94700
O  30.01300 4.32700 32.18900
C  32.17400 3.62200 33.09200
C  32.30500 4.88800 33.87700
O  33.29300 5.65000 33.86400
O  31.25100 4.97500 34.72300
C  31.08400 6.13600 35.59700
H  38.98900 2.17000 32.96600
H  38.46300 1.40800 26.47800
H  32.53400 2.73700 26.55200
H  34.80400 3.80400 34.58600
H  37.27200 2.06600 34.71700
H  38.08000 3.94300 35.50000
H  36.78100 4.89200 35.06300
H  37.97200 4.68100 33.82400
H  35.22600 0.88600 34.95300
H  33.52600 1.58800 34.72500
H  34.85500 1.17100 37.03000
H  33.37400 2.30400 36.67600
H  41.29700 -0.16400 31.29500
H  40.58700 0.90200 32.39100
H  41.73100 1.58700 31.14300
H  42.36500 -0.26400 29.26000
H  42.61700 1.39300 28.93400
H  42.88800 0.14400 27.58500
H  36.69400 0.87400 25.04000
H  34.28700 2.63500 24.94300
H  36.99100 2.64000 23.55900
H  37.81300 3.14100 24.95400
H  36.16800 3.85800 24.56300
H  33.18600 0.18200 25.71500
H  34.64400 -0.36700 24.82800
H  32.31100 0.57400 23.79400
H  33.57000 -0.25100 22.85800
H  33.55600 1.54200 23.02000
H  30.11100 2.96700 27.69900
H  30.76400 4.67900 27.98500
H  29.52900 3.82300 29.02600
H  31.87200 2.80700 33.74900
H  30.24900 5.74500 36.17800
H  30.78200 7.09000 35.16400
H  31.86600 6.32000 36.33200
Mg 31.08500 58.37700 40.31800
C  28.15700 56.51600 39.14800
C  32.99800 55.65200 39.20700
C  33.67100 60.43300 40.56200
C  28.90700 61.11000 40.80800
N  30.62800 56.32700 39.19200
C  29.39800 55.79100 38.88500
C  29.60800 54.40900 38.18100
C  31.06300 54.02800 38.68800
C  31.62000 55.43300 39.05300
C  31.10200 53.10600 39.99700
C  29.40000 54.65700 36.67500
C  28.59600 53.50700 36.00900
H  28.29000 53.69400 34.50500
N  33.10600 58.08400 39.90800
C  33.70200 56.88700 39.48600
C  35.09300 57.22400 39.24500
C  35.35400 58.53400 39.66700
C  34.00000 59.09200 40.05700
C  36.03100 56.19700 38.77100
C  36.70400 59.21900 39.69100
O  37.71100 58.59900 39.39200
C  36.84200 60.67700 40.10700
N  31.23600 60.48700 40.66000
C  32.46500 61.02900 40.80700
C  32.35000 62.60000 41.18500
C  30.75900 62.76800 41.19700
C  30.23700 61.37800 40.92100
C  33.17100 63.14400 42.39000
C  30.22500 63.84800 40.11500
C  29.28500 64.90600 40.52000
N  28.97700 58.68300 40.24600
C  28.26300 59.88200 40.34400
C  26.86000 59.72200 40.15500
C  26.80300 58.38600 39.61200
C  28.08000 57.81000 39.70300
C  25.75300 60.67400 40.30700
C  25.88000 57.36200 39.09100
O  24.66400 57.38800 39.00100
C  26.68900 56.08300 38.89000
C  26.22200 55.01900 39.82900
O  26.96000 54.58800 40.69800
O  24.94600 54.71500 39.56800
C  24.31000 53.64600 40.36200
H  33.59700 54.80200 38.87100
H  34.45400 61.17200 40.74300
H  28.16700 61.91300 40.81100
H  29.01900 53.58900 38.59200
H  31.67000 53.57000 37.90700
H  30.16400 52.55900 40.09600
H  31.06500 53.74600 40.87900
H  32.04700 52.56600 39.93100
H  30.40500 54.81800 36.28700
H  28.85100 55.58600 36.52000
H  27.60400 53.42300 36.45300
H  29.08900 52.55100 36.18700
H  37.01400 56.37900 39.20600
H  36.14700 56.33000 37.69500
H  35.60200 55.21700 38.97800
H  36.16900 61.24000 39.46100
H  37.88000 61.01000 40.06900
H  36.57900 60.70600 41.16500
H  32.64100 63.22600 40.34100
H  30.45500 63.18500 42.15800
H  32.60200 63.55300 43.22400
H  34.10000 63.58200 42.02600
H  33.55700 62.21900 42.82100
H  29.83300 63.38400 39.21000
H  31.06100 64.48600 39.82900
H  29.67100 65.90800 40.33700
H  29.39100 64.92500 41.60500
H  28.25900 64.68400 40.22600
H  25.70800 61.17100 39.33800
H  25.89000 61.28800 41.19700
H  24.81600 60.13300 40.44100
H  26.49800 55.81700 37.85000
H  23.95800 52.84400 39.71300
H  23.46200 54.04900 40.91600
H  24.90300 53.18000 41.14900

