158

Mg 30.33100 58.26800 39.56000
C  27.76300 55.86700 38.78100
C  32.48900 55.49800 39.23900
C  32.83500 60.46100 39.43800
C  28.02400 60.70500 39.69100
N  30.09300 55.92000 38.99200
C  29.02500 55.14700 38.87300
C  29.23100 53.66500 38.83300
C  30.81000 53.63200 38.97200
C  31.17200 55.11900 39.12800
C  31.37600 52.80700 40.14200
C  28.77900 53.01400 37.48500
C  29.17900 53.70800 36.15400
H  28.13400 54.17500 35.12400
N  32.41700 58.06900 39.55700
C  33.08400 56.86900 39.31900
C  34.48900 57.15900 39.29400
C  34.68300 58.58100 39.44600
C  33.27300 59.09900 39.54400
C  35.64200 56.11900 39.05900
C  36.00300 59.27300 39.54300
O  37.02700 58.61600 39.50200
C  36.16700 60.72800 39.80200
N  30.46400 60.31200 39.49900
C  31.55600 61.08300 39.45300
C  31.22900 62.58300 39.44300
C  29.75900 62.59900 39.78500
C  29.35300 61.11500 39.64600
C  32.09700 63.41500 40.43100
C  28.89800 63.63600 38.92700
C  28.51800 64.95300 39.58200
N  28.26900 58.39700 39.31500
C  27.43400 59.45700 39.51200
C  26.01900 58.94600 39.48700
C  26.18800 57.58700 39.20900
C  27.54900 57.26500 38.97600
C  24.73800 59.70300 39.71800
C  25.45700 56.37700 38.90400
O  24.23800 56.13900 39.07100
C  26.41600 55.25300 38.59300
C  26.18600 54.19600 39.56600
O  26.68500 54.25200 40.68300
O  25.47600 53.11800 39.09700
C  25.66200 51.82900 39.63000
H  33.21300 54.68100 39.26600
H  33.68600 61.14100 39.36200
H  27.29100 61.48200 39.91800
H  28.78900 53.18000 39.70400
H  31.25100 53.21000 38.06800
H  30.58600 52.25800 40.65400
H  31.80400 53.54500 40.82100
H  32.10400 52.09600 39.75100
H  27.69200 52.96400 37.54600
H  29.18500 52.00300 37.44800
H  29.88800 53.05100 35.65000
H  29.72100 54.56300 36.56000
H  36.45600 56.44900 38.41300
H  35.22900 55.23500 38.57300
H  35.99100 55.78900 40.03700
H  35.50100 61.06600 40.59600
H  35.97900 61.10700 38.79700
H  37.18100 60.93400 40.14500
H  31.40400 62.90900 38.41800
H  29.55300 62.75900 40.84400
H  31.50300 64.04800 41.09000
H  32.64400 64.16800 39.86400
H  32.72100 62.84400 41.11900
H  27.98800 63.15100 38.57400
H  29.33200 63.80700 37.94200
H  27.43100 65.00400 39.64600
H  28.90500 65.70100 38.89000
H  28.91900 65.06900 40.58900
H  23.93100 59.13900 39.25000
H  24.87500 60.69900 39.29600
H  24.53300 59.71000 40.78900
H  26.24100 54.83700 37.60100
H  25.82700 51.04400 38.89300
H  24.80800 51.54400 40.24500
H  26.55700 51.83900 40.25200
Mg -6.07400 24.97200 24.90700
C  -4.42900 26.22300 27.78700
C  -7.94000 22.81700 26.84600
C  -7.43400 23.55000 22.01600
C  -4.15200 27.09000 23.00000
N  -6.07800 24.46900 27.05400
C  -5.37900 25.14000 28.04100
C  -5.98900 24.81000 29.37500
C  -6.89000 23.53300 29.07400
C  -6.92000 23.52700 27.53300
C  -6.46500 22.13400 29.69100
C  -6.84100 25.96500 29.98600
C  -6.85400 26.03600 31.51100
H  -6.17600 24.91200 32.26400
N  -7.54200 23.41300 24.49700
C  -8.18800 22.68500 25.41700
C  -9.09900 21.74000 24.83300
C  -9.04100 22.01800 23.36800
C  -7.97600 23.01500 23.23300
C  -9.97000 20.80000 25.64300
C  -9.71800 21.23100 22.26600
O  -9.49600 21.35300 21.10100
C  -10.83500 20.20700 22.60600
N  -5.66800 25.12000 22.86300
C  -6.40200 24.52000 21.84600
C  -6.01900 25.02900 20.52800
C  -5.11400 26.25300 20.84600
C  -5.01500 26.18400 22.31700
C  -5.33300 23.97500 19.63500
C  -5.63400 27.67100 20.30400
C  -6.70000 28.29100 21.24200
N  -4.68900 26.39600 25.23000
C  -3.98200 27.15400 24.37200
C  -3.14800 28.11700 25.14900
C  -3.24600 27.74800 26.51700
C  -4.17700 26.72500 26.49100
C  -2.30300 29.21600 24.50700
C  -2.79800 27.98500 27.85800
O  -1.99700 28.76600 28.29700
C  -3.64900 27.07000 28.77000
C  -2.81500 26.28600 29.70500
O  -2.49100 25.13100 29.57000
O  -2.67500 27.04700 30.87100
C  -1.83400 26.59000 32.05000
H  -8.63500 22.23800 27.45700
H  -7.97300 23.29300 21.10100
H  -3.42100 27.69800 22.46200
H  -5.20200 24.46300 30.04400
H  -7.85600 23.71500 29.54700
H  -5.37700 22.17800 29.73600
H  -6.72100 21.30900 29.02600
H  -6.95700 22.02000 30.65700
H  -7.90500 25.76200 29.86200
H  -6.68700 26.95400 29.55500
H  -7.89700 25.99500 31.82700
H  -6.34500 26.98700 31.66500
H  -9.69900 19.78300 25.35800
H  -10.97200 21.08100 25.31800
H  -9.95200 20.91100 26.72700
H  -10.41100 19.33800 23.10800
H  -11.25500 19.99400 21.62300
H  -11.57700 20.73200 23.20800
H  -6.83800 25.38600 19.90400
H  -4.15700 26.03600 20.37400
H  -4.33300 23.73500 19.99500
H  -5.20900 24.31900 18.60900
H  -6.02400 23.13600 19.72000
H  -6.08800 27.58900 19.31600
H  -4.83300 28.40500 20.21600
H  -7.48900 28.78300 20.67400
H  -6.27900 29.05600 21.89600
H  -7.17000 27.55500 21.89400
H  -2.91300 29.76100 23.78700
H  -1.42000 28.71400 24.11200
H  -2.05500 29.87900 25.33600
H  -4.24500 27.75900 29.36900
H  -2.36400 26.34200 32.96900
H  -1.21300 27.44700 32.31000
H  -1.25800 25.71100 31.76200

