158

Mg 8.04900 2.92700 27.68900
C  9.48200 1.30400 30.54600
C  6.42100 4.92800 29.85200
C  6.73300 4.28100 25.04800
C  9.86000 0.59300 25.73000
N  7.88700 3.04800 30.00200
C  8.67600 2.36200 30.94600
C  8.46300 2.93200 32.34800
C  7.37400 4.03100 32.11000
C  7.14000 3.94500 30.55900
C  6.07400 3.78600 32.85600
C  9.81900 3.35300 33.09300
C  9.59900 4.35400 34.28900
H  10.49100 4.38600 35.51800
N  6.66700 4.34700 27.48300
C  6.11300 5.06800 28.45300
C  5.35400 6.20600 27.88400
C  5.46100 6.00500 26.48000
C  6.25800 4.78200 26.24400
C  4.62500 7.26800 28.68200
C  4.92100 6.98900 25.44100
O  5.13000 6.83000 24.23500
C  3.97000 8.23800 25.76800
N  8.10200 2.29300 25.69800
C  7.60200 3.14300 24.79000
C  7.98000 2.85000 23.38000
C  8.99200 1.72400 23.55800
C  9.01200 1.53200 25.06500
C  6.71900 2.44500 22.61900
C  10.36900 1.93900 22.94000
C  10.99700 0.68300 22.24200
N  9.27900 1.19500 28.04400
C  10.01100 0.37200 27.14900
C  10.90700 -0.50400 27.81600
C  10.63100 -0.15300 29.15200
C  9.69500 0.88900 29.24400
C  11.97800 -1.34100 27.21600
C  11.04900 -0.55100 30.45900
O  11.84300 -1.39400 30.91100
C  10.29100 0.46200 31.37000
C  9.58300 -0.32400 32.43100
O  8.49500 -0.85800 32.24300
O  10.41000 -0.45300 33.55000
C  9.72700 -1.07800 34.68400
H  6.00600 5.76600 30.41600
H  6.46100 4.87100 24.17100
H  10.50200 0.11600 24.98600
H  7.97700 2.18700 32.97900
H  7.80000 5.03200 32.17900
H  5.45500 3.03000 32.37400
H  5.49700 4.71000 32.81900
H  6.22300 3.36800 33.85200
H  10.42000 3.83400 32.32100
H  10.43400 2.59200 33.57400
H  8.54600 4.31600 34.56600
H  9.71100 5.32400 33.80500
H  5.08300 8.24700 28.54500
H  4.46900 7.15700 29.75500
H  3.62500 7.23400 28.24800
H  4.46500 8.92200 26.45700
H  3.03500 7.86600 26.18600
H  3.80100 8.82900 24.86800
H  8.44100 3.72200 22.91600
H  8.53700 0.76700 23.30400
H  5.79000 2.71400 23.12200
H  6.70100 1.42800 22.22500
H  6.63600 3.06100 21.72400
H  11.05300 2.27400 23.72100
H  10.41700 2.75200 22.21500
H  11.15800 0.82000 21.17300
H  10.34900 -0.16400 22.46900
H  12.00400 0.49700 22.61500
H  12.81400 -1.23200 27.90700
H  12.23200 -1.01800 26.20700
H  11.59200 -2.36000 27.19600
H  11.00900 1.08800 31.89900
H  9.08100 -1.91400 34.41300
H  9.14700 -0.31800 35.20700
H  10.53800 -1.54000 35.24700
Mg -6.10900 24.59200 25.51100
C  -4.35800 25.78400 28.25100
C  -8.00500 22.68400 27.58000
C  -7.63000 23.14400 22.83100
C  -4.08100 26.45400 23.50100
N  -6.22300 24.26100 27.73700
C  -5.40700 24.90000 28.65300
C  -5.78300 24.52900 30.09700
C  -6.87800 23.44300 29.89900
C  -7.14800 23.48300 28.36200
C  -6.63000 22.01500 30.49200
C  -6.28300 25.77200 30.95400
C  -5.80500 25.68100 32.43000
H  -5.66600 24.31900 33.12300
N  -7.61300 23.18900 25.23300
C  -8.26900 22.58400 26.18400
C  -9.34500 21.68500 25.62300
C  -9.20200 21.78100 24.19100
C  -8.10100 22.71200 24.03900
C  -10.42000 21.00200 26.48500
C  -9.94200 21.06700 23.09000
O  -9.69100 21.29200 21.91600
C  -11.14400 20.20000 23.43700
N  -5.85300 24.65100 23.43500
C  -6.68400 24.10200 22.49200
C  -6.31600 24.52600 21.07200
C  -5.30900 25.74900 21.31900
C  -5.02600 25.63700 22.82800
C  -5.76200 23.42600 20.14400
C  -5.89700 27.12400 20.88900
C  -5.22400 27.75300 19.60900
N  -4.53500 25.87600 25.69900
C  -3.78800 26.61600 24.80300
C  -2.80800 27.50700 25.54700
C  -3.01800 27.17200 26.87100
C  -4.02100 26.22300 26.90000
C  -1.67300 28.38000 24.89200
C  -2.51000 27.31000 28.16800
O  -1.48400 27.91100 28.42600
C  -3.31700 26.44900 29.15800
C  -2.36900 25.42100 29.78300
O  -2.07100 24.30500 29.32800
O  -1.71000 25.98900 30.84900
C  -1.07100 25.09400 31.84700
H  -8.55000 21.89800 28.10600
H  -8.11900 22.91400 21.88200
H  -3.59000 27.24900 22.93600
H  -4.83900 24.06600 30.38500
H  -7.68000 23.87800 30.49600
H  -5.65500 21.95100 30.97400
H  -6.57000 21.23700 29.73100
H  -7.39500 21.65500 31.17900
H  -7.37200 25.81700 30.94200
H  -5.97500 26.76100 30.61400
H  -6.55900 26.26600 32.95600
H  -4.80700 26.11900 32.45500
H  -10.29900 19.94400 26.25100
H  -11.44600 21.26600 26.22600
H  -10.28900 21.17100 27.55400
H  -10.68800 19.42600 24.05500
H  -11.55400 19.79900 22.51000
H  -11.81000 20.83900 24.01700
H  -7.22800 24.92600 20.63000
H  -4.39100 25.55800 20.76300
H  -6.39400 22.53900 20.11600
H  -4.79700 23.01000 20.43200
H  -5.58100 23.87900 19.16800
H  -5.58900 27.84500 21.64500
H  -6.96900 27.21300 20.71200
H  -6.01800 27.96600 18.89200
H  -4.44500 27.07100 19.27000
H  -4.69900 28.68200 19.83200
H  -1.11500 29.01300 25.58200
H  -2.14100 29.11300 24.23500
H  -0.98900 27.79100 24.28100
H  -3.72300 27.11500 29.91900
H  -1.84000 24.38600 32.15800
H  -0.84000 25.69000 32.73000
H  -0.21800 24.63700 31.34600

