158

Mg 40.66800 9.11000 29.61500
C  42.56100 10.31700 32.30900
C  38.41000 7.67800 31.80600
C  39.08600 7.98600 26.87300
C  43.27500 10.04900 27.48900
N  40.55800 8.95300 31.80900
C  41.41100 9.60800 32.73200
C  40.88300 9.42200 34.11100
C  39.51500 8.63700 33.94300
C  39.50000 8.36300 32.43000
C  39.22700 7.37900 34.81800
C  40.77200 10.76700 34.92000
C  39.47400 11.16700 35.72100
H  39.41700 12.05100 36.89600
N  39.04200 7.86900 29.36200
C  38.21000 7.40800 30.39400
C  37.12300 6.69000 29.80300
C  37.38100 6.72800 28.37700
C  38.49100 7.62200 28.13500
C  36.12400 5.93900 30.63500
C  36.56700 6.05000 27.25600
O  36.85500 6.04000 26.08500
C  35.44800 5.15100 27.56000
N  41.14500 8.97400 27.43000
C  40.25100 8.66500 26.49100
C  40.80500 8.72100 24.99900
C  42.24500 9.34800 25.26000
C  42.21900 9.55000 26.83000
C  40.81700 7.37700 24.22800
C  42.49900 10.70500 24.54700
C  41.75100 11.90700 25.08800
N  42.46000 10.05800 29.72800
C  43.43100 10.34800 28.82600
C  44.58900 10.92400 29.43900
C  44.29400 10.95500 30.78900
C  43.00300 10.41000 30.93600
C  45.82500 11.25500 28.65100
C  44.75900 11.28400 32.10200
O  45.79700 11.82000 32.43100
C  43.59700 11.00000 33.22000
C  44.25800 10.12800 34.15500
O  44.41000 8.90200 34.00800
O  44.70800 10.88000 35.13400
C  45.47800 10.33400 36.20100
H  37.61100 7.28800 32.43900
H  38.61200 7.61800 25.96000
H  44.21900 10.09200 26.94200
H  41.60100 8.74600 34.57600
H  38.68100 9.33800 33.90700
H  38.25300 7.38500 35.30900
H  40.06700 7.25400 35.50200
H  39.14800 6.55200 34.11200
H  40.92300 11.54900 34.17600
H  41.58900 10.93000 35.62300
H  39.08400 10.20700 36.05700
H  38.75600 11.58900 35.01800
H  35.95000 6.28700 31.65300
H  36.43400 4.90200 30.76800
H  35.23600 5.81900 30.01500
H  34.49200 5.59200 27.84300
H  35.72200 4.52900 28.41200
H  35.27700 4.35800 26.83200
H  40.07200 9.38500 24.54100
H  42.99600 8.60000 25.00700
H  40.02000 7.27200 23.49200
H  40.74200 6.63000 25.01800
H  41.74800 7.35100 23.66200
H  42.38000 10.69400 23.46300
H  43.55100 10.97800 24.63000
H  42.34100 12.62400 25.66000
H  40.91200 11.60700 25.71500
H  41.33300 12.47700 24.25800
H  46.22400 10.45000 28.03400
H  46.48900 11.55200 29.46300
H  45.62700 12.06100 27.94400
H  43.26000 11.97200 33.57900
H  46.14600 9.50900 35.95000
H  44.88100 9.85300 36.97500
H  46.12300 11.10300 36.62600
Mg -2.64700 34.95400 26.95000
C  -4.08700 32.94400 29.36700
C  -1.12900 36.83300 29.43800
C  -1.20900 36.89200 24.57900
C  -4.27900 33.16800 24.51500
N  -2.69300 34.86600 29.15400
C  -3.27400 33.93100 29.96100
C  -2.84600 34.21100 31.47200
C  -2.00200 35.47600 31.42200
C  -1.98100 35.78300 29.94700
C  -2.52500 36.65200 32.28800
C  -2.10200 32.91400 32.14400
C  -2.96000 32.25000 33.25900
H  -2.33600 32.10500 34.64300
N  -1.41600 36.70600 27.00200
C  -0.87400 37.31600 28.12000
C  0.01200 38.38700 27.71900
C  -0.07100 38.46400 26.30200
C  -0.93100 37.32800 25.88300
C  0.75700 39.20500 28.71400
C  0.47500 39.51400 25.32700
O  0.06500 39.54700 24.17300
C  1.36000 40.51900 25.81200
N  -2.81400 35.07900 24.90600
C  -2.10700 35.95200 24.13500
C  -2.40000 35.72500 22.62200
C  -3.45000 34.56400 22.67600
C  -3.53600 34.20900 24.09700
C  -2.94800 36.86100 21.76400
C  -3.30000 33.49600 21.64800
C  -2.17500 32.47100 21.97900
N  -3.87000 33.40300 26.92400
C  -4.53100 32.85600 25.86600
C  -5.30200 31.70900 26.33500
C  -5.16200 31.73200 27.70800
C  -4.28200 32.79100 28.01500
C  -6.00000 30.66100 25.52800
C  -5.51800 31.10100 28.97400
O  -6.21800 30.13600 29.24900
C  -4.91600 31.96300 30.12900
C  -5.96900 32.51800 31.01300
O  -6.78600 33.43100 30.80300
O  -5.94300 31.83600 32.22500
C  -6.72600 32.42300 33.28800
H  -0.78600 37.51800 30.21600
H  -0.65000 37.47000 23.84000
H  -4.91500 32.63900 23.80100
H  -3.81300 34.31200 31.96500
H  -1.00000 35.19700 31.74600
H  -2.87000 37.50100 31.69900
H  -1.73500 36.96600 32.97000
H  -3.41400 36.47800 32.89400
H  -1.20200 33.20100 32.68900
H  -2.05400 32.17800 31.34200
H  -3.12300 31.20200 33.00800
H  -3.88300 32.79400 33.45900
H  1.78700 39.43300 28.44300
H  0.79100 38.72200 29.69100
H  0.12300 40.09200 28.71600
H  0.80800 41.20500 26.45400
H  1.76600 41.21300 25.07700
H  2.14800 39.99400 26.35300
H  -1.45900 35.44200 22.15100
H  -4.42100 35.01000 22.46300
H  -2.35500 37.76400 21.61300
H  -3.90800 37.10900 22.21600
H  -3.21000 36.51000 20.76600
H  -3.25200 33.90800 20.64000
H  -4.19400 32.88100 21.54900
H  -2.57400 31.49400 21.70700
H  -1.97300 32.35500 23.04400
H  -1.23400 32.66000 21.46400
H  -5.75400 30.69500 24.46700
H  -7.05900 30.91500 25.47800
H  -5.83300 29.68600 25.98600
H  -4.23300 31.39300 30.75900
H  -7.76900 32.54700 32.99700
H  -6.31500 33.40400 33.52400
H  -6.71100 31.77700 34.16600

