158

Mg 17.65800 0.03500 27.88700
C  16.27700 1.93900 30.37100
C  19.43700 -1.78400 30.07100
C  19.10500 -1.69500 25.30400
C  15.89100 2.00300 25.55000
N  17.99800 0.13300 29.89800
C  17.19600 0.90100 30.74300
C  17.62200 0.67800 32.21600
C  18.81000 -0.32900 32.14500
C  18.77800 -0.72800 30.65500
C  20.22600 0.23500 32.67000
C  16.39600 0.18000 33.06800
C  16.61000 0.14500 34.55400
H  17.85000 0.73100 35.23600
N  19.00200 -1.49100 27.71800
C  19.51200 -2.24900 28.80500
C  20.28000 -3.37200 28.40700
C  20.22700 -3.35100 26.95000
C  19.45900 -2.12100 26.57100
C  20.97600 -4.43900 29.35400
C  20.89100 -4.27500 25.95500
O  20.79900 -4.24900 24.68800
C  21.72500 -5.39900 26.54200
N  17.51100 0.14800 25.76500
C  18.29800 -0.61200 24.91500
C  18.07600 -0.21100 23.46400
C  16.89500 0.81400 23.58700
C  16.74100 0.96700 25.05100
C  19.47000 0.29700 22.88900
C  15.60500 0.55900 22.74900
C  14.32300 0.07400 23.40000
N  16.38200 1.65100 27.94000
C  15.80800 2.38400 26.91200
C  14.88000 3.32900 27.46000
C  15.06400 3.28600 28.83700
C  15.97200 2.19700 28.99900
C  14.11000 4.21200 26.70500
C  14.83300 3.84900 30.11500
O  14.13300 4.80000 30.48900
C  15.46900 2.96800 31.14600
C  16.23800 3.81800 32.05500
O  17.22600 4.37700 31.73400
O  15.72700 3.81400 33.37300
C  16.36800 4.77000 34.35400
H  20.06000 -2.38500 30.73600
H  19.48400 -2.20100 24.41400
H  15.25100 2.52900 24.83800
H  17.93500 1.62900 32.64600
H  18.54700 -1.15500 32.80600
H  20.73400 -0.49500 33.30100
H  20.09600 1.22900 33.09900
H  20.77300 0.47800 31.75900
H  16.27500 -0.84900 32.72800
H  15.51700 0.75100 32.76800
H  16.52200 -0.87800 34.92000
H  15.74400 0.62500 35.01100
H  20.85600 -4.24700 30.42000
H  22.06000 -4.51000 29.26500
H  20.64100 -5.47600 29.37000
H  22.09100 -5.96200 25.68400
H  21.04600 -5.96800 27.17700
H  22.54100 -5.13400 27.21400
H  17.88600 -1.13800 22.92300
H  17.17400 1.82400 23.28400
H  20.11400 0.55900 23.72800
H  19.39700 1.09700 22.15200
H  19.98800 -0.49100 22.34300
H  15.85200 -0.07200 21.89600
H  15.36600 1.53400 22.32300
H  13.67000 -0.38000 22.65400
H  13.85600 0.94100 23.86800
H  14.55700 -0.63400 24.19400
H  13.52100 3.47100 26.16400
H  14.76100 4.81200 26.06900
H  13.55600 4.93500 27.30400
H  14.71300 2.56600 31.82100
H  16.64900 5.68400 33.83200
H  17.18400 4.24000 34.84500
H  15.65300 4.98700 35.14800
Mg -10.93600 17.16100 40.54300
C  -7.41500 16.78600 40.59700
C  -10.46700 20.50200 40.12700
C  -14.25200 17.39200 40.06400
C  -11.21900 13.68400 40.84900
N  -9.10200 18.46800 40.26900
C  -7.77200 18.12500 40.39100
C  -6.92400 19.35100 40.34600
C  -7.96600 20.54500 40.61100
C  -9.25100 19.82400 40.20900
C  -7.97900 21.00500 42.05900
C  -6.30900 19.50600 38.90100
C  -4.79000 19.18000 38.79900
H  -4.33900 18.33500 37.56900
N  -12.18900 18.76400 40.04100
C  -11.82300 20.08600 40.04100
C  -12.93500 20.89800 39.85700
C  -14.08600 20.06800 39.82400
C  -13.56300 18.69000 39.98200
C  -12.81300 22.35900 39.68400
C  -15.55700 20.48600 39.79900
O  -15.90900 21.67700 39.81500
C  -16.66500 19.50600 39.62100
N  -12.45200 15.69400 40.41200
C  -13.75600 16.07600 40.37400
C  -14.70600 14.86700 40.38400
C  -13.74400 13.71200 40.74000
C  -12.38600 14.40300 40.70500
C  -15.85400 15.16000 41.46100
C  -13.90800 12.53400 39.83000
C  -14.02800 11.23200 40.48600
N  -9.63400 15.50200 40.57300
C  -9.87000 14.15600 40.74700
C  -8.65000 13.37600 40.81700
C  -7.71700 14.40000 40.83500
C  -8.29000 15.65700 40.67700
C  -8.46800 11.91400 41.02300
C  -6.24500 14.61900 40.91700
O  -5.27100 13.83300 41.02700
C  -6.00100 16.16600 40.82200
C  -5.29600 16.63300 42.01100
O  -4.15300 17.07900 42.02400
O  -6.09900 16.40400 43.14600
C  -5.49900 16.86400 44.36900
H  -10.39000 21.58200 40.26900
H  -15.33400 17.32400 39.93100
H  -11.35500 12.64600 41.15800
H  -6.11600 19.30100 41.07600
H  -7.76100 21.40700 39.97600
H  -8.90400 20.66900 42.52500
H  -8.03500 22.09100 42.13800
H  -7.07300 20.68900 42.57700
H  -6.57700 20.49900 38.54000
H  -6.88200 18.90200 38.19800
H  -4.52400 18.74200 39.76100
H  -4.26100 20.12600 38.68100
H  -12.60700 22.58100 38.63600
H  -12.08600 22.77300 40.38300
H  -13.76500 22.85600 39.86700
H  -16.66500 18.85700 38.74500
H  -17.58900 20.08400 39.60800
H  -16.86700 18.92000 40.51800
H  -15.22600 14.80800 39.42800
H  -13.77500 13.55900 41.81900
H  -16.66600 15.35900 40.76200
H  -15.67600 16.03700 42.08400
H  -16.00900 14.26400 42.06300
H  -13.08700 12.30400 39.15200
H  -14.78000 12.70700 39.20000
H  -13.38900 10.46000 40.05700
H  -14.99600 10.73000 40.50300
H  -13.72300 11.35300 41.52600
H  -7.98900 11.51900 40.12700
H  -9.43800 11.43500 41.16100
H  -7.91800 11.71800 41.94300
H  -5.42300 16.25200 39.90200
H  -4.77500 16.14100 44.74600
H  -6.31400 17.05500 45.06700
H  -4.95000 17.80500 44.35600

