158

Mg 40.57700 8.95500 28.80600
C  42.13200 10.07700 31.83000
C  38.23700 7.36600 30.91000
C  39.26000 7.43700 26.11900
C  43.27900 9.91900 26.93500
N  40.21900 8.91500 31.05900
C  40.94400 9.41500 32.13600
C  40.37500 9.06500 33.47700
C  39.21600 8.04500 33.05300
C  39.25100 8.07200 31.58800
C  39.35600 6.64100 33.62900
C  39.90800 10.35600 34.22200
C  40.19700 10.24100 35.72500
H  41.11600 11.28800 36.45300
N  38.90300 7.71400 28.54000
C  38.15500 7.08400 29.51900
C  37.18400 6.25300 28.93300
C  37.40700 6.32300 27.56700
C  38.55500 7.24500 27.32300
C  36.14900 5.33700 29.73600
C  36.59500 5.64600 26.50900
O  36.91000 5.67000 25.32600
C  35.36500 4.94400 26.81300
N  41.27900 8.68600 26.86700
C  40.44900 8.10600 25.94600
C  41.02600 8.21200 24.48600
C  42.30600 9.08700 24.76900
C  42.27400 9.31300 26.26000
C  41.19000 6.90700 23.76400
C  42.58500 10.34900 23.87900
C  41.86700 11.64900 24.42200
N  42.29700 9.80200 29.23900
C  43.34000 10.20400 28.38100
C  44.40800 10.91800 29.13500
C  43.93500 10.86100 30.47800
C  42.69900 10.19700 30.46600
C  45.69400 11.39000 28.55100
C  44.34000 11.14400 31.79100
O  45.39400 11.60900 32.20400
C  43.09900 10.68500 32.74500
C  43.66900 9.61700 33.64200
O  44.09100 8.47600 33.24800
O  43.83900 10.19600 34.87000
C  44.52100 9.40200 35.93200
H  37.51800 6.95200 31.61900
H  38.90100 7.00200 25.18300
H  44.16700 10.29700 26.42500
H  41.11800 8.56700 34.10100
H  38.22000 8.48000 33.13400
H  40.15100 6.56600 34.37200
H  39.61900 5.96700 32.81400
H  38.38600 6.25000 33.93400
H  38.82800 10.50000 34.16800
H  40.43300 11.22600 33.82700
H  40.55600 9.26500 36.05100
H  39.23600 10.28100 36.23800
H  36.55700 5.13000 30.72500
H  36.09100 4.35300 29.27100
H  35.18400 5.84100 29.78900
H  35.54700 3.88800 27.01200
H  34.74600 4.92500 25.91600
H  34.73900 5.28900 27.63500
H  40.34500 8.79900 23.87000
H  43.12500 8.40000 24.55600
H  40.99100 5.98800 24.31600
H  42.23500 6.93800 23.45500
H  40.53300 7.00900 22.90100
H  42.29400 10.19000 22.84100
H  43.66000 10.42300 23.71800
H  42.55900 12.37400 24.85200
H  41.17500 11.38800 25.22300
H  41.41600 12.22800 23.61700
H  45.51400 12.01300 27.67500
H  46.36300 10.57300 28.27900
H  46.04000 12.06000 29.33900
H  42.82900 11.51600 33.39600
H  44.45500 9.95500 36.86900
H  45.56700 9.19100 35.71100
H  43.99200 8.46900 36.12400
Mg 49.71100 44.50900 42.96600
C  46.18100 44.93600 42.14600
C  49.24900 41.13600 42.17900
C  52.97000 44.37100 42.50800
C  49.87900 47.88400 43.61500
N  47.93100 43.23800 42.05200
C  46.61000 43.60500 41.94600
C  45.77600 42.46700 41.27500
C  46.71800 41.20000 41.82300
C  48.05400 41.86400 42.07000
C  46.09300 40.59400 43.05500
C  45.74800 42.63600 39.72200
C  44.33800 42.49000 39.07300
H  44.01600 43.64000 38.12300
N  50.95800 42.95300 42.58400
C  50.56500 41.65900 42.18000
C  51.80700 40.92800 41.83200
C  52.93100 41.80600 41.99500
C  52.32300 43.08700 42.46500
C  51.76300 39.56000 41.25500
C  54.41100 41.43900 41.70300
O  54.72400 40.33500 41.23800
C  55.60900 42.47600 41.87200
N  51.25400 45.95600 43.35500
C  52.52900 45.64200 42.90700
C  53.40100 46.87800 42.95900
C  52.45000 48.00000 43.37700
C  51.11800 47.26500 43.38600
C  54.65000 46.55900 43.86700
C  52.39700 49.35000 42.56500
C  52.21800 50.62400 43.39700
N  48.32400 46.04000 43.01500
C  48.57900 47.39100 43.37800
C  47.29100 48.12300 43.34700
C  46.34900 47.21700 42.78300
C  47.03700 45.93000 42.63400
C  47.04600 49.58900 43.68100
C  44.96300 47.05000 42.40200
O  44.02600 47.83600 42.32400
C  44.80900 45.60400 41.83600
C  43.62200 44.96800 42.32800
O  42.66900 44.62800 41.60000
O  43.66500 44.86700 43.69500
C  42.46100 44.35100 44.36700
H  49.16800 40.04700 42.15900
H  54.02100 44.40300 42.21400
H  49.72200 48.94500 43.82200
H  44.79500 42.57300 41.73700
H  46.68400 40.39000 41.09400
H  45.55400 39.65800 42.91100
H  45.27900 41.23700 43.39200
H  46.83500 40.50700 43.84800
H  46.36600 41.86700 39.25800
H  46.23700 43.59700 39.56700
H  43.57800 42.59700 39.84700
H  44.25500 41.52500 38.57400
H  52.14800 39.69400 40.24400
H  50.73300 39.20400 41.27800
H  52.37800 38.88300 41.84900
H  55.53100 43.30000 41.16300
H  56.58200 42.01400 41.70500
H  55.58500 42.87100 42.88700
H  53.75800 47.05800 41.94500
H  52.70300 48.35000 44.37800
H  54.55300 45.57400 44.32200
H  54.78500 47.22700 44.71700
H  55.52400 46.43900 43.22700
H  51.52100 49.28900 41.91800
H  53.26400 49.34500 41.90500
H  51.30000 51.14200 43.11700
H  53.00000 51.37000 43.25400
H  52.15500 50.50000 44.47800
H  47.42100 49.76000 44.69000
H  46.01000 49.92500 43.69600
H  47.66900 50.24500 43.07300
H  44.76700 45.54800 40.74900
H  42.62100 43.72000 45.24100
H  41.74000 43.83600 43.73200
H  41.93200 45.20700 44.78600

