158

Mg 6.52500 54.38300 40.59100
C  6.19300 50.90300 40.56300
C  9.94500 53.87400 39.99300
C  6.80900 57.52900 40.01400
C  3.10300 54.62200 41.11000
N  7.87400 52.60600 40.21500
C  7.52100 51.26000 40.21000
C  8.75800 50.37700 40.05100
C  9.94500 51.34700 40.38000
C  9.23400 52.71100 40.18500
C  10.74600 51.01700 41.68600
C  8.92000 49.81200 38.57100
C  9.07000 50.75500 37.34500
H  7.81500 51.10000 36.58500
N  8.05300 55.52400 39.95000
C  9.41900 55.16300 39.82000
C  10.19500 56.29000 39.61100
C  9.31900 57.41400 39.63900
C  7.95800 56.88000 39.79100
C  11.71600 56.29300 39.34600
C  9.81900 58.87500 39.45000
O  11.02000 59.05200 39.29900
C  8.90300 60.17300 39.51500
N  5.06700 55.81700 40.34800
C  5.49800 57.10100 40.30200
C  4.32700 58.09400 40.48600
C  3.14200 57.16900 40.81900
C  3.81200 55.80700 40.77600
C  4.71700 59.26700 41.50600
C  1.87100 57.33000 39.94700
C  0.70000 58.03800 40.69100
N  4.94800 53.12300 40.77900
C  3.61400 53.35000 41.08400
C  2.93100 52.14900 41.37400
C  3.98400 51.10200 41.15700
C  5.14800 51.79200 40.82100
C  1.43800 51.97900 41.75000
C  4.21900 49.73900 41.09500
O  3.48200 48.81600 41.26800
C  5.64500 49.45000 40.72300
C  5.64400 48.69400 39.43200
O  5.21300 49.07600 38.38200
O  6.32400 47.53700 39.65300
C  6.14600 46.60000 38.61600
H  11.03500 53.91900 39.95200
H  6.90400 58.61100 40.13300
H  2.07100 54.87500 41.36400
H  8.73400 49.55800 40.76900
H  10.68200 51.25800 39.58200
H  10.70800 51.86300 42.37200
H  11.73000 50.58600 41.49500
H  10.22900 50.21900 42.21800
H  7.97000 49.31900 38.36700
H  9.71000 49.06100 38.56200
H  9.80700 50.32900 36.66400
H  9.48800 51.70400 37.68100
H  11.95400 57.00800 38.55800
H  11.98000 55.31300 38.94800
H  12.22100 56.35600 40.31000
H  8.12200 60.06800 38.76200
H  9.59700 61.01100 39.44600
H  8.51800 60.20300 40.53400
H  4.26100 58.60100 39.52300
H  2.91700 57.38400 41.86400
H  5.65800 58.86800 41.88500
H  3.97400 59.35700 42.29800
H  4.87000 60.26100 41.08500
H  1.59600 56.42000 39.41300
H  2.11500 57.82900 39.00900
H  0.70100 59.11600 40.52600
H  0.72900 57.79500 41.75300
H  -0.29500 57.64500 40.48200
H  1.28900 50.97300 42.14200
H  0.76900 52.07900 40.89600
H  1.10300 52.66200 42.53000
H  6.11900 48.82900 41.48300
H  5.07700 46.39100 38.56000
H  6.80200 45.79100 38.93600
H  6.41700 47.00200 37.64000
Mg -0.45600 44.03000 26.59100
C  1.83400 43.69500 29.17600
C  -2.98200 43.10900 28.87400
C  -2.68700 44.22700 24.07700
C  2.29400 44.51700 24.38800
N  -0.53500 43.39500 28.70000
C  0.47200 43.63500 29.61700
C  0.05900 43.47600 31.04400
C  -1.46200 43.08200 30.90900
C  -1.69700 43.27300 29.41100
C  -1.87100 41.74600 31.49300
C  0.33600 44.77300 31.90000
C  0.45100 44.57700 33.43600
H  -0.12800 43.33100 34.08200
N  -2.60200 43.70200 26.50400
C  -3.40900 43.29600 27.54500
C  -4.77200 43.13400 27.01200
C  -4.71300 43.57800 25.63200
C  -3.28000 43.88400 25.35900
C  -5.88900 42.69200 27.88100
C  -5.83300 43.57700 24.62600
O  -5.78900 43.98400 23.48900
C  -7.12000 42.85000 24.91900
N  -0.21100 44.32700 24.56600
C  -1.31600 44.41800 23.74100
C  -0.93400 44.77500 22.30100
C  0.64300 45.07200 22.51400
C  0.97900 44.65100 23.89400
C  -1.35400 43.74800 21.19700
C  1.03100 46.57200 22.39500
C  1.12600 47.22100 20.96000
N  1.64400 43.98800 26.71400
C  2.59900 44.19800 25.73400
C  3.90200 44.09300 26.36500
C  3.66100 43.87300 27.72300
C  2.28100 43.82100 27.86700
C  5.17900 44.44400 25.74500
C  4.27000 43.77100 29.00300
O  5.43500 43.85000 29.35500
C  3.14800 43.61300 29.99700
C  3.30600 42.30100 30.54400
O  3.27700 41.22700 29.95900
O  3.40900 42.40900 31.95700
C  3.41200 41.07400 32.54600
H  -3.71500 42.88300 29.65100
H  -3.35600 44.37300 23.22600
H  3.13400 44.68100 23.70900
H  0.46500 42.52500 31.39000
H  -1.98100 43.89500 31.41700
H  -2.37800 41.10500 30.77200
H  -2.54000 42.00300 32.31500
H  -1.01700 41.16400 31.84000
H  -0.49800 45.43300 31.66200
H  1.32300 45.08400 31.55900
H  0.06200 45.44100 33.97400
H  1.47600 44.58600 33.80800
H  -5.53800 42.25800 28.81700
H  -6.57600 41.98400 27.41700
H  -6.48400 43.57300 28.12200
H  -7.60200 43.43900 25.70000
H  -6.82700 41.87400 25.30600
H  -7.70700 42.76100 24.00500
H  -1.45000 45.70400 22.05800
H  1.23600 44.52000 21.78400
H  -0.46000 43.31900 20.74500
H  -2.03600 44.24400 20.50600
H  -1.88300 42.90100 21.63300
H  2.03400 46.76300 22.77700
H  0.31000 47.15800 22.96500
H  0.85400 46.49100 20.19700
H  2.17000 47.49000 20.79600
H  0.48400 48.10000 21.01400
H  5.50100 45.37700 26.20800
H  5.13400 44.61300 24.67000
H  5.86800 43.61800 25.92900
H  3.18800 44.32800 30.81900
H  4.41300 40.80300 32.21000
H  2.62400 40.43200 32.15300
H  3.22700 41.24500 33.60700

