158

Mg -1.42800 7.92500 26.91400
C  -0.37100 9.59000 29.78100
C  -1.82200 5.05700 28.72500
C  -1.87400 6.26700 23.98200
C  -0.64000 10.93100 25.03900
N  -1.08800 7.40300 28.99900
C  -0.81600 8.23300 30.01000
C  -0.88400 7.58200 31.39400
C  -1.03000 6.03800 30.93700
C  -1.39300 6.18900 29.47300
C  0.31100 5.21800 31.02300
C  -2.03000 8.16900 32.21000
C  -2.07600 7.79400 33.72100
H  -0.77300 7.35500 34.41900
N  -1.94600 5.94800 26.45300
C  -2.13400 4.92900 27.37900
C  -2.70200 3.80000 26.65800
C  -2.53100 4.04700 25.23000
C  -2.12700 5.50200 25.16500
C  -3.42400 2.65400 27.41200
C  -2.65100 3.16000 24.04600
O  -2.52700 3.58900 22.91300
C  -3.07100 1.67800 24.26000
N  -1.10500 8.51100 24.83700
C  -1.34400 7.59200 23.85400
C  -1.37000 8.18800 22.47200
C  -1.26000 9.77800 22.86000
C  -1.00500 9.79500 24.29800
C  -0.13500 7.68400 21.67100
C  -2.61800 10.48200 22.55500
C  -2.96400 10.69200 21.04400
N  -0.57200 9.84500 27.25500
C  -0.37700 10.96900 26.41200
C  0.06800 12.06000 27.22500
C  0.13000 11.65000 28.55100
C  -0.31600 10.30500 28.54200
C  0.49800 13.44800 26.76600
C  0.40300 11.96600 29.93200
O  0.90500 12.95400 30.40000
C  0.01900 10.65500 30.76500
C  1.21600 10.31900 31.71500
O  2.18200 9.66500 31.41300
O  1.01900 10.89600 32.88500
C  2.03200 10.88400 33.89700
H  -2.10300 4.18200 29.31500
H  -1.97600 5.75100 23.02500
H  -0.51200 11.84800 24.46000
H  0.04100 7.82600 31.91500
H  -1.79500 5.46300 31.45900
H  1.05600 5.74100 31.62300
H  0.76500 5.04700 30.04700
H  0.15900 4.28200 31.56000
H  -2.94900 7.76700 31.78300
H  -2.07900 9.25200 32.10200
H  -2.91600 7.10500 33.81200
H  -2.28000 8.70200 34.28800
H  -4.41700 2.53700 26.97900
H  -3.61600 2.91900 28.45100
H  -2.86000 1.72800 27.30100
H  -2.38100 1.32500 25.02700
H  -3.11300 1.13800 23.31400
H  -4.10600 1.74500 24.59300
H  -2.35900 7.98300 22.06200
H  -0.43700 10.35900 22.44300
H  0.15200 6.74700 22.14800
H  0.67500 8.39300 21.84500
H  -0.38700 7.57100 20.61700
H  -2.55000 11.50700 22.92000
H  -3.47400 10.00000 23.02800
H  -2.17000 10.41000 20.35300
H  -3.09900 11.76400 20.90200
H  -3.85400 10.27500 20.57300
H  0.71200 13.30300 25.70700
H  1.32700 13.90800 27.30500
H  -0.36500 14.10000 26.90200
H  -0.74400 10.96400 31.48000
H  2.26000 11.87300 34.29600
H  2.96200 10.45500 33.52600
H  1.69400 10.27800 34.73700
Mg 34.98100 3.33800 29.48900
C  32.82200 4.22600 32.17200
C  37.59400 3.51000 31.67400
C  37.02700 2.68400 26.87400
C  32.35300 3.46500 27.35000
N  35.17400 3.73700 31.74400
C  34.16600 4.03500 32.60900
C  34.75100 4.12000 34.01400
C  36.26800 4.18900 33.75800
C  36.39800 3.69600 32.35800
C  36.93300 5.53700 34.00100
C  34.25500 2.86600 34.82200
C  33.94400 3.23100 36.29600
H  34.66400 4.33100 36.89000
N  37.02000 3.09700 29.29800
C  37.97500 3.29500 30.26400
C  39.27800 2.95500 29.85400
C  39.13800 2.66100 28.49200
C  37.68700 2.81700 28.11500
C  40.45600 2.95600 30.79800
C  40.16800 2.22300 27.42700
O  39.94100 2.18000 26.23100
C  41.48700 1.75700 27.94600
N  34.75900 3.13400 27.35700
C  35.71500 2.82100 26.51500
C  35.16200 2.62900 25.10000
C  33.62200 2.92600 25.20400
C  33.55800 3.22100 26.76700
C  36.02600 3.44400 24.09100
C  32.63200 1.79100 24.85900
C  31.51200 2.18300 23.87100
N  33.05800 3.70800 29.67500
C  32.04900 3.82800 28.68000
C  30.76300 4.10500 29.25700
C  31.11100 4.25800 30.61600
C  32.48900 4.01100 30.84600
C  29.51900 4.23700 28.53300
C  30.46600 4.53400 31.90200
O  29.28900 4.69400 32.12800
C  31.58600 4.50600 32.98800
C  31.69000 5.84900 33.62000
O  32.43500 6.72700 33.21700
O  30.88900 5.88800 34.75000
C  31.33800 6.87500 35.75800
H  38.42100 3.54600 32.38700
H  37.77600 2.48200 26.10500
H  31.48100 3.51000 26.69500
H  34.50800 5.08000 34.47000
H  36.82000 3.49400 34.39000
H  37.16300 6.10400 33.09900
H  37.88200 5.36000 34.50600
H  36.40900 6.15200 34.73300
H  34.98900 2.06600 34.91300
H  33.35400 2.52400 34.31200
H  33.97100 2.35600 36.94600
H  32.91200 3.56900 36.20000
H  40.35600 3.90000 31.33400
H  41.40100 2.89500 30.25800
H  40.32000 2.16800 31.53800
H  41.90200 1.11300 27.17100
H  41.35000 1.26800 28.91100
H  42.17300 2.60000 28.03200
H  35.21600 1.57100 24.84200
H  33.37600 3.77100 24.56100
H  36.46800 4.30300 24.59500
H  35.42100 3.76200 23.24200
H  36.83700 2.78700 23.77600
H  32.08000 1.38100 25.70500
H  33.19500 1.03800 24.30700
H  31.42700 3.26900 23.82700
H  30.53400 1.74800 24.07800
H  31.77900 1.78000 22.89400
H  28.77900 4.72000 29.17100
H  29.13500 3.26300 28.22800
H  29.67000 4.81000 27.61800
H  31.51000 3.71000 33.73000
H  30.57700 7.64600 35.87500
H  32.22200 7.44900 35.47900
H  31.56600 6.27900 36.64200

