158

Mg 25.38300 2.44400 29.58400
C  27.44600 2.26200 32.24000
C  22.68800 2.92400 31.81300
C  23.15000 2.07700 27.04000
C  27.86100 1.04400 27.53200
N  25.09300 2.48600 31.75900
C  26.10500 2.60800 32.56100
C  25.69100 3.01300 34.00800
C  24.13000 3.07300 33.88400
C  23.94700 2.78300 32.39300
C  23.51900 1.98100 34.72500
C  26.39400 4.32800 34.50700
C  27.28500 4.19500 35.80700
H  26.91300 5.11900 36.91800
N  23.21100 2.61600 29.44600
C  22.25600 2.78400 30.47900
C  20.96900 2.97800 29.89600
C  21.04500 2.66500 28.54600
C  22.48300 2.40500 28.23500
C  19.78500 3.36700 30.76200
C  19.94400 2.60000 27.41200
O  20.10200 2.30100 26.24900
C  18.62200 3.00200 27.87200
N  25.48700 1.60400 27.53300
C  24.46200 1.82500 26.66500
C  24.90200 1.52500 25.17700
C  26.40400 1.18400 25.39000
C  26.60300 1.27400 26.90600
C  24.04000 0.45400 24.47900
C  27.46600 1.86400 24.54800
C  27.85000 3.27500 25.11100
N  27.32600 1.75800 29.79000
C  28.19500 1.26700 28.87000
C  29.49500 1.09700 29.53700
C  29.23600 1.50500 30.88700
C  27.89800 1.83700 30.97900
C  30.70700 0.44600 29.00700
C  29.78400 1.69000 32.25100
O  30.93400 1.41100 32.67700
C  28.63600 2.09700 33.16100
C  28.50300 1.06800 34.27100
O  27.79800 0.06700 34.26000
O  29.35400 1.37600 35.33800
C  29.25900 0.43700 36.43600
H  21.89400 3.10100 32.54200
H  22.44700 1.98800 26.20900
H  28.61900 0.72500 26.81300
H  25.84100 2.28300 34.80300
H  23.64100 4.01200 34.14700
H  24.07500 1.29000 35.35800
H  22.87400 1.33900 34.12600
H  22.86700 2.60000 35.34100
H  25.67300 5.12400 34.69000
H  27.20500 4.57800 33.82300
H  28.29200 4.34100 35.41600
H  27.16200 3.19100 36.21100
H  19.11400 4.07200 30.27100
H  20.07900 3.69100 31.76000
H  19.17500 2.46600 30.83300
H  17.78700 2.90700 27.17700
H  18.62400 4.01800 28.26700
H  18.46600 2.38100 28.75400
H  24.74400 2.47600 24.66900
H  26.46200 0.13200 25.11100
H  23.41300 0.89000 23.70100
H  23.30500 -0.01900 25.13000
H  24.63100 -0.30400 23.96400
H  27.08500 2.08800 23.55100
H  28.38600 1.28100 24.52600
H  27.52100 3.63100 26.08700
H  27.46200 4.00100 24.39700
H  28.94000 3.25300 25.08000
H  30.75600 -0.48000 29.58000
H  31.56300 1.01900 29.36400
H  30.68600 0.30600 27.92600
H  28.93000 2.98800 33.71600
H  30.28400 0.34700 36.79600
H  29.05700 -0.62200 36.28000
H  28.65600 0.75000 37.28800
Mg 54.24200 24.40700 44.41700
C  51.67400 26.65800 43.66200
C  52.23300 21.86100 43.19900
C  56.95300 22.51600 44.43800
C  56.34600 27.28500 44.66500
N  52.22000 24.25100 43.65000
C  51.35000 25.31500 43.45400
C  49.97900 24.75300 42.93900
C  50.07800 23.22400 43.28300
C  51.59900 23.06700 43.37200
C  49.38700 22.71100 44.58500
C  49.72300 24.96500 41.44100
C  48.26100 25.25900 41.01000
H  48.05300 24.79100 39.57400
N  54.55000 22.38500 43.96200
C  53.59800 21.46300 43.44700
C  54.22700 20.20500 43.41400
C  55.60400 20.34800 43.85200
C  55.79000 21.78800 44.12600
C  53.45200 19.01400 42.85200
C  56.64300 19.19400 43.83600
O  56.41600 18.13500 43.28200
C  57.98300 19.35000 44.46200
N  56.37000 24.83400 44.29700
C  57.26900 23.89200 44.57300
C  58.64500 24.47700 44.93100
C  58.41300 25.91600 45.04700
C  56.95400 26.01000 44.65800
C  59.34600 23.83600 46.18700
C  59.34800 26.75900 44.14300
C  59.91400 27.97500 44.75400
N  54.06100 26.60600 44.34400
C  55.01200 27.65000 44.54900
C  54.34400 28.90800 44.69600
C  53.01900 28.57500 44.31600
C  52.91200 27.13000 44.10900
C  54.91100 30.21100 44.93000
C  51.64900 29.12400 44.13700
O  51.26600 30.28900 44.32100
C  50.83400 27.92100 43.44900
C  50.45300 28.22800 42.07500
O  51.24700 28.24200 41.14400
O  49.09100 28.71200 41.98700
C  48.74700 29.19300 40.61400
H  51.54000 21.09400 42.84700
H  57.76700 21.78800 44.44900
H  57.08400 28.07000 44.84300
H  49.20900 25.31000 43.47300
H  49.86200 22.54500 42.45900
H  50.07500 22.05900 45.12300
H  48.43100 22.20800 44.43600
H  49.22500 23.53400 45.28100
H  50.11000 24.14300 40.83900
H  50.40100 25.73900 41.08100
H  48.06400 26.33000 41.04300
H  47.53400 24.85300 41.71400
H  53.62500 18.81000 41.79600
H  52.37800 19.17300 42.94800
H  53.65500 18.20700 43.55700
H  58.46200 18.38600 44.63700
H  57.75600 19.88100 45.38600
H  58.69300 19.99400 43.94300
H  59.18500 24.24400 44.01300
H  58.38300 26.22000 46.09300
H  58.59300 23.37900 46.82900
H  59.87200 24.52900 46.84300
H  60.07100 23.11600 45.80800
H  58.91200 27.13600 43.21900
H  60.23900 26.20000 43.85600
H  59.77900 28.90900 44.20900
H  61.00000 27.90700 44.81100
H  59.49800 28.02600 45.76000
H  54.28000 30.55300 45.75100
H  54.62800 30.82500 44.07500
H  55.95800 30.18500 45.23100
H  50.04600 27.73000 44.17700
H  49.55300 29.51500 39.95500
H  48.20900 30.14000 40.59000
H  48.14800 28.36800 40.22800

