158

Mg 29.72000 57.26400 40.57000
C  27.15600 55.29500 39.47000
C  32.10400 54.97500 39.24200
C  32.43200 59.28300 41.41400
C  27.45700 59.83200 41.37000
N  29.58900 55.31000 39.53500
C  28.39500 54.81700 39.03700
C  28.71800 53.81900 37.92000
C  30.26200 53.57800 38.11100
C  30.71700 54.69800 39.04900
C  30.67700 52.25400 38.69200
C  28.28000 54.24300 36.45900
C  27.06600 53.54100 35.82200
H  26.28700 54.25400 34.78700
N  32.01300 57.08700 40.52700
C  32.73700 56.03300 39.91800
C  34.06900 56.37000 40.10000
C  34.21400 57.61900 40.67900
C  32.89700 58.05300 40.90600
C  35.19800 55.49000 39.63200
C  35.56700 58.33200 41.01900
O  36.62000 57.72000 40.90200
C  35.68400 59.85700 41.48900
N  29.90900 59.29800 41.25400
C  31.15300 59.88700 41.53200
C  30.99000 61.32100 42.02300
C  29.42600 61.46600 42.17500
C  28.84400 60.17100 41.54400
C  31.79400 61.63900 43.28400
C  28.85100 62.77500 41.58000
C  28.30400 63.95000 42.55500
N  27.72800 57.58100 40.51100
C  26.89100 58.57100 40.94500
C  25.50700 58.14000 40.91500
C  25.57100 56.90000 40.25400
C  26.88500 56.54700 40.03300
C  24.32300 59.00300 41.33500
C  24.80600 55.76800 39.71100
O  23.58000 55.61000 39.64900
C  25.79700 54.74200 39.13100
C  25.36300 53.51200 39.78300
O  25.80800 53.09000 40.84800
O  24.43700 52.86300 38.96900
C  23.88900 51.62300 39.52400
H  32.78500 54.21500 38.85200
H  33.23100 59.99400 41.63500
H  26.71800 60.54700 41.73800
H  28.11900 52.91600 38.04100
H  30.62300 53.56200 37.08300
H  30.81900 52.30700 39.77100
H  31.62800 51.96300 38.24500
H  29.88300 51.53700 38.48500
H  29.13600 54.08500 35.80300
H  28.01000 55.29400 36.35600
H  26.49100 53.18000 36.67500
H  27.38500 52.63300 35.31100
H  34.84100 54.47400 39.80100
H  36.13900 55.53000 40.18000
H  35.33600 55.70000 38.57100
H  35.27500 60.69100 40.91900
H  36.71700 60.11600 41.72000
H  35.25900 59.90700 42.49100
H  31.36600 61.91300 41.18900
H  29.24100 61.29100 43.23500
H  32.47900 60.82100 43.50800
H  31.17100 61.96600 44.11700
H  32.46100 62.47300 43.06800
H  27.99000 62.51700 40.96300
H  29.60100 63.16500 40.89200
H  27.22500 63.88400 42.69900
H  28.52000 64.91500 42.09700
H  28.87000 63.94500 43.48700
H  24.24900 59.93200 40.77000
H  24.29200 59.13900 42.41600
H  23.38700 58.51700 41.05900
H  25.65000 54.63600 38.05600
H  23.13100 51.93800 40.24100
H  24.58800 51.04600 40.12900
H  23.54200 50.93300 38.75500
Mg 15.92800 51.88800 25.96500
C  17.68300 50.68800 28.84800
C  13.55000 53.09500 28.12500
C  14.39400 53.26000 23.37700
C  18.46600 50.58100 24.11000
N  15.55600 51.68200 28.18200
C  16.39600 51.22600 29.09300
C  15.89500 51.60100 30.58800
C  14.43300 51.99800 30.24900
C  14.49100 52.27400 28.76200
C  13.27600 51.00200 30.55700
C  16.70600 52.61100 31.36600
C  16.78800 52.23500 32.88200
H  15.62400 52.82000 33.79100
N  14.14300 53.04000 25.78200
C  13.32500 53.44000 26.84000
C  12.34300 54.37000 26.22600
C  12.50800 54.32600 24.78600
C  13.72700 53.51600 24.56500
C  11.18000 54.96000 27.06800
C  11.64900 54.96700 23.64900
O  11.89900 54.80400 22.44000
C  10.44100 55.81900 23.98900
N  16.24700 51.74000 24.02100
C  15.55700 52.48100 23.13700
C  16.31600 52.60400 21.79400
C  17.64000 51.79400 22.07300
C  17.43100 51.29000 23.49600
C  15.49000 52.19600 20.54600
C  18.97800 52.55100 21.90500
C  20.22800 51.91300 21.28600
N  17.63300 50.55800 26.37800
C  18.60800 50.18700 25.50300
C  19.67900 49.51700 26.26800
C  19.36900 49.76400 27.57500
C  18.11100 50.37500 27.56600
C  20.95500 48.90100 25.77500
C  19.76900 49.42700 28.87800
O  20.74100 48.77100 29.24000
C  18.69200 50.15400 29.77000
C  18.14000 49.23000 30.78400
O  17.35200 48.31200 30.56900
O  18.68500 49.43100 32.05500
C  18.24500 48.45100 33.08500
H  12.77400 53.34400 28.85200
H  14.07200 53.77700 22.47100
H  19.23200 50.30000 23.38400
H  15.80400 50.72800 31.23500
H  14.03800 52.90200 30.71200
H  12.44900 51.11500 29.85700
H  12.98800 50.89700 31.60300
H  13.60900 49.97500 30.41000
H  16.03800 53.47000 31.42500
H  17.67600 52.84700 30.92800
H  17.71400 52.64200 33.28700
H  16.85300 51.17800 33.14100
H  11.22800 54.55600 28.08000
H  10.18800 54.72000 26.68500
H  11.25700 56.04700 27.09100
H  9.99900 56.31000 23.12200
H  10.70700 56.49900 24.79900
H  9.74500 55.06300 24.35300
H  16.55800 53.66300 21.70800
H  17.66200 50.89000 21.46600
H  16.08500 51.48100 19.97700
H  15.21100 53.06200 19.94600
H  14.59400 51.65200 20.84200
H  19.29000 52.83600 22.91000
H  18.73500 53.53700 21.50900
H  20.50700 52.60800 20.49400
H  20.05400 50.90700 20.90300
H  21.11600 51.73700 21.89200
H  21.16500 49.37900 24.81800
H  20.81100 47.83100 25.62900
H  21.79200 49.13300 26.43400
H  19.12100 50.97600 30.34300
H  17.22300 48.12600 32.89000
H  18.24300 49.01100 34.02000
H  18.93800 47.61500 33.18000

