158

Mg 24.22300 -6.90000 46.77000
C  26.80300 -4.77800 45.83000
C  22.23800 -5.40900 44.46400
C  22.28000 -9.61900 46.90700
C  26.71500 -8.80600 48.65100
N  24.52800 -5.36300 45.38500
C  25.60600 -4.53700 45.22700
C  25.34800 -3.47100 44.14900
C  23.78300 -3.48900 43.89900
C  23.45200 -4.78700 44.66800
C  23.10900 -2.20300 44.50100
C  26.15400 -3.69900 42.84700
C  26.47000 -2.48600 41.91800
H  25.68600 -2.46400 40.51300
N  22.42100 -7.33100 45.88600
C  21.70700 -6.62400 44.97700
C  20.46000 -7.30100 44.73300
C  20.37000 -8.50900 45.46600
C  21.74200 -8.55100 46.17700
C  19.43600 -6.86900 43.82600
C  19.24500 -9.53200 45.49700
O  18.19900 -9.30500 44.92500
C  19.32400 -10.71200 46.44600
N  24.56700 -8.98900 47.39700
C  23.48400 -9.79300 47.59200
C  23.85700 -11.10300 48.37300
C  25.32500 -10.92300 48.76000
C  25.54400 -9.40200 48.27100
C  22.94700 -11.57500 49.51000
C  26.29600 -11.89300 48.06000
C  26.86400 -12.95600 48.87900
N  26.30200 -6.73700 47.38700
C  27.11100 -7.54200 48.19700
C  28.42400 -6.91700 48.26400
C  28.39100 -5.77800 47.35900
C  27.07300 -5.71700 46.83600
C  29.60300 -7.45500 49.08800
C  29.08600 -4.67100 46.78500
O  30.23000 -4.29700 46.91700
C  28.19900 -4.00000 45.72400
C  28.23700 -2.46500 45.97900
O  29.12900 -1.75200 45.54300
O  27.19900 -2.16600 46.74500
C  27.12300 -0.73700 47.09000
H  21.59700 -5.00300 43.67900
H  21.86300 -10.61600 47.06600
H  27.28600 -9.32600 49.42400
H  25.63400 -2.49100 44.53100
H  23.38400 -3.62800 42.89400
H  22.47400 -2.34700 45.37500
H  22.48600 -1.70700 43.75600
H  23.71500 -1.39400 44.91000
H  25.55200 -4.40900 42.28000
H  27.14200 -4.13100 43.00000
H  27.52500 -2.47700 41.64400
H  26.24900 -1.63600 42.56300
H  18.65800 -6.34100 44.37700
H  18.94700 -7.67900 43.28500
H  19.83300 -6.14500 43.11400
H  19.63400 -10.43800 47.45400
H  20.05100 -11.40500 46.02100
H  18.35200 -11.16100 46.64900
H  23.72300 -11.89800 47.64000
H  25.43600 -10.96000 49.84300
H  22.69700 -12.63500 49.46800
H  21.97200 -11.08600 49.48600
H  23.33200 -11.30200 50.49200
H  27.21600 -11.34900 47.84500
H  25.95900 -12.20200 47.07000
H  27.00200 -13.84900 48.26900
H  26.14800 -13.24000 49.65000
H  27.79100 -12.64700 49.36200
H  29.36200 -8.50300 49.26300
H  29.44700 -7.00800 50.07000
H  30.61000 -7.36600 48.68000
H  28.73800 -4.23500 44.80600
H  28.06800 -0.33400 47.45400
H  26.44100 -0.36800 47.85600
H  26.90500 -0.18400 46.17600
Mg 40.51100 8.71000 29.30000
C  42.27400 10.34100 31.87400
C  38.64900 7.14700 31.67200
C  38.60100 7.46200 26.92100
C  42.61900 10.14200 27.00600
N  40.45900 8.71100 31.59200
C  41.20100 9.49100 32.40000
C  40.56500 9.53200 33.82400
C  39.33400 8.49600 33.68700
C  39.53200 8.03800 32.23400
C  39.31100 7.26000 34.64800
C  40.22300 10.96100 34.20100
C  39.23000 11.18000 35.48500
H  39.84600 12.16700 36.63800
N  38.92700 7.43100 29.29600
C  38.29500 6.86500 30.35900
C  37.22700 5.97600 29.85400
C  37.20900 6.01200 28.45400
C  38.31200 6.98100 28.13400
C  36.33500 5.10600 30.82900
C  36.29100 5.20000 27.48200
O  36.48600 5.32100 26.25600
C  35.15500 4.38800 27.95000
N  40.76700 8.60200 27.21900
C  39.72600 8.15600 26.43800
C  39.92700 8.56800 24.96700
C  41.14000 9.57300 25.02900
C  41.52200 9.44200 26.49400
C  40.12600 7.38100 24.09000
C  41.04300 11.01400 24.40900
C  40.09500 11.94500 25.15300
N  42.23800 9.82400 29.38300
C  43.07000 10.30600 28.34600
C  44.18000 11.07800 28.93900
C  43.86700 11.10200 30.26800
C  42.70200 10.36500 30.51800
C  45.25300 11.76400 28.23300
C  44.33300 11.63300 31.52200
O  45.24900 12.38000 31.80400
C  43.18200 11.26300 32.58400
C  43.84200 10.56300 33.73100
O  44.57000 9.58600 33.62300
O  43.45400 11.09700 34.94600
C  43.69300 10.12300 36.14000
H  37.98000 6.67400 32.39400
H  37.89900 7.19200 26.13000
H  43.15200 10.74200 26.26500
H  41.30900 9.09800 34.49300
H  38.39900 9.05200 33.76700
H  38.49500 7.49400 35.33200
H  40.24700 7.20700 35.20400
H  39.11700 6.27600 34.22000
H  39.84700 11.44000 33.29600
H  41.14700 11.46700 34.48100
H  38.86700 10.23600 35.89100
H  38.29200 11.61000 35.13500
H  35.29100 5.14000 30.51600
H  36.35300 5.55600 31.82100
H  36.71400 4.09300 30.96400
H  34.76700 3.92900 27.04100
H  34.38700 5.00700 28.41400
H  35.58800 3.83400 28.78300
H  39.03600 9.12400 24.67800
H  42.01200 9.18200 24.50500
H  41.13600 7.13000 23.76500
H  39.36100 7.31700 23.31600
H  39.80800 6.50400 24.65400
H  40.67100 10.83600 23.40100
H  42.04400 11.44600 24.38400
H  39.67500 11.53000 26.06900
H  39.27100 12.09600 24.45600
H  40.50900 12.92800 25.37600
H  46.15100 11.16600 28.38900
H  45.46000 12.75600 28.63300
H  44.96600 11.91800 27.19300
H  42.79900 12.24800 32.85100
H  43.63100 9.08100 35.82800
H  42.87000 10.30000 36.83200
H  44.64200 10.34900 36.62700

