158

Mg -1.66000 17.12400 26.15300
C  -1.95400 14.89600 28.72900
C  -2.10700 19.77200 28.37200
C  -1.50800 19.34800 23.49400
C  -1.63600 14.60100 23.85300
N  -2.01200 17.29700 28.35600
C  -2.07200 16.24500 29.23000
C  -2.50700 16.77800 30.68400
C  -2.16300 18.31300 30.52300
C  -2.09800 18.48500 28.98900
C  -3.21200 19.20900 31.32200
C  -1.64600 16.03600 31.74800
C  -1.26400 16.61400 33.15600
H  -1.22900 15.73600 34.40400
N  -1.84100 19.21000 26.01900
C  -1.96100 20.15500 27.01900
C  -1.96700 21.52500 26.51600
C  -1.96400 21.43800 25.15200
C  -1.82900 19.92800 24.81000
C  -2.19200 22.68900 27.40800
C  -2.01400 22.55300 24.09200
O  -2.09300 22.25300 22.90300
C  -1.91500 23.99000 24.53500
N  -1.67300 17.00500 23.97000
C  -1.53200 18.03000 23.09000
C  -1.10600 17.58400 21.70100
C  -0.93100 15.97600 21.89600
C  -1.46400 15.87000 23.32300
C  -2.02200 18.11200 20.57900
C  0.50200 15.39500 21.68200
C  0.57000 14.28300 20.66500
N  -1.90200 15.15300 26.19400
C  -1.91900 14.24400 25.17900
C  -2.04300 12.93400 25.70700
C  -1.98000 13.12800 27.14700
C  -1.97500 14.52900 27.34200
C  -2.15600 11.68200 24.91700
C  -1.94600 12.43700 28.38800
O  -1.93800 11.26500 28.60800
C  -2.06900 13.51600 29.44300
C  -0.96800 13.33700 30.40600
O  0.17500 13.70000 30.23200
O  -1.46400 12.63500 31.54000
C  -0.55500 12.37300 32.61000
H  -2.18600 20.57200 29.11100
H  -1.46300 20.05600 22.66400
H  -1.33100 13.83400 23.13700
H  -3.54800 16.46200 30.73500
H  -1.19500 18.63000 30.91100
H  -3.81500 19.84600 30.67600
H  -2.67100 19.79600 32.06400
H  -3.90700 18.62300 31.92200
H  -0.66700 15.89100 31.29000
H  -2.19400 15.10900 31.91800
H  -1.90500 17.44300 33.45700
H  -0.25500 17.01300 33.05300
H  -3.01800 23.33600 27.11100
H  -1.25400 23.24100 27.44800
H  -2.54800 22.47500 28.41600
H  -1.02400 24.05900 25.15800
H  -2.86000 24.26800 25.00300
H  -1.78700 24.38200 23.52600
H  -0.17900 18.13500 21.54200
H  -1.64000 15.52700 21.20100
H  -2.80700 18.71500 21.03500
H  -2.32200 17.15000 20.16300
H  -1.57200 18.63000 19.73200
H  0.78100 14.92000 22.62200
H  1.17900 16.19000 21.37100
H  -0.38700 13.91800 20.29200
H  1.05600 13.42000 21.12000
H  1.26200 14.47800 19.84600
H  -1.28600 11.06500 25.14100
H  -2.33600 11.84400 23.85400
H  -3.06100 11.28100 25.37400
H  -3.02700 13.41600 29.95400
H  -1.21200 12.27300 33.47300
H  0.29500 13.05400 32.66600
H  -0.16700 11.37200 32.42300
Mg 0.89100 7.51200 25.47100
C  1.54800 9.73200 28.08400
C  0.97200 4.92600 27.75800
C  -0.08900 5.34600 23.04800
C  1.10000 10.08100 23.15800
N  1.04200 7.32400 27.64800
C  1.31400 8.41000 28.54400
C  1.32300 7.91200 30.01700
C  1.51800 6.41400 29.79800
C  1.13900 6.18200 28.36900
C  2.94600 5.73000 30.13600
C  0.01200 8.35200 30.78700
C  0.26400 8.40400 32.34500
H  1.29300 7.45700 33.03000
N  0.47800 5.43300 25.42500
C  0.51600 4.55100 26.47400
C  0.29500 3.19300 26.01900
C  -0.04500 3.27200 24.65800
C  0.15900 4.73200 24.32200
C  0.29500 1.93200 26.95700
C  -0.42500 2.18800 23.66700
O  -0.60700 2.40200 22.46900
C  -0.61400 0.77400 24.13200
N  0.65400 7.63400 23.30200
C  0.08500 6.67200 22.60500
C  -0.17400 7.12900 21.09200
C  0.14800 8.64000 21.17600
C  0.69000 8.78200 22.60700
C  0.65900 6.31700 20.03800
C  -1.10700 9.58600 20.93900
C  -0.72700 11.02400 20.57100
N  1.22000 9.50000 25.56400
C  1.39000 10.40500 24.53200
C  1.68300 11.73200 25.06300
C  1.74700 11.54400 26.48000
C  1.46400 10.18600 26.74400
C  1.82100 13.03900 24.27100
C  1.94900 12.18600 27.78100
O  2.12400 13.36000 28.09400
C  1.68800 11.03900 28.84000
C  2.79300 10.97100 29.80000
O  3.89500 10.50900 29.57600
O  2.44200 11.58000 30.97400
C  3.35200 11.51200 32.10700
H  1.23400 4.11900 28.44600
H  -0.47200 4.57200 22.38000
H  1.12700 10.82600 22.36100
H  2.10300 8.53000 30.46100
H  0.75100 5.82700 30.30300
H  3.40100 6.22000 30.99700
H  3.54700 5.73100 29.22700
H  2.66300 4.71900 30.42800
H  -0.83800 7.69000 30.62100
H  -0.36600 9.32000 30.45900
H  -0.71600 8.19200 32.77200
H  0.59000 9.41300 32.59700
H  0.33100 0.96700 26.45200
H  -0.62700 1.83300 27.53000
H  1.12700 1.99900 27.65800
H  0.28500 0.29900 24.52400
H  -0.84300 0.13100 23.28300
H  -1.47000 0.64400 24.79500
H  -1.19300 6.94400 20.75000
H  0.93700 8.86800 20.45800
H  -0.16100 6.13200 19.34300
H  1.00500 5.31600 20.29900
H  1.42300 6.92900 19.55800
H  -1.65300 9.72700 21.87200
H  -1.79500 9.17800 20.19900
H  -0.93300 11.75500 21.35300
H  -1.43200 11.19800 19.75800
H  0.25400 11.19000 20.12700
H  0.97900 13.25700 23.61300
H  2.73200 12.99700 23.67300
H  2.16500 13.90300 24.83900
H  0.77000 11.25200 29.38800
H  2.75900 11.52000 33.02100
H  3.93800 12.42900 32.04500
H  3.85400 10.54800 32.19300

