158

Mg 47.07100 24.47200 28.61700
C  47.47500 26.79100 31.19400
C  46.27200 22.06800 30.91600
C  47.55800 22.19500 26.18400
C  48.62900 26.85400 26.33200
N  46.86100 24.46700 30.82400
C  47.09100 25.51100 31.67600
C  46.75700 25.12700 33.12900
C  46.42100 23.61800 33.04100
C  46.52300 23.35200 31.54200
C  47.20700 22.69400 33.95100
C  45.59300 25.96500 33.78600
C  45.72100 26.65500 35.20400
H  44.55300 26.52300 36.24400
N  46.62000 22.55000 28.51700
C  46.25100 21.71500 29.55300
C  46.04500 20.43100 29.01800
C  46.46800 20.39500 27.67000
C  46.90700 21.79000 27.40500
C  45.55300 19.36300 29.89200
C  46.63500 19.27100 26.74800
O  46.96000 19.46200 25.56100
C  46.52500 17.84700 27.22200
N  47.88400 24.53300 26.56200
C  47.98200 23.42300 25.76800
C  48.63100 23.71500 24.44700
C  48.49800 25.27100 24.37700
C  48.39800 25.59900 25.88300
C  50.18200 23.19200 24.46800
C  47.09900 25.61700 23.57100
C  46.45600 27.05300 23.71400
N  47.89900 26.40200 28.71300
C  48.50000 27.26000 27.71700
C  48.75400 28.48800 28.27600
C  48.38900 28.30800 29.62500
C  47.83100 27.08500 29.87200
C  49.12500 29.78800 27.48200
C  48.45600 29.01800 30.88500
O  48.93300 30.08700 31.16900
C  47.84500 28.03200 31.96800
C  48.90400 27.72000 33.05300
O  49.99600 27.26500 32.77300
O  48.49600 28.06800 34.38200
C  49.35900 27.78600 35.55600
H  46.01100 21.27400 31.61900
H  47.76000 21.49300 25.37300
H  49.13800 27.48100 25.59600
H  47.68700 25.28200 33.67800
H  45.38600 23.34000 33.24200
H  47.88100 22.03300 33.40800
H  46.49400 22.16000 34.58000
H  47.87700 23.24700 34.60900
H  44.67300 25.40200 33.94300
H  45.25800 26.74400 33.10100
H  45.91700 27.70700 34.99700
H  46.58100 26.21200 35.70600
H  44.95600 18.74700 29.21900
H  44.93200 19.62800 30.74800
H  46.44200 18.79100 30.15700
H  47.28500 17.67300 27.98300
H  46.74000 17.24500 26.33800
H  45.50600 17.64700 27.55400
H  48.02000 23.20100 23.70600
H  49.24800 25.79300 23.78300
H  50.64800 23.16200 25.45300
H  50.81100 23.85000 23.86900
H  50.18400 22.16400 24.10500
H  46.33300 24.89900 23.86400
H  47.24500 25.46900 22.50100
H  45.53900 26.91000 24.28600
H  46.15300 27.57900 22.80900
H  47.23300 27.64200 24.20200
H  48.41900 29.97700 26.67300
H  50.03900 29.55000 26.93600
H  49.25200 30.69500 28.07200
H  47.05700 28.59400 32.47000
H  49.92900 26.85700 35.55000
H  48.74100 27.66500 36.44600
H  50.06800 28.61500 35.54200
Mg -5.47900 24.74000 26.31500
C  -3.83200 26.68300 28.65700
C  -6.49100 22.68300 28.82200
C  -6.51000 22.57000 23.97600
C  -3.93000 26.67700 23.71000
N  -5.17600 24.78500 28.44800
C  -4.54800 25.66500 29.22800
C  -4.74100 25.40500 30.75800
C  -5.40600 24.02100 30.73700
C  -5.79700 23.80400 29.24500
C  -4.52400 22.86000 31.37700
C  -5.58500 26.64500 31.33800
C  -5.15500 27.13600 32.75500
H  -4.80200 26.02200 33.71000
N  -6.43600 22.89700 26.37300
C  -6.85500 22.29700 27.50900
C  -7.68400 21.13900 27.23400
C  -7.74400 21.09700 25.74500
C  -6.91600 22.21300 25.24500
C  -8.33700 20.25200 28.26100
C  -8.66000 20.43300 24.77900
O  -8.68100 20.73500 23.58600
C  -9.59000 19.36400 25.39800
N  -5.34000 24.74400 24.16100
C  -5.79000 23.60300 23.48400
C  -5.52200 23.72600 21.96400
C  -4.69500 25.03900 21.79300
C  -4.69700 25.59700 23.30500
C  -4.91700 22.43700 21.29300
C  -5.23300 26.03200 20.74800
C  -6.12100 27.18900 21.24000
N  -4.30700 26.39200 26.08700
C  -3.71900 27.08200 25.00600
C  -2.95700 28.16200 25.47100
C  -2.91400 28.00100 26.88000
C  -3.80200 26.95500 27.22900
C  -2.15500 29.05200 24.58900
C  -2.25300 28.46500 28.03400
O  -1.44200 29.37800 28.05600
C  -2.88000 27.69700 29.26900
C  -1.90300 27.19600 30.23500
O  -1.08300 26.35700 29.91400
O  -2.07800 27.66900 31.53200
C  -1.06400 27.06300 32.41500
H  -6.75400 22.02500 29.65300
H  -6.69200 21.74900 23.27900
H  -3.46600 27.21300 22.88000
H  -3.82800 25.28900 31.34200
H  -6.36400 23.98800 31.25700
H  -5.03300 21.91200 31.55300
H  -4.17300 23.17100 32.36100
H  -3.60100 22.71900 30.81600
H  -6.55600 26.15000 31.35300
H  -5.53400 27.45100 30.60600
H  -6.00900 27.68300 33.15500
H  -4.28800 27.79400 32.81500
H  -9.42500 20.29100 28.19500
H  -7.91900 20.41000 29.25500
H  -8.01600 19.25800 27.94700
H  -10.45400 19.90000 25.79100
H  -9.03200 18.89500 26.20800
H  -9.99300 18.67000 24.66100
H  -6.48800 23.87900 21.48300
H  -3.67300 24.88500 21.44500
H  -4.22600 22.04400 22.03900
H  -4.33500 22.77600 20.43600
H  -5.72500 21.72200 21.13500
H  -5.81900 25.46600 20.02400
H  -4.37000 26.36300 20.17000
H  -5.69700 28.13700 20.90900
H  -6.30100 27.33900 22.30500
H  -7.11100 27.15000 20.78500
H  -2.88700 29.81200 24.31500
H  -1.83400 28.52700 23.68900
H  -1.36000 29.53300 25.15800
H  -3.46800 28.42000 29.83400
H  -1.13900 25.97700 32.37100
H  -1.28700 27.35300 33.44200
H  -0.03300 27.37400 32.24500

