158

Mg 17.15100 -1.06200 28.04500
C  15.84300 1.03100 30.68300
C  18.93800 -2.72600 30.25300
C  18.66100 -2.35200 25.46200
C  15.40400 1.23400 25.84900
N  17.29300 -0.92700 30.22700
C  16.61500 -0.11000 31.08400
C  16.97100 -0.44600 32.53700
C  18.19500 -1.42000 32.43200
C  18.13700 -1.75700 30.89000
C  19.59600 -0.85300 32.80600
C  15.67800 -0.88900 33.36100
C  15.59100 -0.60500 34.83100
H  16.83500 -0.17500 35.70800
N  18.50500 -2.41700 27.88800
C  19.08700 -3.05400 28.91800
C  19.91900 -4.07400 28.38100
C  19.78900 -4.06700 26.95700
C  19.00000 -2.96300 26.69400
C  20.74600 -5.04200 29.27800
C  20.37600 -4.97700 25.95100
O  20.26700 -4.80900 24.71100
C  21.15500 -6.18700 26.37100
N  17.10000 -0.52100 25.95700
C  17.80400 -1.26200 25.09600
C  17.74200 -0.74800 23.65400
C  16.55400 0.26500 23.83900
C  16.22900 0.28000 25.31200
C  19.03800 -0.03200 23.14000
C  15.40600 -0.04500 22.80300
C  14.20500 -0.84900 23.25100
N  15.80300 0.63000 28.13500
C  15.13300 1.37700 27.18700
C  14.22300 2.38300 27.79600
C  14.49300 2.24900 29.23600
C  15.48200 1.24800 29.36100
C  13.45200 3.36000 27.02300
C  14.19800 2.83000 30.43000
O  13.51700 3.77800 30.66800
C  15.04600 2.00500 31.56200
C  15.88500 2.92700 32.36900
O  16.97600 3.35600 32.04800
O  15.33000 3.11600 33.62700
C  16.03700 4.03100 34.57300
H  19.48600 -3.28100 31.01700
H  19.12400 -2.76600 24.56300
H  14.89000 1.88100 25.13500
H  17.36300 0.42700 33.05900
H  17.92000 -2.23700 33.10000
H  20.23300 -1.40000 33.50000
H  19.41600 0.11000 33.28400
H  20.22800 -0.76700 31.92200
H  15.66000 -1.97200 33.23500
H  14.78400 -0.42200 32.94900
H  15.40400 -1.60700 35.21700
H  14.67300 -0.07900 35.09600
H  21.77700 -5.06600 28.92700
H  20.35300 -6.05800 29.32200
H  20.71600 -4.70500 30.31400
H  22.20800 -5.90900 26.31300
H  20.93000 -6.99700 25.67700
H  20.97100 -6.68800 27.32100
H  17.48500 -1.49000 22.89700
H  16.96400 1.26000 23.66400
H  19.73300 -0.03900 23.98000
H  19.01500 1.02200 22.86400
H  19.50700 -0.70700 22.42400
H  15.77200 -0.45400 21.86100
H  14.90200 0.87700 22.51300
H  13.45700 -0.11800 23.55900
H  14.58100 -1.48700 24.05100
H  13.91500 -1.44900 22.38800
H  12.41600 3.12300 27.26500
H  13.49500 3.18000 25.94900
H  13.80800 4.38300 27.14500
H  14.33800 1.54600 32.25200
H  16.43400 4.92000 34.08400
H  16.90500 3.53200 35.00300
H  15.33900 4.35700 35.34400
Mg 35.01300 48.66700 26.17200
C  35.37800 46.64700 28.99500
C  33.53600 51.12700 28.23200
C  34.02100 50.45400 23.44200
C  35.74300 45.92100 24.28800
N  34.67100 48.95300 28.38400
C  34.94000 47.97200 29.34600
C  34.66100 48.46700 30.78300
C  34.03300 49.87800 30.51200
C  34.12800 50.05000 28.95600
C  32.62000 50.12800 31.08000
C  35.85900 48.55900 31.74700
C  35.73900 48.19900 33.23900
H  36.04200 49.26700 34.31300
N  33.99100 50.53800 25.89000
C  33.49000 51.36200 26.89600
C  32.87300 52.46200 26.21200
C  32.99500 52.35100 24.79400
C  33.64900 51.06600 24.62900
C  32.33500 53.66700 26.96500
C  32.58300 53.20400 23.64700
O  32.72500 52.95300 22.50000
C  31.93300 54.62800 23.83400
N  35.00000 48.28400 24.13700
C  34.65100 49.21200 23.18100
C  34.73800 48.58300 21.79000
C  35.20600 47.19100 22.06400
C  35.42500 47.11400 23.58200
C  33.41300 48.68100 20.92800
C  36.43900 46.60000 21.24600
C  36.14900 45.43700 20.28700
N  35.84200 46.72300 26.49200
C  35.92300 45.62800 25.63000
C  36.16500 44.39200 26.37900
C  36.08000 44.78900 27.71600
C  35.77300 46.15900 27.73600
C  36.40300 43.01400 25.76700
C  36.19600 44.26400 29.09600
O  36.53800 43.12700 29.46700
C  35.73000 45.51800 30.01200
C  34.66700 45.04000 30.86400
O  33.54600 44.78400 30.49200
O  35.01900 44.89600 32.19200
C  33.99000 44.79200 33.19300
H  33.21600 52.02400 28.76600
H  33.50200 51.04500 22.68500
H  35.89700 45.05600 23.63900
H  33.89900 47.82200 31.22000
H  34.67000 50.60400 31.01800
H  32.13100 49.27200 31.54500
H  31.98300 50.50400 30.27900
H  32.54700 50.86900 31.87700
H  36.37400 49.51900 31.74600
H  36.58400 47.88100 31.29700
H  36.33500 47.31700 33.47100
H  34.73300 47.82500 33.43200
H  32.18300 54.60900 26.43800
H  33.02100 53.84700 27.79200
H  31.36100 53.31600 27.30300
H  31.68200 54.98500 22.83500
H  32.75900 55.16000 24.30700
H  31.07600 54.66100 24.50600
H  35.51800 49.13500 21.26500
H  34.36700 46.51900 21.88300
H  32.55100 48.81800 21.58100
H  33.27300 47.71500 20.44400
H  33.50000 49.47100 20.18100
H  37.20900 46.22800 21.92100
H  36.85100 47.41800 20.65600
H  36.25400 44.43600 20.70800
H  36.76400 45.50900 19.39000
H  35.14600 45.54300 19.87400
H  37.48900 42.93700 25.72600
H  36.04900 42.89200 24.74400
H  35.81500 42.26400 26.29700
H  36.55400 45.89300 30.61900
H  33.00200 45.05900 32.81900
H  34.23400 45.56000 33.92800
H  33.96700 43.91200 33.83500

