158

Mg 17.11200 50.99400 26.56000
C  19.12200 49.67300 29.04400
C  14.82000 51.94100 28.85500
C  15.32100 52.29600 24.00800
C  19.42600 49.69000 24.27500
N  16.94400 50.76200 28.65600
C  17.93400 50.29500 29.50100
C  17.60200 50.56300 30.96600
C  16.05900 50.95100 30.86200
C  15.91800 51.29600 29.36700
C  15.04700 49.88200 31.34900
C  18.55200 51.65000 31.55100
C  18.91700 51.44200 33.02700
H  17.88300 50.76800 33.99000
N  15.37500 52.04100 26.39800
C  14.58100 52.32500 27.46800
C  13.38700 53.12800 27.04500
C  13.57300 53.25700 25.66900
C  14.76900 52.48300 25.25000
C  12.42800 53.61300 28.00300
C  12.72300 54.00600 24.72200
O  13.00400 54.25700 23.59200
C  11.34700 54.42000 25.07700
N  17.31200 50.90600 24.50700
C  16.47600 51.59500 23.66400
C  16.80600 51.35600 22.19900
C  18.18100 50.70100 22.22400
C  18.35400 50.37000 23.73300
C  15.82000 50.61600 21.32100
C  19.26600 51.55100 21.55100
C  20.19600 52.42500 22.45300
N  18.84600 49.88200 26.59600
C  19.67900 49.44300 25.61400
C  20.85600 48.73200 26.14700
C  20.64000 48.80400 27.50800
C  19.48300 49.57200 27.72000
C  21.82000 48.02400 25.28300
C  21.22100 48.41500 28.68600
O  22.27900 47.83200 28.86600
C  20.27300 48.93000 29.79600
C  19.86900 47.78100 30.65100
O  19.26400 46.83100 30.14900
O  20.07700 48.01900 31.99900
C  19.48700 46.96500 32.86100
H  14.14400 52.43800 29.55300
H  14.67400 52.65800 23.20600
H  20.26300 49.33100 23.67100
H  17.63200 49.61700 31.50500
H  15.78100 51.86800 31.38200
H  14.53100 49.41000 30.51200
H  14.36200 50.32100 32.07500
H  15.56900 49.03200 31.78700
H  18.06600 52.60900 31.37400
H  19.50700 51.82400 31.05600
H  19.11200 52.39000 33.52800
H  19.91500 51.00800 33.09400
H  11.93100 54.49500 27.59900
H  12.89200 53.91300 28.94200
H  11.75500 52.78100 28.21100
H  11.35100 55.46700 25.38100
H  10.94800 53.81300 25.89000
H  10.72700 54.38700 24.18100
H  16.96500 52.33700 21.75000
H  18.18600 49.76400 21.66700
H  14.99600 50.22700 21.92000
H  16.22800 49.80400 20.71900
H  15.36800 51.30100 20.60300
H  18.87400 51.89900 20.59500
H  19.99300 50.76100 21.36600
H  19.82200 52.50100 23.47400
H  20.27600 53.45400 22.10100
H  21.23300 52.09900 22.53400
H  22.24600 47.11600 25.71000
H  22.58200 48.71800 24.93000
H  21.18100 47.65300 24.48100
H  20.75700 49.65600 30.44900
H  18.43500 46.91900 32.57900
H  19.49800 47.39900 33.86100
H  19.99700 46.00200 32.85700
Mg -12.04400 38.10100 41.35500
C  -9.79400 35.53000 40.55200
C  -9.92400 40.31600 39.73300
C  -14.60500 40.28600 41.29200
C  -14.33900 35.73800 42.58000
N  -10.19200 37.94900 40.10700
C  -9.39800 36.78100 40.06300
C  -8.05400 37.01800 39.34800
C  -8.02800 38.66100 39.38700
C  -9.49300 39.00700 39.76900
C  -6.97700 39.07200 40.50500
C  -8.02600 36.31600 37.93300
C  -6.76400 35.39500 37.68900
H  -5.69400 35.90300 36.70400
N  -12.25100 40.06300 40.68600
C  -11.23200 40.81800 40.12400
C  -11.66600 42.18100 40.18900
C  -13.09600 42.17100 40.45900
C  -13.34500 40.83400 40.81400
C  -10.79600 43.41400 39.67300
C  -14.10200 43.33100 40.43300
O  -13.73200 44.49300 40.36100
C  -15.61400 43.20400 40.60100
N  -14.10500 38.08700 41.97100
C  -14.93100 39.08800 41.84700
C  -16.36300 38.86100 42.35800
C  -16.22600 37.39500 42.88200
C  -14.81500 37.04000 42.49300
C  -16.90800 39.83800 43.47000
C  -17.30400 36.40000 42.25000
C  -17.91800 35.38700 43.20500
N  -12.09300 35.98800 41.65200
C  -13.06600 35.19300 42.21600
C  -12.59100 33.81500 42.21900
C  -11.26600 33.89800 41.65200
C  -11.04000 35.22200 41.27500
C  -13.31400 32.68000 42.80500
C  -10.00700 33.22100 41.22500
O  -9.66800 32.06800 41.32800
C  -9.09200 34.20400 40.51300
C  -7.76500 34.24900 41.18600
O  -6.89400 33.47000 40.86700
O  -7.65300 35.25400 42.08100
C  -6.39400 35.25400 42.85700
H  -9.22200 41.05600 39.34500
H  -15.51000 40.88100 41.42900
H  -15.14500 35.12900 42.99200
H  -7.26600 36.55700 39.94400
H  -7.78100 39.09500 38.41800
H  -6.78000 38.24500 41.18800
H  -7.39200 39.88700 41.09800
H  -6.03500 39.44800 40.10500
H  -7.90900 37.03300 37.12000
H  -8.96200 35.79900 37.72100
H  -6.98200 34.39100 37.32300
H  -6.31200 35.12100 38.64200
H  -11.03100 43.51500 38.61400
H  -9.73400 43.20100 39.79300
H  -11.19200 44.30200 40.16600
H  -16.05400 44.14400 40.26600
H  -15.79700 42.98400 41.65300
H  -15.86200 42.35900 39.95900
H  -17.06500 38.92100 41.52600
H  -16.31300 37.21000 43.95200
H  -16.11800 40.45700 43.89400
H  -17.33800 39.28400 44.30400
H  -17.66200 40.45000 42.97300
H  -16.92700 35.95100 41.33200
H  -18.12000 36.98900 41.83100
H  -17.35400 35.34500 44.13700
H  -17.95200 34.36100 42.84000
H  -18.90400 35.80200 43.41600
H  -13.25300 31.79100 42.17800
H  -14.36400 32.93800 42.94700
H  -12.77200 32.53400 43.73900
H  -8.81000 33.91900 39.49900
H  -6.47800 35.89000 43.73800
H  -5.56300 35.62600 42.25700
H  -6.28400 34.26300 43.29800

