158

Mg 1.76400 -0.96300 45.67500
C  5.14600 0.01900 45.00500
C  0.74600 1.59600 43.61300
C  -1.23800 -2.46700 45.74500
C  3.15100 -4.20800 46.60000
N  2.89700 0.58100 44.34800
C  4.27100 0.80800 44.29800
C  4.58900 2.01600 43.37800
C  3.14200 2.47600 42.95000
C  2.12700 1.54800 43.72600
C  2.90300 3.97600 43.13100
C  5.56100 1.57400 42.23500
C  6.55200 2.67000 41.84500
H  7.32900 2.31400 40.54600
N  -0.01500 -0.42200 44.92400
C  -0.26200 0.74200 44.09700
C  -1.68000 0.77900 43.93800
C  -2.34600 -0.28200 44.67800
C  -1.16700 -1.07800 45.22600
C  -2.30000 1.90600 43.20700
C  -3.84100 -0.59400 44.86700
O  -4.64600 0.07400 44.18200
C  -4.39100 -1.52700 45.98200
N  1.05700 -3.07500 46.10500
C  -0.26500 -3.30000 46.21400
C  -0.50100 -4.71800 46.69500
C  0.88300 -5.32600 46.73200
C  1.80600 -4.14000 46.46500
C  -1.28500 -4.80400 48.05200
C  1.23300 -6.45400 45.77300
C  2.04800 -7.66700 46.16200
N  3.71900 -1.89400 45.89800
C  4.07600 -3.19000 46.32100
C  5.49300 -3.24200 46.53400
C  5.91900 -1.91800 46.17300
C  4.84300 -1.15500 45.65400
C  6.28300 -4.36100 47.22200
C  7.10700 -1.02900 46.11900
O  8.26700 -1.25300 46.46300
C  6.60700 0.30500 45.39900
C  6.68400 1.45300 46.31700
O  5.99500 1.57400 47.32100
O  7.58500 2.35800 45.72900
C  7.58700 3.67700 46.47100
H  0.46000 2.48700 43.05000
H  -2.20600 -2.89800 46.00800
H  3.58400 -5.14000 46.96700
H  5.12900 2.74200 43.98700
H  3.02400 2.29100 41.88200
H  3.74900 4.52200 43.55100
H  1.99100 4.19400 43.68700
H  2.70400 4.24300 42.09400
H  5.12800 1.28700 41.27700
H  6.10400 0.66100 42.48000
H  7.31100 2.82100 42.61300
H  6.07400 3.64600 41.76500
H  -3.27400 1.77100 42.73400
H  -1.57000 2.45000 42.60800
H  -2.36200 2.62600 44.02300
H  -3.84200 -1.29500 46.89500
H  -4.32600 -2.54100 45.58700
H  -5.45500 -1.29300 46.00000
H  -1.15500 -5.16900 45.94900
H  1.08700 -5.57800 47.77300
H  -1.04700 -5.69500 48.63200
H  -2.32800 -4.89800 47.75100
H  -1.19100 -3.89200 48.64300
H  1.82200 -5.93400 45.01800
H  0.26000 -6.65600 45.32500
H  2.90600 -7.65600 45.48900
H  1.40200 -8.52900 45.99400
H  2.41500 -7.71900 47.18600
H  5.83700 -4.63100 48.18000
H  7.33200 -4.14400 47.42200
H  6.21900 -5.19400 46.52200
H  7.23600 0.57600 44.55100
H  7.07100 3.69800 47.43100
H  7.33800 4.57700 45.90900
H  8.61500 3.88900 46.76500
Mg 49.03600 35.16200 27.11700
C  47.17000 33.66300 29.73300
C  49.34500 37.94300 29.06700
C  50.60700 36.56700 24.47600
C  48.54500 32.28800 25.27800
N  48.58700 35.64500 29.35700
C  47.79000 34.86900 30.16500
C  47.91300 35.50900 31.58000
C  48.30500 36.99400 31.25100
C  48.73000 36.91200 29.80200
C  47.09400 38.08600 31.35600
C  48.95000 34.70100 32.34700
C  49.02100 34.97200 33.92800
H  48.08400 35.97100 34.69900
N  49.89300 36.97600 26.82000
C  49.92900 37.94800 27.76300
C  50.79100 39.02500 27.18600
C  51.10100 38.74500 25.86600
C  50.58500 37.34600 25.65900
C  51.03700 40.23900 28.03200
C  51.88100 39.61100 24.79500
O  52.21300 39.14100 23.72700
C  52.16600 41.08600 24.95400
N  49.29900 34.63300 25.05800
C  50.09500 35.31000 24.20900
C  50.64900 34.46100 23.01900
C  49.90500 33.08200 23.25700
C  49.31200 33.28300 24.68800
C  50.41800 35.07500 21.60000
C  50.80400 31.80000 23.14200
C  50.58400 30.85900 22.01300
N  48.08700 33.32200 27.43400
C  48.03600 32.29400 26.58900
C  47.27600 31.23500 27.24200
C  46.86000 31.70700 28.53100
C  47.38500 32.97500 28.53000
C  46.98700 29.83300 26.63700
C  46.12000 31.49300 29.78400
O  45.49300 30.47500 30.02600
C  46.20200 32.74200 30.64200
C  46.44100 32.38500 32.06300
O  47.36400 31.80400 32.55300
O  45.30900 32.56000 32.72300
C  45.33100 32.61100 34.16400
H  49.31800 38.91400 29.56700
H  51.19200 37.00700 23.66600
H  48.45000 31.42500 24.61400
H  46.90300 35.48600 31.99100
H  49.18300 37.26700 31.83700
H  46.65500 38.24000 30.37000
H  47.54000 39.06700 31.51700
H  46.33900 37.74600 32.06500
H  49.95600 35.02000 32.07300
H  48.84300 33.64000 32.12400
H  50.04600 35.32100 34.05800
H  49.08500 33.96600 34.34100
H  51.76800 40.10900 28.83000
H  50.29400 40.51500 28.78000
H  51.12100 41.17600 27.48100
H  52.77900 41.31100 25.82700
H  51.24500 41.66700 24.99700
H  52.72400 41.47300 24.10000
H  51.73500 34.42200 23.10200
H  49.09100 32.92500 22.55000
H  51.37800 35.06400 21.08400
H  49.92500 36.04300 21.50900
H  49.74000 34.39700 21.08100
H  50.68300 31.17400 24.02600
H  51.82300 32.18700 23.12400
H  50.29900 29.89100 22.42600
H  51.54000 30.61100 21.55200
H  49.85200 31.21300 21.28700
H  46.13700 29.93200 25.96200
H  46.76700 29.11900 27.43100
H  47.88800 29.42700 26.17800
H  45.26000 33.28200 30.74300
H  46.21900 33.09000 34.57600
H  45.36200 31.64300 34.66400
H  44.46800 33.19400 34.48500

