158

Mg 26.29700 50.93200 25.56600
C  24.20700 52.02800 28.18000
C  28.70800 50.19800 27.90300
C  28.53000 50.46200 22.99800
C  24.00100 52.01900 23.26600
N  26.43500 51.20100 27.87800
C  25.41600 51.53700 28.69000
C  25.74200 51.19800 30.12900
C  27.31900 50.88400 30.08800
C  27.50800 50.69200 28.54200
C  28.33500 51.95300 30.67900
C  24.94300 50.07500 30.91300
C  24.19800 50.43900 32.18000
H  25.03500 50.96300 33.28800
N  28.29500 50.29500 25.40600
C  29.08600 50.08800 26.52000
C  30.41000 49.64100 26.06100
C  30.43800 49.70900 24.65700
C  29.09200 50.19300 24.28100
C  31.39000 49.19600 27.11300
C  31.46800 49.34600 23.67400
O  31.36800 49.52500 22.47900
C  32.74300 48.75500 24.10100
N  26.25200 51.09200 23.43800
C  27.26800 50.91100 22.59700
C  26.81500 50.88300 21.10300
C  25.38900 51.49100 21.22300
C  25.18100 51.49000 22.75200
C  27.80800 51.72100 20.31600
C  24.37000 50.58900 20.43800
C  23.09700 51.24500 19.91500
N  24.49200 51.91400 25.63100
C  23.65600 52.26000 24.65200
C  22.45000 52.90700 25.28300
C  22.61100 52.81000 26.62100
C  23.91600 52.24300 26.80200
C  21.32100 53.49400 24.39700
C  21.97600 53.13700 27.86800
O  20.94800 53.66800 28.12400
C  22.97900 52.60100 28.94000
C  23.32800 53.73400 29.83000
O  24.08400 54.69400 29.67300
O  22.49900 53.61800 30.93500
C  22.91500 54.30900 32.11700
H  29.36400 49.91600 28.72900
H  29.17700 50.32100 22.13000
H  23.30600 52.32500 22.48200
H  25.53100 52.08700 30.72300
H  27.40700 49.99900 30.71900
H  28.35000 51.80000 31.75800
H  27.84100 52.89700 30.44900
H  29.23000 52.05100 30.06500
H  25.51200 49.19100 31.20100
H  24.19200 49.77500 30.18200
H  23.88700 49.46700 32.56400
H  23.32500 51.06800 32.00400
H  31.52400 49.72800 28.05500
H  32.39600 49.17600 26.69500
H  31.15600 48.14700 27.29600
H  33.38300 48.59900 23.23300
H  32.53000 47.84000 24.65400
H  33.26400 49.46300 24.74500
H  26.79700 49.85000 20.75700
H  25.33800 52.48300 20.77600
H  28.27100 52.58900 20.78500
H  27.32200 51.99100 19.37900
H  28.63800 51.06600 20.04900
H  24.18200 49.78500 21.14900
H  24.89000 50.17200 19.57600
H  23.06000 51.00600 18.85200
H  22.94000 52.31900 20.00700
H  22.25500 50.76100 20.40900
H  20.33100 53.34700 24.83000
H  21.50800 53.05100 23.41800
H  21.58400 54.52800 24.17500
H  22.48300 51.76600 29.43400
H  22.42300 53.77200 32.92800
H  22.61100 55.35600 32.15000
H  23.99900 54.20900 32.17800
Mg 6.86600 53.95500 41.12300
C  6.23200 50.32600 40.73500
C  10.09000 53.30200 40.47700
C  7.17000 57.23500 41.07500
C  3.37900 54.20400 41.41000
N  7.97400 51.96000 40.54000
C  7.56000 50.64800 40.46900
C  8.74800 49.70400 40.38700
C  9.97500 50.64300 40.62500
C  9.31400 52.08800 40.51500
C  10.84600 50.47400 41.89500
C  8.80300 48.81000 38.99200
C  8.86600 49.48100 37.68600
H  7.63500 49.54900 36.83700
N  8.44200 55.19700 40.81000
C  9.74400 54.74100 40.58100
C  10.59500 55.92700 40.44800
C  9.77400 57.12400 40.63100
C  8.44800 56.58700 40.92800
C  12.09200 55.94100 40.26900
C  10.23500 58.55100 40.46100
O  11.41800 58.72200 40.08100
C  9.25000 59.60800 40.75500
N  5.46000 55.48200 41.19800
C  5.89300 56.72500 41.33000
C  4.65600 57.73000 41.52100
C  3.46800 56.77500 41.28800
C  4.10400 55.40800 41.29600
C  4.56400 58.47300 42.90600
C  2.62200 57.12300 40.07300
C  1.35500 57.90400 40.32800
N  5.12100 52.59500 41.10200
C  3.83300 52.88100 41.35300
C  3.01100 51.76800 41.45100
C  3.92800 50.67800 41.28000
C  5.19900 51.25000 40.95600
C  1.50600 51.69200 41.68800
C  4.05300 49.23600 41.34400
O  3.14400 48.43700 41.58300
C  5.43900 48.92400 40.72900
C  5.21200 48.33900 39.28700
O  4.79800 48.99600 38.32400
O  5.59300 46.99700 39.23800
C  5.41800 46.33800 38.00800
H  11.15900 53.20000 40.28100
H  7.22500 58.31400 40.91800
H  2.32000 54.36500 41.62200
H  8.74200 49.01700 41.23400
H  10.66400 50.53700 39.78700
H  10.72000 49.40500 42.06500
H  10.45900 51.10100 42.69800
H  11.87400 50.59700 41.55400
H  7.90500 48.21100 39.14100
H  9.77100 48.32000 39.09100
H  9.57700 48.97800 37.03100
H  9.36900 50.44200 37.58300
H  12.32800 56.45900 39.33900
H  12.46000 54.92500 40.12900
H  12.65800 56.35000 41.10600
H  8.45000 59.60500 40.01400
H  9.76300 60.53800 40.51000
H  8.95000 59.58800 41.80200
H  4.85500 58.39800 40.68300
H  2.82700 56.69700 42.16700
H  3.77100 58.11500 43.56400
H  4.44200 59.54500 42.74600
H  5.55200 58.50500 43.36400
H  2.31700 56.14900 39.69000
H  3.23300 57.71100 39.38800
H  0.90100 57.72900 41.30300
H  0.62100 57.51200 39.62500
H  1.49800 58.96200 40.10800
H  0.98400 51.31400 40.80900
H  1.07600 52.66200 41.93400
H  1.14600 51.08900 42.52200
H  6.11800 48.27800 41.28500
H  5.58800 47.05900 37.20900
H  4.39500 46.00300 37.83900
H  6.12900 45.52400 37.86600

