158

Mg 34.95100 3.21700 30.39600
C  32.70500 4.38800 32.75200
C  37.36600 2.97600 32.72100
C  36.97000 2.02700 27.98400
C  32.40200 3.62900 27.92400
N  34.89700 3.49700 32.51900
C  33.91300 3.98900 33.31700
C  34.28200 3.87400 34.80800
C  35.87100 3.76300 34.76800
C  36.06200 3.39000 33.21300
C  36.63500 5.06100 35.11600
C  33.57300 2.69200 35.51700
C  33.74100 2.59900 37.00300
H  34.57800 3.52400 37.82700
N  36.91100 2.71100 30.37100
C  37.74600 2.59800 31.46500
C  39.09400 2.13000 31.01600
C  38.92700 1.86400 29.62500
C  37.56400 2.24400 29.23200
C  40.26500 2.05800 31.97600
C  40.02200 1.32100 28.65000
O  39.88500 1.27900 27.41200
C  41.26800 0.76200 29.14300
N  34.66700 2.72900 28.24500
C  35.65700 2.20400 27.49600
C  35.19500 1.87800 26.07800
C  33.73400 2.51500 26.06200
C  33.55600 3.05300 27.50100
C  35.99900 2.32900 24.93600
C  32.61200 1.56800 25.52600
C  32.10400 1.77200 24.08000
N  32.90700 3.82000 30.32800
C  32.03400 4.02300 29.24100
C  30.77200 4.46000 29.77300
C  30.96400 4.67800 31.14100
C  32.30800 4.29600 31.44100
C  29.60300 4.78000 28.95900
C  30.34800 5.16700 32.36900
O  29.22000 5.48300 32.64400
C  31.48800 4.82800 33.45900
C  31.74500 6.03400 34.26700
O  32.00900 7.14300 33.88400
O  31.45700 5.75900 35.57400
C  31.51700 6.90100 36.59300
H  38.16800 2.84700 33.45100
H  37.57500 1.49100 27.25000
H  31.62100 3.81600 27.18500
H  33.89700 4.76200 35.30900
H  36.24300 2.94000 35.37900
H  35.98200 5.93200 35.06400
H  37.37400 5.19300 34.32600
H  37.22600 4.89700 36.01700
H  34.11600 1.80300 35.19500
H  32.54300 2.59100 35.17500
H  33.96600 1.57400 37.29600
H  32.73700 2.84100 37.35300
H  41.15300 2.49600 31.52100
H  40.58700 1.07000 32.30700
H  40.16500 2.73100 32.82800
H  40.98000 0.01000 29.87800
H  41.91900 1.51100 29.59400
H  41.76300 0.11300 28.42000
H  35.18500 0.79400 26.20000
H  33.74100 3.39600 25.42000
H  36.65200 3.18500 25.10400
H  35.35000 2.53400 24.08400
H  36.68600 1.49400 24.80100
H  31.76300 1.38600 26.18500
H  33.05600 0.57300 25.49400
H  32.45600 0.83400 23.65100
H  32.62900 2.64900 23.70300
H  31.03900 1.92600 23.90500
H  29.02000 3.88800 28.73100
H  29.99700 5.12000 28.00200
H  29.05000 5.67000 29.26200
H  31.21400 4.02600 34.14400
H  30.93300 6.63600 37.47500
H  31.17900 7.84400 36.16500
H  32.52900 7.06000 36.96600
Mg -12.53600 17.32800 40.53500
C  -9.26400 15.88300 40.25600
C  -11.11500 20.35900 39.51100
C  -15.62100 18.63100 39.92900
C  -13.91400 14.16300 40.83500
N  -10.43100 17.92900 39.97000
C  -9.31000 17.26400 39.88200
C  -8.10400 18.13900 39.51200
C  -8.72800 19.54800 39.47300
C  -10.18600 19.25700 39.67600
C  -8.18700 20.42600 40.63600
C  -7.54700 17.64800 38.14200
C  -6.04900 17.52400 38.01900
H  -5.52200 16.21300 37.43400
N  -13.27400 19.32100 39.92900
C  -12.51100 20.39300 39.54200
C  -13.37700 21.51100 39.19700
C  -14.74900 21.01300 39.25300
C  -14.56900 19.59300 39.72600
C  -12.81200 22.88400 38.77900
C  -15.94200 21.83800 38.92400
O  -15.80000 23.03000 38.65700
C  -17.41000 21.34400 38.93300
N  -14.55100 16.50900 40.29500
C  -15.61300 17.25300 40.25000
C  -16.93200 16.41800 40.45200
C  -16.38300 14.92200 40.59600
C  -14.84300 15.18300 40.57600
C  -17.76000 16.89700 41.68000
C  -16.88700 13.89400 39.54600
C  -17.85900 12.87500 40.01700
N  -11.79700 15.39400 40.58300
C  -12.46100 14.21300 40.78900
C  -11.54500 13.18000 40.91900
C  -10.22500 13.78600 40.77000
C  -10.41500 15.11600 40.49500
C  -11.96600 11.70900 40.98400
C  -8.77000 13.53000 40.87000
O  -8.16600 12.47400 41.10600
C  -8.08700 14.91500 40.46600
C  -7.16400 15.23100 41.50500
O  -7.38800 15.88600 42.49600
O  -5.92600 14.88700 41.17700
C  -4.89000 15.16400 42.23000
H  -10.51600 21.22600 39.22600
H  -16.67200 18.92800 39.91300
H  -14.36700 13.20900 41.11400
H  -7.34000 18.18000 40.28700
H  -8.62600 20.09200 38.53400
H  -7.24600 20.04600 41.03500
H  -8.98100 20.66900 41.34200
H  -8.02500 21.45600 40.31900
H  -7.93000 18.38800 37.43800
H  -7.99900 16.75300 37.71600
H  -5.59200 17.66700 38.99900
H  -5.80600 18.44900 37.49700
H  -13.29900 23.64400 39.39000
H  -13.13600 23.18400 37.78200
H  -11.75900 23.05600 39.00100
H  -17.39000 20.33600 38.52100
H  -18.12100 21.90500 38.32600
H  -17.71700 21.39600 39.97800
H  -17.55200 16.45200 39.55600
H  -16.68500 14.52900 41.56700
H  -17.25100 17.72500 42.17400
H  -17.87900 16.12400 42.43900
H  -18.75000 17.26600 41.41100
H  -16.06600 13.40100 39.02600
H  -17.39700 14.47400 38.77600
H  -17.49500 11.84800 39.99000
H  -18.76100 12.95600 39.41000
H  -18.09800 13.06800 41.06300
H  -12.91200 11.66100 40.44600
H  -12.20000 11.38000 41.99600
H  -11.12800 11.19200 40.51500
H  -7.47200 14.83000 39.57000
H  -4.62300 16.21300 42.10500
H  -3.94100 14.69600 41.96800
H  -5.19600 14.97100 43.25800

