158

Mg 40.78600 40.59700 26.71000
C  40.29000 43.13800 29.12200
C  41.99200 38.63000 28.99500
C  41.24400 38.40100 24.10900
C  40.06600 43.10400 24.28600
N  41.04200 40.89300 28.90800
C  40.80600 41.93800 29.68700
C  41.12700 41.62100 31.14500
C  41.51900 40.05400 31.13700
C  41.55000 39.81000 29.58200
C  42.81800 39.63200 31.92600
C  40.01400 42.04400 32.09200
C  39.62100 41.06200 33.27000
H  39.48400 41.56800 34.68900
N  41.46300 38.71900 26.58300
C  41.93100 38.05300 27.67800
C  42.28600 36.69900 27.24000
C  42.20700 36.67200 25.82200
C  41.65000 37.90900 25.45400
C  42.74600 35.58000 28.24000
C  42.59400 35.60700 24.80100
O  42.47800 35.71700 23.55800
C  43.29800 34.36500 25.33900
N  40.79300 40.83000 24.57000
C  40.87700 39.64700 23.73800
C  40.71700 40.03000 22.18900
C  39.86700 41.29900 22.43000
C  40.27300 41.82600 23.82400
C  42.11400 40.30500 21.50300
C  38.26200 41.03800 22.46700
C  37.70600 39.53600 22.64000
N  40.24900 42.63000 26.64000
C  40.08400 43.51500 25.59400
C  39.75800 44.78100 26.10900
C  39.74500 44.70400 27.51200
C  40.09600 43.33700 27.75500
C  39.48600 45.98600 25.35000
C  39.60500 45.44400 28.75800
O  39.22600 46.57600 28.97800
C  40.04000 44.41500 29.83900
C  41.24500 45.02100 30.46200
O  42.41700 44.87900 30.09400
O  40.94800 45.80000 31.60100
C  42.08600 46.28100 32.37900
H  42.33000 37.99300 29.81400
H  41.45400 37.68200 23.31400
H  39.83700 43.87300 23.54500
H  41.97400 42.25100 31.41600
H  40.72800 39.37500 31.45500
H  42.64600 38.88500 32.70000
H  43.39400 40.48400 32.28800
H  43.53600 39.27700 31.18700
H  39.09200 42.00200 31.51300
H  40.00100 43.07800 32.43700
H  40.43700 40.36900 33.47200
H  38.70900 40.50700 33.05100
H  42.15400 34.71500 27.94300
H  42.37800 35.89700 29.21500
H  43.82100 35.41700 28.32800
H  42.74300 33.72800 26.02800
H  44.22900 34.70300 25.79500
H  43.37200 33.65300 24.51700
H  40.26500 39.19900 21.64800
H  39.99500 42.15500 21.76800
H  42.98000 40.26800 22.16400
H  42.00000 41.28700 21.04300
H  42.34400 39.58900 20.71400
H  37.75200 41.54000 21.64500
H  37.95700 41.58600 23.35900
H  36.76100 39.51700 22.09900
H  37.34800 39.37900 23.65700
H  38.41300 38.76700 22.32900
H  40.24100 46.04200 24.56500
H  39.51100 46.90200 25.93900
H  38.48400 45.90000 24.92900
H  39.17400 44.35800 30.49900
H  42.00600 47.24900 32.87300
H  42.81700 46.61500 31.64300
H  42.47600 45.52700 33.06300
Mg 16.52600 52.82400 26.73100
C  18.45600 51.20300 29.15500
C  14.44200 53.96500 29.13000
C  14.33700 53.84400 24.37600
C  18.50900 51.27800 24.32900
N  16.40900 52.53400 28.88900
C  17.38800 51.92300 29.65800
C  17.15400 52.28700 31.12200
C  15.71800 52.93300 31.10300
C  15.48500 53.14800 29.63400
C  14.56900 52.00900 31.75900
C  18.16200 53.27400 31.70000
C  18.54800 53.23400 33.20200
H  17.58400 52.39700 34.05800
N  14.65500 53.75200 26.75100
C  14.04600 54.21100 27.82000
C  12.91600 55.01400 27.53000
C  12.83400 54.98300 26.09400
C  14.00600 54.21000 25.64400
C  11.93200 55.69400 28.48700
C  11.83200 55.61800 25.14800
O  11.84200 55.46700 23.93700
C  10.79200 56.55800 25.67800
N  16.35200 52.44500 24.69800
C  15.39500 52.99200 23.89700
C  15.67400 52.81900 22.40600
C  17.06400 52.02900 22.34700
C  17.36800 51.96000 23.85300
C  14.49600 52.30800 21.53400
C  18.21500 52.73400 21.47200
C  18.85800 54.00800 22.02100
N  18.27200 51.58200 26.66100
C  18.91400 51.03200 25.60900
C  19.99600 50.27100 26.07900
C  19.87200 50.32900 27.45400
C  18.77900 51.08500 27.80000
C  21.12100 49.60800 25.31500
C  20.50400 49.87400 28.71400
O  21.47900 49.17600 28.95400
C  19.57200 50.42100 29.86700
C  19.12400 49.32900 30.71600
O  18.06600 48.69100 30.65900
O  19.98000 49.23000 31.78300
C  19.71700 48.21200 32.81000
H  13.82500 54.27100 29.97700
H  13.73600 54.26900 23.57000
H  19.28300 50.86000 23.68200
H  17.16200 51.33100 31.64700
H  15.55200 53.82600 31.70500
H  13.87800 52.64700 32.31000
H  15.07200 51.35300 32.47000
H  13.97500 51.46300 31.02600
H  17.79500 54.25400 31.39800
H  19.08600 53.26600 31.12100
H  18.56300 54.20500 33.69700
H  19.51300 52.74700 33.34500
H  12.01600 56.78000 28.53400
H  11.98700 55.36000 29.52300
H  10.89400 55.44000 28.27200
H  9.93400 56.02300 26.08600
H  10.47800 57.12000 24.79800
H  11.21300 57.31300 26.34300
H  15.88100 53.76800 21.91100
H  16.84700 51.03900 21.94600
H  14.60900 51.29500 21.14900
H  14.46500 52.92700 20.63700
H  13.56900 52.52200 22.06600
H  17.90000 53.08000 20.48700
H  18.93400 51.94800 21.24400
H  18.64500 54.04800 23.08900
H  18.48600 54.84900 21.43500
H  19.93500 53.87200 21.93100
H  20.77500 48.66300 24.89500
H  21.90500 49.41600 26.04800
H  21.40100 50.21900 24.45700
H  20.17700 51.08600 30.48200
H  19.16900 48.69800 33.61700
H  20.60300 47.82100 33.31000
H  19.23800 47.31300 32.42000

