158

Mg 47.59700 34.85700 27.67500
C  45.56800 33.52400 30.30100
C  48.18500 37.53700 29.77000
C  48.79600 36.61400 24.98400
C  46.34400 32.41500 25.58200
N  46.93300 35.44800 29.81400
C  46.21900 34.71600 30.65400
C  46.50800 35.19600 32.09000
C  46.94900 36.68400 31.87200
C  47.43600 36.55300 30.40800
C  45.79500 37.68600 32.05700
C  47.68700 34.35300 32.76300
C  47.52600 34.26500 34.33900
H  46.60200 35.29700 34.97500
N  48.48200 36.75600 27.43400
C  48.59300 37.70200 28.42800
C  49.33200 38.88500 27.87400
C  49.62200 38.50800 26.50300
C  48.94600 37.25500 26.22000
C  49.62800 40.17900 28.55800
C  50.33900 39.34500 25.47000
O  50.48800 38.97400 24.33800
C  50.68200 40.81100 25.67000
N  47.58500 34.51100 25.56900
C  48.03100 35.42700 24.70000
C  47.95200 34.91600 23.25800
C  47.18100 33.53400 23.45200
C  46.97100 33.47300 24.94600
C  47.31900 35.83400 22.22900
C  48.14200 32.38500 22.87400
C  49.43000 32.25300 23.53000
N  46.43500 33.15600 27.91000
C  46.12100 32.22400 27.01100
C  45.56900 31.06800 27.67600
C  45.24300 31.54800 28.93500
C  45.87900 32.80500 29.08400
C  45.13400 29.82800 26.99100
C  44.55000 31.23700 30.14500
O  43.96400 30.18700 30.47700
C  44.61400 32.56800 31.01800
C  44.89800 32.18200 32.42400
O  45.81100 31.50000 32.88500
O  43.74700 32.55700 33.14000
C  43.56200 32.06300 34.44600
H  48.42600 38.35400 30.45300
H  48.94200 37.22000 24.08700
H  45.85800 31.82800 24.80000
H  45.57300 35.21000 32.65100
H  47.86000 36.84100 32.44800
H  45.36400 37.86000 31.07200
H  46.09400 38.70000 32.32200
H  45.05000 37.33000 32.76900
H  48.65000 34.70700 32.39400
H  47.66900 33.34800 32.34100
H  48.52300 34.48600 34.72000
H  47.18000 33.28200 34.65900
H  50.68700 40.42900 28.63600
H  49.31100 40.11800 29.59900
H  49.04300 40.94500 28.04800
H  50.01700 41.49400 26.19900
H  51.03400 41.26800 24.74500
H  51.59400 40.68400 26.25200
H  48.97500 34.75900 22.91600
H  46.18800 33.31100 23.06300
H  47.87400 36.10100 21.32900
H  47.06000 36.78900 22.68600
H  46.36700 35.41900 21.90100
H  48.29700 32.49500 21.80100
H  47.56600 31.46800 22.99800
H  49.63200 31.26900 23.95400
H  49.42600 32.89800 24.40900
H  50.24700 32.41700 22.82800
H  45.77300 28.98300 27.24900
H  45.27300 29.95000 25.91700
H  44.05800 29.66500 27.04400
H  43.68100 33.12300 30.92900
H  44.37600 31.41900 34.77900
H  42.65300 31.49600 34.64700
H  43.33800 32.77800 35.23700
Mg 16.44800 51.93900 25.49300
C  18.07700 50.78000 28.48300
C  13.77500 52.69300 27.47400
C  14.85800 52.62300 22.85100
C  19.27300 50.63300 23.72100
N  16.12100 52.08700 27.73500
C  16.97600 51.62300 28.70200
C  16.39100 51.95600 30.06100
C  14.90400 52.37900 29.80500
C  14.90400 52.38300 28.27600
C  13.74700 51.50500 30.45700
C  17.28900 53.00000 30.82200
C  17.67800 52.63200 32.27000
H  16.82000 51.68000 33.18500
N  14.55900 52.55500 25.18100
C  13.57300 52.81700 26.09700
C  12.33900 53.18500 25.47100
C  12.63700 53.27500 24.03300
C  14.04300 52.83800 23.96400
C  11.06900 53.53100 26.33200
C  11.66300 53.49400 22.84000
O  12.03300 53.37100 21.71100
C  10.37200 54.12800 23.13800
N  16.98600 51.55800 23.58000
C  16.09200 52.06200 22.65400
C  16.69000 51.87000 21.23900
C  18.18000 51.46700 21.59600
C  18.16100 51.18900 23.08500
C  15.96100 50.81600 20.37800
C  19.25400 52.44900 20.96000
C  19.67200 52.25400 19.50400
N  18.34200 50.85200 25.95000
C  19.32300 50.36800 25.10800
C  20.43200 49.74000 25.85800
C  19.92000 49.82000 27.21000
C  18.69500 50.55100 27.23100
C  21.67300 49.20900 25.32700
C  20.23200 49.55100 28.58800
O  21.20900 48.93600 29.07300
C  19.03200 50.16000 29.50500
C  18.54200 49.12600 30.45000
O  17.89600 48.07200 30.08900
O  19.06400 49.31200 31.70900
C  18.82000 48.15300 32.61800
H  12.91200 52.97000 28.08400
H  14.42200 53.05000 21.94500
H  20.15400 50.43800 23.10700
H  16.44500 51.05400 30.67100
H  14.78600 53.38400 30.21000
H  13.15400 51.13900 29.61800
H  13.18500 52.15000 31.13300
H  14.12500 50.70600 31.09400
H  16.84400 53.99400 30.87000
H  18.21000 53.10100 30.24900
H  17.71000 53.60400 32.76400
H  18.73100 52.35500 32.33100
H  11.09500 54.50900 26.81300
H  10.90200 52.74300 27.06700
H  10.19000 53.59400 25.69100
H  9.66700 53.45200 23.62300
H  9.75400 54.56300 22.35200
H  10.46400 54.97700 23.81500
H  16.71700 52.79000 20.65500
H  18.45400 50.48100 21.22000
H  15.04400 50.51700 20.88500
H  16.59700 49.99100 20.05500
H  15.68700 51.29500 19.43800
H  20.18500 52.45500 21.52700
H  18.79700 53.43800 20.95600
H  18.88600 51.67900 19.01400
H  20.57600 51.69800 19.25300
H  19.69200 53.22900 19.01800
H  21.56000 48.12800 25.23700
H  22.43700 49.47700 26.05700
H  21.84700 49.69900 24.36900
H  19.51100 50.96600 30.06100
H  19.61400 47.42600 32.45200
H  17.79700 47.79300 32.51400
H  19.03300 48.50300 33.62800

