158

Mg 42.21800 41.70800 26.36100
C  41.35000 43.86800 28.99000
C  43.06000 39.43500 28.62300
C  43.56600 39.99700 23.81300
C  41.62800 44.32700 24.02300
N  42.25200 41.65900 28.63400
C  41.78800 42.56800 29.51300
C  41.79300 42.07400 30.94900
C  42.45500 40.63800 30.77200
C  42.60300 40.56000 29.27800
C  43.68100 40.46100 31.63500
C  40.46500 42.02800 31.61100
C  40.38800 41.76600 33.20400
H  39.77000 42.80400 34.14300
N  43.04000 39.87700 26.26200
C  43.27400 39.04500 27.29800
C  43.87600 37.81000 26.86700
C  44.11600 37.96700 25.41800
C  43.51900 39.32500 25.08000
C  44.30100 36.76300 27.78200
C  44.83000 37.06000 24.44600
O  45.07300 37.37200 23.29000
C  45.21300 35.69200 24.87500
N  42.68900 42.25900 24.26300
C  43.19400 41.27000 23.42000
C  43.03100 41.62400 21.93100
C  42.09800 42.88500 22.02000
C  42.15500 43.22700 23.53200
C  44.48000 41.79000 21.28700
C  40.63800 42.55400 21.67500
C  39.92800 41.38100 22.44200
N  41.61700 43.72600 26.39400
C  41.50000 44.66300 25.38100
C  41.08900 45.90100 25.99100
C  41.01500 45.64600 27.42700
C  41.35600 44.28400 27.56600
C  40.78900 47.17600 25.36200
C  40.80700 46.21400 28.70400
O  40.56500 47.36300 29.02800
C  40.90900 45.14000 29.78000
C  42.03300 45.55900 30.70100
O  43.22800 45.37100 30.52100
O  41.54200 46.15700 31.80300
C  42.42500 46.69200 32.81400
H  43.25600 38.64800 29.35400
H  43.87100 39.37600 22.96800
H  41.35800 45.00400 23.21000
H  42.45400 42.73700 31.50600
H  41.68600 40.00400 31.21300
H  44.16300 41.35600 32.02700
H  44.36200 39.78400 31.11900
H  43.31300 39.89400 32.49000
H  39.79500 41.35000 31.08200
H  39.98800 43.00500 31.53200
H  41.39000 41.58400 33.59000
H  39.85400 40.81700 33.25600
H  43.82700 35.81700 27.52000
H  44.05900 36.88500 28.83800
H  45.37300 36.63900 27.62600
H  46.18800 35.84300 25.33800
H  45.39300 35.16600 23.93800
H  44.50400 35.09700 25.45000
H  42.63100 40.75000 21.41700
H  42.45100 43.71700 21.41000
H  45.14700 41.11800 21.82600
H  44.82800 42.76900 21.61800
H  44.59900 41.54100 20.23300
H  40.60500 42.28800 20.61800
H  39.97900 43.39600 21.88300
H  40.50200 40.91800 23.24500
H  39.56900 40.70300 21.66800
H  39.08800 41.85100 22.95400
H  39.75200 47.34100 25.65100
H  41.00600 47.03900 24.30200
H  41.30500 48.06500 25.72600
H  40.04300 44.99300 30.42500
H  42.77600 45.88000 33.45000
H  42.10500 47.61700 33.29500
H  43.22100 47.06700 32.17200
Mg 6.52800 53.84500 41.98100
C  5.98200 50.39800 41.86600
C  9.78900 53.27800 41.21000
C  6.94700 57.03900 41.74000
C  3.07600 54.31100 42.42700
N  7.67100 51.99300 41.46300
C  7.28200 50.70900 41.42600
C  8.45400 49.70700 41.13300
C  9.71300 50.68100 41.28000
C  9.02800 52.08300 41.41300
C  10.69000 50.40400 42.48700
C  8.39900 49.03800 39.70200
C  8.45200 50.04200 38.52100
H  7.68700 49.56000 37.25800
N  8.13500 54.99600 41.54400
C  9.41000 54.60100 41.21700
C  10.21700 55.71900 40.96500
C  9.36100 56.88900 41.20500
C  8.08800 56.35300 41.56100
C  11.67100 55.67500 40.60100
C  9.91300 58.25000 40.90900
O  10.95200 58.56500 40.40500
C  8.96900 59.44900 41.04500
N  5.17100 55.45700 41.90800
C  5.64300 56.69200 42.00700
C  4.58500 57.64400 42.30000
C  3.25200 56.82800 42.35700
C  3.81300 55.40100 42.25100
C  4.82800 58.65400 43.42000
C  2.14600 57.09800 41.28700
C  0.69200 57.15200 41.72700
N  4.86800 52.64800 42.31800
C  3.52800 52.96400 42.44500
C  2.76500 51.71900 42.71400
C  3.70900 50.76800 42.48200
C  4.94900 51.35400 42.10500
C  1.32400 51.54100 43.09500
C  3.90800 49.29500 42.43200
O  3.11200 48.40200 42.70300
C  5.38100 49.00400 42.01200
C  5.36700 48.23000 40.79500
O  4.83500 48.67200 39.75400
O  5.97600 47.06800 41.04700
C  5.94300 46.15900 39.84100
H  10.84800 53.12700 40.99000
H  7.06500 58.11500 41.59400
H  2.01700 54.54700 42.54700
H  8.49100 48.95500 41.92100
H  10.30600 50.64500 40.36600
H  10.38300 50.82000 43.44700
H  11.63300 50.86600 42.19400
H  10.73900 49.34600 42.74500
H  7.64700 48.25000 39.68600
H  9.28900 48.43000 39.53400
H  9.49300 50.03300 38.19800
H  8.14400 51.06300 38.74800
H  11.79900 55.79700 39.52500
H  12.03700 54.67200 40.81900
H  12.24000 56.38600 41.20100
H  8.09000 59.26900 40.42500
H  9.51600 60.32500 40.69500
H  8.68200 59.57000 42.08900
H  4.52400 58.25800 41.40200
H  2.90000 56.96700 43.37900
H  4.25600 58.40500 44.31300
H  4.65800 59.67500 43.08000
H  5.86900 58.74500 43.72900
H  2.04800 56.34800 40.50100
H  2.43100 57.97700 40.70900
H  0.30700 58.16600 41.83000
H  0.56600 56.66900 42.69600
H  0.05500 56.71100 40.96000
H  1.27000 51.21900 44.13500
H  0.80300 50.79900 42.48900
H  0.88900 52.53600 43.00100
H  5.90900 48.39700 42.74800
H  6.59200 45.30000 40.01100
H  6.31200 46.71800 38.98100
H  4.91200 45.82400 39.72900

