158

Mg 54.37100 24.19800 45.42200
C  52.04300 26.50100 44.56800
C  52.55700 21.77000 43.89500
C  57.10700 22.01200 45.49300
C  56.47100 26.67100 46.69700
N  52.47800 24.18300 44.38200
C  51.65100 25.24900 44.12500
C  50.37700 24.80800 43.34200
C  50.46400 23.29200 43.55500
C  51.92900 23.00700 44.06700
C  49.35700 22.63100 44.47200
C  50.37300 25.42100 41.94300
C  50.73300 24.49700 40.80700
H  50.94300 25.01200 39.31200
N  54.74500 22.12000 45.00900
C  53.85400 21.33700 44.33400
C  54.37900 19.96300 44.30800
C  55.70500 20.03400 44.64700
C  55.91500 21.41400 45.11600
C  53.52900 18.79300 43.84200
C  56.67400 18.86100 44.65500
O  56.31100 17.76400 44.24900
C  57.98400 18.95700 45.24000
N  56.44300 24.34800 46.12400
C  57.38200 23.31000 45.92700
C  58.78500 23.67300 46.53900
C  58.57000 25.20500 46.92300
C  57.07800 25.41200 46.61500
C  59.27100 22.75900 47.63300
C  59.48100 26.27000 46.32000
C  60.12200 27.21800 47.40600
N  54.33600 26.21100 45.48700
C  55.24600 27.08000 46.17700
C  54.54700 28.37500 46.23200
C  53.32400 28.20600 45.58200
C  53.27100 26.89200 45.10500
C  55.06900 29.65200 46.90700
C  52.13100 28.88100 45.22300
O  51.78500 30.04000 45.31300
C  51.21900 27.78700 44.61800
C  50.67000 28.23400 43.26800
O  51.34900 28.65900 42.37200
O  49.31300 28.09900 43.23300
C  48.57100 28.68200 42.03200
H  51.80600 21.01600 43.65200
H  58.00400 21.39200 45.55800
H  57.05000 27.55400 46.97600
H  49.47800 25.15300 43.85100
H  50.47900 22.68600 42.64900
H  48.61900 23.32400 44.87600
H  49.78900 21.90100 45.15600
H  48.81400 21.96500 43.80100
H  51.16700 26.15200 41.79200
H  49.40900 25.86400 41.69200
H  49.94100 23.75300 40.72000
H  51.56300 23.86700 41.12500
H  53.55100 18.72900 42.75400
H  52.47800 18.93500 44.09500
H  53.80800 17.83400 44.27700
H  58.51700 18.00700 45.19800
H  57.94800 19.19100 46.30500
H  58.58800 19.66300 44.67100
H  59.43300 23.51400 45.67700
H  58.64500 25.36300 47.99900
H  59.81800 21.93200 47.17900
H  58.51400 22.36000 48.30900
H  59.99600 23.20800 48.31100
H  58.76700 26.83200 45.71900
H  60.19700 25.65500 45.77400
H  60.77700 26.58500 48.00400
H  59.33500 27.52000 48.09700
H  60.41000 28.12300 46.87100
H  55.26200 30.38200 46.12100
H  55.97200 29.42300 47.47300
H  54.36400 30.06300 47.63000
H  50.34400 27.67800 45.25800
H  48.31000 27.98900 41.23200
H  49.01800 29.56100 41.56700
H  47.67000 29.14500 42.43200
Mg 48.47700 15.77100 29.22700
C  46.32300 15.39200 32.14100
C  50.35700 17.89700 30.80300
C  49.93200 16.52600 26.20900
C  45.81400 14.05200 27.38600
N  48.22200 16.61900 31.19900
C  47.43000 16.29900 32.29900
C  48.00500 16.92100 33.57000
C  48.99300 17.98000 33.00200
C  49.19900 17.49800 31.55200
C  48.59300 19.50200 33.14300
C  48.62000 15.78500 34.57800
C  47.79900 15.52800 35.86200
H  47.72400 16.66800 36.83000
N  50.02800 16.90600 28.62800
C  50.74200 17.62100 29.52800
C  51.95900 18.14600 28.91100
C  51.87100 17.71800 27.57900
C  50.55300 17.01200 27.42500
C  53.06500 18.92700 29.70700
C  52.88900 17.95600 26.48200
O  52.72200 17.40600 25.41600
C  54.13200 18.70500 26.61300
N  47.94300 15.39800 27.09600
C  48.76600 15.75200 26.03800
C  48.21400 15.26300 24.70000
C  46.88300 14.50700 25.07800
C  46.92600 14.58300 26.62200
C  47.95400 16.42200 23.63100
C  46.76600 13.03900 24.54200
C  46.18800 12.97300 23.15900
N  46.56900 14.79200 29.67400
C  45.65600 14.11600 28.84800
C  44.55900 13.59000 29.61500
C  44.75000 14.15500 30.93300
C  45.99200 14.79800 30.90300
C  43.31600 12.84200 29.10000
C  44.22000 14.23800 32.24400
O  43.19200 13.76700 32.67400
C  45.17700 15.12700 33.08100
C  44.52300 16.36500 33.57600
O  43.85500 17.16600 32.92300
O  44.39400 16.34200 34.91600
C  43.34800 17.13000 35.52500
H  50.91700 18.63400 31.38300
H  50.49700 16.63800 25.28100
H  44.98300 13.60400 26.83700
H  47.21200 17.51600 34.02300
H  49.89200 17.81600 33.59500
H  47.77400 19.62200 33.85300
H  48.37900 19.91100 32.15500
H  49.51800 19.96300 33.48700
H  49.67200 15.98200 34.78400
H  48.67500 14.90200 33.94200
H  48.17400 14.66000 36.40400
H  46.76600 15.20900 35.72500
H  54.03300 18.63600 29.29900
H  52.99700 18.67400 30.76500
H  52.97300 20.00300 29.56100
H  54.44200 19.11600 25.65200
H  54.90800 17.99600 26.90200
H  54.00800 19.56500 27.27200
H  48.89900 14.53000 24.27600
H  46.03700 15.07700 24.69500
H  48.35800 16.10700 22.66900
H  48.27100 17.40900 23.96800
H  46.88700 16.58200 23.47400
H  46.05200 12.49000 25.15500
H  47.69500 12.48200 24.66000
H  46.99200 12.86000 22.43200
H  45.58100 13.85000 22.93400
H  45.61300 12.05900 23.01000
H  43.61600 12.62500 28.07500
H  42.41700 13.38600 29.39000
H  43.35000 11.93700 29.70800
H  45.52100 14.56100 33.94700
H  42.62100 17.58200 34.85100
H  43.69400 17.93300 36.17600
H  42.89100 16.39400 36.18700

