158

Mg 2.77000 -3.49600 45.12900
C  6.07200 -2.53800 44.28800
C  1.47400 -1.22100 43.03000
C  -0.23900 -4.93800 45.73500
C  4.31900 -6.08000 47.29600
N  3.69000 -2.15600 43.73300
C  5.04100 -1.84800 43.55100
C  5.22400 -0.74600 42.56800
C  3.78600 -0.31700 42.14600
C  2.93000 -1.21200 43.10900
C  3.55100 1.23900 42.17200
C  6.17200 -1.12100 41.39500
C  7.34400 -0.10400 41.20300
H  7.74400 0.27600 39.75400
N  0.84800 -3.19000 44.41400
C  0.51300 -2.10400 43.56500
C  -0.96000 -2.12500 43.51800
C  -1.43000 -3.37400 44.10300
C  -0.23800 -3.94900 44.77400
C  -1.75100 -1.09300 42.85700
C  -2.84900 -3.94200 44.08700
O  -3.77500 -3.35200 43.47700
C  -3.13400 -5.31000 44.59300
N  2.15200 -5.29200 46.28200
C  0.84800 -5.56600 46.38500
C  0.65700 -6.77100 47.33600
C  2.09200 -7.31700 47.57200
C  2.90200 -6.16800 47.04600
C  -0.21100 -6.56600 48.61500
C  2.56400 -8.56200 46.71700
C  3.38500 -9.62600 47.56800
N  4.72300 -4.19900 45.71000
C  5.18200 -5.17300 46.57300
C  6.61300 -5.10600 46.66000
C  6.99700 -4.04900 45.84300
C  5.80700 -3.55800 45.21400
C  7.48300 -6.00600 47.50800
C  8.17500 -3.26900 45.36300
O  9.35000 -3.36000 45.63600
C  7.54800 -2.19700 44.39900
C  7.85500 -0.84000 45.03400
O  7.51000 -0.61900 46.13400
O  8.30300 0.05600 44.12000
C  8.34300 1.46900 44.63500
H  1.10400 -0.37300 42.45100
H  -1.26300 -5.18600 46.02300
H  4.72200 -6.90600 47.88500
H  5.73300 -0.01000 43.19000
H  3.52900 -0.67900 41.15100
H  4.40600 1.80700 42.53700
H  2.71400 1.43100 42.84400
H  3.18900 1.52300 41.18300
H  5.59100 -1.16400 40.47400
H  6.50800 -2.14800 41.53700
H  8.21500 -0.52800 41.70300
H  7.14500 0.80500 41.77100
H  -1.61400 -1.19900 41.78100
H  -1.27600 -0.17400 43.20300
H  -2.77500 -0.96500 43.20900
H  -3.41400 -5.45700 45.63600
H  -2.37200 -5.99800 44.22700
H  -4.01100 -5.59800 44.01300
H  0.15900 -7.47600 46.67000
H  2.27900 -7.55000 48.62000
H  -0.22500 -5.58100 49.08100
H  0.18200 -7.32100 49.29500
H  -1.22700 -6.87700 48.37100
H  3.30700 -8.25200 45.98200
H  1.69500 -9.01500 46.23900
H  2.85200 -9.74300 48.51200
H  4.35200 -9.15900 47.75700
H  3.46100 -10.56900 47.02700
H  7.87200 -6.91000 47.03900
H  6.99500 -6.27300 48.44500
H  8.26100 -5.32700 47.85900
H  8.07800 -2.17600 43.44700
H  9.20700 1.54800 45.29500
H  7.36100 1.67000 45.06400
H  8.47100 2.19500 43.83300
Mg 0.35300 7.85300 25.23600
C  1.16700 10.04300 27.87500
C  0.36600 5.12400 27.39300
C  -0.61600 5.95100 22.77100
C  0.60900 10.66400 23.03200
N  0.90200 7.61000 27.29700
C  1.00500 8.68100 28.20200
C  1.13600 8.04600 29.62700
C  0.98200 6.57200 29.46700
C  0.68600 6.42400 27.97700
C  2.20300 5.64300 29.92300
C  0.17600 8.57600 30.69100
C  0.53400 8.68100 32.16800
H  1.74900 7.92600 32.70300
N  -0.00200 5.80700 25.03200
C  0.01700 4.81900 26.02800
C  -0.37100 3.55500 25.51100
C  -0.65000 3.72200 24.11600
C  -0.50900 5.22800 23.91600
C  -0.48300 2.34600 26.40800
C  -0.85000 2.71700 23.09000
O  -0.98800 3.03900 21.93100
C  -0.83600 1.26300 23.35300
N  -0.03400 8.33200 23.24100
C  -0.37600 7.28500 22.48100
C  -0.55500 7.74300 21.01100
C  -0.28200 9.30800 21.10400
C  0.08900 9.44700 22.54700
C  0.21100 7.01400 19.93700
C  -1.45600 10.14500 20.66500
C  -1.17000 11.14100 19.55600
N  0.83100 9.92000 25.33700
C  0.96600 10.93800 24.34200
C  1.30300 12.19200 25.05800
C  1.36000 11.93000 26.44100
C  1.11600 10.47500 26.55800
C  1.43700 13.48100 24.41600
C  1.68400 12.38900 27.74800
O  2.12200 13.55800 28.06100
C  1.46300 11.20400 28.78700
C  2.66700 11.15600 29.65500
O  3.63000 10.45300 29.41100
O  2.46500 11.91000 30.80900
C  3.69300 12.01900 31.71600
H  0.25600 4.33000 28.13500
H  -0.97000 5.37500 21.91400
H  0.60300 11.49000 22.31800
H  2.12600 8.20800 30.05400
H  0.10300 6.28400 30.04500
H  2.89300 6.21600 30.54100
H  2.73900 5.20100 29.08200
H  1.88500 4.85700 30.60800
H  -0.81700 8.15200 30.53900
H  0.00300 9.60600 30.37900
H  -0.34000 8.28800 32.68800
H  0.53900 9.72100 32.49600
H  -1.49400 1.93700 26.40800
H  -0.32500 2.58000 27.46100
H  0.28400 1.58900 26.25100
H  -1.57100 0.99700 24.11200
H  0.09300 0.89900 23.79200
H  -0.96500 0.65600 22.45600
H  -1.62700 7.58600 20.89700
H  0.61600 9.53400 20.52900
H  -0.37200 6.18300 19.53900
H  1.14400 6.61900 20.33900
H  0.38000 7.76500 19.16500
H  -1.76600 10.76600 21.50500
H  -2.28300 9.51900 20.33000
H  -0.54400 10.80000 18.73200
H  -0.57900 11.82400 20.16600
H  -2.02200 11.71900 19.19600
H  0.68200 13.44400 23.63000
H  2.36100 13.47000 23.83800
H  1.40400 14.38500 25.02400
H  0.63000 11.51100 29.42000
H  4.58000 11.82500 31.11300
H  3.69300 11.38000 32.59900
H  3.90400 13.01400 32.10900

