158

Mg 25.19100 1.18700 29.87600
C  27.31000 1.05100 32.64400
C  22.41100 1.04300 31.89600
C  23.08200 0.99200 27.17300
C  27.82800 0.45600 27.83400
N  24.96400 1.21800 32.05900
C  25.93700 1.15600 33.00200
C  25.26000 1.25600 34.36200
C  23.71000 1.00200 34.09000
C  23.68100 1.07400 32.57200
C  23.15600 -0.25900 34.68200
C  25.67400 2.51000 35.15800
C  26.11400 2.22700 36.60500
H  25.49500 3.17000 37.68600
N  23.03700 1.18900 29.55100
C  22.09400 1.12100 30.53600
C  20.75200 1.09300 29.97000
C  20.93300 1.09100 28.56200
C  22.40400 1.05500 28.35900
C  19.46800 1.09400 30.83300
C  19.86600 1.03000 27.54900
O  20.07800 0.87100 26.35300
C  18.38900 0.74600 27.94400
N  25.38400 0.68700 27.86500
C  24.41100 0.85900 26.92600
C  24.95600 1.01000 25.49300
C  26.54300 0.94800 25.79300
C  26.60200 0.71000 27.24800
C  24.40200 -0.04500 24.58600
C  27.27400 2.24400 25.39400
C  26.93400 3.50100 26.15200
N  27.10400 0.72100 30.14500
C  28.03000 0.42400 29.20800
C  29.30800 0.24100 29.81100
C  29.09600 0.50900 31.23800
C  27.74700 0.84100 31.36400
C  30.60500 -0.24800 28.98600
C  29.71600 0.61400 32.53100
O  30.90900 0.38900 32.80800
C  28.62800 1.05500 33.49500
C  28.65000 0.03300 34.49100
O  28.30400 -1.12700 34.37600
O  29.09900 0.51700 35.72000
C  29.04300 -0.41800 36.86100
H  21.65700 0.89200 32.67200
H  22.43600 1.05700 26.29500
H  28.72500 0.55900 27.22000
H  25.74800 0.38300 34.79400
H  23.04500 1.80000 34.42400
H  22.99800 -1.00000 33.89800
H  22.29700 0.01100 35.29700
H  23.81000 -0.81100 35.35700
H  24.90700 3.28300 35.10400
H  26.47700 3.03100 34.63500
H  27.20000 2.31000 36.62900
H  26.03900 1.15100 36.75700
H  19.77900 0.81000 31.83800
H  18.67900 0.41800 30.50200
H  18.99200 2.07200 30.75600
H  18.53000 -0.08700 28.63200
H  17.87400 0.38900 27.05200
H  17.93700 1.64200 28.37100
H  24.68000 2.03200 25.23400
H  26.91500 0.03400 25.32900
H  23.31900 -0.12200 24.67600
H  24.74600 -1.04400 24.85400
H  24.64800 0.09800 23.53300
H  26.91800 2.43700 24.38200
H  28.36000 2.18200 25.32800
H  25.93300 3.43600 26.57900
H  26.88500 4.36500 25.49000
H  27.65400 3.53100 26.97000
H  31.25900 0.61300 28.84300
H  30.34300 -0.65200 28.00800
H  31.15600 -0.99200 29.56200
H  28.82100 1.98300 34.03400
H  29.91500 -0.17800 37.47000
H  28.94300 -1.48500 36.66300
H  28.17200 -0.19200 37.47600
Mg 1.62600 42.04200 26.01900
C  3.19000 42.26300 29.14500
C  -0.99300 40.73700 27.48500
C  0.68700 41.27400 22.96900
C  4.80400 43.11300 24.66300
N  1.17100 41.74200 28.13900
C  1.89500 41.94000 29.26900
C  1.05300 41.64300 30.56400
C  -0.36600 41.37000 29.87100
C  -0.05400 41.23800 28.42900
C  -1.18100 40.25600 30.52900
C  1.13000 42.83100 31.48100
C  -0.07600 43.28100 32.41600
H  -0.38900 42.55300 33.71400
N  0.03700 41.11200 25.35600
C  -0.95200 40.67800 26.12400
C  -1.88700 39.97900 25.34600
C  -1.39600 40.16600 23.94500
C  -0.17500 40.90900 24.04700
C  -3.09800 39.28000 25.82300
C  -2.00000 39.61200 22.69200
O  -1.50500 39.85600 21.57900
C  -3.28400 38.76800 22.70200
N  2.59700 42.22800 24.14200
C  1.93100 41.89100 22.99700
C  2.73900 42.26800 21.71400
C  3.83600 43.17500 22.34200
C  3.80600 42.72100 23.77500
C  3.29300 41.05300 20.98300
C  3.69200 44.73300 22.26300
C  4.25600 45.29300 20.97900
N  3.54500 42.57700 26.66500
C  4.75900 42.98000 26.04000
C  5.83500 43.14600 26.97600
C  5.25100 42.84500 28.21200
C  3.89800 42.48500 27.97800
C  7.26500 43.52500 26.68300
C  5.54300 42.70000 29.58100
O  6.62900 42.88400 30.20400
C  4.22500 42.40600 30.25800
C  4.37600 41.11900 31.00100
O  4.32400 40.02100 30.48800
O  4.24500 41.23100 32.32900
C  4.29800 39.99800 33.21500
H  -1.86400 40.24600 27.92400
H  0.44100 41.22300 21.90600
H  5.75200 43.40900 24.20900
H  1.39500 40.77900 31.13400
H  -0.96400 42.26400 30.05100
H  -0.70200 40.00400 31.47500
H  -1.32300 39.39400 29.87700
H  -2.19300 40.62500 30.69800
H  1.50800 43.75400 31.04200
H  1.84200 42.57900 32.26700
H  -1.00600 43.40900 31.86100
H  0.09000 44.28100 32.81700
H  -3.94500 39.76000 25.33100
H  -3.35100 39.45000 26.86900
H  -3.04900 38.20500 25.65300
H  -3.22700 37.84300 23.27500
H  -3.45600 38.34200 21.71400
H  -4.15700 39.28200 23.10500
H  2.09500 42.79100 21.00600
H  4.85000 42.92700 22.02900
H  2.71000 40.22900 21.39500
H  4.35800 40.85600 21.10300
H  2.98700 41.19600 19.94700
H  4.34200 45.01000 23.09300
H  2.66900 45.08300 22.40000
H  5.09300 45.95200 21.21000
H  3.45900 45.89900 20.55000
H  4.63100 44.47200 20.36700
H  7.28100 44.03500 25.72000
H  7.77400 42.56100 26.67500
H  7.53900 44.13300 27.54500
H  4.02400 43.23400 30.93800
H  3.58500 39.28100 32.80900
H  4.19100 40.19300 34.28200
H  5.25100 39.48500 33.08200

