158

Mg 0.29200 7.99700 25.46300
C  0.86800 9.76100 28.45000
C  0.13500 5.11800 27.42200
C  -0.12100 6.22500 22.68200
C  0.82800 10.87100 23.60100
N  0.39200 7.51300 27.68000
C  0.48500 8.43700 28.67800
C  0.43900 7.83100 30.03200
C  0.36600 6.26200 29.75200
C  0.27100 6.26500 28.24500
C  1.46900 5.28800 30.37400
C  -0.70300 8.41500 30.86300
C  -0.53500 8.17400 32.40700
H  -0.53400 6.66100 32.80400
N  0.04200 5.97500 25.07600
C  0.07400 4.94800 25.99100
C  0.03600 3.61900 25.25400
C  -0.02800 3.97300 23.84000
C  -0.00600 5.48300 23.84300
C  0.27300 2.24000 25.90100
C  -0.10400 3.03000 22.61600
O  -0.05400 3.45800 21.44900
C  -0.12900 1.55300 22.82900
N  0.34300 8.49700 23.40200
C  0.06600 7.57200 22.45700
C  -0.10200 8.22700 21.06600
C  0.03500 9.79400 21.45700
C  0.46700 9.71600 22.88500
C  0.93300 7.75100 19.95100
C  -1.24100 10.67500 21.23400
C  -2.18500 10.98800 22.41200
N  0.81100 9.86300 25.86600
C  1.00000 10.94800 25.01700
C  1.42800 12.02200 25.75800
C  1.43200 11.66900 27.13900
C  0.99700 10.27000 27.12800
C  1.64300 13.51800 25.23600
C  1.64200 12.14100 28.54000
O  2.14600 13.16500 28.92600
C  1.14100 10.88400 29.42200
C  2.22400 10.46800 30.32400
O  3.24600 9.89600 30.03500
O  1.89200 10.89900 31.59500
C  2.86600 10.49400 32.64500
H  0.25000 4.26300 28.09200
H  -0.19600 5.71000 21.72100
H  0.97600 11.74500 22.96300
H  1.41000 7.98500 30.50200
H  -0.59700 5.82400 30.01300
H  1.01400 4.52900 31.01000
H  2.14100 5.87700 30.99900
H  2.04900 4.87400 29.54900
H  -1.60000 7.84600 30.62100
H  -0.75200 9.50000 30.77100
H  -1.26400 8.73500 32.99200
H  0.32100 8.68200 32.85200
H  -0.69200 1.78900 25.66800
H  0.36700 2.27000 26.98700
H  1.14700 1.70200 25.53300
H  -1.09400 1.43500 23.32200
H  0.74000 1.25800 23.41600
H  -0.04900 1.07800 21.85200
H  -1.09100 7.94600 20.70400
H  0.87600 10.25000 20.93500
H  1.21900 8.57900 19.30200
H  0.56700 6.93600 19.32600
H  1.79100 7.28300 20.43400
H  -1.81800 10.18300 20.45100
H  -0.89200 11.62500 20.83000
H  -1.72600 10.58900 23.31700
H  -3.06200 10.37800 22.19600
H  -2.42700 12.03500 22.59800
H  1.13500 13.64900 24.28100
H  2.68100 13.81400 25.38700
H  1.18900 14.21700 25.93800
H  0.24500 11.17100 29.97300
H  3.50100 11.25500 33.10000
H  3.50700 9.63700 32.43500
H  2.23900 10.23200 33.49700
Mg 17.76300 52.65200 26.02900
C  19.82100 50.93200 28.37700
C  15.54300 53.26600 28.48300
C  15.68700 53.85100 23.68400
C  19.84700 51.32300 23.47700
N  17.65600 52.05700 28.09200
C  18.60800 51.45800 28.90700
C  18.15700 51.50500 30.39000
C  16.64300 51.76400 30.30100
C  16.63500 52.45500 28.88100
C  15.70000 50.45500 30.54300
C  18.97600 52.60000 31.15000
C  19.23500 52.62900 32.63800
H  18.36400 51.62400 33.42400
N  15.81300 53.38500 26.05400
C  15.14900 53.77100 27.20000
C  13.94100 54.49500 26.83100
C  13.95400 54.66500 25.41600
C  15.21700 54.03700 25.00900
C  12.99000 54.98800 27.89400
C  12.95600 55.34100 24.54000
O  13.15700 55.46500 23.30200
C  11.66400 55.89500 25.10800
N  17.78200 52.53800 23.95700
C  16.83700 53.16200 23.19300
C  17.12800 53.03400 21.68600
C  18.47800 52.25700 21.64700
C  18.72200 52.02300 23.12600
C  15.98200 52.52100 20.83500
C  19.64000 52.80500 20.72600
C  20.67600 53.72900 21.41900
N  19.48800 51.44200 25.94800
C  20.19900 50.96600 24.82800
C  21.38900 50.33100 25.25000
C  21.25900 50.24700 26.64200
C  20.13200 50.94900 27.02800
C  22.44100 49.63700 24.34500
C  21.93800 49.70100 27.82500
O  22.93000 49.09500 27.97100
C  20.98200 50.18200 29.03000
C  20.44200 48.99200 29.75600
O  19.61700 48.25600 29.25600
O  20.87000 48.90200 31.07600
C  20.05400 47.87300 31.80700
H  14.77000 53.39100 29.24400
H  15.09900 54.27800 22.86900
H  20.60300 51.04900 22.73800
H  18.44600 50.58300 30.89400
H  16.31800 52.37900 31.14000
H  15.07100 50.61800 31.41800
H  16.24100 49.51300 30.63500
H  15.01200 50.31600 29.70900
H  18.52700 53.57100 30.94100
H  19.95200 52.59200 30.66400
H  18.97800 53.62500 33.00000
H  20.31200 52.56100 32.78600
H  12.07100 54.41900 28.03400
H  12.80500 56.04800 27.72100
H  13.44000 54.99500 28.88700
H  11.79000 56.57500 25.95000
H  11.01400 55.08300 25.43600
H  10.97800 56.42300 24.44600
H  17.22300 54.07100 21.36500
H  18.19100 51.25100 21.33700
H  16.30100 51.67500 20.22700
H  15.72400 53.31800 20.13700
H  15.06100 52.36900 21.39800
H  19.08100 53.43000 20.03000
H  20.13700 52.05900 20.10600
H  20.97100 54.41700 20.62700
H  21.57200 53.14200 21.62100
H  20.18500 54.19200 22.27500
H  23.06800 50.32000 23.77200
H  21.94400 48.95200 23.65800
H  23.10600 49.13700 25.04900
H  21.55400 50.75500 29.76000
H  20.27700 48.02800 32.86300
H  20.50900 46.89100 31.68400
H  18.99300 47.77300 31.58000

