158

Mg 24.28000 -5.18200 46.52000
C  26.20200 -2.83100 44.71500
C  21.67600 -4.67700 44.33800
C  22.73700 -7.96000 47.79200
C  27.07400 -5.95600 48.48400
N  24.11800 -4.00100 44.64600
C  24.93100 -2.96400 44.23400
C  24.29900 -2.15000 43.07600
C  22.83100 -2.60400 43.20200
C  22.84600 -3.86400 44.08900
C  21.87900 -1.40900 43.76200
C  25.00600 -2.38700 41.71400
C  25.49600 -1.09500 41.11700
H  24.98700 -0.94200 39.66100
N  22.45800 -6.14600 46.20600
C  21.48100 -5.75600 45.26500
C  20.26300 -6.55800 45.37100
C  20.54800 -7.49100 46.39700
C  22.01700 -7.27300 46.83300
C  19.07100 -6.43700 44.48400
C  19.59400 -8.58900 46.86600
O  18.45600 -8.77900 46.41200
C  19.94600 -9.45500 47.98700
N  24.77800 -6.73900 47.95200
C  23.93200 -7.78300 48.29400
C  24.72300 -8.84700 49.07000
C  26.12800 -8.13900 49.42700
C  26.01800 -6.90100 48.53400
C  24.05200 -9.54300 50.27800
C  27.37300 -9.00800 49.28100
C  28.50500 -8.88200 50.25900
N  26.24500 -4.53600 46.71300
C  27.27400 -4.86100 47.57800
C  28.37100 -4.04300 47.36800
C  28.02500 -3.28600 46.21000
C  26.71000 -3.61000 45.82900
C  29.58400 -3.80600 48.23400
C  28.53400 -2.24100 45.33900
O  29.63700 -1.66800 45.39200
C  27.44300 -2.02600 44.21000
C  27.08700 -0.58100 44.33500
O  26.45100 -0.03300 45.24700
O  27.68500 0.07400 43.30400
C  27.80200 1.52900 43.40400
H  20.85100 -4.28200 43.74300
H  22.23200 -8.91000 47.98200
H  27.93800 -6.22100 49.09800
H  24.21900 -1.09300 43.33100
H  22.55100 -2.94300 42.20500
H  20.92200 -1.31500 43.24800
H  22.26600 -0.39100 43.77600
H  21.57100 -1.60600 44.78900
H  24.31100 -2.95300 41.09300
H  25.83200 -3.08000 41.87400
H  26.58600 -1.09200 41.09900
H  25.20200 -0.19800 41.66200
H  19.17500 -7.28500 43.80700
H  19.08100 -5.48800 43.94700
H  18.16500 -6.55400 45.07900
H  20.42200 -8.89400 48.79100
H  20.67800 -10.17100 47.61200
H  19.18400 -10.13900 48.36000
H  24.87800 -9.60500 48.30200
H  26.07600 -7.78600 50.45700
H  23.72900 -10.50900 49.89100
H  23.26300 -8.90500 50.67600
H  24.80600 -9.64800 51.05800
H  27.75500 -8.86800 48.26900
H  27.03600 -10.04500 49.29100
H  28.78900 -9.74600 50.86000
H  28.21600 -8.03000 50.87400
H  29.46000 -8.67300 49.77700
H  29.96200 -4.81000 48.42800
H  29.31000 -3.34300 49.18200
H  30.52100 -3.50500 47.76600
H  27.83500 -2.25100 43.21800
H  28.76700 1.71900 43.87500
H  26.95400 1.95500 43.94000
H  27.85800 1.87500 42.37100
Mg 17.30200 -0.56500 28.57300
C  15.96700 0.64500 31.57800
C  19.45500 -2.49800 30.53900
C  18.40600 -1.94400 25.79900
C  15.17000 1.46800 26.74400
N  17.72800 -0.88300 30.83600
C  17.04600 -0.24900 31.84900
C  17.52000 -0.69700 33.25000
C  18.82900 -1.50700 32.89600
C  18.66300 -1.71100 31.34700
C  20.14200 -0.82500 33.36500
C  16.33800 -1.51600 33.91200
C  15.87600 -0.95100 35.37300
H  16.98400 -0.56300 36.33000
N  18.72200 -1.99500 28.24300
C  19.49000 -2.69700 29.13000
C  20.21600 -3.77000 28.43900
C  19.84700 -3.67100 27.05700
C  18.94400 -2.49200 26.97900
C  21.19200 -4.73600 29.14400
C  20.22500 -4.51700 25.79600
O  19.75400 -4.34300 24.68900
C  21.29700 -5.55800 26.03800
N  16.99900 -0.21000 26.54500
C  17.57000 -0.85700 25.59400
C  17.16400 -0.35700 24.18200
C  16.08300 0.78200 24.55900
C  16.01900 0.65600 26.03700
C  18.27400 0.10500 23.22900
C  14.61300 0.76000 23.88200
C  14.39100 0.61900 22.35700
N  15.82000 0.78300 29.01600
C  15.08500 1.56100 28.10400
C  14.18800 2.41600 28.88900
C  14.50300 2.13600 30.21900
C  15.49800 1.10600 30.27800
C  13.21800 3.40800 28.36300
C  14.31500 2.48000 31.63500
O  13.50200 3.27600 32.09600
C  15.24600 1.58700 32.54400
C  16.15800 2.55300 33.14900
O  17.10500 3.11700 32.59400
O  15.76200 2.82300 34.42300
C  16.59300 3.79800 35.13300
H  20.10600 -3.12400 31.15200
H  18.69700 -2.45500 24.87900
H  14.67200 2.31100 26.26000
H  17.65900 0.21800 33.82600
H  18.75200 -2.52800 33.27100
H  20.64900 -0.58600 32.43000
H  20.84100 -1.43300 33.93900
H  19.98100 0.12200 33.88100
H  16.78700 -2.47900 34.15600
H  15.57400 -1.62600 33.14200
H  15.35800 -1.75700 35.89300
H  15.16300 -0.13800 35.23800
H  22.25200 -4.73200 28.89300
H  20.81000 -5.74700 28.99700
H  21.07100 -4.63000 30.22200
H  22.22900 -5.00000 26.12500
H  21.34200 -6.15100 25.12400
H  21.02000 -6.22600 26.85400
H  16.71300 -1.23900 23.72600
H  16.44100 1.78400 24.32000
H  18.06100 1.13800 22.95200
H  18.35200 -0.52900 22.34600
H  19.24100 0.19500 23.72500
H  14.10100 1.67800 24.17200
H  14.08300 -0.05900 24.36700
H  15.30500 0.19900 21.93700
H  14.32500 1.63000 21.95500
H  13.46800 0.05400 22.22600
H  12.92700 3.10600 27.35600
H  13.72200 4.37000 28.27300
H  12.41000 3.47900 29.09000
H  14.69600 1.06100 33.32400
H  16.34800 4.83000 34.88500
H  17.62900 3.50600 34.96000
H  16.48600 3.62200 36.20400

