158

Mg 36.79600 49.66500 25.67300
C  37.21200 47.48200 28.37700
C  35.41000 51.97700 27.87300
C  35.78700 51.52400 23.13800
C  38.07100 47.35900 23.52100
N  36.26900 49.58500 27.88000
C  36.67000 48.66300 28.81000
C  36.32300 49.14900 30.23400
C  35.65100 50.53800 30.00300
C  35.63300 50.71900 28.45600
C  34.18600 50.64700 30.61300
C  37.61800 49.23100 31.08300
C  37.57200 48.68700 32.51000
H  36.29200 49.13500 33.25700
N  35.79200 51.55000 25.50200
C  35.48900 52.38500 26.52000
C  35.15000 53.80100 25.97800
C  35.33700 53.64900 24.55800
C  35.63100 52.20600 24.32800
C  34.68400 54.92400 26.87400
C  35.13200 54.65600 23.49500
O  35.21600 54.47700 22.30400
C  34.78900 56.04800 23.81700
N  36.90400 49.43200 23.64800
C  36.21400 50.24000 22.79200
C  36.33200 49.77000 21.37500
C  37.39600 48.65400 21.42200
C  37.49800 48.47500 22.92500
C  34.97900 49.44700 20.61900
C  38.72100 48.94400 20.80700
C  39.55500 47.77100 20.07500
N  37.53100 47.81000 25.82500
C  38.01600 46.99600 24.85800
C  38.53200 45.82200 25.46100
C  38.25900 45.97000 26.82200
C  37.52900 47.15100 27.03100
C  39.14400 44.59400 24.82800
C  38.39200 45.32700 28.08600
O  38.96800 44.33100 28.53900
C  37.73200 46.31800 29.14500
C  36.65700 45.64900 29.90900
O  35.49300 45.51300 29.59400
O  37.19300 45.37300 31.13900
C  36.31100 45.07100 32.24100
H  34.98500 52.80000 28.45100
H  35.42300 52.13100 22.30600
H  38.51500 46.63200 22.83700
H  35.50700 48.53000 30.60700
H  36.28800 51.29200 30.46600
H  33.55500 50.18300 29.85500
H  33.97900 51.71400 30.70000
H  34.04900 50.20000 31.59700
H  38.06300 50.22400 31.02700
H  38.33400 48.68500 30.46800
H  38.43700 49.18900 32.94300
H  37.74500 47.61300 32.57500
H  35.46300 55.64400 27.12300
H  34.40800 54.61900 27.88400
H  33.90200 55.49900 26.37800
H  33.71200 56.18800 23.91200
H  35.06900 56.71000 22.99700
H  35.25500 56.42800 24.72600
H  36.80900 50.61400 20.87700
H  36.93100 47.78200 20.96200
H  34.90400 50.10900 19.75600
H  34.12500 49.66900 21.25900
H  34.93500 48.42700 20.23600
H  39.40800 49.23100 21.60300
H  38.69800 49.68700 20.00900
H  40.06500 47.13600 20.79800
H  40.38200 48.13900 19.46700
H  38.83600 47.14800 19.54200
H  38.53900 44.47500 23.92900
H  39.25900 43.74100 25.49700
H  40.14000 44.83400 24.45500
H  38.63200 46.61700 29.68300
H  35.46000 44.50600 31.85700
H  35.79600 45.94900 32.62900
H  36.80200 44.52500 33.04700
Mg 27.14000 50.30100 25.91300
C  24.94800 51.30300 28.53200
C  29.42900 49.55000 28.29100
C  29.28100 49.61200 23.40700
C  24.95200 51.73600 23.54100
N  27.12800 50.45000 28.17600
C  26.13200 50.78700 29.00200
C  26.52900 50.62700 30.50300
C  27.99400 50.13100 30.38800
C  28.19700 49.92800 28.87600
C  29.06600 51.09900 30.97400
C  25.49100 49.69600 31.27600
C  24.74600 50.23900 32.53400
H  24.42100 49.26200 33.71500
N  29.09900 49.58400 25.85400
C  29.87200 49.33400 26.94800
C  31.16200 48.90800 26.58100
C  31.15700 48.90800 25.12100
C  29.80900 49.31300 24.75400
C  32.17200 48.31000 27.50700
C  32.24900 48.75500 24.06000
O  32.07100 48.94900 22.86100
C  33.67800 48.54400 24.52200
N  27.16100 50.73800 23.74300
C  28.07800 50.18600 22.91900
C  27.70400 50.31300 21.46600
C  26.24500 50.88300 21.52300
C  26.06200 51.12800 23.01700
C  28.74700 51.09800 20.58300
C  25.03100 50.11000 20.93400
C  24.37300 50.68700 19.68300
N  25.31500 51.37700 25.95000
C  24.55900 51.86900 24.91800
C  23.34200 52.41100 25.44300
C  23.48700 52.16700 26.84300
C  24.63200 51.52800 27.12900
C  22.37200 53.16800 24.77100
C  22.80500 52.44600 28.18000
O  21.75400 53.00400 28.34600
C  23.79100 51.94200 29.31400
C  24.10900 53.05700 30.23200
O  24.96700 53.86600 30.07400
O  23.38600 53.13000 31.41900
C  23.90000 53.99700 32.52200
H  30.13400 49.27500 29.07800
H  29.81300 49.13600 22.58000
H  24.18100 51.99700 22.81300
H  26.57900 51.57400 31.04000
H  28.27500 49.18800 30.85700
H  29.69200 51.43000 30.14500
H  29.80000 50.51200 31.52600
H  28.66000 51.88600 31.61000
H  26.10100 48.83600 31.55100
H  24.79400 49.19100 30.60800
H  23.78600 50.64500 32.21300
H  25.34500 51.02000 33.00100
H  33.01800 47.85600 26.99200
H  31.77200 47.45600 28.05500
H  32.46700 49.07200 28.22800
H  33.93200 49.41000 25.13400
H  34.28200 48.53800 23.61500
H  33.79100 47.61800 25.08600
H  27.71300 49.32400 21.00700
H  26.38300 51.86100 21.06300
H  29.17200 51.84500 21.25300
H  28.37100 51.56700 19.67400
H  29.53700 50.40400 20.29500
H  24.28300 49.97900 21.71600
H  25.37000 49.10500 20.68400
H  24.46300 49.96500 18.87100
H  24.97000 51.49000 19.25000
H  23.34000 51.03100 19.72000
H  22.28200 52.92000 23.71300
H  22.68700 54.21100 24.73500
H  21.37700 53.22800 25.21200
H  23.33200 51.17500 29.93700
H  23.40200 54.96100 32.41500
H  24.97600 54.13700 32.61600
H  23.59500 53.55300 33.47000

