158

Mg 1.63700 8.89200 27.13100
C  2.21500 11.17500 29.70900
C  1.68900 6.40000 29.36400
C  1.20500 6.92200 24.64800
C  1.65100 11.69600 24.86900
N  1.89600 8.78700 29.20500
C  2.07600 9.84000 30.07400
C  1.89300 9.36200 31.60800
C  2.20900 7.80700 31.42500
C  1.85900 7.62400 29.91800
C  3.65200 7.43500 31.81400
C  0.45000 9.59100 32.17900
C  0.13200 8.99000 33.58200
H  1.30600 8.58100 34.60500
N  1.55600 6.94000 26.97800
C  1.52500 6.04200 28.02600
C  1.24600 4.72300 27.46000
C  1.27000 4.85000 26.06700
C  1.18600 6.27700 25.83600
C  1.09000 3.52200 28.26800
C  1.33100 3.82400 25.05100
O  1.25800 4.06200 23.86200
C  1.45600 2.42200 25.47400
N  1.40200 9.27100 25.02300
C  1.25400 8.26000 24.22600
C  1.10000 8.73900 22.76800
C  0.76900 10.28800 22.85300
C  1.29100 10.43200 24.30200
C  2.37700 8.32400 21.98300
C  -0.72300 10.69200 22.77900
C  -1.42300 10.74200 21.43500
N  2.01100 10.98500 27.24700
C  1.94600 11.98300 26.26000
C  2.27000 13.30800 26.83400
C  2.42900 12.99200 28.25600
C  2.20200 11.60500 28.41200
C  2.37900 14.65900 26.09000
C  2.64500 13.58100 29.60200
O  3.02800 14.66200 29.93000
C  2.32400 12.41000 30.66000
C  3.51200 12.29000 31.62000
O  4.57900 11.70700 31.45700
O  3.07800 12.79300 32.81900
C  4.08800 12.64800 33.89200
H  1.68300 5.52700 30.02000
H  1.25500 6.30200 23.75000
H  1.60700 12.58500 24.23600
H  2.64800 9.99000 32.08100
H  1.64200 7.07400 31.99900
H  4.27700 6.84300 31.14600
H  3.58600 6.91100 32.76700
H  4.28200 8.31500 31.94400
H  -0.31400 9.05800 31.61300
H  0.23200 10.65800 32.17400
H  -0.29600 8.01900 33.33300
H  -0.51900 9.65700 34.14800
H  0.66900 3.66600 29.26300
H  2.02200 2.97400 28.40600
H  0.26700 2.92400 27.87700
H  0.55700 2.06600 25.97700
H  2.38200 2.41500 26.05000
H  1.69800 1.77900 24.62800
H  0.22000 8.27300 22.32500
H  1.42000 10.88900 22.21700
H  2.83700 7.50400 22.53400
H  3.14500 9.07700 21.80500
H  2.18200 7.92500 20.98800
H  -0.78000 11.67100 23.25500
H  -1.18700 9.91700 23.38800
H  -1.04200 10.08800 20.65000
H  -1.31600 11.79100 21.15800
H  -2.48000 10.58200 21.64700
H  1.68200 15.33200 26.59000
H  2.05700 14.53900 25.05500
H  3.41300 14.98300 26.20300
H  1.34100 12.57400 31.10000
H  3.53200 12.28000 34.75400
H  4.37700 13.67800 34.10300
H  4.93700 11.98000 33.74800
Mg 9.38300 48.63000 25.60000
C  7.24500 48.67000 28.45500
C  11.95000 49.51500 27.70000
C  11.24000 48.18200 23.01200
C  6.44000 48.04900 23.64700
N  9.57100 49.01700 27.81100
C  8.54800 48.97600 28.73600
C  9.07000 49.48400 30.15200
C  10.52500 50.09400 29.71800
C  10.71100 49.51300 28.34000
C  10.64400 51.66200 29.71900
C  9.12900 48.35200 31.20000
C  8.93800 48.61900 32.71000
H  8.69800 47.46600 33.75200
N  11.32500 48.79400 25.47500
C  12.28600 49.14400 26.38000
C  13.56400 49.13700 25.68300
C  13.38500 48.53000 24.40100
C  11.94500 48.48100 24.21800
C  14.85400 49.41300 26.38300
C  14.37300 48.18700 23.35700
O  13.93000 47.62700 22.34300
C  15.78100 48.46300 23.50300
N  8.86800 48.24400 23.54700
C  9.88000 48.06100 22.68000
C  9.41000 47.61700 21.29300
C  7.84400 47.68300 21.44000
C  7.69500 47.98300 22.95900
C  9.93500 48.48700 20.17800
C  6.97900 46.50000 20.94000
C  6.45100 46.58200 19.51700
N  7.26300 48.46200 25.90900
C  6.18000 48.35100 25.01200
C  4.97400 48.31400 25.74700
C  5.31900 48.50100 27.04500
C  6.73900 48.57300 27.13800
C  3.61100 48.20200 25.25600
C  4.76200 48.64100 28.39700
O  3.63700 48.74100 28.82500
C  6.01200 48.70700 29.32900
C  5.93700 47.59100 30.29600
O  6.37500 46.45000 30.15200
O  5.37100 48.05500 31.42700
C  5.15600 47.08200 32.48200
H  12.74900 50.03200 28.23500
H  11.82900 48.05900 22.10100
H  5.55600 47.91400 23.02100
H  8.47300 50.31900 30.52000
H  11.30700 49.62700 30.31800
H  11.50500 52.09900 30.22500
H  9.76800 52.18200 30.10600
H  10.68100 52.13000 28.73500
H  10.17500 48.06100 31.29600
H  8.60700 47.43300 30.93300
H  8.07900 49.24100 32.96000
H  9.80900 49.15600 33.08700
H  15.34800 50.21100 25.82800
H  15.49300 48.53000 26.36200
H  14.70400 49.72700 27.41500
H  16.30000 48.31200 22.55700
H  16.21700 47.87000 24.30700
H  15.97200 49.47700 23.85400
H  9.85900 46.62400 21.30900
H  7.33500 48.43600 20.83800
H  10.39400 49.34900 20.66300
H  9.13400 48.78100 19.50100
H  10.66500 47.99200 19.53700
H  6.12900 46.32900 21.60000
H  7.46200 45.52500 20.99500
H  7.10900 47.29100 19.01400
H  5.42300 46.94300 19.51700
H  6.51200 45.59300 19.06400
H  3.29700 49.21400 25.00200
H  2.98200 47.75000 26.02300
H  3.60300 47.49400 24.42800
H  5.98600 49.64100 29.89000
H  4.33400 46.42000 32.20900
H  4.95800 47.50500 33.46700
H  6.12300 46.61200 32.66100

