158

Mg -2.08500 16.62400 25.63100
C  -2.48700 14.41100 28.51000
C  -2.86800 19.24500 27.73300
C  -1.83100 18.53200 23.00200
C  -1.58500 13.71900 23.76800
N  -2.60100 16.74000 27.86600
C  -2.58100 15.78000 28.83600
C  -2.86200 16.34000 30.25400
C  -3.04800 17.87000 29.93700
C  -2.93000 18.00200 28.42600
C  -4.33900 18.52900 30.58100
C  -1.70400 16.06100 31.30600
C  -1.77600 16.98500 32.58800
H  -1.73700 16.22700 33.91300
N  -2.17500 18.57600 25.42600
C  -2.52400 19.49500 26.37800
C  -2.52400 20.84600 25.71700
C  -2.18800 20.62300 24.39000
C  -2.07900 19.17900 24.20200
C  -2.73000 22.19500 26.54100
C  -2.03600 21.73500 23.29400
O  -1.90600 21.42500 22.12700
C  -2.10500 23.11300 23.60500
N  -2.09900 16.15900 23.61500
C  -1.87800 17.16200 22.71800
C  -1.75500 16.63000 21.26000
C  -1.39000 15.08100 21.57400
C  -1.69100 14.94700 23.08800
C  -2.93800 16.83700 20.33300
C  0.10500 14.67600 21.28900
C  0.66100 14.72200 19.76500
N  -2.14300 14.51700 26.02200
C  -1.85100 13.50900 25.11400
C  -2.02100 12.19700 25.77700
C  -2.26700 12.57600 27.09700
C  -2.29200 14.00200 27.17100
C  -2.15400 10.77200 25.13500
C  -2.27900 12.00900 28.43800
O  -2.00800 10.85700 28.78800
C  -2.46200 13.19600 29.46600
C  -1.24500 13.16200 30.34500
O  -0.08100 13.52900 30.05800
O  -1.58100 12.53800 31.58100
C  -0.47300 12.48900 32.55300
H  -2.90900 20.08300 28.43200
H  -1.90100 19.12000 22.08500
H  -1.18200 12.85000 23.24500
H  -3.75500 15.90000 30.69900
H  -2.20000 18.36400 30.41200
H  -4.86000 17.79600 31.19700
H  -4.94000 18.79200 29.71100
H  -4.07300 19.42500 31.14300
H  -0.71100 16.15600 30.86600
H  -1.96800 15.07000 31.67400
H  -2.64400 17.62900 32.73200
H  -0.91800 17.65400 32.52500
H  -1.82600 22.79600 26.64000
H  -2.90700 21.98000 27.59500
H  -3.50900 22.83700 26.13100
H  -1.25800 23.47900 24.18500
H  -3.02400 23.32600 24.15000
H  -2.32400 23.64000 22.67600
H  -0.85100 17.14100 20.92800
H  -2.06700 14.35800 21.11900
H  -3.66100 17.48000 20.83600
H  -3.38800 15.90100 20.00400
H  -2.50600 17.37700 19.49000
H  0.27100 13.66600 21.66400
H  0.81900 15.32100 21.80100
H  0.19200 15.53500 19.21100
H  0.39800 13.83400 19.19000
H  1.73600 14.90000 19.76000
H  -2.25300 10.95300 24.06400
H  -3.05000 10.29100 25.52600
H  -1.25200 10.24000 25.43600
H  -3.26900 13.15300 30.19800
H  0.03800 13.45200 32.56500
H  0.20500 11.64200 32.44700
H  -0.94700 12.32500 33.52100
Mg 46.65500 24.41000 28.57600
C  47.21600 26.98900 30.88000
C  45.63300 22.33500 31.04800
C  46.57600 22.10700 26.26900
C  47.82900 26.68900 26.06800
N  46.34400 24.69900 30.72100
C  46.61300 25.83300 31.49200
C  46.32800 25.52400 32.96500
C  45.55600 24.10200 32.89900
C  45.89700 23.66900 31.47200
C  45.88700 23.02900 33.92300
C  45.55600 26.65500 33.73000
C  44.50500 26.17400 34.82400
H  44.34400 26.87800 36.21100
N  46.14500 22.46400 28.61200
C  45.79100 21.78600 29.72400
C  45.70400 20.38300 29.35400
C  46.00600 20.20700 28.02500
C  46.25600 21.63600 27.53200
C  45.34700 19.40400 30.50400
C  45.94300 19.03400 27.08200
O  46.19000 19.04500 25.90300
C  45.48200 17.72100 27.65100
N  46.93800 24.49900 26.42800
C  46.80100 23.32500 25.72100
C  47.13300 23.53700 24.26200
C  47.44500 25.08100 24.26000
C  47.44900 25.47200 25.65300
C  48.28800 22.71300 23.67000
C  46.33000 25.90300 23.43900
C  44.95400 25.91400 24.13800
N  47.34500 26.41300 28.45500
C  47.85900 27.16500 27.37600
C  48.40500 28.37100 27.84000
C  48.20000 28.35200 29.22500
C  47.55700 27.12700 29.55800
C  49.13900 29.40300 27.13500
C  48.39700 29.04300 30.44300
O  48.95100 30.09900 30.61500
C  47.72200 28.20200 31.55900
C  48.63900 27.99800 32.64800
O  49.48300 27.12000 32.78800
O  48.34500 28.89700 33.58400
C  48.96100 28.75900 34.91100
H  45.08000 21.72300 31.76400
H  46.66300 21.34700 25.49000
H  48.20200 27.32600 25.26400
H  47.28000 25.47700 33.49200
H  44.49100 24.32100 32.96700
H  46.70700 22.35700 33.66800
H  45.08600 22.41000 34.32800
H  46.24900 23.60200 34.77600
H  45.21900 27.49100 33.11700
H  46.39800 27.04100 34.30300
H  44.68600 25.11700 35.02200
H  43.53700 26.12700 34.32700
H  44.32300 19.50800 30.86200
H  46.11300 19.48400 31.27600
H  45.35500 18.39000 30.10400
H  45.19000 16.96800 26.92000
H  44.60200 17.98300 28.23900
H  46.27300 17.31900 28.28400
H  46.19400 23.47300 23.71200
H  48.46400 25.31300 23.95000
H  47.94000 22.10500 22.83500
H  48.59500 22.08000 24.50200
H  49.21400 23.19300 23.35200
H  46.21200 25.35200 22.50500
H  46.70300 26.91200 23.26300
H  44.99700 26.54400 25.02600
H  44.77200 24.88100 24.43500
H  44.16700 26.43200 23.59100
H  48.69200 29.63800 26.16900
H  50.14400 28.99800 27.01700
H  49.21800 30.20200 27.87100
H  46.86200 28.74100 31.95800
H  49.96800 29.16200 34.80300
H  48.89400 27.74100 35.29500
H  48.49600 29.42000 35.64200

