158

Mg 27.16100 50.48200 26.07600
C  25.07900 51.51400 28.68600
C  29.50600 49.71700 28.40600
C  29.28300 49.98300 23.47200
C  24.69200 51.47300 23.82900
N  27.14900 50.42200 28.34500
C  26.27500 51.00400 29.17500
C  26.64700 50.76300 30.66200
C  28.24300 50.39900 30.48600
C  28.33600 50.19500 29.01100
C  29.09700 51.59900 30.99800
C  25.80300 49.64800 31.34800
C  25.22600 50.05800 32.71600
H  25.47800 49.17900 33.95300
N  29.07600 49.86600 25.93900
C  29.89000 49.60300 27.04300
C  31.20900 49.15800 26.57400
C  31.22000 49.23100 25.14500
C  29.80900 49.73700 24.81000
C  32.38100 48.83300 27.50200
C  32.27700 48.81700 24.14800
O  32.14000 49.00200 22.92600
C  33.61500 48.25800 24.55100
N  27.06600 50.77900 23.88500
C  28.01800 50.40600 23.06100
C  27.50200 50.19600 21.60900
C  25.99500 50.55800 21.81100
C  25.92800 51.00100 23.23800
C  28.22600 50.99200 20.51400
C  24.88800 49.60300 21.27200
C  23.99800 50.15200 20.13200
N  25.37400 51.41400 26.16900
C  24.39300 51.72700 25.20400
C  23.20900 52.32700 25.76000
C  23.40300 52.19800 27.09800
C  24.72500 51.62300 27.30900
C  22.00300 52.87700 25.05000
C  22.78600 52.48700 28.43100
O  21.69300 52.86100 28.85000
C  23.86100 52.02600 29.48700
C  24.26800 53.21200 30.37600
O  25.15900 53.95300 30.11500
O  23.69200 53.13800 31.60900
C  23.88000 54.29600 32.54500
H  30.36600 49.49200 29.04000
H  29.98200 49.72800 22.67400
H  23.86600 51.62800 23.13100
H  26.34600 51.62400 31.26000
H  28.43000 49.50400 31.07900
H  29.92400 51.76000 30.30700
H  29.40900 51.35900 32.01500
H  28.45000 52.46900 30.88700
H  26.44000 48.78000 31.51700
H  24.97100 49.30700 30.73200
H  24.14700 50.02900 32.56300
H  25.45300 51.07800 33.02500
H  33.13100 48.11900 27.16000
H  31.99000 48.63800 28.50000
H  32.94100 49.76700 27.54000
H  34.23300 48.80700 25.26100
H  34.14400 48.06500 23.61800
H  33.51300 47.27900 25.02100
H  27.56700 49.12000 21.44500
H  25.84000 51.49400 21.27500
H  29.06800 51.57400 20.89000
H  27.51700 51.49300 19.85400
H  28.62200 50.17200 19.91500
H  24.14700 49.45400 22.05700
H  25.36700 48.69700 20.89900
H  24.26800 51.10900 19.68600
H  22.93100 50.25000 20.32900
H  24.06800 49.51500 19.25000
H  22.34500 52.98600 24.02100
H  21.85000 53.87800 25.45200
H  21.12400 52.24300 24.94000
H  23.59900 51.24600 30.20100
H  24.12700 55.22600 32.03200
H  24.63600 54.15200 33.31700
H  22.95900 54.50900 33.08700
Mg -2.24400 33.72400 26.58900
C  -3.85300 31.94500 29.07700
C  -0.78800 35.78300 28.94500
C  -0.97300 35.59100 24.06100
C  -4.17000 31.94900 24.18900
N  -2.53500 33.91300 28.82000
C  -3.09600 32.97800 29.68400
C  -2.78300 33.31600 31.09800
C  -1.83000 34.54900 30.99200
C  -1.71700 34.82000 29.50900
C  -2.34200 35.80700 31.80500
C  -2.13100 32.09800 31.89100
C  -2.81600 31.75600 33.19100
H  -1.94600 31.46900 34.39100
N  -1.00100 35.41000 26.47000
C  -0.48600 36.11800 27.53300
C  0.51400 37.10700 27.03600
C  0.37400 37.05400 25.56300
C  -0.57200 35.95100 25.31700
C  1.33100 37.97400 27.98500
C  1.07400 37.89200 24.47300
O  0.73800 37.98000 23.27600
C  2.17700 38.69900 24.87400
N  -2.70800 33.89700 24.35900
C  -1.98500 34.70600 23.55700
C  -2.30200 34.47300 21.96200
C  -3.06200 33.13100 22.17400
C  -3.40200 32.96600 23.64900
C  -3.16400 35.69700 21.54400
C  -2.40100 31.90500 21.44900
C  -1.42700 31.12200 22.29000
N  -3.66500 32.20600 26.59000
C  -4.38500 31.58500 25.57300
C  -5.23800 30.57400 26.14400
C  -5.05500 30.71600 27.51300
C  -4.08000 31.67400 27.72100
C  -6.19100 29.74000 25.37100
C  -5.50400 30.22000 28.75000
O  -6.29800 29.36300 29.00800
C  -4.72500 31.00500 29.91500
C  -5.70900 31.65700 30.76400
O  -6.30500 32.68400 30.47300
O  -5.99500 30.85000 31.86000
C  -7.01900 31.36300 32.79700
H  -0.34200 36.45800 29.67900
H  -0.47300 36.16000 23.27500
H  -4.77400 31.40600 23.45900
H  -3.67100 33.59100 31.66700
H  -0.83500 34.31000 31.36900
H  -1.82200 35.84200 32.76200
H  -3.40900 35.69400 31.99500
H  -2.29800 36.68600 31.16300
H  -1.12000 32.37000 32.19500
H  -1.94500 31.28600 31.18800
H  -3.45800 30.91900 32.91500
H  -3.43500 32.56700 33.57400
H  2.31200 37.68200 27.61100
H  1.24900 37.67800 29.03100
H  1.22900 39.04100 27.78500
H  1.85100 39.50300 25.53400
H  2.62200 39.19600 24.01200
H  3.04000 38.13000 25.22100
H  -1.36600 34.40300 21.40700
H  -4.07100 33.32200 21.81100
H  -3.47600 36.43800 22.28000
H  -4.05200 35.26400 21.08400
H  -2.63600 36.17100 20.71700
H  -1.86500 32.11100 20.52300
H  -3.28000 31.29900 21.23000
H  -1.00300 31.83200 23.00000
H  -0.75900 30.62900 21.58400
H  -1.97200 30.35000 22.83200
H  -6.38100 30.28100 24.44400
H  -7.04900 29.67300 26.04000
H  -5.81800 28.73300 25.18300
H  -4.13700 30.31600 30.52100
H  -7.89300 31.70700 32.24500
H  -6.62400 32.20300 33.36900
H  -7.35400 30.63800 33.53900

