158

Mg 24.00900 -5.60100 45.32800
C  26.42600 -3.40300 43.83400
C  21.69700 -4.40300 43.09200
C  22.09900 -8.13000 46.27500
C  26.61200 -6.70800 47.40200
N  24.12000 -4.14200 43.58100
C  25.20600 -3.36000 43.17700
C  24.78100 -2.36500 42.14400
C  23.18300 -2.53700 42.06600
C  22.92400 -3.77500 42.95600
C  22.41100 -1.29800 42.55200
C  25.52500 -2.68500 40.78800
C  25.99000 -1.46900 39.90000
H  25.54000 -1.55800 38.43500
N  22.15900 -6.14800 44.82900
C  21.39800 -5.55800 43.86300
C  20.14300 -6.18300 43.79800
C  20.06800 -7.17000 44.87400
C  21.45200 -7.17000 45.42500
C  19.01900 -5.76700 42.89100
C  18.92900 -7.95800 45.36500
O  17.79900 -7.69000 44.82400
C  19.03400 -8.95600 46.46600
N  24.28700 -7.22100 46.54400
C  23.34600 -8.11500 46.81600
C  23.85000 -9.26100 47.71100
C  25.24800 -8.64900 48.26300
C  25.45000 -7.49300 47.34400
C  22.88500 -9.83000 48.81800
C  26.45100 -9.63500 48.37600
C  27.34700 -9.60400 49.64800
N  26.08700 -5.08500 45.64700
C  26.93500 -5.62200 46.55100
C  28.23800 -4.92500 46.42100
C  28.07500 -3.97700 45.39700
C  26.77500 -4.15300 44.95700
C  29.47900 -5.09200 47.21700
C  28.71100 -2.85400 44.70000
O  29.79600 -2.31500 44.89400
C  27.74200 -2.52400 43.54600
C  27.58400 -1.08200 43.52400
O  27.20800 -0.40000 44.41500
O  28.05400 -0.62000 42.28100
C  28.06000 0.81200 42.17200
H  20.96600 -4.02300 42.37500
H  21.56300 -9.04000 46.55100
H  27.35300 -7.01000 48.14500
H  24.99400 -1.33300 42.42200
H  22.78000 -2.90600 41.12300
H  22.90900 -0.42700 42.97900
H  21.76200 -1.53500 43.39500
H  21.97600 -1.00700 41.59600
H  24.87500 -3.30900 40.17500
H  26.43900 -3.24500 40.98300
H  27.07600 -1.50900 39.81500
H  25.63100 -0.52400 40.31000
H  18.29300 -6.52700 42.60300
H  19.47900 -5.30200 42.01900
H  18.40300 -5.01000 43.37600
H  19.39700 -8.57100 47.41900
H  19.61400 -9.81400 46.12700
H  18.01100 -9.27500 46.66600
H  24.18800 -10.05400 47.04400
H  25.03100 -8.15100 49.20700
H  21.92400 -9.31600 48.79200
H  23.16300 -9.84400 49.87200
H  22.85500 -10.88300 48.54000
H  27.00900 -9.54100 47.44500
H  26.00000 -10.62700 48.36100
H  28.38200 -9.85600 49.41500
H  27.04400 -10.44300 50.27400
H  27.21800 -8.68400 50.22000
H  29.26200 -5.21400 48.27800
H  30.12300 -4.21300 47.18900
H  29.98400 -5.97800 46.83400
H  28.13600 -2.75000 42.55400
H  28.36300 1.21400 41.20500
H  28.82400 1.27900 42.79300
H  27.11600 1.32400 42.36000
Mg 26.19800 50.96100 26.63000
C  23.91800 52.01600 29.08000
C  28.26600 50.03900 29.05000
C  28.40300 50.11000 24.27100
C  23.98400 52.20300 24.15100
N  26.19700 51.14200 28.78100
C  25.11000 51.46400 29.60300
C  25.38300 51.41300 31.02400
C  26.89200 51.05700 31.04400
C  27.21100 50.72000 29.53800
C  27.85300 52.14200 31.71000
C  24.37800 50.58300 31.83500
C  24.83000 49.89600 33.17500
H  25.49300 50.79900 34.24500
N  28.11300 50.12300 26.63100
C  28.80900 49.81100 27.78000
C  30.13700 49.32200 27.40500
C  30.24000 49.23900 25.98600
C  28.84000 49.80200 25.55400
C  31.24100 48.87400 28.38600
C  31.33300 48.78400 25.06500
O  31.14300 48.65600 23.83800
C  32.62900 48.50100 25.53800
N  26.30600 51.37400 24.52500
C  27.31200 50.75900 23.76500
C  27.00800 50.85900 22.25800
C  25.49400 51.28500 22.20800
C  25.22600 51.63000 23.71200
C  28.06700 51.63300 21.40900
C  24.60800 50.24200 21.63900
C  23.17200 50.74000 21.21700
N  24.37600 52.01500 26.57300
C  23.58000 52.37000 25.48900
C  22.37700 53.02600 26.04600
C  22.52800 52.95700 27.46000
C  23.63000 52.20900 27.69800
C  21.33000 53.83500 25.31100
C  21.92900 53.37500 28.71000
O  20.92900 54.06200 28.94500
C  22.78500 52.77300 29.73600
C  23.33700 53.91300 30.53500
O  24.32200 54.54000 30.23700
O  22.75900 54.07800 31.73100
C  23.17900 55.21700 32.54900
H  28.91600 49.55700 29.78300
H  29.04800 49.79500 23.44800
H  23.24900 52.53100 23.41200
H  25.25500 52.47700 31.22100
H  27.09400 50.21700 31.70800
H  27.23200 52.96700 32.06100
H  28.64100 52.47700 31.03500
H  28.34100 51.80900 32.62700
H  23.93100 49.83900 31.17500
H  23.66300 51.26800 32.29000
H  25.51800 49.12300 32.83200
H  23.92700 49.48600 33.62700
H  30.79700 48.36100 29.23900
H  31.74700 49.81300 28.61300
H  32.01800 48.24700 27.95000
H  33.35400 48.45400 24.72500
H  32.56100 47.49000 25.94100
H  32.98800 49.18900 26.30300
H  27.23800 49.86500 21.87400
H  25.41000 52.23100 21.67400
H  27.62600 52.57000 21.06800
H  28.47100 50.91200 20.69800
H  28.92500 51.80600 22.06000
H  24.44600 49.41100 22.32600
H  25.15900 49.71700 20.85900
H  23.09300 50.72200 20.13000
H  23.02300 51.81900 21.24600
H  22.47000 50.17900 21.83400
H  20.41500 53.24800 25.38800
H  21.62200 54.06000 24.28500
H  21.05200 54.75200 25.83100
H  22.30700 52.17500 30.51300
H  23.93500 54.96400 33.29200
H  22.41100 55.42700 33.29300
H  23.48000 56.14800 32.06800

