158

Mg 25.78100 0.97300 28.65600
C  27.65500 0.67800 31.58800
C  23.07000 1.69000 30.63700
C  23.97100 1.19400 25.86300
C  28.50300 -0.12600 26.81200
N  25.42000 1.08900 30.89600
C  26.34800 0.96200 31.87100
C  25.76400 1.21700 33.32300
C  24.28100 1.59700 32.97600
C  24.22100 1.44500 31.39500
C  23.31300 0.78200 33.90700
C  26.46300 2.36400 34.13200
C  25.85600 2.76600 35.46200
H  26.51200 2.18100 36.69500
N  23.78400 1.33300 28.32000
C  22.84200 1.66000 29.29000
C  21.60300 1.92700 28.58800
C  21.86900 1.86200 27.20700
C  23.25600 1.40800 27.04100
C  20.26000 2.31300 29.30500
C  20.93400 2.30600 26.08600
O  21.19800 2.05400 24.92400
C  19.67200 3.06000 26.42600
N  26.15300 0.43600 26.71300
C  25.29100 0.77600 25.78700
C  25.90600 0.54000 24.39900
C  27.37000 0.16000 24.67800
C  27.36000 0.18400 26.15800
C  25.26000 -0.41600 23.42600
C  28.33600 1.21700 23.97300
C  28.77300 2.50700 24.67500
N  27.68400 0.45600 29.03400
C  28.64500 -0.00100 28.18600
C  29.82300 -0.30800 28.89600
C  29.57100 0.01900 30.26000
C  28.20100 0.38900 30.27900
C  31.10600 -0.81600 28.26900
C  30.11200 0.11700 31.62900
O  31.24600 -0.08500 32.02200
C  28.87300 0.48000 32.55900
C  28.60300 -0.59300 33.53700
O  27.82000 -1.53800 33.40000
O  29.47200 -0.59300 34.58300
C  29.69200 -1.82900 35.40300
H  22.22400 2.01200 31.24900
H  23.46800 1.17700 24.89400
H  29.25500 -0.54100 26.13700
H  25.83200 0.30400 33.91500
H  24.06800 2.63000 33.25100
H  23.11600 1.21500 34.88700
H  23.75900 -0.20600 34.02300
H  22.34400 0.59700 33.44300
H  26.64000 3.15900 33.40800
H  27.45700 1.99100 34.37700
H  24.79900 2.53900 35.32100
H  25.94600 3.84000 35.62700
H  20.24100 2.13700 30.38100
H  19.48300 1.67100 28.89000
H  20.09200 3.36500 29.07400
H  19.79800 4.02100 26.92600
H  19.02500 2.33700 26.92300
H  19.24400 3.32900 25.46100
H  25.77400 1.48600 23.87300
H  27.64800 -0.82800 24.31100
H  24.67100 -1.10500 24.03100
H  25.92400 -0.96800 22.76000
H  24.62500 0.11200 22.71500
H  27.99400 1.50500 22.97900
H  29.27900 0.71300 23.75900
H  28.10300 2.88200 25.44900
H  28.91900 3.32200 23.96700
H  29.75200 2.30000 25.11000
H  31.76600 -0.04400 27.87500
H  30.88900 -1.55600 27.49800
H  31.66900 -1.27100 29.08400
H  29.20800 1.45400 32.91700
H  28.96600 -1.98300 36.20100
H  30.64600 -1.80700 35.93000
H  29.57900 -2.64200 34.68600
Mg 45.20100 4.69900 46.50700
C  42.96900 7.45500 46.58600
C  42.26800 2.74000 46.13900
C  47.13400 2.10200 45.71100
C  47.85600 6.95100 46.06000
N  42.85600 5.09500 46.33600
C  42.25500 6.30200 46.45800
C  40.69800 6.18200 46.32300
C  40.48500 4.65000 46.36700
C  41.97700 4.10800 46.35700
C  39.59300 4.09600 47.51700
C  40.03300 6.94800 45.08300
C  40.81300 6.77500 43.77500
H  40.11000 6.23700 42.50600
N  44.71200 2.69100 45.95100
C  43.47600 2.09000 45.92300
C  43.73300 0.64800 45.87100
C  45.08600 0.48100 45.44200
C  45.73400 1.81700 45.67500
C  42.61100 -0.32400 45.70500
C  45.76800 -0.76400 44.92900
O  45.19900 -1.84200 44.87500
C  47.12100 -0.76600 44.30600
N  47.20300 4.59000 45.93500
C  47.82600 3.39000 45.77500
C  49.33400 3.53100 45.47600
C  49.50100 5.10800 45.63700
C  48.09600 5.61800 45.85300
C  50.39400 2.75800 46.32800
C  50.23400 5.85600 44.45700
C  49.39200 5.96500 43.18800
N  45.41900 6.72800 46.43500
C  46.58200 7.55200 46.32100
C  46.16900 8.94200 46.62400
C  44.80500 8.93000 46.67700
C  44.36000 7.57900 46.57400
C  47.06800 10.17400 46.55100
C  43.71200 9.78900 46.83000
O  43.54200 11.01200 46.86600
C  42.40100 8.80800 46.77600
C  41.71100 8.88800 48.12200
O  41.94800 8.14800 49.08800
O  40.67000 9.79300 48.01200
C  39.83300 10.00000 49.20700
H  41.38400 2.10900 46.25300
H  47.75700 1.20600 45.67900
H  48.70000 7.64100 46.00100
H  40.39800 6.73500 47.21300
H  40.04700 4.30500 45.43000
H  38.85700 3.37200 47.16600
H  38.95800 4.91000 47.86600
H  40.20100 3.62800 48.29100
H  39.98400 8.01300 45.31300
H  38.96400 6.73700 45.11100
H  41.60200 6.03500 43.90800
H  41.27300 7.71500 43.47000
H  42.39800 -0.95300 46.56900
H  42.79200 -1.02600 44.89100
H  41.63900 0.15900 45.60800
H  47.85200 -0.90400 45.10300
H  47.20200 0.11100 43.66300
H  47.24400 -1.61600 43.63600
H  49.46700 3.15300 44.46300
H  49.98600 5.29700 46.59400
H  49.92600 2.37200 47.23300
H  51.25700 3.38200 46.56300
H  50.85700 1.94200 45.77400
H  51.11800 5.34000 44.08200
H  50.55600 6.87300 44.67900
H  49.98800 5.46000 42.42700
H  49.17500 6.92800 42.72800
H  48.41600 5.49700 43.31200
H  46.67500 11.19000 46.58300
H  47.60000 10.30100 45.60800
H  47.76400 10.23600 47.38800
H  41.71500 9.15100 46.00100
H  39.97000 9.06400 49.74700
H  38.84700 10.39900 48.96600
H  40.35700 10.76200 49.78300

