158

Mg 42.93400 4.49600 47.89900
C  40.99300 7.42300 48.01100
C  40.08000 2.56700 47.73100
C  44.80800 1.86200 47.07600
C  45.79200 6.56500 47.63000
N  40.83300 5.03300 47.64900
C  40.25300 6.29500 47.81000
C  38.75000 6.22200 47.91700
C  38.57300 4.70700 48.16400
C  39.89700 4.02600 47.71500
C  38.36100 4.37800 49.63400
C  37.99300 6.72000 46.66100
C  38.73500 6.62400 45.26900
H  38.98900 7.67500 44.28300
N  42.47500 2.51600 47.49000
C  41.32000 1.89800 47.60600
C  41.42600 0.45100 47.43200
C  42.82200 0.19900 47.23500
C  43.44100 1.57900 47.25000
C  40.22900 -0.42000 47.46400
C  43.41700 -1.14800 47.10000
O  42.69600 -2.14100 47.16700
C  44.92700 -1.39400 46.85100
N  45.01600 4.29000 47.42100
C  45.49900 3.07100 47.04500
C  46.99600 3.11000 46.93200
C  47.37000 4.59500 47.23400
C  45.99500 5.21300 47.43100
C  47.70100 2.07900 47.85300
C  48.28500 5.25700 46.13700
C  49.60700 5.81400 46.60000
N  43.38500 6.54600 47.92100
C  44.62100 7.24900 47.86000
C  44.30800 8.69100 47.95600
C  42.94500 8.76000 47.97100
C  42.42900 7.49000 47.98200
C  45.41700 9.78200 47.99900
C  41.89500 9.74000 48.17300
O  41.92200 10.97300 48.32900
C  40.58500 8.86900 48.11100
C  39.78100 9.10500 49.28900
O  40.09900 8.71700 50.40600
O  38.75600 9.94400 48.98100
C  37.94900 10.32700 50.15100
H  39.19800 1.93400 47.85100
H  45.47100 1.02200 46.85700
H  46.69200 7.18200 47.58000
H  38.54400 6.94400 48.70600
H  37.75200 4.17300 47.68400
H  37.76200 5.14000 50.13300
H  39.31100 4.27300 50.15800
H  37.70600 3.50800 49.68700
H  37.85300 7.79700 46.75600
H  37.00200 6.27300 46.73200
H  38.18400 5.82000 44.78200
H  39.77400 6.30100 45.33200
H  39.48300 -0.15600 46.71400
H  39.65100 -0.32100 48.38300
H  40.38100 -1.48600 47.29700
H  45.59300 -1.05500 47.64400
H  45.21700 -0.83500 45.96100
H  44.93300 -2.46000 46.62000
H  47.25900 2.78400 45.92500
H  47.81100 4.72500 48.22200
H  47.03000 1.45900 48.44700
H  48.37600 2.70500 48.43700
H  48.29700 1.38200 47.26300
H  47.70200 6.09100 45.74600
H  48.41500 4.51600 45.34800
H  49.61700 6.81000 46.15700
H  50.49600 5.38900 46.13400
H  49.66800 5.88200 47.68700
H  46.42500 9.38200 47.88500
H  45.34000 10.35900 48.92000
H  45.33000 10.40500 47.10900
H  39.99200 9.08800 47.22400
H  36.89600 10.04900 50.12200
H  37.82100 11.40700 50.22200
H  38.30800 10.01800 51.13300
Mg 35.39900 2.89900 29.87000
C  33.19400 3.50300 32.52200
C  38.05800 3.03100 32.18400
C  37.37200 2.28900 27.44100
C  32.68800 3.25200 27.63300
N  35.56900 3.44100 31.98300
C  34.56300 3.47600 32.91100
C  35.04100 3.50200 34.38500
C  36.56100 3.83400 34.10600
C  36.82300 3.42300 32.66300
C  37.05200 5.24700 34.59800
C  34.79700 2.19000 35.18500
C  34.01400 2.34000 36.45400
H  34.41800 3.51100 37.38000
N  37.44300 2.58700 29.80800
C  38.35200 2.59600 30.86200
C  39.62000 2.17600 30.34800
C  39.52700 2.05400 28.93200
C  38.08500 2.26800 28.65400
C  40.83500 2.01600 31.24300
C  40.64000 1.81700 27.87100
O  40.37900 1.90500 26.67800
C  42.04700 1.55600 28.39900
N  35.06400 2.92800 27.87200
C  36.04700 2.53200 27.09800
C  35.71200 2.60900 25.59600
C  34.20800 2.89500 25.58900
C  33.95600 3.03200 27.17600
C  36.58800 3.67400 24.82300
C  33.28900 1.92300 24.76200
C  32.79100 0.64800 25.56200
N  33.36600 3.33200 30.03600
C  32.39700 3.40300 29.03900
C  31.13900 3.67400 29.60300
C  31.35600 3.69500 31.03100
C  32.74700 3.49100 31.24400
C  29.84300 3.87300 29.00200
C  30.77400 3.84700 32.38100
O  29.64400 4.07500 32.72600
C  31.95700 3.74300 33.38400
C  31.86300 5.04000 34.18700
O  32.42000 6.08100 33.92700
O  31.12000 4.85800 35.30000
C  31.10700 5.92500 36.35300
H  38.85900 3.04300 32.92500
H  37.96900 2.16400 26.53500
H  31.83300 3.19400 26.95600
H  34.58400 4.37900 34.84400
H  37.14100 3.23500 34.80800
H  36.27100 5.71600 35.19600
H  37.20700 5.83300 33.69200
H  38.00200 5.06400 35.10100
H  35.69800 1.65200 35.47800
H  34.24800 1.54300 34.50100
H  34.01900 1.47300 37.11500
H  32.94700 2.49100 36.28600
H  40.55400 1.95900 32.29500
H  41.61500 2.77200 31.15200
H  41.35800 1.06000 31.19700
H  42.03000 0.54900 28.81500
H  42.47400 2.21200 29.15800
H  42.72100 1.64500 27.54700
H  35.83400 1.59700 25.21200
H  34.16500 3.85400 25.07200
H  37.57000 3.26900 24.58100
H  36.65800 4.58400 25.41700
H  36.06300 3.88800 23.89100
H  33.85100 1.51400 23.92200
H  32.50600 2.49900 24.26800
H  33.27800 -0.22100 25.11900
H  31.70900 0.69700 25.43600
H  33.06200 0.51500 26.60900
H  29.65400 3.15600 28.20200
H  29.71900 4.91200 28.69800
H  29.02500 3.67600 29.69400
H  31.88300 2.99300 34.17300
H  31.96400 6.59200 36.44900
H  30.89000 5.40800 37.28800
H  30.38800 6.69100 36.06500

