158

Mg 1.93800 -0.97500 43.87800
C  5.34400 -0.10600 43.03400
C  0.86600 1.41600 41.92900
C  -1.13600 -2.57200 44.00700
C  3.39300 -4.04000 45.17600
N  3.05300 0.43900 42.56200
C  4.38500 0.70500 42.41100
C  4.57500 1.92900 41.56700
C  3.17800 2.49400 41.37900
C  2.29300 1.39400 42.06900
C  2.87600 3.99600 41.70400
C  5.28300 1.60200 40.23000
C  6.69000 2.23500 39.96900
H  6.81200 2.96900 38.62400
N  0.08200 -0.48700 43.19900
C  -0.14000 0.55800 42.41800
C  -1.54500 0.68800 42.35900
C  -2.15500 -0.48200 42.89200
C  -1.06100 -1.24600 43.39300
C  -2.13400 1.83500 41.68800
C  -3.64900 -0.74700 42.98900
O  -4.37500 0.11900 42.53500
C  -4.26000 -1.92000 43.67100
N  1.26700 -3.09900 44.48100
C  -0.04800 -3.42100 44.53700
C  -0.22900 -4.86700 45.18200
C  1.25300 -5.14500 45.77500
C  2.01000 -4.04300 45.08100
C  -1.37200 -4.93000 46.27300
C  1.85100 -6.60500 45.62600
C  2.31700 -7.34800 46.86400
N  3.97700 -1.82200 44.24400
C  4.32200 -3.07900 44.79200
C  5.79600 -3.02900 45.07700
C  6.28500 -1.87800 44.34600
C  5.10700 -1.20700 43.84300
C  6.56700 -4.11500 45.72300
C  7.43100 -1.12700 43.88500
O  8.66200 -1.28400 44.11500
C  6.87600 0.08100 43.06900
C  7.45000 1.28500 43.73400
O  7.01900 1.85800 44.78600
O  8.47200 1.85900 42.96600
C  8.84100 3.24300 43.16000
H  0.54900 2.28500 41.34800
H  -2.11600 -3.01400 44.19400
H  3.68100 -4.89400 45.79300
H  5.05800 2.75500 42.08700
H  2.79500 2.37300 40.36600
H  2.18400 4.21600 42.51700
H  2.50900 4.43600 40.77600
H  3.74900 4.54900 42.04900
H  4.62900 1.96500 39.43700
H  5.34500 0.51400 40.22300
H  7.36500 1.38000 40.00100
H  6.85900 2.91900 40.80100
H  -1.41000 2.65000 41.67200
H  -2.91900 2.26500 42.31000
H  -2.31800 1.71300 40.62100
H  -3.66800 -1.99300 44.58300
H  -4.07200 -2.75800 43.00000
H  -5.33300 -1.74200 43.74400
H  -0.55600 -5.67400 44.52700
H  1.38100 -4.80500 46.80200
H  -0.93800 -5.32800 47.19000
H  -2.08900 -5.69400 45.97500
H  -1.86900 -3.96200 46.34100
H  2.60800 -6.63900 44.84300
H  1.06900 -7.24000 45.20800
H  2.45200 -6.61700 47.66100
H  3.25000 -7.87200 46.65600
H  1.64700 -8.08600 47.30600
H  6.22100 -4.18200 46.75500
H  7.63700 -3.93900 45.61300
H  6.37000 -5.00900 45.13300
H  7.32700 0.00200 42.08000
H  7.99200 3.79700 42.76000
H  9.73700 3.40800 42.56200
H  9.18000 3.51200 44.16000
Mg 16.54500 51.56200 26.78200
C  18.71800 50.46100 29.47400
C  14.46300 52.62700 29.01900
C  14.70700 52.59700 24.20700
C  19.08800 50.45200 24.65600
N  16.71300 51.63000 28.95300
C  17.59600 51.17300 29.87900
C  17.21000 51.48800 31.34800
C  15.74600 51.97500 31.08300
C  15.58300 52.08200 29.58700
C  14.66100 51.07400 31.69000
C  18.14100 52.48600 32.10000
C  18.45800 52.13100 33.55600
H  17.33600 51.58000 34.44600
N  14.79500 52.49500 26.69700
C  14.02500 52.88900 27.76100
C  12.86600 53.56700 27.29100
C  13.01400 53.65900 25.91200
C  14.15900 52.79400 25.51000
C  11.90100 54.19300 28.21000
C  12.18200 54.37100 24.84300
O  12.37900 54.41600 23.66100
C  11.03100 55.21400 25.20600
N  16.90600 51.55300 24.76500
C  15.92400 51.96500 23.86600
C  16.43900 51.94100 22.40600
C  17.79600 51.18500 22.55500
C  17.99300 51.07300 24.07100
C  15.39900 51.44000 21.30700
C  18.89000 51.88500 21.71000
C  20.09000 51.02700 21.16300
N  18.49700 50.54600 26.96100
C  19.39200 50.17200 25.98300
C  20.56700 49.53400 26.58100
C  20.28800 49.52600 27.98300
C  19.10300 50.29300 28.13400
C  21.77100 49.10000 25.89300
C  20.75800 49.16800 29.27200
O  21.82600 48.63900 29.61700
C  19.74500 49.74800 30.31400
C  19.26600 48.77700 31.29500
O  18.36400 47.94200 31.08700
O  20.03400 48.77500 32.46600
C  19.52800 47.98500 33.58700
H  13.67600 52.84900 29.74300
H  14.25200 53.00800 23.30400
H  19.85800 50.31700 23.89300
H  17.22900 50.49600 31.80000
H  15.72100 53.00000 31.45100
H  14.12900 51.69000 32.41400
H  15.13100 50.24000 32.21000
H  14.04300 50.63000 30.91000
H  17.81100 53.52400 32.08400
H  19.09400 52.36100 31.58600
H  18.88400 52.96200 34.11900
H  19.25400 51.39800 33.42800
H  12.27400 54.09200 29.23000
H  10.89700 53.77800 28.12700
H  11.91600 55.26700 28.02500
H  11.46900 56.08300 25.69600
H  10.37800 54.67700 25.89400
H  10.50900 55.58000 24.32200
H  16.61500 52.94500 22.01900
H  17.63600 50.18600 22.14900
H  14.90300 52.25300 20.77700
H  14.69400 50.75600 21.78100
H  15.91200 50.88200 20.52400
H  19.19500 52.78100 22.25000
H  18.43200 52.24900 20.79000
H  20.93000 51.67900 21.40200
H  19.97100 50.87200 20.09100
H  20.08100 50.06800 21.68100
H  22.47600 49.04200 26.72300
H  22.10300 49.82600 25.15200
H  21.49300 48.13900 25.45900
H  20.43700 50.42300 30.81700
H  19.85600 46.95000 33.49300
H  18.44600 47.98400 33.44900
H  19.94600 48.39000 34.50800

