158

Mg 41.26100 9.09500 30.67400
C  42.79800 10.49500 33.42600
C  38.76700 7.92700 32.73600
C  39.65000 8.03500 27.93300
C  44.09200 9.79700 28.62000
N  40.71700 9.31300 32.80100
C  41.54300 9.84700 33.72800
C  40.93200 9.72600 35.17200
C  39.78800 8.72200 34.96500
C  39.80000 8.54200 33.41300
C  39.93900 7.39300 35.76400
C  40.48900 11.12400 35.81000
C  40.07000 11.12100 37.20800
H  41.02300 11.81300 38.24100
N  39.42400 8.24600 30.41200
C  38.59600 7.69500 31.36900
C  37.41600 7.10300 30.71600
C  37.58900 7.33100 29.32500
C  38.91200 7.90300 29.14300
C  36.48700 6.31300 31.53200
C  36.72800 6.87100 28.16000
O  37.01000 6.88300 26.96200
C  35.39200 6.46300 28.52600
N  41.77000 8.92300 28.59400
C  40.92500 8.46400 27.60700
C  41.52000 8.33400 26.22700
C  42.94100 9.06200 26.48700
C  42.97300 9.23200 27.98500
C  41.68400 6.92100 25.70700
C  43.23900 10.37700 25.77000
C  42.24700 11.46500 25.88500
N  43.08200 9.92200 30.92600
C  44.11800 10.18200 30.03600
C  45.05200 10.97300 30.73700
C  44.58900 11.14100 32.07100
C  43.39200 10.44000 32.13200
C  46.20200 11.56300 30.05500
C  45.02500 11.65600 33.32100
O  46.03000 12.25300 33.74400
C  43.84400 11.20000 34.25400
C  44.48200 10.33600 35.34800
O  45.11900 9.30600 35.16600
O  44.08400 10.82700 36.61400
C  44.45100 9.95700 37.72200
H  37.98800 7.59000 33.42300
H  39.09800 7.79700 27.02200
H  44.99500 10.11000 28.09300
H  41.61600 9.25800 35.88000
H  38.78600 9.11500 35.14000
H  40.53800 7.45300 36.67300
H  40.43500 6.76500 35.02300
H  38.88600 7.23200 35.99100
H  39.67700 11.60300 35.26400
H  41.39300 11.71800 35.67500
H  39.93700 10.07900 37.49800
H  39.08100 11.55500 37.35800
H  36.97400 5.99600 32.45400
H  36.26500 5.36600 31.04100
H  35.51000 6.74700 31.74500
H  34.95100 7.05700 29.32600
H  35.53400 5.42100 28.81100
H  34.71800 6.47100 27.66900
H  40.89600 8.87700 25.51800
H  43.78100 8.48700 26.09700
H  41.33700 6.08100 26.30900
H  42.72300 6.74200 25.43000
H  41.09400 6.81100 24.79700
H  43.32500 10.26800 24.68900
H  44.14500 10.72400 26.26700
H  41.48200 11.61500 25.12300
H  42.54100 12.47700 26.16500
H  41.65800 11.12400 26.73700
H  46.34200 12.56200 30.46900
H  46.00900 11.53400 28.98200
H  47.05500 10.91700 30.26200
H  43.47700 12.14200 34.66100
H  44.54700 8.89500 37.49700
H  43.67000 9.94400 38.48300
H  45.36600 10.36800 38.14900
Mg -0.18600 43.73600 26.76900
C  1.87800 43.56300 29.62300
C  -2.93700 43.00400 28.83500
C  -2.10300 43.44400 24.05600
C  2.62000 44.31200 24.81300
N  -0.41700 43.35600 28.90000
C  0.50400 43.49000 29.86700
C  -0.10200 43.60800 31.24600
C  -1.56600 43.27700 31.00100
C  -1.70000 43.22200 29.48000
C  -2.15000 41.93600 31.69000
C  0.12600 44.92100 32.03100
C  0.38200 44.72000 33.54100
H  -0.18400 43.42700 34.27700
N  -2.24200 43.19700 26.49500
C  -3.21800 43.01500 27.45300
C  -4.54300 42.86400 26.78300
C  -4.29700 42.92000 25.38400
C  -2.85500 43.22200 25.28600
C  -5.88300 42.77500 27.52200
C  -5.26700 42.66900 24.12500
O  -4.85900 42.72700 22.93600
C  -6.69600 42.16900 24.39200
N  0.19900 43.79500 24.75200
C  -0.77400 43.62100 23.82000
C  -0.17100 43.63400 22.42600
C  1.27500 44.08000 22.62300
C  1.39200 44.06300 24.12500
C  -0.40100 42.25900 21.63900
C  1.61500 45.49400 22.08400
C  2.46300 45.54000 20.83000
N  1.79400 43.99500 27.12000
C  2.81700 44.22400 26.19000
C  4.06200 44.25900 26.95100
C  3.76800 44.05500 28.34600
C  2.36000 43.85400 28.29200
C  5.42500 44.29500 26.30100
C  4.21000 43.92000 29.64000
O  5.31600 44.00600 30.09000
C  3.01500 43.69800 30.56100
C  3.26100 42.54500 31.31500
O  3.54300 41.44500 30.84400
O  3.28100 42.78600 32.67300
C  3.70500 41.67500 33.49000
H  -3.85900 42.80000 29.38400
H  -2.68800 43.37800 23.13600
H  3.55700 44.48300 24.27900
H  0.34700 42.80000 31.82300
H  -2.28100 44.06200 31.24500
H  -2.77900 41.29700 31.07000
H  -2.74300 42.19200 32.56800
H  -1.29400 41.32900 31.98600
H  -0.75500 45.56000 32.09300
H  0.83400 45.51400 31.45200
H  0.10000 45.61500 34.09400
H  1.43500 44.80900 33.80700
H  -6.42000 41.90400 27.14400
H  -6.49700 43.65000 27.31000
H  -5.78000 42.74500 28.60700
H  -6.68900 41.28100 25.02300
H  -7.26200 41.96600 23.48200
H  -7.37800 42.86100 24.88600
H  -0.66600 44.33800 21.75700
H  2.03800 43.39300 22.25600
H  -0.99700 41.56600 22.23400
H  0.57500 41.77300 21.61900
H  -0.77000 42.35200 20.61800
H  2.04400 46.19200 22.80400
H  0.67200 46.01100 21.90800
H  1.74500 45.60800 20.01300
H  3.08000 44.64100 20.81600
H  3.18100 46.36000 20.82200
H  5.57800 43.39500 25.70500
H  6.13600 44.30000 27.12700
H  5.39000 45.16700 25.64800
H  2.83500 44.57100 31.18800
H  4.72400 41.35100 33.28200
H  3.01400 40.85800 33.28400
H  3.46800 41.82600 34.54400

