158

Mg 8.96800 3.02500 28.38500
C  10.58300 1.48700 31.11400
C  7.21900 4.94500 30.46000
C  7.55800 4.31900 25.60400
C  10.71500 0.75700 26.27900
N  8.79000 3.10900 30.57700
C  9.67400 2.51700 31.44400
C  9.36200 2.99500 32.90400
C  8.22800 4.03100 32.64700
C  8.03000 4.03500 31.12100
C  6.88700 3.89700 33.49800
C  10.65400 3.74000 33.48400
C  10.39600 4.57300 34.78800
H  11.33000 4.32900 36.02000
N  7.53600 4.42400 28.10400
C  6.93100 5.11800 29.08300
C  6.07500 6.13200 28.54700
C  6.08300 5.97600 27.10200
C  7.07900 4.84900 26.86200
C  5.22400 7.15400 29.37100
C  5.38600 6.75500 26.00800
O  5.42500 6.46800 24.83200
C  4.35500 7.77400 26.27900
N  9.02800 2.53000 26.31500
C  8.42300 3.26300 25.33000
C  8.89300 2.94000 23.85700
C  10.06900 2.09700 24.21700
C  9.95300 1.74000 25.68500
C  7.79200 2.31700 23.01200
C  11.50400 2.65800 23.95700
C  11.70600 4.17700 24.10800
N  10.34900 1.44300 28.53700
C  10.95100 0.58100 27.63400
C  11.89200 -0.39300 28.33900
C  11.71600 -0.01100 29.69400
C  10.89300 1.06800 29.73900
C  12.77400 -1.41500 27.72500
C  12.25700 -0.23800 31.02800
O  13.01700 -1.15500 31.40600
C  11.50600 0.67000 32.00400
C  10.73700 -0.12000 32.99200
O  9.78500 -0.91300 32.75200
O  11.23000 0.04100 34.30000
C  10.58400 -0.59200 35.44500
H  6.67900 5.63000 31.11600
H  7.14600 4.81500 24.72300
H  11.23100 0.12800 25.55100
H  9.02100 2.20400 33.57200
H  8.55300 5.07200 32.65400
H  6.18400 3.29400 32.92400
H  6.63300 4.90900 33.81400
H  7.05200 3.30600 34.39900
H  11.19300 4.32100 32.73700
H  11.31600 2.92800 33.78400
H  9.38600 4.32400 35.11400
H  10.51700 5.63600 34.58100
H  4.21900 6.73400 29.38500
H  5.08200 8.05600 28.77600
H  5.58500 7.23200 30.39700
H  3.82100 8.18800 25.42400
H  4.91900 8.63800 26.63100
H  3.58600 7.37000 26.93700
H  9.17800 3.85800 23.34200
H  9.98900 1.20500 23.59600
H  6.85100 2.40600 23.55400
H  7.95300 1.28900 22.68700
H  7.70700 3.04600 22.20500
H  11.74300 2.42300 22.92000
H  12.19900 2.25200 24.69100
H  12.63600 4.47400 24.59300
H  10.93400 4.64100 24.72200
H  11.57600 4.56400 23.09700
H  12.23100 -2.00800 26.98900
H  13.04400 -2.19600 28.43500
H  13.53600 -0.86900 27.16800
H  12.14600 1.26900 32.65200
H  9.99400 0.17600 35.94600
H  11.29600 -1.01300 36.15500
H  9.78600 -1.23700 35.07700
Mg 26.56600 0.56500 28.75400
C  28.34100 -0.02000 31.73700
C  23.61000 0.17500 30.59300
C  24.91600 0.97100 25.94300
C  29.65100 0.12000 27.04400
N  26.11700 0.23800 30.90100
C  26.96000 0.18000 31.91700
C  26.21200 0.22800 33.24800
C  24.71700 0.14300 32.90200
C  24.76400 0.06500 31.35600
C  23.91000 -1.08100 33.53000
C  26.56000 1.53500 34.08900
C  26.57600 1.18900 35.62700
H  27.17300 2.12600 36.58600
N  24.50900 0.62700 28.28700
C  23.51600 0.48700 29.19900
C  22.20000 0.79000 28.48800
C  22.56200 0.98200 27.16900
C  24.00800 0.87500 27.05000
C  20.82300 0.76200 29.24600
C  21.68600 1.08400 25.94100
O  22.12800 0.95100 24.83100
C  20.16300 1.29300 26.06100
N  27.23400 0.37200 26.72700
C  26.35300 0.77000 25.73000
C  27.10200 0.99700 24.33600
C  28.64100 0.96100 24.85700
C  28.54800 0.46400 26.30800
C  26.68900 0.10600 23.15800
C  29.25500 2.38000 24.77300
C  29.68600 2.72300 23.35100
N  28.57000 0.09800 29.20900
C  29.70200 0.00800 28.44600
C  30.85500 -0.13800 29.23000
C  30.32700 -0.10600 30.51500
C  28.92300 -0.05800 30.43900
C  32.22600 -0.37700 28.79300
C  30.73600 -0.16200 31.87600
O  31.84200 -0.23100 32.32000
C  29.42600 -0.09500 32.78500
C  29.16300 -1.33700 33.64900
O  28.53600 -2.33700 33.32700
O  29.64400 -1.04100 34.88000
C  29.38500 -2.06200 35.92400
H  22.70800 0.17000 31.20700
H  24.39400 1.07800 24.99000
H  30.59600 0.27900 26.52000
H  26.70600 -0.53900 33.84500
H  24.12400 1.02000 33.16000
H  23.07600 -0.74100 34.14300
H  24.56000 -1.63400 34.20800
H  23.46900 -1.71300 32.76000
H  25.76400 2.24000 33.84800
H  27.49900 1.93900 33.70900
H  26.77600 0.15100 35.89000
H  25.53900 1.30400 35.94200
H  20.48700 1.79600 29.32400
H  20.85400 0.32900 30.24600
H  19.99200 0.18400 28.84200
H  19.83100 1.69600 25.10400
H  20.02500 2.03100 26.85200
H  19.79200 0.29100 26.27600
H  26.69800 1.93400 23.95200
H  29.19200 0.20100 24.30300
H  26.09100 0.75900 22.52300
H  26.02800 -0.72700 23.39700
H  27.48800 -0.25700 22.51100
H  30.16600 2.38500 25.37200
H  28.60800 3.16200 25.17000
H  29.12200 3.61000 23.06200
H  29.41100 1.92700 22.65900
H  30.75300 2.86300 23.17800
H  32.80000 0.30300 29.42300
H  32.41500 -0.16200 27.74100
H  32.58000 -1.38700 28.99900
H  29.58700 0.76000 33.44200
H  30.08000 -1.98600 36.76000
H  29.55400 -3.05800 35.51400
H  28.34900 -2.02700 36.26200

