158

Mg -2.15500 17.09900 26.55700
C  -2.54500 14.86200 29.33900
C  -3.02600 19.61500 28.68500
C  -2.20800 19.23400 23.91900
C  -1.97500 14.27900 24.45000
N  -2.81500 17.13200 28.69700
C  -2.68500 16.21200 29.75900
C  -2.75700 16.74600 31.19500
C  -3.07000 18.26900 30.84000
C  -2.95900 18.33500 29.32600
C  -4.30200 18.92100 31.51600
C  -1.48100 16.42600 32.03300
C  -1.41200 17.40900 33.22000
H  -0.79300 16.73000 34.45500
N  -2.38100 19.11100 26.38000
C  -2.76400 19.96100 27.36500
C  -2.76100 21.32100 26.87600
C  -2.34400 21.30700 25.51000
C  -2.30300 19.81700 25.18900
C  -3.14100 22.48200 27.78500
C  -2.09400 22.42400 24.62700
O  -1.79100 22.26000 23.46300
C  -2.15100 23.88900 25.07500
N  -1.89100 16.76800 24.48600
C  -2.03200 17.83900 23.59200
C  -1.84200 17.36300 22.09800
C  -1.60800 15.78600 22.33500
C  -1.82100 15.58000 23.83100
C  -3.08500 17.72300 21.29100
C  -0.18700 15.38800 22.01700
C  0.92700 15.95100 22.94000
N  -2.21300 15.05000 26.79000
C  -2.19600 14.05400 25.83600
C  -2.22800 12.78200 26.48800
C  -2.30600 13.05600 27.82100
C  -2.43300 14.43600 27.94200
C  -2.03600 11.48900 25.65200
C  -2.40700 12.40100 29.18400
O  -2.21600 11.25000 29.51000
C  -2.66900 13.59100 30.14800
C  -1.69800 13.31000 31.23000
O  -0.51100 13.49000 31.10400
O  -2.34800 12.87300 32.37200
C  -1.44100 12.78600 33.55700
H  -3.03900 20.40200 29.44200
H  -2.14300 19.80800 22.99200
H  -1.93200 13.35100 23.87600
H  -3.60900 16.35600 31.75100
H  -2.19800 18.82300 31.18800
H  -4.80200 18.24200 32.20600
H  -5.04600 19.18100 30.76300
H  -4.09100 19.80500 32.11900
H  -0.58500 16.67300 31.46300
H  -1.60500 15.45000 32.50300
H  -2.43400 17.71600 33.44500
H  -0.74200 18.24900 33.03900
H  -2.25100 23.10300 27.88800
H  -3.52200 22.25500 28.78100
H  -3.87200 23.18600 27.38800
H  -3.07200 24.23400 25.54600
H  -1.75800 24.58000 24.33000
H  -1.32100 23.80900 25.77800
H  -0.92100 17.85500 21.78600
H  -2.24400 15.22400 21.65100
H  -2.83800 18.51300 20.58200
H  -3.88300 18.01600 21.97400
H  -3.51200 16.88300 20.74300
H  0.09800 15.69600 21.01100
H  -0.03800 14.30900 21.99400
H  0.70600 16.54800 23.82500
H  1.65600 16.38900 22.25800
H  1.43900 15.07400 23.33600
H  -1.37700 11.63000 24.79600
H  -2.99300 11.24500 25.19000
H  -1.76300 10.66600 26.31200
H  -3.67600 13.31700 30.46500
H  -1.77700 13.66800 34.10300
H  -0.37000 12.89700 33.39200
H  -1.52800 11.78200 33.97100
Mg 16.83500 51.43500 27.22100
C  19.24700 50.07200 29.51300
C  14.68500 51.73900 29.87900
C  14.59000 52.43300 25.06900
C  19.01700 50.61800 24.67200
N  16.98000 50.95700 29.44800
C  18.10500 50.53400 30.15800
C  17.90000 50.82100 31.66200
C  16.36800 51.11600 31.67400
C  15.96500 51.29800 30.27900
C  15.53700 50.07400 32.47700
C  18.77400 52.04600 32.16900
C  19.09800 51.96000 33.74400
H  18.15300 51.10500 34.67000
N  14.94000 52.08300 27.41900
C  14.18200 52.08200 28.63000
C  12.81100 52.55900 28.32500
C  12.75100 52.75500 26.88000
C  14.10800 52.41800 26.40100
C  11.69400 52.58100 29.40000
C  11.62400 53.32900 26.04600
O  11.73600 53.51400 24.83700
C  10.24300 53.56800 26.73000
N  16.86500 51.61200 25.17400
C  15.83400 52.12400 24.50900
C  16.18000 52.18800 22.98200
C  17.60400 51.61300 22.89600
C  17.85500 51.23800 24.33500
C  15.26500 51.40500 22.04100
C  18.67900 52.67400 22.38500
C  19.69400 52.10200 21.25400
N  18.71600 50.49800 27.05100
C  19.50700 50.24000 25.93200
C  20.68800 49.53300 26.34900
C  20.64800 49.53000 27.71500
C  19.48200 50.10700 28.11000
C  21.72900 48.89800 25.43000
C  21.45100 49.18900 28.90400
O  22.53500 48.68000 28.95200
C  20.54100 49.59600 30.12600
C  20.27200 48.43500 31.06800
O  19.98300 47.28800 30.71700
O  20.42400 48.97500 32.35300
C  20.13300 47.97000 33.32500
H  14.00800 51.89900 30.72000
H  13.89000 52.80000 24.31600
H  19.68000 50.35000 23.84700
H  18.13700 49.96200 32.28900
H  16.30900 52.13200 32.06300
H  14.72700 49.61600 31.90800
H  15.07700 50.57900 33.32700
H  16.17500 49.21100 32.66600
H  18.17100 52.93200 31.97000
H  19.64100 52.09600 31.51000
H  19.13800 53.01000 34.03500
H  20.09300 51.52000 33.81600
H  11.94700 52.37400 30.43900
H  10.91300 51.86700 29.13800
H  11.38400 53.62500 29.35400
H  10.28000 54.42300 27.40600
H  10.01200 52.64200 27.25700
H  9.53800 53.50800 25.90200
H  16.17200 53.25500 22.75600
H  17.75100 50.68200 22.34800
H  15.87200 50.91200 21.28100
H  14.54600 52.06100 21.55100
H  14.67100 50.68000 22.59700
H  19.31500 53.00200 23.20700
H  18.17000 53.58500 22.07200
H  20.63500 52.65100 21.29100
H  19.35700 52.07400 20.21800
H  19.95100 51.07200 21.50500
H  22.04600 47.99300 25.94900
H  22.48000 49.67600 25.29000
H  21.24000 48.67600 24.48100
H  20.98100 50.47300 30.60000
H  20.70400 47.07600 33.07300
H  19.07200 47.72300 33.29000
H  20.37200 48.22500 34.35700

