158

Mg 6.66000 53.67200 41.30100
C  6.32100 50.06200 41.16500
C  9.61000 53.33600 39.63500
C  6.73600 57.02000 40.89100
C  3.39000 53.86800 42.41700
N  7.71200 51.85100 40.55800
C  7.53200 50.49900 40.61800
C  8.79500 49.67500 40.06600
C  9.85400 50.81600 39.84000
C  8.95100 52.11600 39.96900
C  11.07300 50.85700 40.77900
C  8.50200 48.77300 38.85000
C  8.54800 49.39400 37.35700
H  7.39000 48.99700 36.40800
N  8.03500 55.03200 40.37000
C  9.23500 54.66700 39.82400
C  9.89100 55.83800 39.44600
C  9.05500 56.96500 39.71900
C  7.88000 56.38300 40.39800
C  11.27000 55.85400 38.68200
C  9.45000 58.39400 39.37400
O  10.42600 58.66100 38.76500
C  8.52300 59.52000 39.85900
N  5.27400 55.22900 41.43800
C  5.54600 56.51900 41.37900
C  4.35100 57.45300 41.79400
C  3.19800 56.39900 41.99700
C  3.98300 55.12100 41.93000
C  4.66200 58.45400 42.92500
C  2.03200 56.37800 40.93500
C  0.59600 56.61800 41.40500
N  5.27000 52.30200 41.87900
C  3.94700 52.56800 42.35400
C  3.27800 51.33600 42.67900
C  4.24400 50.32300 42.25600
C  5.35000 50.93700 41.67400
C  1.97200 51.04200 43.34500
C  4.38200 48.83700 42.09100
O  3.63100 47.94900 42.46400
C  5.75300 48.63100 41.39600
C  5.38200 47.97200 40.18400
O  4.69700 48.45100 39.27500
O  5.87200 46.67700 40.08100
C  5.47600 45.92200 38.86400
H  10.63200 53.30900 39.25300
H  6.71300 58.10900 40.96800
H  2.31200 53.87600 42.59200
H  9.15200 49.06500 40.89500
H  10.37300 50.73100 38.88600
H  11.38500 49.82900 40.96900
H  10.83500 51.44700 41.66300
H  11.90900 51.32500 40.25900
H  7.48500 48.41000 38.99400
H  9.11300 47.87100 38.87000
H  9.42600 49.08800 36.78800
H  8.63200 50.46700 37.53200
H  11.07700 55.78800 37.61200
H  11.93500 55.06200 39.02600
H  11.85900 56.74800 38.88900
H  7.51400 59.49600 39.44800
H  9.01800 60.48100 39.72300
H  8.54500 59.37600 40.93900
H  4.04900 58.13100 40.99600
H  2.85700 56.39200 43.03200
H  5.69200 58.54200 43.26900
H  4.01500 58.30800 43.79000
H  4.44600 59.43200 42.49500
H  2.08700 55.38500 40.48800
H  2.33700 57.09800 40.17500
H  0.68600 56.50800 42.48600
H  -0.20700 55.95800 41.07600
H  0.39000 57.66000 41.16000
H  1.67400 50.05500 42.99200
H  1.21100 51.68400 42.90200
H  2.17200 51.08300 44.41600
H  6.45700 47.94900 41.87400
H  6.22400 45.16200 38.63700
H  5.55500 46.59700 38.01200
H  4.45500 45.54600 38.93400
Mg 17.40800 51.01000 26.20700
C  19.03500 49.61000 28.89600
C  14.99800 52.14100 28.26800
C  15.60300 52.04900 23.43100
C  19.71400 49.51100 24.07900
N  17.00100 50.75500 28.34600
C  17.87800 50.28400 29.26800
C  17.38300 50.71800 30.62900
C  15.99000 51.27900 30.34900
C  15.99500 51.42200 28.92900
C  14.81300 50.53600 30.99400
C  18.46500 51.73300 31.27100
C  18.18900 52.28100 32.69800
H  17.28800 51.39300 33.60000
N  15.68000 52.09000 25.93000
C  14.82900 52.38900 26.92700
C  13.71000 53.21700 26.38100
C  13.86800 53.15200 24.96600
C  15.11400 52.41900 24.72700
C  12.58800 53.79800 27.20900
C  12.79600 53.68000 23.87500
O  12.96900 53.63300 22.64200
C  11.55100 54.28100 24.33800
N  17.58200 50.89100 24.05400
C  16.73100 51.33100 23.16500
C  17.17600 51.10800 21.74100
C  18.57300 50.34900 21.96200
C  18.64800 50.25700 23.49900
C  16.25600 50.25300 20.87700
C  19.83700 51.07100 21.33200
C  20.70200 52.03700 22.15600
N  19.07700 49.82700 26.40200
C  19.93100 49.28300 25.44800
C  20.94100 48.49300 26.05900
C  20.66300 48.57900 27.45800
C  19.50800 49.40400 27.58100
C  21.89900 47.63400 25.31600
C  21.01600 48.16300 28.79300
O  21.82000 47.37100 29.22200
C  20.08500 48.95200 29.75700
C  19.52200 48.12600 30.77800
O  18.62300 47.28000 30.70800
O  20.03400 48.44500 31.94700
C  19.58500 47.71700 33.09600
H  14.25900 52.51000 28.98200
H  14.95400 52.24000 22.57400
H  20.51500 49.09000 23.46800
H  17.26500 49.79500 31.19700
H  16.01900 52.33800 30.60700
H  14.97900 50.47200 32.06900
H  14.65700 49.52500 30.61900
H  13.87600 51.09300 30.97300
H  18.44700 52.58500 30.59100
H  19.46700 51.33900 31.10400
H  17.90700 53.31600 32.50400
H  19.16900 52.31500 33.17300
H  12.66200 53.66300 28.28800
H  11.58600 53.44700 26.96500
H  12.65600 54.84500 26.91400
H  11.85700 55.06200 25.03300
H  11.02200 53.54800 24.94600
H  10.95200 54.59500 23.48300
H  17.33400 52.08200 21.27700
H  18.48700 49.30700 21.65400
H  16.78400 49.60100 20.18100
H  15.51500 50.90400 20.41300
H  15.92200 49.56500 21.65300
H  19.38700 51.54000 20.45600
H  20.57300 50.36800 20.94200
H  20.99500 52.87900 21.53000
H  21.51000 51.51500 22.66900
H  20.11500 52.55100 22.91800
H  21.48700 47.04300 24.49700
H  22.44000 46.88100 25.89000
H  22.51600 48.43800 24.91500
H  20.58900 49.74300 30.31100
H  19.79500 46.65800 32.94500
H  18.52000 47.78300 33.31600
H  20.11700 48.07100 33.97900

