158

Mg 24.76300 -6.67400 45.86800
C  26.83600 -4.12500 44.32500
C  22.25800 -5.58300 43.82400
C  23.26200 -9.49100 46.41200
C  27.63000 -7.71600 47.59100
N  24.64200 -5.05900 44.22200
C  25.56700 -4.13300 43.75200
C  24.84400 -3.06200 42.86000
C  23.35100 -3.49800 42.90700
C  23.40700 -4.77900 43.72400
C  22.29900 -2.46700 43.50900
C  25.44500 -3.02500 41.47200
C  25.69800 -1.63800 40.76600
H  25.06700 -1.33000 39.38300
N  22.95800 -7.42700 45.35300
C  22.06500 -6.80900 44.50200
C  20.94700 -7.64100 44.27200
C  21.19200 -8.78100 45.05100
C  22.48600 -8.59300 45.64100
C  19.73500 -7.29200 43.51900
C  20.25800 -9.99300 45.13400
O  19.08200 -9.94300 44.70600
C  20.72700 -11.18300 45.74400
N  25.41700 -8.42900 46.75800
C  24.54500 -9.44500 46.97100
C  25.31100 -10.62500 47.66200
C  26.57800 -9.95700 48.22600
C  26.58800 -8.65200 47.47100
C  24.52000 -11.47800 48.68000
C  27.92000 -10.84500 48.09300
C  29.11800 -10.69900 49.10300
N  26.85100 -6.01200 46.09200
C  27.79200 -6.54800 46.78300
C  29.02400 -5.70600 46.61600
C  28.65000 -4.70800 45.64100
C  27.31500 -5.00100 45.31800
C  30.31700 -5.78100 47.38700
C  29.16300 -3.62600 44.87600
O  30.33000 -3.25200 44.72300
C  27.99300 -3.20300 43.92900
C  27.61600 -1.79000 44.25100
O  27.22400 -1.29500 45.34700
O  27.87300 -0.99300 43.14400
C  27.57600 0.47900 43.11100
H  21.42300 -5.18200 43.24600
H  22.87500 -10.47600 46.68400
H  28.49500 -8.10500 48.13200
H  24.96800 -2.05700 43.26400
H  22.96600 -3.74100 41.91700
H  22.66200 -1.46100 43.71500
H  21.84000 -2.73100 44.46200
H  21.50700 -2.47100 42.76000
H  24.82000 -3.48600 40.70800
H  26.33200 -3.65000 41.57600
H  26.76700 -1.62600 40.55400
H  25.39900 -0.77200 41.35700
H  19.01900 -8.09300 43.33600
H  20.03300 -6.79300 42.59700
H  19.14300 -6.56000 44.06900
H  19.90600 -11.88500 45.88800
H  21.05100 -10.82200 46.72000
H  21.53800 -11.63300 45.17100
H  25.54500 -11.23200 46.78700
H  26.46000 -9.76100 49.29100
H  23.46300 -11.21200 48.66600
H  24.85600 -11.19200 49.67700
H  24.57100 -12.55300 48.50800
H  28.36100 -10.64900 47.11600
H  27.57800 -11.88000 48.06400
H  29.46900 -11.60000 49.60600
H  28.93400 -9.98000 49.90200
H  29.98100 -10.26900 48.59500
H  30.90300 -4.92200 47.06000
H  30.81900 -6.70000 47.08300
H  30.11300 -5.73600 48.45600
H  28.17000 -3.39100 42.87000
H  26.96900 0.62900 42.21800
H  28.49200 1.03200 42.90600
H  27.03400 0.74400 44.02000
Mg 0.79100 43.96700 25.47500
C  2.58300 43.93800 28.50000
C  -2.10600 43.46700 27.31600
C  -0.87300 43.70600 22.53400
C  3.75400 44.61100 23.75300
N  0.29700 43.56400 27.63000
C  1.21700 43.72700 28.70700
C  0.57400 43.40300 30.03300
C  -0.91200 43.12500 29.57000
C  -0.95700 43.42900 28.09100
C  -1.43300 41.61700 29.77500
C  0.64300 44.65500 31.03500
C  1.33900 44.48900 32.40500
H  1.00000 43.25900 33.19000
N  -1.16400 43.62000 24.99300
C  -2.23200 43.61100 25.87900
C  -3.47900 43.37400 25.12900
C  -3.14400 43.31600 23.75100
C  -1.70000 43.57800 23.71400
C  -4.87600 43.38300 25.67900
C  -4.04300 43.21800 22.54900
O  -3.58400 43.07200 21.42800
C  -5.56900 43.25800 22.64400
N  1.34400 44.15200 23.45300
C  0.50000 43.90600 22.38200
C  1.29300 43.93700 21.04000
C  2.58500 44.72800 21.51500
C  2.60700 44.50200 23.01400
C  1.53200 42.56400 20.61800
C  2.61300 46.18900 21.03900
C  2.85400 46.29300 19.52300
N  2.72000 44.19000 25.96700
C  3.84000 44.42500 25.19800
C  5.09300 44.51800 25.93400
C  4.65200 44.33400 27.28500
C  3.21700 44.14000 27.21700
C  6.44900 44.76700 25.50700
C  5.06400 44.21800 28.71500
O  6.20400 44.16100 29.22400
C  3.72600 44.10200 29.51700
C  3.94800 42.88100 30.34700
O  3.60400 41.71900 30.09800
O  4.57500 43.29600 31.52200
C  4.97200 42.25500 32.55200
H  -3.00500 43.25500 27.89900
H  -1.33500 43.71900 21.54500
H  4.66100 44.79800 23.17400
H  1.05300 42.51800 30.45400
H  -1.67700 43.67500 30.11800
H  -0.64900 41.08900 30.31800
H  -1.72000 41.08500 28.86800
H  -2.32700 41.82600 30.36200
H  -0.35900 44.98700 31.30500
H  1.20300 45.39000 30.45600
H  1.01900 45.35900 32.97900
H  2.42400 44.57200 32.34100
H  -5.52500 44.17900 25.31600
H  -4.97100 43.22400 26.75300
H  -5.35500 42.46200 25.34400
H  -6.03400 42.34900 23.02600
H  -6.01900 43.32600 21.65400
H  -5.78900 44.09100 23.31200
H  0.78400 44.48300 20.24600
H  3.54300 44.25600 21.29600
H  2.26100 42.53100 19.80900
H  0.61200 42.11500 20.24100
H  1.88700 41.87800 21.38600
H  3.51900 46.53000 21.54000
H  1.72000 46.75400 21.30300
H  3.83900 46.70500 19.30300
H  2.23100 47.03700 19.02800
H  2.78700 45.28000 19.12800
H  7.12800 43.99600 25.87100
H  6.71600 45.76300 25.85900
H  6.48700 44.91800 24.42800
H  3.58700 45.03200 30.06900
H  4.55700 42.58200 33.50500
H  6.06100 42.27500 32.51800
H  4.58100 41.26500 32.31900

