158

Mg 48.75100 45.31500 42.62800
C  45.34200 45.52700 42.13700
C  48.65600 42.00700 42.35200
C  52.15700 45.45700 42.70400
C  48.74100 48.84100 42.91900
N  47.23600 43.96700 42.20400
C  45.88700 44.21600 42.10500
C  45.10300 42.94400 41.70800
C  46.07500 41.86600 42.22200
C  47.42600 42.64100 42.24600
C  45.75400 41.00200 43.49100
C  44.56800 42.84200 40.23800
C  45.33800 43.48700 39.15400
H  45.19100 43.06000 37.60500
N  50.19800 43.90100 42.58600
C  49.97400 42.57200 42.44300
C  51.28800 41.89600 42.47100
C  52.29400 42.88100 42.41800
C  51.58600 44.15500 42.64900
C  51.50500 40.35600 42.39900
C  53.82100 42.61900 42.38700
O  54.18600 41.43600 42.35400
C  54.89300 43.72800 42.46300
N  50.27800 46.95300 42.47600
C  51.59500 46.72400 42.61100
C  52.44400 48.00700 42.85000
C  51.26100 49.10100 42.88200
C  49.99100 48.25800 42.77800
C  53.53900 47.96500 43.99600
C  51.22100 50.17300 41.69000
C  51.35800 51.61600 42.18200
N  47.35000 46.94000 42.67800
C  47.45400 48.26100 42.77900
C  46.21600 48.87600 42.58500
C  45.30500 47.86700 42.33600
C  46.04200 46.69600 42.44200
C  46.01300 50.35700 42.54800
C  43.95400 47.56500 42.04000
O  42.99900 48.25000 41.84300
C  43.87900 45.99900 41.86700
C  42.82400 45.35700 42.76200
O  42.07000 44.46300 42.39800
O  42.75500 46.05500 43.91500
C  41.55600 45.87500 44.72800
H  48.70600 40.91600 42.34600
H  53.22700 45.65600 42.79500
H  48.83600 49.90900 43.12600
H  44.21600 42.92500 42.34100
H  46.08700 41.17300 41.38100
H  44.91200 41.55900 43.90300
H  46.58100 40.84000 44.18200
H  45.31800 40.04400 43.20700
H  43.58600 43.30400 40.34600
H  44.44000 41.77900 40.03600
H  46.35700 43.26400 39.46900
H  45.25000 44.57300 39.13000
H  51.70900 40.00200 41.38800
H  50.55500 39.84600 42.55800
H  52.25600 39.93700 43.06900
H  54.64600 44.14800 43.43800
H  54.76900 44.35200 41.57800
H  55.88700 43.28300 42.51400
H  52.93500 48.14500 41.88700
H  51.27600 49.55300 43.87300
H  54.52500 48.11700 43.55700
H  53.47100 46.96100 44.41500
H  53.36300 48.77000 44.70900
H  50.32600 50.04700 41.08100
H  52.15100 49.98000 41.15500
H  50.87800 52.36700 41.55500
H  52.39000 51.91200 42.37100
H  50.89400 51.75600 43.15800
H  46.87400 50.83300 42.07900
H  46.11800 50.58400 43.60900
H  45.02100 50.64300 42.20000
H  43.49800 45.72400 40.88300
H  41.14200 46.86900 44.89400
H  41.95600 45.45700 45.65200
H  40.72400 45.27900 44.35500
Mg 10.48700 47.25900 26.25900
C  8.45000 47.79400 29.04800
C  13.06800 48.83700 27.95500
C  12.38400 46.89600 23.49700
C  7.55100 46.62300 24.30600
N  10.69400 48.28000 28.24700
C  9.79800 48.07700 29.28000
C  10.46200 48.56800 30.60200
C  11.57000 49.46600 30.04600
C  11.85600 48.85000 28.67000
C  11.28700 50.97500 29.96600
C  10.91600 47.45600 31.49600
C  11.09900 47.70500 33.02900
H  10.77000 46.50300 33.98900
N  12.49900 47.65700 25.85900
C  13.38000 48.29900 26.70300
C  14.74800 48.28500 26.04100
C  14.53700 47.65200 24.77500
C  13.09300 47.37700 24.61400
C  15.92600 48.84100 26.68800
C  15.51900 47.16400 23.79400
O  15.28600 46.41900 22.81100
C  16.88300 47.64400 23.93500
N  9.98500 46.94600 24.11900
C  11.01200 46.63600 23.26000
C  10.40400 46.11000 21.95100
C  8.96200 45.82300 22.34000
C  8.79800 46.52900 23.65300
C  10.54000 47.03600 20.70100
C  8.53800 44.35100 22.37300
C  9.26800 43.51700 23.36100
N  8.34800 47.18300 26.59600
C  7.32600 46.95000 25.75200
C  6.08300 47.16400 26.45500
C  6.47800 47.41800 27.84300
C  7.88900 47.47600 27.78500
C  4.59300 47.12600 25.95100
C  6.07500 47.61000 29.19200
O  4.93800 47.68400 29.62800
C  7.35100 47.77600 30.07000
C  7.45400 46.56700 30.92900
O  7.94400 45.47600 30.60000
O  6.94200 46.82200 32.14700
C  6.85400 45.71200 33.13200
H  13.85900 49.31000 28.54000
H  12.96600 46.59700 22.62300
H  6.67000 46.29300 23.75100
H  9.81900 49.29600 31.09700
H  12.54700 49.32600 30.50900
H  10.23100 51.22000 30.07900
H  11.51500 51.46800 29.02100
H  11.69100 51.49800 30.83300
H  11.84700 47.11300 31.04300
H  10.22300 46.62700 31.34900
H  10.39700 48.49800 33.28700
H  12.12300 47.94000 33.32200
H  15.77200 49.28500 27.67100
H  16.33000 49.61600 26.03600
H  16.69100 48.07900 26.83700
H  16.78500 48.72800 23.98400
H  17.52400 47.26600 23.13800
H  17.21800 47.25600 24.89700
H  10.96600 45.19200 21.78300
H  8.18200 46.25100 21.71100
H  10.35700 48.10000 20.84600
H  9.86100 46.70700 19.91400
H  11.55400 47.05200 20.30100
H  8.54900 43.91900 21.37200
H  7.46100 44.33300 22.54000
H  8.75600 43.30300 24.29800
H  10.24300 43.91200 23.64700
H  9.59000 42.62400 22.82500
H  4.42200 48.07000 25.43400
H  3.94900 46.97800 26.81800
H  4.47100 46.23600 25.33300
H  7.27500 48.61100 30.76600
H  7.57100 44.91800 32.92300
H  5.84000 45.32400 33.23300
H  7.12400 45.98300 34.15200

