158

Mg -1.19200 18.17200 27.52400
C  -1.76300 15.80300 30.05800
C  -1.60900 20.68500 30.02600
C  -1.42900 20.46700 25.13400
C  -1.32000 15.61500 25.11900
N  -1.64500 18.22700 29.81000
C  -1.72900 17.10500 30.58200
C  -1.81500 17.54200 32.06600
C  -2.05200 19.08900 31.99100
C  -1.67100 19.36500 30.53900
C  -3.45400 19.61800 32.42500
C  -0.58200 17.03900 32.88700
C  -0.29200 17.68400 34.24000
H  0.41100 16.78200 35.33900
N  -1.36600 20.30400 27.61400
C  -1.51300 21.17700 28.67000
C  -1.60800 22.50300 28.18300
C  -1.79900 22.39700 26.76600
C  -1.54600 21.01100 26.44900
C  -1.65900 23.70000 29.07100
C  -2.23400 23.38400 25.72700
O  -2.47100 23.19100 24.53600
C  -2.45000 24.80400 26.20200
N  -1.42700 18.03500 25.50100
C  -1.35900 19.16300 24.73500
C  -1.21500 18.78300 23.28800
C  -0.96800 17.25600 23.31200
C  -1.23200 16.94000 24.74700
C  -2.51700 19.13500 22.46100
C  0.49100 16.83000 22.95300
C  1.70500 17.33400 23.87300
N  -1.35400 16.07400 27.47800
C  -1.54500 15.12800 26.44200
C  -1.67100 13.83700 26.99800
C  -1.81700 14.00400 28.40700
C  -1.68600 15.42100 28.65000
C  -1.81100 12.57800 26.21200
C  -1.99900 13.36800 29.71300
O  -2.21500 12.20100 30.00200
C  -1.79200 14.47900 30.82100
C  -0.62600 14.03100 31.65200
O  0.52000 14.17900 31.26500
O  -1.13100 13.43200 32.79000
C  -0.16100 12.53800 33.53700
H  -1.56400 21.50600 30.74500
H  -1.35700 21.13100 24.26900
H  -1.26300 14.84100 24.35100
H  -2.69100 17.07900 32.51900
H  -1.34000 19.54100 32.68100
H  -3.37400 20.42000 33.15900
H  -4.06400 18.87700 32.94200
H  -4.02400 20.07400 31.61600
H  0.29100 16.99200 32.23700
H  -0.77400 16.02200 33.22800
H  -1.25100 18.07800 34.57600
H  0.20000 18.64400 34.08400
H  -2.67800 24.05600 29.22500
H  -1.15400 24.49700 28.52500
H  -1.25800 23.46500 30.05600
H  -3.01100 25.38200 25.46800
H  -1.47000 25.23000 26.41500
H  -2.99800 24.68600 27.13700
H  -0.32200 19.24400 22.86700
H  -1.65100 16.70500 22.66500
H  -2.22600 19.85200 21.69200
H  -3.22000 19.54800 23.18500
H  -2.97800 18.34800 21.86400
H  0.62800 17.12400 21.91200
H  0.50700 15.75200 23.11300
H  1.40200 17.87000 24.77200
H  2.33700 17.97200 23.25500
H  2.38600 16.58100 24.26900
H  -1.68400 12.46400 25.13600
H  -2.87500 12.35300 26.28500
H  -1.35800 11.69700 26.66800
H  -2.72600 14.52900 31.38100
H  0.38500 11.80400 32.94400
H  -0.74200 11.93500 34.23500
H  0.51800 13.13100 34.14900
Mg 16.28900 52.34100 25.06600
C  18.18400 51.20100 27.85400
C  13.93900 53.39200 27.38500
C  14.75900 53.44900 22.55300
C  18.86800 51.00500 23.04100
N  16.02200 52.12600 27.38700
C  16.97800 51.81700 28.29600
C  16.52100 52.18500 29.72500
C  15.03500 52.56300 29.49300
C  15.04300 52.85200 28.00900
C  14.14400 51.36800 29.86900
C  17.39100 53.34800 30.37800
C  17.17600 53.53100 31.85900
H  16.23200 52.57100 32.57800
N  14.54300 53.25600 24.93100
C  13.63200 53.57100 25.98800
C  12.46800 54.29400 25.33800
C  12.70400 54.38400 23.91600
C  14.04100 53.71800 23.74800
C  11.36400 54.93000 26.08200
C  11.84700 55.00100 22.88600
O  12.23700 55.04600 21.75300
C  10.56300 55.69200 23.13400
N  16.69000 52.25100 23.02500
C  15.96900 52.87900 22.19200
C  16.61300 53.01800 20.84100
C  17.86100 52.14000 20.92800
C  17.89000 51.76900 22.39700
C  15.67900 52.57600 19.66400
C  19.13000 52.76500 20.32800
C  20.23600 51.86500 19.65200
N  17.98600 51.16600 25.27100
C  18.91900 50.75000 24.41900
C  20.04300 50.02800 25.08900
C  19.79500 50.21100 26.43800
C  18.52400 50.96400 26.48000
C  21.09200 49.13900 24.50600
C  20.32500 49.87600 27.67700
O  21.33900 49.29300 27.99100
C  19.43900 50.66700 28.67600
C  18.96700 49.71900 29.70300
O  18.49000 48.57400 29.41900
O  19.10300 50.18800 30.94100
C  18.71000 49.24700 32.02900
H  13.12200 53.68800 28.04600
H  14.32000 53.99300 21.71400
H  19.58900 50.54700 22.36100
H  16.74500 51.26900 30.27200
H  14.64400 53.35300 30.13400
H  13.11300 51.69500 30.00900
H  14.53800 50.86900 30.75400
H  14.10200 50.62800 29.06900
H  17.02300 54.26900 29.92600
H  18.46900 53.26700 30.24000
H  16.86100 54.56700 31.98000
H  18.13400 53.37500 32.35400
H  11.21700 55.97000 25.78800
H  11.63600 55.02000 27.13400
H  10.40800 54.41300 26.00000
H  9.93600 55.18200 23.86500
H  10.09900 55.76100 22.14900
H  10.87900 56.68500 23.45400
H  17.05500 54.01300 20.78100
H  17.69300 51.24200 20.33400
H  16.29400 52.38800 18.78400
H  15.09300 53.49300 19.59900
H  15.09200 51.68700 19.89400
H  19.57900 53.34200 21.13600
H  18.77000 53.48700 19.59400
H  21.11900 52.34600 20.07400
H  20.23100 51.85000 18.56200
H  20.25300 50.83200 20.00000
H  20.81500 48.58800 23.60600
H  21.23600 48.37500 25.27000
H  22.02300 49.69600 24.40800
H  20.05200 51.43700 29.14400
H  19.35500 48.39600 32.24500
H  17.66800 48.96500 31.87600
H  18.65300 49.99500 32.82000

