158

Mg 34.90300 1.06800 29.34200
C  33.01000 2.21400 32.05600
C  37.77100 1.63100 31.49400
C  37.04300 0.45700 26.69900
C  32.25900 1.02600 27.38200
N  35.31500 1.63300 31.60200
C  34.35200 2.00700 32.48800
C  34.91700 2.28500 33.85800
C  36.44300 2.45600 33.58000
C  36.51700 1.95400 32.10300
C  36.99600 3.87900 33.78600
C  34.50500 1.33200 35.01600
C  33.86100 1.97100 36.31300
H  34.35800 3.30900 36.86300
N  37.05200 1.03400 29.13200
C  38.00200 1.23400 30.15600
C  39.32600 0.95800 29.58800
C  39.11300 0.53200 28.22200
C  37.68600 0.67200 27.92400
C  40.49400 1.00800 30.42400
C  40.11200 0.07700 27.17900
O  39.86200 -0.25200 26.02400
C  41.63700 -0.12700 27.51600
N  34.63800 0.82700 27.35300
C  35.61100 0.42500 26.51700
C  35.07000 0.23800 25.12800
C  33.51400 0.14900 25.36500
C  33.40700 0.65400 26.77500
C  35.52600 1.35600 24.12700
C  32.88400 -1.24000 25.11300
C  33.47300 -2.38500 25.99000
N  32.95700 1.52600 29.55700
C  31.92000 1.49300 28.68600
C  30.71800 1.83600 29.30400
C  31.06700 2.12800 30.58700
C  32.45900 1.94400 30.76100
C  29.34900 1.82400 28.70100
C  30.47300 2.47900 31.87600
O  29.32400 2.73600 32.24900
C  31.78600 2.68500 32.83400
C  31.85100 4.11300 33.29900
O  32.24000 5.06500 32.60500
O  31.42100 4.19300 34.62300
C  31.38000 5.60100 35.09400
H  38.62700 1.69200 32.16900
H  37.59400 0.22800 25.78400
H  31.45600 1.01800 26.64100
H  34.39900 3.22200 34.06200
H  36.98100 1.77000 34.23400
H  36.34300 4.53400 34.36300
H  37.37500 4.38700 32.89900
H  37.90500 3.75700 34.37500
H  35.39000 0.76600 35.30600
H  33.80100 0.65700 34.52800
H  33.68600 1.16200 37.02200
H  32.86200 2.20600 35.94500
H  40.27300 0.61600 31.41800
H  40.71300 2.06300 30.58900
H  41.40000 0.47800 30.13200
H  42.07500 0.84000 27.76300
H  42.16900 -0.66100 26.72800
H  41.73100 -0.76600 28.39400
H  35.42300 -0.71300 24.73000
H  32.85900 0.79400 24.77900
H  36.33400 1.99300 24.48600
H  34.70300 1.95300 23.73400
H  35.88800 0.83800 23.23900
H  32.81400 -1.39200 24.03600
H  31.86300 -1.29500 25.49200
H  34.51400 -2.15600 26.21600
H  33.48700 -3.30400 25.40400
H  32.93000 -2.53200 26.92500
H  29.25100 1.02300 27.96800
H  29.00400 2.79800 28.35600
H  28.65100 1.59200 29.50600
H  31.63700 2.12000 33.75500
H  31.11800 5.59900 36.15200
H  30.72400 6.21500 34.47700
H  32.42100 5.92100 35.05400
Mg 46.43100 44.52900 43.32900
C  42.99100 43.66900 42.98200
C  47.26900 41.40900 42.23800
C  49.54100 45.55500 42.88400
C  45.38300 47.94500 43.87200
N  45.20600 42.76400 43.00600
C  43.88000 42.68100 42.80700
C  43.52600 41.27700 42.26600
C  44.87700 40.50400 42.36400
C  45.89200 41.56700 42.56400
C  44.95900 39.34800 43.34100
C  42.79700 41.28000 40.96300
C  43.38800 42.10800 39.77600
H  43.20500 41.39200 38.39000
N  48.13200 43.54900 42.72300
C  48.30600 42.28500 42.30000
C  49.67800 42.03000 42.06900
C  50.38700 43.24900 42.24600
C  49.38600 44.21900 42.63000
C  50.24800 40.65600 41.77500
C  51.95900 43.41800 42.05600
O  52.66800 42.51400 41.70100
C  52.59800 44.75900 42.24600
N  47.28000 46.51800 43.11200
C  48.68100 46.57700 43.12400
C  49.09400 47.98900 43.65700
C  47.72500 48.79300 43.84600
C  46.71300 47.71900 43.65200
C  50.06500 48.18100 44.79400
C  47.49300 49.87400 42.79400
C  47.47300 51.34800 43.34400
N  44.55100 45.58100 43.53200
C  44.34200 46.95200 43.69300
C  42.91100 47.17000 43.86400
C  42.28400 45.93600 43.54400
C  43.36100 44.99600 43.36600
C  42.20600 48.48100 43.98500
C  41.01400 45.29300 43.21900
O  39.89600 45.80500 43.18200
C  41.49800 43.81200 42.88500
C  40.83400 42.95600 43.98200
O  39.99300 42.10800 43.67900
O  41.53100 42.97100 45.21700
C  41.32100 41.91600 46.23400
H  47.52600 40.40900 41.88300
H  50.56900 45.85400 43.10000
H  45.15300 48.98300 44.12000
H  42.95900 40.71800 43.01100
H  45.06300 39.99000 41.42100
H  44.13200 39.38000 44.05100
H  45.85800 39.43000 43.95200
H  44.94900 38.35200 42.89800
H  41.77000 41.57900 41.17500
H  42.77400 40.20900 40.76100
H  44.47000 42.21300 39.85000
H  42.91800 43.09100 39.76500
H  49.44700 39.98200 42.08100
H  51.28600 40.53600 42.08500
H  50.13600 40.57000 40.69400
H  52.08300 45.51400 41.65200
H  53.64300 44.81200 41.94000
H  52.57400 45.05600 43.29500
H  49.60900 48.39300 42.78500
H  47.70800 49.22400 44.84700
H  50.49000 47.22900 45.11200
H  49.58100 48.59900 45.67700
H  50.87700 48.87800 44.58700
H  46.49300 49.71600 42.39000
H  48.31300 49.74800 42.08700
H  48.30200 51.68500 43.96700
H  46.44200 51.49800 43.66400
H  47.62500 51.96500 42.45900
H  41.65900 48.34300 44.91700
H  41.34300 48.50100 43.32000
H  42.86400 49.34800 43.92100
H  41.09700 43.64600 41.88500
H  40.37400 41.95400 46.77300
H  42.18500 41.96600 46.89700
H  41.37800 41.06100 45.56100

