158

Mg 17.30800 -1.21600 28.29200
C  16.22700 0.90900 30.91300
C  19.15400 -2.94300 30.42400
C  18.66900 -2.71400 25.52400
C  15.73800 1.10100 26.04800
N  17.57200 -1.01400 30.46500
C  16.99500 -0.18300 31.33100
C  17.52100 -0.49700 32.71200
C  18.59800 -1.57600 32.48100
C  18.41600 -1.94300 31.00400
C  19.99100 -1.28200 32.99500
C  16.33800 -0.79400 33.67600
C  16.47900 -0.29000 35.13000
H  17.80700 0.20000 35.61800
N  18.62600 -2.68300 28.06100
C  19.33200 -3.27700 29.02300
C  20.14100 -4.38500 28.52800
C  19.88800 -4.47800 27.13100
C  19.00900 -3.21500 26.82500
C  21.02200 -5.28400 29.40500
C  20.24200 -5.52500 26.19900
O  19.87700 -5.55300 25.03700
C  21.13100 -6.73400 26.59000
N  17.25300 -0.78900 26.05600
C  17.88500 -1.61400 25.12300
C  17.38200 -1.42500 23.71100
C  16.37100 -0.19200 23.97800
C  16.37800 0.04500 25.45200
C  18.52900 -1.21800 22.67800
C  15.04600 -0.46500 23.38200
C  14.00000 -1.17100 24.21100
N  16.10700 0.57900 28.39900
C  15.58500 1.45400 27.43700
C  14.88400 2.56400 27.98400
C  15.08500 2.33500 29.42200
C  15.78900 1.19900 29.60300
C  14.16900 3.64000 27.18200
C  14.72300 2.89100 30.68500
O  14.06900 3.87400 31.01300
C  15.49000 1.97200 31.73200
C  16.36100 2.96100 32.51600
O  17.28500 3.58000 32.00900
O  15.86900 3.15800 33.82400
C  16.48300 4.07000 34.75600
H  19.76500 -3.46900 31.16100
H  19.08100 -3.32500 24.71800
H  15.19000 1.73300 25.34600
H  18.14300 0.33600 33.04100
H  18.31200 -2.45600 33.05800
H  20.21900 -1.89100 33.86900
H  20.12300 -0.23900 33.28300
H  20.71100 -1.52500 32.21400
H  16.41600 -1.87400 33.79900
H  15.39900 -0.47300 33.22400
H  16.17100 -1.17800 35.68100
H  15.78300 0.52300 35.33600
H  20.63700 -6.29200 29.25600
H  20.95100 -5.06600 30.47100
H  22.06400 -5.19300 29.09900
H  20.52800 -7.43100 27.17200
H  21.97200 -6.44600 27.22000
H  21.55800 -7.27000 25.74200
H  16.81900 -2.33200 23.49200
H  16.83300 0.68800 23.53100
H  19.44900 -1.68600 23.02800
H  18.57900 -0.14300 22.50700
H  18.22200 -1.77700 21.79400
H  15.19900 -1.25300 22.64400
H  14.68100 0.39000 22.81400
H  14.08800 -0.87100 25.25500
H  14.12900 -2.23900 24.38600
H  12.98800 -0.92900 23.88600
H  14.01500 3.31900 26.15200
H  14.76600 4.54900 27.11200
H  13.19700 3.94100 27.57200
H  14.75600 1.46100 32.35500
H  16.44400 5.10000 34.40300
H  17.52600 3.77300 34.86500
H  15.91500 4.05500 35.68600
Mg 26.37000 51.06500 25.73200
C  24.63100 52.20200 28.50100
C  28.78700 49.78200 27.79400
C  27.93400 49.97400 23.04600
C  24.01600 52.71700 23.76600
N  26.66100 51.06500 27.89700
C  25.76900 51.53600 28.85200
C  26.26000 51.21900 30.31300
C  27.70700 50.71500 29.93400
C  27.74000 50.48000 28.44600
C  28.95400 51.52800 30.34600
C  25.29400 50.15200 31.01800
C  24.79500 50.43700 32.50000
H  25.89000 50.95000 33.49200
N  28.16100 50.04900 25.44900
C  28.96700 49.62200 26.39900
C  29.96400 48.68400 25.85900
C  29.78300 48.75700 24.41300
C  28.62100 49.67400 24.22700
C  31.10300 48.03300 26.59300
C  30.52200 48.06300 23.34500
O  30.13700 48.14000 22.16600
C  31.69700 47.20800 23.68400
N  26.08600 51.49800 23.66400
C  26.78600 50.70400 22.75300
C  26.04000 50.63600 21.39000
C  24.83000 51.60300 21.57100
C  24.93200 51.94700 23.08700
C  26.91300 50.91200 20.15900
C  23.52100 50.87800 21.40400
C  22.67400 51.26100 20.16300
N  24.61600 52.29200 26.05700
C  23.74200 52.84700 25.09100
C  22.74000 53.64900 25.76100
C  23.04900 53.39600 27.14000
C  24.18400 52.59800 27.24900
C  21.67900 54.50300 25.16200
C  22.59300 53.50700 28.50700
O  21.53400 53.98400 28.89300
C  23.64600 52.91900 29.43400
C  24.26300 53.96000 30.38500
O  25.21300 54.65000 30.12100
O  23.69900 53.98900 31.60700
C  24.45700 54.83900 32.56400
H  29.44200 49.24800 28.48600
H  28.24100 49.39700 22.17100
H  23.27700 53.13000 23.07600
H  26.23500 52.07800 30.98300
H  27.91900 49.74500 30.38500
H  28.61200 52.17300 31.15700
H  29.36400 52.01500 29.46200
H  29.72300 50.84300 30.70300
H  25.71100 49.14900 30.93000
H  24.40100 50.08000 30.39700
H  24.28300 49.55500 32.88400
H  24.00800 51.19100 32.47700
H  31.10500 46.94600 26.51200
H  31.17600 48.29500 27.64800
H  32.01600 48.43800 26.15600
H  32.45600 47.93100 23.98600
H  32.19100 46.60300 22.92400
H  31.42000 46.49200 24.45700
H  25.76700 49.58600 21.28900
H  24.90800 52.49800 20.95400
H  27.89900 51.20900 20.51800
H  26.61300 51.70600 19.47600
H  27.04500 49.96500 19.63600
H  22.93500 50.84100 22.32300
H  23.58300 49.83500 21.09400
H  21.74000 51.58200 20.62500
H  22.50100 50.45300 19.45200
H  23.08000 52.14900 19.67900
H  22.01100 54.71100 24.14500
H  21.45500 55.38700 25.75900
H  20.78900 53.90200 24.97800
H  22.99100 52.24500 29.98500
H  25.52700 54.65000 32.47100
H  24.21100 54.61400 33.60200
H  24.23200 55.89000 32.37800

