158

Mg 25.37900 -7.44400 47.92800
C  27.72900 -4.98800 46.92700
C  23.32600 -6.50400 45.28900
C  23.57700 -10.23200 48.36000
C  27.81700 -8.74600 50.02400
N  25.59000 -6.07700 46.11500
C  26.61200 -5.07800 45.97900
C  26.32600 -4.05500 44.90200
C  24.82800 -4.45000 44.60400
C  24.56700 -5.80600 45.28200
C  23.76500 -3.31500 45.01100
C  27.34300 -4.34200 43.80900
C  28.23300 -3.17700 43.24900
H  27.80600 -2.62200 41.83900
N  23.61400 -8.23300 46.98600
C  22.90400 -7.65900 46.00800
C  21.75800 -8.48600 45.76800
C  21.75000 -9.50500 46.76900
C  22.98200 -9.39300 47.43600
C  20.71000 -8.12200 44.69300
C  20.56700 -10.57200 46.88700
O  19.50900 -10.42800 46.33400
C  20.56500 -11.73200 47.92400
N  25.52900 -9.16000 49.16500
C  24.64700 -10.17100 49.14700
C  25.13200 -11.32600 50.04400
C  26.50700 -10.87700 50.63700
C  26.65900 -9.47700 49.97200
C  24.06300 -11.58900 51.15100
C  27.67200 -11.88700 50.31800
C  28.56200 -12.14300 51.52600
N  27.32100 -6.79500 48.66200
C  28.18000 -7.51300 49.46300
C  29.48800 -6.85000 49.36600
C  29.33100 -5.72400 48.60500
C  28.00800 -5.81400 48.04300
C  30.72900 -7.35500 49.98900
C  29.96700 -4.55100 48.00800
O  31.10300 -4.10200 48.17600
C  28.93600 -3.94200 47.00600
C  28.55200 -2.55500 47.40100
O  27.83800 -2.26900 48.30100
O  28.93900 -1.72200 46.37800
C  28.35900 -0.38600 46.38600
H  22.61300 -6.12100 44.55600
H  22.95300 -11.10700 48.55900
H  28.59900 -9.25000 50.59600
H  26.56100 -3.09400 45.35800
H  24.73500 -4.64200 43.53500
H  24.24100 -2.41300 45.39800
H  23.12800 -3.72200 45.79600
H  23.25600 -2.96700 44.11200
H  26.80900 -4.71000 42.93300
H  28.01600 -5.15600 44.07800
H  29.20100 -3.65900 43.11300
H  28.31100 -2.44900 44.05700
H  20.30100 -9.01000 44.20900
H  21.10700 -7.41700 43.96300
H  19.91600 -7.58300 45.21100
H  20.74000 -11.35600 48.93200
H  21.36100 -12.40500 47.60400
H  19.56500 -12.16500 47.95000
H  25.22000 -12.18500 49.37900
H  26.48600 -10.68200 51.70900
H  23.45400 -12.45300 50.88500
H  23.32100 -10.79500 51.06700
H  24.62300 -11.81300 52.05900
H  28.23100 -11.54500 49.44700
H  27.31900 -12.86200 49.98100
H  28.96600 -13.15000 51.42500
H  28.00700 -11.92700 52.43900
H  29.41300 -11.46700 51.43200
H  31.35400 -6.48600 50.19300
H  31.28500 -7.90900 49.23300
H  30.57300 -7.90600 50.91600
H  29.32100 -3.91500 45.98600
H  28.52000 -0.06100 45.35800
H  29.01800 0.28600 46.93400
H  27.31300 -0.27200 46.67200
Mg 44.03700 3.31300 47.56600
C  42.15800 6.28900 47.43400
C  41.03600 1.55300 47.62900
C  45.85300 0.56800 47.32800
C  46.92500 5.30300 47.00000
N  41.89100 3.90400 47.35700
C  41.34200 5.16000 47.49100
C  39.78100 5.11300 47.46900
C  39.53200 3.55000 47.63600
C  40.92600 2.96400 47.70600
C  38.63300 3.08100 48.77000
C  39.05900 5.69300 46.31200
C  39.62100 5.14200 44.98400
H  40.05000 6.32200 43.99800
N  43.49400 1.27500 47.45800
C  42.19200 0.75600 47.63100
C  42.31000 -0.67300 47.49300
C  43.65900 -1.02500 47.25500
C  44.42500 0.25100 47.33300
C  41.13000 -1.55300 47.67200
C  44.17700 -2.42000 46.98600
O  43.39300 -3.40600 47.01700
C  45.62200 -2.60600 46.65900
N  46.03800 3.02200 47.33900
C  46.56900 1.76000 47.27300
C  48.13700 1.70300 47.07300
C  48.41400 3.21100 46.90700
C  47.01600 3.91400 47.11600
C  48.83700 0.96300 48.23100
C  49.12600 3.49300 45.48100
C  50.63300 3.77000 45.51000
N  44.51000 5.33600 47.37400
C  45.70100 5.98300 47.11500
C  45.47700 7.38600 47.17100
C  44.12300 7.54200 47.28400
C  43.53800 6.28500 47.37200
C  46.53800 8.41900 46.96100
C  43.04000 8.54800 47.31000
O  43.06400 9.77900 47.34300
C  41.72100 7.74200 47.52800
C  41.11700 8.15300 48.87700
O  41.62900 8.00600 49.99800
O  39.79500 8.54200 48.66000
C  39.01100 8.69000 49.85600
H  40.10500 0.98800 47.71400
H  46.49600 -0.31200 47.28200
H  47.87200 5.80700 46.79800
H  39.36000 5.54600 48.37700
H  39.03300 3.14500 46.75600
H  39.36700 2.93800 49.56300
H  38.10200 2.13300 48.69300
H  37.98700 3.89900 49.08700
H  39.20000 6.77300 46.35600
H  38.00300 5.49000 46.49400
H  38.95500 4.42000 44.51200
H  40.48600 4.48200 45.06400
H  40.97600 -2.14500 46.77000
H  40.16700 -1.05400 47.77900
H  41.26100 -2.28100 48.47300
H  46.21400 -2.44200 47.55900
H  45.77700 -1.82300 45.91700
H  45.74000 -3.58600 46.19800
H  48.34000 1.21400 46.12100
H  49.14700 3.60100 47.61400
H  49.70700 1.54200 48.54100
H  49.15200 -0.04400 47.95700
H  48.14900 0.82100 49.06500
H  48.65000 4.39700 45.10100
H  48.96500 2.67900 44.77400
H  51.05300 3.30300 46.40100
H  50.85500 4.83700 45.46800
H  51.02100 3.22600 44.64900
H  47.38800 8.25800 47.62400
H  45.99500 9.29400 47.31800
H  46.91100 8.48200 45.93900
H  41.05700 7.99000 46.70100
H  37.98000 8.96400 49.63200
H  39.33500 9.40700 50.61000
H  38.99200 7.72500 50.36100

