158

Mg 7.26500 3.13300 28.13200
C  8.55600 1.64400 31.03300
C  5.22500 5.09000 30.04900
C  5.66300 4.33500 25.27100
C  8.92700 0.81500 26.14300
N  6.96000 3.28000 30.24200
C  7.65700 2.70500 31.32400
C  7.51100 3.44200 32.64800
C  6.32700 4.44800 32.23300
C  6.12800 4.23500 30.73800
C  5.12800 4.19800 33.14600
C  8.85700 4.26200 33.01000
C  8.79300 4.92200 34.37900
H  9.58700 4.23700 35.49000
N  5.73100 4.62500 27.73800
C  4.94200 5.30600 28.66500
C  4.09300 6.23500 28.00100
C  4.30000 6.06600 26.61500
C  5.28300 4.93900 26.48800
C  3.21300 7.23500 28.74200
C  3.79900 6.84000 25.43600
O  4.23500 6.77300 24.29700
C  2.76100 7.83000 25.73900
N  7.07400 2.45100 26.07500
C  6.46000 3.18900 25.09300
C  6.64400 2.57900 23.76400
C  7.66500 1.39400 23.91300
C  7.91800 1.58500 25.46900
C  5.33100 2.15700 23.01200
C  8.99700 1.33400 23.19900
C  9.37000 -0.07600 22.67500
N  8.53600 1.52000 28.46300
C  9.06800 0.61900 27.57400
C  9.92900 -0.31000 28.33600
C  9.81400 0.11900 29.66300
C  8.90500 1.17000 29.67600
C  10.75100 -1.55100 27.79000
C  10.20900 -0.12700 31.00700
O  10.94600 -0.98000 31.52100
C  9.51300 0.95000 31.94900
C  8.84200 0.19700 32.98800
O  7.98500 -0.67900 32.84800
O  9.39100 0.56500 34.20300
C  8.60900 0.17700 35.35200
H  4.65800 5.72300 30.73500
H  5.05900 4.69400 24.43500
H  9.44200 0.17100 25.42700
H  7.24800 2.76600 33.46200
H  6.63600 5.46000 32.49400
H  5.37600 4.15700 34.20700
H  4.66800 3.24500 32.88500
H  4.46800 5.02900 32.89800
H  9.02800 4.92200 32.16000
H  9.64900 3.51400 32.98600
H  7.76500 5.05200 34.71800
H  9.37600 5.83500 34.25600
H  3.56200 8.26000 28.61600
H  3.09600 7.01900 29.80400
H  2.24000 7.11300 28.26500
H  3.16800 8.57500 26.42200
H  1.92900 7.29300 26.19400
H  2.39000 8.23600 24.79800
H  7.04400 3.40800 23.18000
H  7.13800 0.47600 23.65500
H  4.45800 2.63500 23.45700
H  5.06900 1.11100 22.85500
H  5.40600 2.63200 22.03400
H  9.81800 1.70300 23.81400
H  8.95000 1.94000 22.29400
H  9.37400 -0.01900 21.58700
H  8.71300 -0.82600 23.11600
H  10.29300 -0.45900 23.11100
H  10.34300 -1.58600 26.78000
H  10.37500 -2.38900 28.37600
H  11.83600 -1.44500 27.81900
H  10.33700 1.54100 32.34900
H  8.81800 -0.82900 35.71600
H  7.52600 0.18200 35.23500
H  8.92200 0.88100 36.12400
Mg 46.79500 16.81600 28.30200
C  45.38100 16.58400 31.51500
C  49.35400 18.62900 29.73000
C  47.69700 17.73700 25.22300
C  43.80700 15.53700 26.95900
N  47.22200 17.57100 30.42900
C  46.67300 17.12500 31.59900
C  47.41400 17.53800 32.84700
C  48.68500 18.22500 32.23100
C  48.37300 18.14900 30.64100
C  49.04600 19.65100 32.72800
C  47.69000 16.26100 33.78000
C  47.24600 16.32400 35.23300
H  46.97400 17.68300 35.88400
N  48.31100 17.95000 27.54300
C  49.29900 18.51100 28.27900
C  50.19100 19.15900 27.36400
C  49.68100 19.01700 26.08200
C  48.46300 18.29600 26.28000
C  51.43300 19.78000 27.84000
C  50.27400 19.53200 24.74500
O  49.89900 19.21900 23.60900
C  51.43800 20.53700 24.75300
N  45.81000 16.73500 26.33700
C  46.53100 17.02600 25.20100
C  45.71800 16.64100 23.97200
C  44.48300 15.89600 24.58700
C  44.70500 16.02900 26.05000
C  45.27000 17.86300 22.99900
C  44.46500 14.40900 24.07000
C  43.38200 14.12300 22.91300
N  44.93600 16.09100 29.04600
C  43.86600 15.61100 28.40000
C  42.84400 15.31900 29.34400
C  43.38000 15.66600 30.62800
C  44.70900 16.11100 30.37300
C  41.55000 14.63800 29.09000
C  43.09300 15.69200 32.00400
O  42.06800 15.36500 32.61600
C  44.42000 16.32400 32.70000
C  43.92700 17.51100 33.49000
O  43.63500 18.62100 33.00300
O  43.66500 17.12800 34.80700
C  42.91700 18.02500 35.62000
H  50.16600 19.13500 30.25500
H  48.10900 17.89800 24.22400
H  42.91900 15.12000 26.47900
H  46.92400 18.36500 33.36000
H  49.55900 17.58500 32.34700
H  48.41000 19.89000 33.58000
H  48.63900 20.30000 31.95300
H  50.11100 19.86500 32.82600
H  48.72600 15.92300 33.81600
H  47.17800 15.43300 33.29000
H  48.05200 15.83400 35.77900
H  46.33600 15.73200 35.33500
H  51.54500 19.67500 28.91900
H  51.34500 20.80100 27.46800
H  52.24500 19.25200 27.33900
H  52.30800 20.03000 25.16800
H  51.23900 21.35700 25.44300
H  51.65800 20.99300 23.78700
H  46.38600 15.96700 23.43600
H  43.57600 16.40800 24.26500
H  44.20200 18.08300 23.00900
H  45.49400 17.53400 21.98500
H  45.75500 18.81200 23.22800
H  44.26600 13.66300 24.83900
H  45.48900 14.18400 23.77300
H  42.68600 14.96100 22.88300
H  42.86100 13.17100 23.02000
H  43.79300 14.26900 21.91400
H  40.95900 15.41900 28.61200
H  41.15100 14.28900 30.04200
H  41.67600 13.76400 28.45000
H  44.93400 15.63500 33.37000
H  42.97300 19.03600 35.21600
H  43.35300 18.08200 36.61800
H  41.87700 17.72000 35.73900

