158

Mg -1.09400 18.10700 26.81000
C  -1.64200 15.76000 29.52500
C  -1.44000 20.62400 29.25800
C  -0.59100 20.19000 24.41800
C  -0.96300 15.29000 24.75900
N  -1.39600 18.12700 29.19600
C  -1.58700 17.10400 30.03500
C  -1.77400 17.62800 31.43400
C  -1.93800 19.16100 31.19200
C  -1.46200 19.38000 29.79800
C  -3.40900 19.58500 31.50400
C  -0.64100 17.30800 32.45200
C  -1.18500 16.99000 33.85300
H  -0.07100 16.72500 34.92300
N  -0.92100 20.12600 26.87500
C  -1.11100 20.95300 27.93900
C  -0.98200 22.33800 27.38300
C  -0.66700 22.23000 25.98000
C  -0.79400 20.80100 25.68100
C  -0.93200 23.57400 28.25400
C  -0.50800 23.26900 24.89100
O  -0.33200 23.08000 23.69200
C  -0.44100 24.66800 25.41600
N  -0.72800 17.77900 24.84500
C  -0.59600 18.83700 24.01300
C  -0.58600 18.40200 22.49900
C  -0.49500 16.82000 22.64500
C  -0.74500 16.56300 24.13500
C  -1.84800 18.93400 21.72500
C  0.78000 16.22700 22.03200
C  1.94600 15.85200 22.96400
N  -1.30900 16.01300 27.04500
C  -1.25100 15.02800 26.05200
C  -1.58800 13.77500 26.60400
C  -1.75400 14.01600 27.93900
C  -1.54300 15.38100 28.17200
C  -1.92500 12.56600 25.74100
C  -2.04300 13.34900 29.21600
O  -2.27200 12.21300 29.45100
C  -1.95400 14.48600 30.32900
C  -0.95100 14.09500 31.45800
O  0.28300 14.11900 31.42700
O  -1.60300 13.75400 32.67600
C  -0.75200 13.25000 33.68300
H  -1.75500 21.48600 29.84900
H  -0.49600 20.82700 23.53700
H  -0.89200 14.53300 23.97500
H  -2.65200 17.22100 31.93400
H  -1.29700 19.67600 31.90700
H  -3.83800 20.25400 30.75800
H  -3.41200 20.17500 32.42000
H  -4.16400 18.83000 31.72500
H  0.09600 18.09100 32.63100
H  -0.01700 16.49500 32.08300
H  -1.83100 16.12600 33.70000
H  -1.77500 17.83100 34.21700
H  0.06300 23.99800 28.38800
H  -1.33900 23.37500 29.24500
H  -1.61600 24.29200 27.79900
H  -1.36300 25.08800 25.81700
H  -0.23000 25.33900 24.58300
H  0.34100 24.73700 26.17200
H  0.34400 18.78000 22.07400
H  -1.30700 16.33300 22.10500
H  -2.34000 18.24600 21.03700
H  -1.45500 19.76200 21.13500
H  -2.64900 19.32900 22.34900
H  1.20100 16.86000 21.25100
H  0.49200 15.29200 21.55300
H  1.92100 16.52800 23.81900
H  2.85300 16.13000 22.42700
H  2.09900 14.80300 23.21800
H  -2.69000 12.78500 24.99700
H  -2.41900 11.85000 26.39800
H  -1.08700 12.05500 25.26700
H  -2.91600 14.63800 30.81800
H  -0.42500 14.13600 34.22800
H  0.14500 12.71800 33.36600
H  -1.19500 12.52500 34.36500
Mg 0.33300 8.00900 26.75700
C  1.00900 10.15300 29.42700
C  -0.02800 5.41400 29.13000
C  0.00900 5.74500 24.25400
C  1.37300 10.54800 24.56000
N  0.44700 7.88000 29.04700
C  0.54400 8.94900 29.93700
C  0.27300 8.54700 31.37900
C  0.19600 6.94600 31.17500
C  0.11900 6.69100 29.67500
C  1.28500 6.09300 31.88300
C  -0.90600 9.25300 31.99800
C  -0.75500 9.69000 33.46500
H  0.18000 8.84100 34.30700
N  -0.08900 5.89700 26.71800
C  -0.15700 5.03900 27.81900
C  -0.36100 3.68500 27.30200
C  -0.47900 3.82700 25.88500
C  -0.21400 5.19100 25.53600
C  -0.49300 2.41000 28.13000
C  -0.86400 2.70800 24.89800
O  -0.87400 2.92400 23.71800
C  -1.33700 1.31000 25.36900
N  0.77700 8.08900 24.69000
C  0.60800 6.98600 23.87000
C  0.87000 7.40600 22.41200
C  1.11900 8.97100 22.52500
C  1.05800 9.26600 24.07400
C  2.00600 6.69200 21.64700
C  0.12700 9.90400 21.77800
C  0.82900 11.06700 20.92100
N  1.07400 9.95100 26.92600
C  1.51900 10.85100 25.91400
C  1.98500 12.08400 26.57000
C  1.76100 11.82100 27.90200
C  1.25000 10.50700 28.03000
C  2.36000 13.42500 25.98900
C  1.97900 12.43800 29.21400
O  2.54200 13.49900 29.48200
C  1.48500 11.40500 30.27700
C  2.60000 11.08500 31.11300
O  3.72200 10.63500 30.80000
O  2.31700 11.33700 32.41200
C  3.43200 11.31100 33.34400
H  -0.00600 4.71800 29.97100
H  -0.11800 4.99100 23.47500
H  1.52100 11.40500 23.89900
H  1.15000 8.79400 31.97700
H  -0.65400 6.37100 31.54200
H  0.79300 5.17500 32.20500
H  1.72500 6.50800 32.79100
H  2.07000 5.79700 31.18700
H  -1.74900 8.56300 32.02600
H  -1.27600 10.15400 31.50700
H  -1.69400 9.69000 34.01800
H  -0.57300 10.76000 33.36400
H  -0.26100 2.50800 29.19100
H  0.28400 1.77800 27.70200
H  -1.52900 2.07700 28.05800
H  -1.66400 0.60600 24.60300
H  -2.20000 1.50700 26.00400
H  -0.52000 0.78400 25.86300
H  0.00500 7.16600 21.79300
H  2.14300 9.33400 22.43900
H  2.60300 6.12300 22.36000
H  2.73900 7.33600 21.16100
H  1.48000 6.10000 20.89800
H  -0.61300 10.35600 22.43900
H  -0.55600 9.32700 21.15400
H  0.61800 10.81200 19.88200
H  1.87700 11.09000 21.21900
H  0.44800 12.00400 21.32800
H  2.37300 14.17800 26.77700
H  1.59900 13.88400 25.35800
H  3.37900 13.53600 25.61800
H  0.62100 11.82200 30.79500
H  4.37800 11.74400 33.01600
H  3.67300 10.28800 33.63400
H  3.04400 11.74100 34.26700

