158

Mg 43.75500 4.00900 47.83200
C  41.52100 6.75800 47.32600
C  40.91300 1.88100 47.48600
C  45.78500 1.37300 47.36900
C  46.46700 6.27500 47.54500
N  41.39100 4.33900 47.53100
C  40.77900 5.48300 47.47800
C  39.28600 5.23400 47.31400
C  39.13000 3.67000 47.67800
C  40.54600 3.20600 47.50200
C  38.59100 3.43200 49.15200
C  38.76500 5.49700 45.88200
C  37.67600 6.57300 45.71700
H  37.17500 6.84700 44.33600
N  43.39700 1.87600 47.51500
C  42.19900 1.25600 47.41700
C  42.38600 -0.15300 47.18100
C  43.80400 -0.28100 47.02000
C  44.44400 1.03100 47.27100
C  41.24700 -1.11900 47.11300
C  44.49400 -1.62200 46.71700
O  43.80100 -2.63100 46.62600
C  46.03100 -1.69300 46.37700
N  45.79000 3.84800 47.38600
C  46.43300 2.62700 47.40800
C  47.96600 2.76200 47.42600
C  48.20900 4.32900 47.40000
C  46.72000 4.89100 47.44200
C  48.66700 2.06700 48.65900
C  49.12400 4.76700 46.22700
C  50.49700 5.37800 46.57100
N  43.98600 6.14800 47.55000
C  45.15600 6.88900 47.45000
C  44.77000 8.30300 47.33200
C  43.40200 8.28400 47.27400
C  42.92700 6.96200 47.43100
C  45.70300 9.48600 47.41300
C  42.18200 9.06500 47.27700
O  42.00000 10.30000 47.24900
C  40.87800 8.09200 47.27000
C  39.88900 8.30700 48.31300
O  39.84800 7.85500 49.42000
O  38.88700 9.17700 47.98100
C  37.70000 9.35300 48.92200
H  40.04600 1.24000 47.31000
H  46.37700 0.45600 47.41000
H  47.28100 6.99900 47.61800
H  38.73200 5.84200 48.03000
H  38.43900 3.12500 47.03500
H  39.35100 2.82600 49.64400
H  37.60100 2.97900 49.21500
H  38.50800 4.40000 49.64700
H  38.21200 4.59500 45.61800
H  39.57200 5.52500 45.15000
H  38.00900 7.43400 46.29600
H  36.81800 6.09400 46.18900
H  41.30700 -1.88500 46.33900
H  40.31000 -0.63100 46.84200
H  41.07600 -1.47500 48.12900
H  46.64000 -1.84800 47.26700
H  46.14200 -0.80400 45.75500
H  46.18100 -2.53100 45.69600
H  48.31600 2.20500 46.55800
H  48.55600 4.75600 48.34100
H  47.93400 1.64900 49.35000
H  49.17200 2.81600 49.26800
H  49.44600 1.37400 48.34100
H  48.65800 5.64800 45.78500
H  49.16600 3.88500 45.58900
H  51.13100 4.49200 46.55400
H  50.52200 5.76000 47.59200
H  50.85800 6.07400 45.81300
H  46.04600 9.73200 48.41800
H  45.17000 10.36200 47.04200
H  46.59900 9.36700 46.80300
H  40.36300 8.20300 46.31600
H  37.03200 10.12300 48.53600
H  37.96600 9.47100 49.97200
H  37.21500 8.37900 48.85300
Mg 46.45700 24.82900 28.42900
C  47.51700 27.23400 30.93000
C  45.17900 22.94600 30.92800
C  45.76600 22.45600 26.04400
C  48.33200 26.73100 26.13800
N  46.21200 25.19000 30.64600
C  46.76000 26.18000 31.47600
C  46.11900 26.03900 32.84100
C  45.58100 24.53500 32.92100
C  45.66900 24.17600 31.42200
C  46.28900 23.54500 34.01700
C  44.96200 27.07100 33.13800
C  44.99700 27.80800 34.56200
H  45.74800 27.11300 35.68000
N  45.59600 22.97800 28.48700
C  45.11200 22.39000 29.64100
C  44.57400 21.13900 29.35800
C  44.57800 20.98400 27.92400
C  45.28700 22.15600 27.40300
C  43.83400 20.23300 30.39900
C  44.04400 19.93600 26.96800
O  44.00800 20.09800 25.76200
C  43.42400 18.64300 27.43400
N  47.05000 24.58700 26.45700
C  46.48100 23.61200 25.69900
C  46.94000 23.84300 24.24500
C  47.66800 25.25800 24.16900
C  47.66600 25.54900 25.68800
C  47.71400 22.65000 23.60500
C  46.77800 26.36000 23.45000
C  47.49300 26.92500 22.22000
N  47.61200 26.68900 28.46400
C  48.33700 27.29500 27.40900
C  48.87600 28.54400 27.88400
C  48.58800 28.57100 29.26300
C  47.85700 27.37300 29.59600
C  49.64700 29.48900 26.95400
C  48.87500 29.25900 30.50700
O  49.66200 30.19600 30.72800
C  48.17100 28.40200 31.58900
C  49.21900 28.12600 32.61100
O  50.05300 27.22500 32.54400
O  48.99900 28.85100 33.76500
C  49.83600 28.57500 34.97500
H  44.81000 22.27200 31.70400
H  45.51500 21.82500 25.18900
H  48.78600 27.24800 25.29000
H  46.96900 26.12300 33.51800
H  44.51800 24.50500 33.15800
H  45.56100 23.23100 34.76500
H  47.17800 24.09500 34.32600
H  46.68400 22.71500 33.43200
H  43.97100 26.65900 32.94800
H  45.14200 27.83800 32.38500
H  43.98700 27.81800 34.97200
H  45.25600 28.85200 34.38700
H  42.79800 20.06100 30.10700
H  44.01400 20.55700 31.42500
H  44.17500 19.21700 30.20500
H  44.11600 18.08100 28.06200
H  43.18400 18.08000 26.53200
H  42.50800 18.85800 27.98400
H  45.99500 23.86000 23.70300
H  48.69600 25.23800 23.80700
H  48.29400 22.19300 24.40700
H  48.33500 23.07700 22.81700
H  47.00600 21.96300 23.14300
H  46.55900 27.20400 24.10400
H  45.80500 25.95300 23.17700
H  47.31000 26.30200 21.34500
H  48.56200 26.87500 22.42600
H  47.25700 27.98200 22.10600
H  48.95800 29.86700 26.19900
H  50.33200 28.78800 26.47600
H  50.13000 30.31400 27.47600
H  47.36300 28.97100 32.04900
H  50.24300 29.53500 35.29100
H  50.63600 27.83700 34.90600
H  49.17800 28.31300 35.80400

