158

Mg 28.43500 56.17200 40.14300
C  26.18500 53.58800 40.04700
C  30.95700 53.94000 39.17900
C  30.50600 58.67100 39.85300
C  25.64100 58.52000 40.24100
N  28.53400 53.95300 39.79000
C  27.45500 53.12400 39.67800
C  27.79500 51.79300 38.93900
C  29.36700 51.77600 39.16900
C  29.70600 53.28100 39.36700
C  29.79100 50.79800 40.23500
C  27.32900 51.85400 37.45600
C  27.11300 53.29000 36.85100
H  26.51800 53.26800 35.46000
N  30.38700 56.31000 39.58700
C  31.29300 55.27900 39.30500
C  32.61800 55.84700 39.04200
C  32.50700 57.25300 39.16500
C  31.11000 57.44100 39.68700
C  33.90100 55.04100 38.61900
C  33.67300 58.29400 38.89900
O  34.79200 57.91500 38.68100
C  33.47700 59.79800 38.96600
N  28.05100 58.30200 40.16500
C  29.22000 59.11100 40.06000
C  28.87600 60.63500 40.13300
C  27.31300 60.53800 40.17300
C  26.94200 59.04500 40.13700
C  29.58000 61.43500 41.17900
C  26.60700 61.20800 38.95000
C  25.38200 62.11000 39.37000
N  26.32500 56.13100 40.09500
C  25.32300 57.09100 40.19500
C  24.03700 56.44300 40.30100
C  24.34600 55.05700 40.30400
C  25.71800 54.90500 40.07500
C  22.73700 57.05000 40.46400
C  23.78300 53.76000 40.41400
O  22.61100 53.43800 40.69000
C  24.90800 52.77700 40.07100
C  24.99900 51.62600 41.08200
O  24.12800 50.76500 41.27700
O  26.06100 51.70500 41.91600
C  26.23000 50.63500 42.89700
H  31.69700 53.19200 38.88800
H  31.18900 59.51700 39.95000
H  24.75500 59.15800 40.24500
H  27.28900 50.92800 39.37000
H  29.80000 51.44300 38.22600
H  30.30400 51.34400 41.02700
H  30.25600 50.02100 39.63000
H  28.90000 50.35400 40.68000
H  26.49700 51.15600 37.36900
H  28.12400 51.40000 36.86400
H  28.02100 53.87200 36.68900
H  26.35700 53.85300 37.39900
H  33.88200 53.99300 38.91800
H  34.67700 55.42500 39.28100
H  34.13200 55.22900 37.57000
H  33.34200 60.17800 39.97900
H  32.65400 60.09700 38.31800
H  34.33500 60.29600 38.51300
H  29.13100 61.03300 39.15100
H  26.93700 60.91600 41.12300
H  30.10900 60.73000 41.81900
H  28.92200 61.99100 41.84700
H  30.20200 62.16300 40.65800
H  26.22100 60.42300 38.30000
H  27.24000 61.88000 38.36900
H  24.46100 61.66500 38.99400
H  25.51300 63.13900 39.03600
H  25.11400 62.08000 40.42700
H  22.70300 58.13800 40.51700
H  22.27900 56.71000 41.39200
H  22.07900 56.70700 39.66500
H  24.47300 52.42000 39.13800
H  26.00700 50.92200 43.92500
H  27.29700 50.41800 42.84900
H  25.82700 49.66400 42.61000
Mg -12.53100 15.97100 41.62600
C  -9.38400 14.43400 41.29300
C  -11.15900 18.64900 40.03500
C  -15.57900 17.07800 41.45300
C  -13.79900 12.64100 42.51600
N  -10.51300 16.44300 40.72500
C  -9.38300 15.70600 40.71800
C  -8.24000 16.31700 40.00100
C  -8.69200 17.82500 39.88000
C  -10.20600 17.67400 40.26900
C  -7.97400 18.80300 40.90600
C  -7.91700 15.59100 38.64800
C  -6.42900 15.25700 38.50400
H  -5.83200 15.97900 37.29200
N  -13.22400 17.64600 40.99100
C  -12.55200 18.66500 40.34300
C  -13.42000 19.73100 40.10200
C  -14.70600 19.37700 40.52300
C  -14.53800 17.96400 41.00300
C  -13.10900 20.94400 39.43500
C  -15.94600 20.28600 40.48800
O  -15.88700 21.42500 40.02400
C  -17.26600 19.78100 41.00000
N  -14.42600 14.96600 41.97400
C  -15.51300 15.72900 41.93500
C  -16.78000 14.93600 42.29800
C  -16.21600 13.45000 42.52700
C  -14.72500 13.65900 42.33600
C  -17.44200 15.54700 43.48900
C  -16.76700 12.40100 41.55300
C  -17.14900 11.05900 42.20300
N  -11.79300 14.02100 41.94300
C  -12.39200 12.77800 42.27500
C  -11.33400 11.72800 42.38300
C  -10.14600 12.36200 42.09200
C  -10.53500 13.69300 41.70900
C  -11.51800 10.24400 42.85100
C  -8.71300 12.18300 42.01800
O  -7.96100 11.30400 42.30300
C  -8.10100 13.47100 41.48700
C  -7.10600 13.89200 42.53700
O  -7.33600 13.97900 43.71800
O  -5.86100 14.11300 41.95400
C  -4.87400 14.66100 42.90700
H  -10.82500 19.63400 39.70400
H  -16.57400 17.51100 41.33300
H  -14.05900 11.65500 42.90700
H  -7.32300 16.31900 40.59100
H  -8.53300 18.11500 38.84100
H  -7.20000 18.23900 41.42600
H  -8.65400 19.16900 41.67600
H  -7.53900 19.55700 40.25100
H  -8.17000 16.26100 37.82600
H  -8.61500 14.76300 38.52900
H  -6.26100 14.19000 38.36100
H  -5.86200 15.41900 39.42100
H  -13.29600 21.82900 40.04300
H  -13.85900 21.07400 38.65400
H  -12.17000 20.94900 38.88100
H  -17.69900 19.13100 40.24000
H  -17.84700 20.70300 41.02800
H  -17.19600 19.33900 41.99400
H  -17.49900 14.96800 41.48000
H  -16.42500 13.09200 43.53500
H  -17.30200 16.62600 43.42700
H  -17.05100 15.22000 44.45200
H  -18.52300 15.45100 43.38300
H  -16.06400 12.26800 40.73100
H  -17.73700 12.71200 41.16600
H  -18.19600 10.75700 42.22000
H  -16.90400 11.07100 43.26500
H  -16.44000 10.26500 41.97100
H  -12.12500 10.28400 43.75600
H  -10.59000 9.69300 43.00400
H  -12.16900 9.75900 42.12400
H  -7.67600 13.24100 40.51000
H  -4.03200 13.97200 42.98500
H  -5.20700 14.95100 43.90400
H  -4.55200 15.62100 42.50400

