158

Mg 46.51100 25.57500 28.06300
C  47.71300 27.70200 30.69700
C  45.64900 23.22400 30.37800
C  45.75600 23.54400 25.49700
C  48.28100 27.78300 25.87500
N  46.66400 25.52100 30.26000
C  47.06400 26.49800 31.13200
C  46.78600 26.10200 32.55300
C  46.21200 24.70300 32.49000
C  46.19200 24.40700 30.91500
C  47.09500 23.66300 33.23800
C  45.89800 27.12600 33.38200
C  46.32900 27.25500 34.88600
H  45.25600 27.46700 35.90400
N  45.83700 23.63600 28.01900
C  45.50400 22.80600 29.07300
C  44.79700 21.60300 28.64100
C  44.85200 21.70800 27.22300
C  45.52300 23.01000 26.84200
C  44.12300 20.57200 29.53400
C  44.25800 20.75600 26.15200
O  44.32400 20.95900 24.91600
C  43.40800 19.67600 26.59400
N  46.93300 25.71300 26.00200
C  46.30600 24.80200 25.10400
C  46.59700 25.20300 23.63700
C  47.42800 26.56000 23.82500
C  47.58700 26.70800 25.33500
C  47.34800 24.08700 22.82500
C  46.70700 27.82600 23.21000
C  47.63000 28.80100 22.46000
N  47.68900 27.49100 28.22600
C  48.29100 28.18400 27.20400
C  48.85000 29.44000 27.80000
C  48.66000 29.30200 29.18700
C  47.93800 28.10800 29.39100
C  49.58800 30.49400 27.14800
C  48.88500 29.88800 30.45100
O  49.53100 30.93200 30.77500
C  48.27100 28.92200 31.56100
C  49.32200 28.47500 32.54900
O  50.13400 27.64200 32.30200
O  49.10500 28.99400 33.83600
C  50.01200 28.51200 34.88800
H  45.26700 22.51000 31.11000
H  45.56500 22.92700 24.61600
H  48.76000 28.50300 25.20800
H  47.69300 26.14500 33.15600
H  45.17900 24.61100 32.82600
H  46.47700 22.90500 33.71900
H  47.63500 24.21700 34.00600
H  47.79500 23.12500 32.59900
H  44.88900 26.72700 33.47700
H  45.74000 28.09600 32.90900
H  47.03400 28.08000 34.99100
H  46.73800 26.28800 35.17800
H  44.11400 20.73600 30.61200
H  44.54900 19.58500 29.35800
H  43.10200 20.61200 29.15300
H  43.83100 19.05500 27.38400
H  43.10200 18.95800 25.83400
H  42.53900 20.18000 27.01600
H  45.61200 25.41100 23.21700
H  48.41500 26.39200 23.39400
H  48.37300 24.32800 22.54100
H  46.86400 23.87300 21.87200
H  47.47400 23.17500 23.40800
H  46.23900 28.30300 24.07200
H  45.89600 27.51300 22.55200
H  47.59300 29.80100 22.89200
H  47.23400 28.85500 21.44600
H  48.67200 28.48400 22.43000
H  49.00700 30.83200 26.29000
H  50.62800 30.25800 26.92400
H  49.71400 31.25100 27.92300
H  47.56400 29.62800 31.99700
H  49.68000 27.48800 35.06000
H  49.68900 29.03500 35.78800
H  51.06800 28.64800 34.65800
Mg 48.57100 35.84100 27.52400
C  46.67300 34.28100 29.76100
C  49.15800 38.47500 29.69600
C  50.40800 37.39100 25.07300
C  47.93000 33.22400 25.22700
N  48.06300 36.15500 29.52400
C  47.24100 35.40200 30.30900
C  46.84200 36.15600 31.56900
C  47.53300 37.57700 31.36100
C  48.31300 37.41300 30.11700
C  46.58900 38.83300 31.32800
C  47.20900 35.54700 32.92400
C  48.63700 34.93800 33.04100
H  49.57800 35.85900 33.73500
N  49.60600 37.65400 27.38200
C  49.70700 38.60500 28.42500
C  50.55300 39.71900 27.92700
C  51.10300 39.34100 26.63700
C  50.39300 38.06600 26.32200
C  50.93900 40.84900 28.77400
C  52.25900 39.89600 25.78100
O  52.48700 39.42800 24.68700
C  52.95200 41.24600 26.26800
N  49.03400 35.43000 25.46700
C  49.76000 36.20300 24.63900
C  49.66700 35.74900 23.15800
C  49.32000 34.25900 23.38700
C  48.73600 34.27400 24.79900
C  48.69000 36.59500 22.38200
C  50.36500 33.20500 23.14700
C  50.51300 32.60000 21.71800
N  47.53800 34.10400 27.50000
C  47.37400 33.10300 26.54100
C  46.45600 32.12600 26.99300
C  46.10700 32.51400 28.24000
C  46.82100 33.75000 28.47300
C  45.89100 30.97500 26.22400
C  45.32300 32.21800 29.38100
O  44.58700 31.28500 29.61900
C  45.60200 33.35500 30.40000
C  46.00700 32.71500 31.66900
O  47.09400 32.22500 31.95700
O  44.91000 32.67600 32.50700
C  45.06700 32.34100 33.88800
H  49.41100 39.28600 30.38400
H  50.90600 37.98200 24.30100
H  47.61100 32.61400 24.38000
H  45.75600 36.25800 31.58100
H  48.25900 37.88500 32.11400
H  46.68400 39.42100 30.41500
H  46.55800 39.37200 32.27500
H  45.59000 38.40000 31.29200
H  46.40700 34.82800 33.09400
H  46.97300 36.29700 33.67800
H  49.02000 34.69100 32.05100
H  48.54800 33.97100 33.53500
H  51.63300 40.68600 29.59800
H  50.07500 41.30400 29.25900
H  51.31700 41.68700 28.18800
H  53.32900 40.96100 27.25100
H  52.23300 42.06500 26.26300
H  53.85900 41.38700 25.68000
H  50.65200 35.89400 22.71400
H  48.49600 33.96900 22.73500
H  48.01300 35.91500 21.86600
H  49.19800 37.11500 21.57000
H  48.16100 37.28600 23.03800
H  50.22200 32.44300 23.91300
H  51.33800 33.64700 23.36100
H  49.76300 33.03700 21.05800
H  50.15800 31.58700 21.91100
H  51.55800 32.65700 21.41500
H  45.63700 31.26400 25.20400
H  44.99000 30.81000 26.81500
H  46.59100 30.14100 26.25700
H  44.62200 33.79900 30.57900
H  45.43900 33.19300 34.45800
H  45.73700 31.48500 33.97000
H  44.09700 32.14300 34.34300

