158

Mg 16.63200 -1.51300 28.01800
C  15.21800 0.41200 30.61600
C  18.56300 -3.10800 30.47500
C  18.31000 -3.12800 25.50400
C  14.78100 0.24400 25.72600
N  16.77200 -1.46000 30.32900
C  16.15200 -0.54300 31.09100
C  16.65400 -0.64000 32.54500
C  17.89600 -1.58100 32.38600
C  17.73300 -2.13100 30.98100
C  19.28800 -0.94400 32.65500
C  15.63700 -1.11100 33.58700
C  15.96600 -0.90900 35.09800
H  17.24400 -0.26200 35.55500
N  18.14800 -2.99800 27.98600
C  18.79600 -3.56800 29.10300
C  19.59200 -4.73400 28.70800
C  19.64400 -4.68200 27.22300
C  18.67200 -3.54600 26.83400
C  20.17700 -5.65600 29.70100
C  20.36600 -5.60800 26.18300
O  20.22100 -5.61100 24.97900
C  21.35400 -6.61700 26.66000
N  16.68000 -1.30000 25.88800
C  17.39300 -2.18300 25.12500
C  17.10000 -1.92800 23.63800
C  15.97600 -0.86700 23.66600
C  15.76600 -0.59300 25.20200
C  18.38700 -1.37300 22.88700
C  14.64300 -1.29800 23.03000
C  13.94500 -0.37000 22.08100
N  15.22300 0.02700 28.11200
C  14.47800 0.50700 27.07700
C  13.52800 1.45800 27.66100
C  13.81700 1.48600 29.02500
C  14.84600 0.57700 29.23700
C  12.47300 2.16300 26.81000
C  13.47200 2.11900 30.29100
O  12.69400 3.02900 30.59200
C  14.44200 1.44900 31.34300
C  15.29400 2.66200 31.81200
O  15.66700 3.56500 31.08300
O  15.43500 2.56500 33.16900
C  15.91700 3.81000 33.81100
H  19.28300 -3.59200 31.13800
H  18.84500 -3.62000 24.68800
H  14.23400 0.91500 25.06000
H  17.10900 0.32000 32.78800
H  17.81600 -2.44300 33.04900
H  19.05200 0.00300 33.14000
H  19.81700 -0.91000 31.70200
H  19.87700 -1.53800 33.35300
H  15.47900 -2.18600 33.50100
H  14.66600 -0.62000 33.51500
H  16.01500 -1.91500 35.51500
H  15.12800 -0.43500 35.60900
H  20.48700 -6.60300 29.26100
H  19.41000 -5.84700 30.45200
H  20.99400 -5.20300 30.26300
H  20.87500 -7.58100 26.83100
H  21.95500 -6.14900 27.44000
H  22.08400 -6.66900 25.85300
H  16.90000 -2.89300 23.17200
H  16.35800 0.08600 23.30000
H  19.08200 -2.20300 22.76300
H  18.78000 -0.48000 23.37400
H  18.08100 -0.89800 21.95400
H  13.88500 -1.59700 23.75300
H  14.87600 -2.28900 22.64000
H  12.97700 -0.14200 22.52800
H  13.76300 -0.92400 21.16000
H  14.53200 0.52800 21.88800
H  12.90400 3.00500 26.26800
H  11.60000 2.49900 27.36900
H  12.09600 1.50500 26.02800
H  14.04400 1.03300 32.26900
H  16.86400 4.12700 33.37400
H  16.17700 3.48700 34.81900
H  15.15100 4.58400 33.84600
Mg -2.09200 34.31700 26.63000
C  -3.98800 32.50800 28.88500
C  -0.94000 36.25300 29.26000
C  -0.56500 36.41700 24.42400
C  -3.57300 32.56600 23.98200
N  -2.61600 34.52200 28.73900
C  -3.25800 33.55300 29.45600
C  -3.12100 33.84000 30.97800
C  -2.36800 35.18600 31.04800
C  -1.95400 35.37700 29.58100
C  -3.16900 36.40700 31.46800
C  -2.21800 32.69900 31.61000
C  -2.93800 31.68700 32.65100
H  -2.45400 31.80900 34.17300
N  -0.89900 36.11000 26.83400
C  -0.39700 36.63200 28.03300
C  0.37700 37.76500 27.67500
C  0.31100 38.04100 26.28900
C  -0.40300 36.81600 25.77600
C  0.97600 38.69600 28.60400
C  0.90400 39.14500 25.42400
O  0.59500 39.22900 24.21900
C  1.81900 40.26500 25.95900
N  -2.29400 34.61100 24.41700
C  -1.37800 35.44500 23.80000
C  -1.49800 35.18700 22.26400
C  -2.36300 33.86800 22.16500
C  -2.75600 33.62300 23.59000
C  -2.02000 36.48800 21.49700
C  -1.69000 32.65000 21.61100
C  -0.51200 32.12300 22.40300
N  -3.50200 32.88700 26.42500
C  -3.95600 32.20600 25.28800
C  -4.77600 31.11800 25.67100
C  -4.84000 31.23800 27.08100
C  -4.03800 32.28300 27.48200
C  -5.45000 30.09000 24.82600
C  -5.42400 30.65900 28.26500
O  -6.30400 29.75100 28.46800
C  -4.72000 31.38100 29.50800
C  -5.86400 31.75700 30.47000
O  -6.41600 32.85700 30.47400
O  -5.91400 30.91100 31.48400
C  -6.97700 31.10700 32.48900
H  -0.47800 36.79000 30.09100
H  -0.01700 37.00100 23.68200
H  -4.04600 32.01500 23.16700
H  -4.11800 33.85300 31.41900
H  -1.55000 35.11600 31.76500
H  -3.03300 36.62900 32.52600
H  -4.19000 36.45200 31.08800
H  -2.61100 37.20800 30.98300
H  -1.39500 33.13800 32.17500
H  -1.75000 32.12500 30.81000
H  -2.87600 30.65100 32.31700
H  -4.00600 31.89900 32.61800
H  2.05300 38.79900 28.47200
H  0.90600 38.28600 29.61200
H  0.28000 39.52900 28.50500
H  1.07800 40.93500 26.39600
H  2.32700 40.75700 25.13000
H  2.58200 39.94700 26.66900
H  -0.58600 35.10000 21.67400
H  -3.20300 33.93900 21.47400
H  -1.25900 37.11500 21.03300
H  -2.45400 37.08400 22.29900
H  -2.76200 36.21500 20.74600
H  -1.21100 32.92200 20.67000
H  -2.46100 31.89400 21.46500
H  0.35600 31.93000 21.77200
H  -0.80400 31.17800 22.86000
H  -0.07500 32.75900 23.17300
H  -4.71400 29.75100 24.09700
H  -6.25300 30.49300 24.20900
H  -5.83200 29.28500 25.45400
H  -4.09800 30.68700 30.07300
H  -7.78000 31.74000 32.11100
H  -6.46400 31.62900 33.29700
H  -7.30400 30.10400 32.76100

