158

Mg 29.01800 56.96000 40.27600
C  26.80300 54.17000 39.68000
C  31.67700 54.89900 39.43400
C  30.89000 59.68200 39.86100
C  26.12000 58.96500 40.37000
N  29.19300 54.82800 39.30100
C  28.13900 53.89300 39.38600
C  28.79000 52.48000 39.07900
C  30.33000 52.66700 39.26700
C  30.41200 54.23000 39.35600
C  30.89300 51.98300 40.53900
C  28.46300 52.06900 37.62300
C  29.09100 52.74400 36.37000
H  28.13800 53.30600 35.27100
N  31.02400 57.28600 39.90400
C  31.94800 56.31100 39.71400
C  33.22600 56.87000 39.72600
C  33.06700 58.29300 39.73800
C  31.63100 58.53400 39.89500
C  34.46900 56.03700 39.51800
C  34.12300 59.30800 39.50200
O  35.29700 58.97100 39.26500
C  33.83600 60.74900 39.48600
N  28.60200 59.08200 40.36000
C  29.54400 59.97400 40.02400
C  28.83700 61.39700 40.06500
C  27.36000 61.11400 39.99200
C  27.33800 59.61400 40.32600
C  29.19300 62.16000 41.34900
C  26.71600 61.19800 38.55600
C  25.94600 62.49000 38.49900
N  26.82900 56.67000 40.18500
C  25.82800 57.58400 40.40400
C  24.60300 56.88700 40.54700
C  24.91500 55.54700 40.24000
C  26.29800 55.50600 40.02200
C  23.17500 57.44600 40.77000
C  24.38900 54.24400 39.96600
O  23.25200 53.80600 39.90200
C  25.53700 53.25700 39.69500
C  25.55300 52.34700 40.82600
O  25.89300 52.68200 41.92200
O  25.12800 51.02600 40.54400
C  24.93200 50.20600 41.71800
H  32.48500 54.16600 39.38800
H  31.49700 60.56100 39.63200
H  25.23500 59.60000 40.44500
H  28.42400 51.77300 39.82300
H  30.82000 52.38900 38.33300
H  31.87300 51.57300 40.29600
H  30.32000 51.15400 40.95500
H  31.21200 52.66800 41.32400
H  27.37700 52.11400 37.55200
H  28.75900 51.02000 37.67200
H  29.66400 51.91700 35.95100
H  29.79200 53.47100 36.78000
H  34.50600 55.54500 38.54600
H  34.50400 55.24800 40.27000
H  35.24400 56.74600 39.80600
H  33.31100 61.08900 38.59300
H  34.84600 61.13100 39.63700
H  33.42400 61.05700 40.44600
H  29.07800 61.95100 39.15800
H  26.67100 61.57400 40.70000
H  30.26200 62.37000 41.36100
H  29.06200 61.51600 42.21900
H  28.77000 63.15800 41.46500
H  26.15800 60.33800 38.18400
H  27.50700 61.39200 37.83100
H  26.62900 63.28300 38.80400
H  24.96600 62.38000 38.96300
H  25.82300 62.57200 37.41900
H  22.80400 57.84300 39.82500
H  23.29600 58.26100 41.48400
H  22.48700 56.70400 41.17600
H  25.32800 52.75600 38.74900
H  23.99800 49.66100 41.58000
H  24.67300 50.66100 42.67400
H  25.73900 49.48600 41.85500
Mg -12.54300 17.12100 41.88600
C  -9.68800 15.01100 41.47600
C  -10.62600 19.71600 40.51200
C  -15.33300 18.74000 41.44800
C  -14.30700 14.10800 42.66800
N  -10.42600 17.33300 40.86300
C  -9.43700 16.35000 40.97600
C  -8.12800 16.89900 40.50100
C  -8.34600 18.47900 40.59800
C  -9.89300 18.54500 40.61500
C  -7.73000 19.27200 41.79400
C  -7.75600 16.29200 39.13700
C  -6.23700 15.94900 38.85600
H  -5.64700 16.40100 37.43400
N  -12.91000 19.00900 41.13900
C  -12.00700 19.94300 40.66900
C  -12.71200 21.13500 40.25200
C  -14.08900 20.77400 40.41300
C  -14.18300 19.51100 40.98700
C  -12.01900 22.36900 39.64100
C  -15.22300 21.57900 39.81100
O  -14.89100 22.62300 39.15200
C  -16.63700 21.19700 39.97200
N  -14.58500 16.40700 41.83400
C  -15.50700 17.41000 41.88000
C  -16.86500 16.92000 42.25400
C  -16.60600 15.42400 42.63600
C  -15.07100 15.22600 42.39100
C  -17.45300 17.70500 43.50800
C  -17.52000 14.48500 41.78100
C  -18.87100 14.12600 42.38800
N  -12.14100 14.98800 42.08000
C  -12.93300 13.96900 42.31000
C  -12.09700 12.77800 42.62800
C  -10.84000 13.19400 42.34600
C  -10.86300 14.51300 41.95800
C  -12.59200 11.46000 43.30900
C  -9.47000 12.75300 42.26700
O  -9.02200 11.61500 42.53400
C  -8.67100 13.89500 41.68700
C  -7.46400 14.24100 42.49300
O  -7.59200 14.55800 43.66400
O  -6.30900 14.22400 41.77400
C  -5.19300 14.73800 42.60500
H  -9.99000 20.54000 40.18400
H  -16.23100 19.35800 41.51100
H  -14.76500 13.40700 43.36900
H  -7.26200 16.69300 41.13100
H  -7.87900 19.01400 39.77000
H  -7.04600 18.57800 42.28400
H  -8.49000 19.53700 42.53000
H  -7.22900 20.19600 41.50700
H  -8.19400 16.95800 38.39300
H  -8.20600 15.30100 39.08500
H  -6.09000 14.88000 39.00800
H  -5.55100 16.41200 39.56600
H  -12.35900 23.15600 40.31300
H  -12.34100 22.74500 38.67000
H  -10.92900 22.36600 39.59800
H  -16.76700 21.29900 41.04900
H  -16.82000 20.18400 39.61500
H  -17.21600 21.92900 39.40900
H  -17.59400 17.04700 41.45300
H  -16.77400 15.19000 43.68700
H  -17.76000 16.93700 44.21800
H  -18.34100 18.30600 43.31400
H  -16.76800 18.35500 44.05200
H  -16.99600 13.56600 41.51900
H  -17.66800 15.06800 40.87100
H  -19.64000 14.61600 41.79100
H  -18.99900 14.47500 43.41300
H  -19.10700 13.06700 42.27800
H  -11.97200 11.32900 44.19600
H  -12.57900 10.62800 42.60500
H  -13.54600 11.69900 43.77700
H  -8.35600 13.52400 40.71200
H  -4.22500 14.65600 42.11100
H  -5.05600 14.21700 43.55200
H  -5.23800 15.78300 42.91200

