158

Mg -1.44100 17.27500 27.21100
C  -2.31600 15.30600 30.06900
C  -1.92800 20.01000 29.33000
C  -0.91500 19.18500 24.67300
C  -1.33500 14.40700 25.30200
N  -1.99200 17.60400 29.47500
C  -2.21700 16.62000 30.45800
C  -2.43400 17.22800 31.84900
C  -2.57900 18.70900 31.49300
C  -2.14100 18.78900 30.02300
C  -3.94800 19.50000 31.69900
C  -1.37400 16.98000 32.99600
C  -1.99600 16.59600 34.33900
H  -1.01400 16.42400 35.46400
N  -1.36600 19.34600 27.00900
C  -1.50600 20.28300 28.02100
C  -1.24100 21.59000 27.39900
C  -0.92600 21.38600 26.01400
C  -1.12000 19.95400 25.85700
C  -1.47100 22.91500 28.11500
C  -0.50600 22.32900 24.95300
O  -0.24900 21.97300 23.82100
C  -0.34600 23.79500 25.20300
N  -1.45800 16.91800 25.27100
C  -1.09800 17.86500 24.37700
C  -0.94300 17.33300 22.92500
C  -0.72900 15.85300 23.25200
C  -1.14700 15.68400 24.73600
C  -2.02000 17.63200 21.92500
C  0.68000 15.26800 22.98600
C  1.70500 15.75000 24.06400
N  -1.72400 15.21500 27.54700
C  -1.66400 14.15700 26.65900
C  -1.91900 12.96700 27.43300
C  -2.24700 13.37100 28.74700
C  -2.11900 14.74700 28.77200
C  -2.09500 11.48900 26.89400
C  -2.63900 12.87600 30.01100
O  -2.80100 11.74600 30.42700
C  -2.61900 14.07400 30.99000
C  -1.58700 13.74300 32.05900
O  -0.32400 13.74100 32.00300
O  -2.31000 13.42900 33.19700
C  -1.57900 13.01900 34.46100
H  -2.14400 20.90600 29.91600
H  -0.74500 19.74300 23.74900
H  -1.30500 13.53700 24.64200
H  -3.37300 16.84700 32.24900
H  -1.83600 19.22900 32.09800
H  -4.76000 18.89500 32.10200
H  -4.23100 19.85900 30.71000
H  -3.89600 20.38800 32.33000
H  -0.70200 17.82800 33.13000
H  -0.66400 16.24500 32.61800
H  -2.40000 15.58400 34.32100
H  -2.75700 17.33800 34.57900
H  -0.55600 23.14600 28.66100
H  -2.26300 22.80900 28.85600
H  -1.60900 23.83400 27.54500
H  0.44800 23.79400 25.95000
H  -1.37000 24.08600 25.44000
H  -0.03900 24.33200 24.30600
H  -0.03100 17.73500 22.48400
H  -1.48600 15.30600 22.69100
H  -2.93600 18.08900 22.29900
H  -2.22100 16.70800 21.38200
H  -1.62600 18.27400 21.13700
H  1.05300 15.78500 22.10200
H  0.67200 14.18400 22.87600
H  1.36500 16.58500 24.67800
H  2.66500 16.04200 23.64000
H  1.93300 14.92900 24.74400
H  -1.40800 11.27700 26.07400
H  -3.06700 11.34600 26.42300
H  -1.90800 10.84200 27.75100
H  -3.59300 14.04300 31.47700
H  -0.68000 13.58900 34.69500
H  -1.38800 11.95200 34.57500
H  -2.27900 13.32000 35.24100
Mg 25.03600 0.48400 29.64100
C  27.34800 0.83000 32.18800
C  22.46700 0.56800 31.77100
C  23.08300 0.25100 26.95700
C  27.93800 0.01100 27.48000
N  24.95800 0.60800 31.71000
C  26.02200 0.84400 32.61900
C  25.44800 0.97400 33.99900
C  23.84300 0.61300 33.86100
C  23.75800 0.61300 32.32000
C  23.36900 -0.72000 34.51300
C  25.79400 2.35100 34.67700
C  26.13100 2.10800 36.19600
H  25.48100 2.93700 37.27400
N  23.10500 0.56600 29.41200
C  22.14900 0.60200 30.41200
C  20.80300 0.43200 29.90800
C  20.94400 0.29600 28.53000
C  22.43700 0.39400 28.24800
C  19.57500 0.22600 30.77100
C  19.89700 0.18500 27.52900
O  20.14100 0.01000 26.34400
C  18.43700 0.34000 27.88100
N  25.53000 0.26900 27.55800
C  24.44300 0.10100 26.63800
C  24.98900 -0.17800 25.19200
C  26.51000 -0.15200 25.31300
C  26.73400 0.06600 26.88900
C  24.36100 -1.38400 24.39300
C  27.24900 0.83800 24.38200
C  27.71300 0.22600 22.94400
N  27.29000 0.40800 29.72700
C  28.28100 0.12600 28.85800
C  29.59400 0.13300 29.53900
C  29.27700 0.37300 30.84900
C  27.87800 0.55100 30.87200
C  30.89200 -0.17800 28.90300
C  29.77900 0.48200 32.19600
O  30.90900 0.24300 32.65500
C  28.54300 0.84500 33.12000
C  28.36300 -0.16000 34.27400
O  27.83100 -1.25100 34.14400
O  28.89600 0.22200 35.45700
C  28.56600 -0.61800 36.67100
H  21.65600 0.40100 32.48200
H  22.41900 -0.05200 26.14500
H  28.77700 -0.07900 26.78700
H  25.89500 0.22900 34.65800
H  23.26300 1.42200 34.30500
H  22.90500 -0.64300 35.49600
H  24.20600 -1.40700 34.63300
H  22.68100 -1.17300 33.79900
H  24.99700 3.08900 34.59600
H  26.69400 2.76600 34.22400
H  27.20200 2.27000 36.32600
H  25.82800 1.12200 36.54800
H  18.75600 0.92000 30.58100
H  19.80300 0.47700 31.80700
H  19.17700 -0.78600 30.69300
H  17.82800 0.35100 26.97700
H  18.25900 1.28000 28.40400
H  18.08000 -0.40500 28.59300
H  24.60300 0.65100 24.59900
H  26.85100 -1.18000 25.18800
H  25.14000 -2.06000 24.04200
H  23.92300 -0.88800 23.52700
H  23.66400 -2.06200 24.88500
H  28.12600 1.39500 24.71100
H  26.50700 1.61300 24.18900
H  27.22100 0.68600 22.08700
H  27.45500 -0.82800 22.84700
H  28.78800 0.32300 22.79100
H  31.66600 -0.05600 29.66100
H  30.99400 0.57800 28.12500
H  30.86100 -1.16200 28.43500
H  28.74800 1.85200 33.48400
H  27.48800 -0.77700 36.63100
H  29.00200 -0.20400 37.58000
H  28.98300 -1.61500 36.52600

