158

Mg 1.14900 8.30700 26.58600
C  1.78000 10.19000 29.34400
C  1.29400 5.47700 28.49800
C  1.30200 6.58900 23.73900
C  1.47100 11.36400 24.67500
N  1.64400 7.92400 28.64600
C  1.78300 8.83000 29.63400
C  1.54800 8.09900 31.00800
C  1.56800 6.60500 30.67800
C  1.44700 6.65200 29.18600
C  2.85200 5.88500 31.17100
C  0.21300 8.51000 31.69500
C  0.30600 8.58900 33.20700
H  1.48500 7.93000 33.96800
N  1.28000 6.29000 26.14400
C  1.26900 5.32200 27.09900
C  1.38000 3.99700 26.43300
C  1.44400 4.29500 25.02500
C  1.39900 5.77700 24.89600
C  1.26300 2.62100 27.11100
C  1.44300 3.40000 23.86600
O  1.45800 3.77100 22.72200
C  1.49500 1.90000 24.08700
N  1.18400 8.86300 24.60700
C  1.31400 8.00600 23.58400
C  1.54000 8.65600 22.26500
C  1.05700 10.09100 22.51800
C  1.25000 10.15400 24.00100
C  3.01800 8.52400 21.78700
C  -0.39800 10.52400 21.98000
C  -0.61500 12.02500 21.68600
N  1.42000 10.42500 26.90500
C  1.60300 11.50300 26.05800
C  1.94500 12.65500 26.84000
C  2.08200 12.14500 28.10900
C  1.74300 10.80400 28.12800
C  2.04400 14.04000 26.31800
C  2.32100 12.57300 29.43600
O  2.68000 13.61100 29.90300
C  1.85400 11.36300 30.34100
C  2.81600 11.21100 31.40200
O  3.98400 10.94900 31.23300
O  2.16600 11.39900 32.56900
C  2.81800 11.50900 33.87100
H  1.11600 4.50300 28.95800
H  1.19200 6.04800 22.79700
H  1.51800 12.24800 24.03600
H  2.38100 8.24300 31.69700
H  0.74400 6.00800 31.06900
H  2.58200 5.29000 32.04400
H  3.61700 6.57900 31.51900
H  3.17700 5.25700 30.34200
H  -0.54900 7.87400 31.24400
H  0.01300 9.56500 31.50600
H  -0.58400 8.14100 33.64800
H  0.38500 9.65500 33.42000
H  2.14000 2.00500 26.91500
H  0.39700 2.09600 26.70900
H  1.10900 2.62400 28.19000
H  2.27700 1.50600 24.73700
H  1.51100 1.30100 23.17700
H  0.55400 1.69300 24.59700
H  0.90800 8.21700 21.49300
H  1.84200 10.78600 22.22000
H  3.47700 7.94000 22.58400
H  3.52800 9.45400 21.53900
H  2.94800 7.89300 20.90000
H  -1.21900 10.26000 22.64700
H  -0.54200 9.88300 21.11100
H  -1.20500 12.03300 20.76900
H  0.36000 12.50000 21.58000
H  -1.20600 12.49600 22.47200
H  1.62800 14.39700 25.37600
H  3.11100 14.25400 26.24600
H  1.69700 14.70100 27.11200
H  0.84600 11.60500 30.67700
H  3.86000 11.19100 33.83200
H  2.20200 11.00900 34.61800
H  2.85100 12.54800 34.19700
Mg 25.87200 2.06100 29.51500
C  27.83900 1.69100 32.45000
C  23.18900 2.72100 31.58300
C  23.87600 1.81200 26.80400
C  28.51500 0.64800 27.77800
N  25.63500 2.27100 31.77700
C  26.55400 2.18000 32.72800
C  26.03000 2.62100 34.06600
C  24.47700 2.81400 33.76700
C  24.41100 2.60100 32.25000
C  23.47800 1.86600 34.46500
C  26.76100 3.87700 34.71500
C  27.53100 3.59400 35.99100
H  27.22600 4.52100 37.20700
N  23.87100 2.24900 29.25900
C  22.92400 2.58900 30.22100
C  21.63800 2.79600 29.58600
C  21.82800 2.59100 28.23100
C  23.23700 2.16600 28.05200
C  20.37600 3.15700 30.31800
C  20.81500 2.87600 27.15000
O  21.01900 2.68300 25.94600
C  19.50200 3.34300 27.50900
N  26.20000 1.51800 27.61500
C  25.18100 1.42500 26.64000
C  25.80900 1.16200 25.18700
C  27.29700 0.88900 25.59600
C  27.41500 1.12800 27.07700
C  25.09700 0.06500 24.38800
C  28.30300 1.73300 24.70500
C  29.61300 1.05000 24.12600
N  27.79100 1.36100 29.98400
C  28.69600 0.73200 29.16400
C  29.81500 0.31300 29.87500
C  29.57500 0.75900 31.19100
C  28.27600 1.28700 31.16500
C  30.92700 -0.40100 29.24900
C  30.04400 0.82400 32.56200
O  31.11300 0.51100 33.04600
C  28.93700 1.38900 33.43000
C  28.65600 0.37600 34.48700
O  27.99100 -0.65500 34.34200
O  29.30800 0.72000 35.63600
C  29.21600 -0.25500 36.75300
H  22.33000 3.02300 32.18600
H  23.21700 1.77000 25.93400
H  29.32200 0.15600 27.23100
H  26.06600 1.72600 34.68700
H  24.22300 3.82400 34.08900
H  23.18200 0.93200 33.98900
H  22.55700 2.43300 34.60200
H  23.97100 1.52200 35.37500
H  26.06600 4.65400 35.03200
H  27.50200 4.28000 34.02500
H  28.60900 3.74500 35.93400
H  27.34000 2.60300 36.40300
H  20.07000 4.20300 30.29100
H  20.57900 3.02400 31.38100
H  19.49200 2.56300 30.08600
H  18.96800 2.63300 28.13900
H  18.91300 3.45600 26.59900
H  19.73900 4.22000 28.11200
H  25.77000 2.14100 24.71000
H  27.49100 -0.18200 25.54300
H  24.37600 -0.48900 24.98800
H  25.74000 -0.55400 23.76300
H  24.45500 0.67400 23.75200
H  28.64300 2.63500 25.21500
H  27.71700 2.15400 23.88800
H  29.88000 0.28800 24.85700
H  30.41800 1.78400 24.15300
H  29.42300 0.74800 23.09600
H  31.34800 0.25300 28.48500
H  30.49200 -1.36900 29.00000
H  31.75200 -0.64200 29.91900
H  29.41700 2.22600 33.93600
H  29.94500 -0.14100 37.55500
H  29.36700 -1.24300 36.31800
H  28.19400 -0.19600 37.12700

