158

Mg 47.18300 25.46200 27.40700
C  47.97700 27.51400 30.15700
C  46.31400 23.03000 29.39700
C  46.90800 23.57600 24.61900
C  48.92800 27.92500 25.33500
N  47.23900 25.31000 29.56600
C  47.53100 26.27500 30.46600
C  47.34300 25.76800 31.92000
C  46.78700 24.28900 31.68000
C  46.86300 24.14400 30.13000
C  47.53600 23.11100 32.36700
C  46.35400 26.65300 32.69700
C  46.92900 27.26200 34.00400
H  45.95400 27.55800 35.09100
N  46.45100 23.59000 27.04200
C  46.08900 22.75200 28.00800
C  45.71100 21.47700 27.40600
C  45.93200 21.57200 26.00300
C  46.43800 22.97600 25.82200
C  45.22900 20.22300 28.22800
C  45.84600 20.45200 24.93500
O  46.34400 20.61300 23.85500
C  45.17000 19.07300 25.24400
N  47.92000 25.67100 25.27500
C  47.46300 24.79400 24.32100
C  47.76100 25.20000 22.92000
C  48.20600 26.64500 23.14800
C  48.38900 26.80600 24.70000
C  48.91600 24.35200 22.23100
C  47.11100 27.71700 22.77600
C  47.53600 29.05800 22.17300
N  48.24300 27.30000 27.66900
C  48.90900 28.13100 26.74800
C  49.26700 29.43900 27.38900
C  49.00900 29.18400 28.81300
C  48.32400 27.90100 28.84100
C  50.06900 30.63000 26.72100
C  49.15100 29.68400 30.14500
O  49.52200 30.79800 30.55400
C  48.60000 28.52800 31.04100
C  49.68100 27.99200 31.81900
O  50.34800 26.97500 31.51000
O  49.90100 28.65200 32.93300
C  51.09200 28.30600 33.76500
H  46.17800 22.22500 30.12300
H  46.84900 22.89200 23.76900
H  49.23200 28.66500 24.59100
H  48.28800 25.81200 32.46000
H  45.75700 24.09800 31.98100
H  46.77800 22.43000 32.75600
H  48.19200 23.50600 33.14200
H  48.09300 22.62300 31.56700
H  45.52000 25.99400 32.93700
H  46.01900 27.46600 32.05200
H  47.26500 28.27700 33.79400
H  47.81700 26.78400 34.41800
H  45.82800 19.36800 27.91400
H  44.23700 19.94500 27.87100
H  45.34800 20.47000 29.28300
H  45.86000 18.50800 25.87100
H  45.03300 18.57100 24.28700
H  44.16300 19.18500 25.64600
H  46.82900 25.12800 22.36000
H  49.15200 26.94200 22.69400
H  48.48900 23.92100 21.32600
H  49.21300 23.49200 22.83100
H  49.83400 24.84800 21.91300
H  46.51200 27.90900 23.66600
H  46.41500 27.27100 22.06500
H  48.56000 29.02900 21.80200
H  47.40000 29.81900 22.94100
H  47.00600 29.27600 21.24600
H  49.98900 30.65500 25.63500
H  51.12600 30.51900 26.96300
H  49.64400 31.57100 27.07000
H  47.90800 28.97900 31.75200
H  51.97700 28.07200 33.17300
H  50.80700 27.41300 34.32200
H  51.37000 29.20100 34.32100
Mg -11.08800 38.94500 41.36300
C  -8.74000 36.12100 40.96100
C  -9.04200 40.80000 39.51300
C  -13.63700 41.07800 40.99500
C  -13.36500 36.43500 42.38300
N  -9.17000 38.46500 40.21600
C  -8.40800 37.30800 40.24300
C  -7.10300 37.54400 39.51400
C  -7.15700 39.07100 39.09500
C  -8.53500 39.48900 39.67200
C  -5.96600 39.97600 39.61800
C  -7.05900 36.62600 38.26500
C  -5.72400 35.89100 38.20900
H  -4.95700 36.11900 36.93900
N  -11.19900 40.73700 40.47800
C  -10.22800 41.33900 39.84400
C  -10.61500 42.69700 39.51200
C  -11.98400 42.80600 39.83500
C  -12.35100 41.51400 40.48000
C  -9.73400 43.83200 38.79000
C  -12.87400 43.98600 39.55300
O  -12.40200 45.01700 38.97400
C  -14.31500 44.04400 39.81200
N  -13.21000 38.76900 41.67600
C  -14.02300 39.86000 41.54800
C  -15.50700 39.48800 41.96500
C  -15.36500 37.95200 42.36400
C  -13.91700 37.70400 42.13600
C  -16.14400 40.32100 43.15100
C  -16.30100 37.02700 41.59500
C  -17.06900 36.02600 42.55600
N  -11.14500 36.74700 41.72000
C  -12.10400 35.92700 42.20100
C  -11.57300 34.61900 42.47600
C  -10.33400 34.66600 41.97700
C  -10.05000 35.97500 41.51700
C  -12.37700 33.59200 43.10400
C  -9.13000 33.85800 41.81400
O  -8.96500 32.67600 41.99600
C  -8.07800 34.78700 41.05500
C  -6.72600 34.78500 41.70400
O  -5.83800 33.95100 41.61300
O  -6.55700 36.00900 42.38600
C  -5.25800 36.25900 43.14700
H  -8.28500 41.45700 39.07900
H  -14.54800 41.67300 40.90000
H  -14.04000 35.74700 42.89600
H  -6.17000 37.50400 40.07600
H  -7.20400 39.23000 38.01800
H  -6.41300 40.62000 40.37600
H  -5.56700 40.60700 38.82400
H  -5.10500 39.54800 40.13200
H  -7.34100 37.20400 37.38400
H  -7.87000 35.89800 38.24200
H  -5.92400 34.82700 38.32700
H  -5.05700 36.19300 39.01800
H  -10.16800 43.99300 37.80400
H  -8.71800 43.47500 38.62800
H  -9.65500 44.79700 39.29200
H  -14.31700 43.94200 40.89700
H  -14.83900 43.23000 39.31100
H  -14.73200 44.98600 39.45700
H  -16.20600 39.59300 41.13500
H  -15.53400 37.82300 43.43400
H  -16.51500 41.28600 42.80600
H  -15.54600 40.43600 44.05500
H  -16.90200 39.65600 43.56500
H  -15.79000 36.43300 40.83700
H  -17.05900 37.57700 41.03700
H  -17.00100 35.02500 42.13000
H  -18.01500 36.47600 42.85800
H  -16.55600 35.93200 43.51300
H  -13.04400 33.91300 43.90500
H  -11.60300 33.07200 43.66900
H  -12.78200 32.97100 42.30600
H  -8.06200 34.46900 40.01300
H  -5.24800 35.57700 43.99700
H  -5.04800 37.30200 43.38200
H  -4.51200 36.15600 42.35900

