158

Mg -2.46700 17.47500 27.46500
C  -3.04900 15.25800 30.25600
C  -2.76100 20.05400 29.48500
C  -2.37400 19.32400 24.68400
C  -2.75600 14.61400 25.47700
N  -2.72600 17.56500 29.68000
C  -3.05300 16.59400 30.60400
C  -3.15000 17.26300 32.06300
C  -3.09400 18.77700 31.76300
C  -2.89900 18.83400 30.20100
C  -4.32800 19.52800 32.37900
C  -1.97300 16.75100 32.99000
C  -1.55800 17.72500 34.09000
H  -1.25800 17.05800 35.42400
N  -2.44300 19.41600 27.14400
C  -2.60000 20.35200 28.12700
C  -2.42100 21.65300 27.52000
C  -2.24100 21.43400 26.08500
C  -2.37800 20.02900 25.89300
C  -2.31600 22.87700 28.41600
C  -2.02000 22.52600 25.00900
O  -1.90100 22.22500 23.78500
C  -1.93000 23.96000 25.37100
N  -2.69400 17.03700 25.33500
C  -2.47000 18.00500 24.38800
C  -2.25200 17.46100 22.94300
C  -2.32600 15.87000 23.23600
C  -2.66900 15.79200 24.76900
C  -3.25400 18.09600 21.89400
C  -1.11400 15.09300 22.88600
C  -0.01600 15.33500 23.87700
N  -2.71400 15.42600 27.76800
C  -2.82700 14.40600 26.82900
C  -3.04900 13.08900 27.42100
C  -3.04400 13.43400 28.76400
C  -2.91600 14.83100 28.93500
C  -3.15500 11.77900 26.69700
C  -3.12300 12.84800 30.10300
O  -3.15500 11.70500 30.50600
C  -3.17400 14.00100 31.11100
C  -1.92300 13.73500 31.90800
O  -0.80100 14.19800 31.73700
O  -2.32100 13.00600 33.01300
C  -1.48600 12.75600 34.18100
H  -2.80300 20.91300 30.15800
H  -2.15600 19.95300 23.81800
H  -2.76100 13.76500 24.79000
H  -4.09300 16.89600 32.46800
H  -2.14100 19.13400 32.15400
H  -3.94100 20.26400 33.08400
H  -4.98700 18.82100 32.88400
H  -5.06300 19.93000 31.68200
H  -1.13900 16.70600 32.29000
H  -2.30200 15.75200 33.27800
H  -2.15500 18.60000 34.34700
H  -0.54800 18.00100 33.78800
H  -1.39400 23.44900 28.30900
H  -2.48900 22.72800 29.48200
H  -3.18600 23.47800 28.15200
H  -1.95600 24.60100 24.49000
H  -1.01000 24.02800 25.95200
H  -2.82900 24.16300 25.95300
H  -1.21600 17.66800 22.67400
H  -3.05100 15.45400 22.53700
H  -4.01400 17.34300 21.68700
H  -2.70500 18.49700 21.04200
H  -3.70800 19.00200 22.29400
H  -0.80700 15.44100 21.89900
H  -1.40800 14.04500 22.82800
H  0.18600 16.39800 24.00800
H  0.88100 14.82000 23.53300
H  -0.14100 14.89300 24.86600
H  -2.58600 11.13600 27.36700
H  -2.63900 11.76600 25.73600
H  -4.20400 11.48400 26.67100
H  -4.08700 13.87200 31.69100
H  -1.30600 11.68100 34.18300
H  -2.08600 13.07200 35.03400
H  -0.57300 13.34000 34.29600
Mg 50.02600 45.86000 41.94600
C  47.02300 47.54800 40.87200
C  48.88800 43.10000 40.26900
C  53.18400 44.73800 42.15000
C  51.23700 49.10500 42.69600
N  48.12400 45.38700 40.71300
C  47.02000 46.16200 40.52900
C  45.94900 45.37300 39.66600
C  46.58000 43.93200 39.69300
C  47.93100 44.09500 40.33000
C  45.66500 42.90800 40.39200
C  45.65500 45.85900 38.24400
C  44.19100 45.73800 37.81600
H  43.84400 45.43600 36.29800
N  50.87300 44.14800 41.43300
C  50.26800 43.10700 40.67100
C  51.16900 41.97600 40.55000
C  52.40800 42.41400 41.09200
C  52.21000 43.84000 41.65800
C  50.87100 40.60400 39.89700
C  53.69100 41.61800 41.02300
O  53.69800 40.50600 40.53200
C  55.11400 42.20700 41.26500
N  51.94600 46.82800 42.24400
C  53.03200 46.08200 42.46000
C  54.23500 46.88000 43.04200
C  53.57100 48.28600 43.01700
C  52.16600 48.00900 42.72600
C  54.73800 46.24700 44.35200
C  54.15500 49.39800 42.04700
C  55.25300 50.26800 42.59300
N  49.22800 47.84800 42.08000
C  49.88300 49.06000 42.37200
C  48.92600 50.18800 42.30800
C  47.71900 49.61800 41.76800
C  48.04800 48.25300 41.55700
C  49.23200 51.58300 42.55800
C  46.38700 49.92000 41.32200
O  45.77100 50.97700 41.32500
C  45.82900 48.55800 40.65700
C  44.58500 48.11400 41.19500
O  44.51700 47.46200 42.21000
O  43.56800 48.48400 40.33500
C  42.22100 48.13400 40.81900
H  48.46400 42.16400 39.89900
H  54.23500 44.44500 42.17800
H  51.54600 50.08600 43.06400
H  45.02600 45.40400 40.24400
H  46.64400 43.51100 38.69000
H  45.96800 42.66700 41.41100
H  45.72400 41.88900 40.00700
H  44.66100 43.33200 40.38400
H  46.26900 45.40100 37.46900
H  45.94300 46.91000 38.27900
H  43.65700 46.63400 38.13400
H  43.80300 44.85600 38.32400
H  51.39400 40.58700 38.94100
H  49.84800 40.51900 39.52900
H  51.28200 39.80100 40.51000
H  55.08900 42.40900 42.33600
H  55.24000 43.14900 40.73100
H  55.88200 41.48400 40.98900
H  54.97100 46.60100 42.28700
H  53.54400 48.77300 43.99200
H  54.65800 46.95600 45.17500
H  55.76200 45.89800 44.21700
H  54.22100 45.29300 44.46100
H  53.45600 50.12500 41.63300
H  54.43800 48.89900 41.12000
H  55.01300 51.32500 42.70800
H  56.20500 50.29100 42.06200
H  55.46400 49.97800 43.62200
H  49.92200 51.92800 41.78700
H  49.74000 51.72700 43.51100
H  48.31500 52.15200 42.70300
H  45.68400 48.63000 39.57900
H  42.04500 47.06000 40.75300
H  41.42500 48.72100 40.36100
H  42.15600 48.50400 41.84200

