158

Mg 47.81000 34.82000 26.75500
C  45.99700 33.66300 29.42400
C  48.74400 37.57300 28.59400
C  48.96700 36.23800 23.87700
C  46.53800 32.12700 24.83600
N  47.55600 35.46800 28.87600
C  46.71000 34.84600 29.75000
C  46.80800 35.51800 31.14500
C  47.37400 36.97500 30.72900
C  47.89300 36.73500 29.25100
C  46.38500 38.05700 30.67400
C  47.77500 34.79000 32.09900
C  47.52700 34.96000 33.63500
H  46.68400 36.12900 34.11400
N  48.82300 36.67000 26.37700
C  49.21600 37.58300 27.28000
C  49.99900 38.58200 26.60600
C  50.11900 38.25600 25.20000
C  49.27100 37.01600 25.11700
C  50.50400 39.84900 27.32900
C  50.87400 38.89200 23.99400
O  50.93900 38.50800 22.82000
C  51.56900 40.20300 24.33500
N  47.71200 34.35800 24.67000
C  48.34200 35.03200 23.66700
C  48.23800 34.38100 22.26000
C  47.56300 33.00400 22.61900
C  47.26500 33.09900 24.18000
C  47.32700 35.14600 21.29200
C  48.36400 31.71700 22.20800
C  49.39600 31.19800 23.24800
N  46.58100 33.09800 27.02700
C  46.27600 32.07900 26.22800
C  45.58600 31.09500 27.05800
C  45.35300 31.76000 28.30100
C  46.02400 32.90800 28.21200
C  45.09700 29.80900 26.59300
C  44.72400 31.66600 29.51800
O  44.03200 30.78300 29.94400
C  44.90700 33.00100 30.29000
C  45.16200 32.65200 31.72700
O  46.05500 31.88100 32.11200
O  44.20600 33.07900 32.56200
C  44.30200 32.78200 34.00200
H  49.04000 38.41000 29.23000
H  49.33000 36.55800 22.89800
H  46.41600 31.25200 24.19400
H  45.80700 35.49900 31.57700
H  48.15600 37.36400 31.38100
H  45.70400 38.14600 31.52000
H  45.85400 38.16600 29.72900
H  46.95200 38.98400 30.58200
H  48.82400 35.02500 31.91900
H  47.70500 33.72200 31.89100
H  48.44300 35.05400 34.22000
H  47.09400 34.09000 34.12800
H  51.59400 39.87700 27.31500
H  50.02600 39.92400 28.30600
H  50.06600 40.64300 26.72400
H  52.49600 40.00300 24.87200
H  50.98400 40.97700 24.83400
H  51.83900 40.77800 23.45000
H  49.19800 34.34400 21.74500
H  46.61100 32.91300 22.09600
H  46.27000 34.99300 21.51100
H  47.45700 34.67800 20.31600
H  47.54900 36.21200 21.34100
H  48.82900 31.92600 21.24400
H  47.69900 30.86300 22.07700
H  49.19800 30.18400 23.59400
H  49.66200 31.81100 24.10900
H  50.36700 31.10700 22.76100
H  45.98600 29.25500 26.29400
H  44.49900 29.89200 25.68600
H  44.59600 29.21100 27.35400
H  43.99000 33.58900 30.26700
H  43.33100 32.61600 34.46700
H  44.67200 33.66100 34.52900
H  44.97800 31.93400 34.12000
Mg 0.84200 43.05200 25.89000
C  3.19500 43.33000 28.53600
C  -1.39300 42.03500 28.27000
C  -1.13200 42.42000 23.41300
C  3.50800 43.72600 23.61900
N  0.90800 42.92900 28.22800
C  1.93700 43.12000 29.04400
C  1.57800 42.93200 30.55800
C  0.08000 42.56000 30.42800
C  -0.18300 42.41200 28.87800
C  -0.34500 41.32200 31.19900
C  1.80800 44.22700 31.35500
C  1.14200 44.46800 32.72000
H  0.94000 43.11900 33.59000
N  -1.03100 42.39600 25.83100
C  -1.78200 41.93100 26.92900
C  -3.05500 41.34700 26.42100
C  -2.96900 41.43800 24.94500
C  -1.68600 42.12700 24.67200
C  -4.06900 40.74400 27.36100
C  -3.98100 41.02000 23.88100
O  -3.90700 41.27700 22.63100
C  -5.23200 40.21600 24.25800
N  1.19100 42.90000 23.78000
C  0.15000 42.66000 22.96500
C  0.48100 42.72400 21.43900
C  1.92700 43.46100 21.56800
C  2.26400 43.37600 23.07400
C  0.58900 41.33400 20.66400
C  1.86700 44.84900 20.88200
C  1.26200 45.98500 21.65200
N  2.91700 43.53700 25.95100
C  3.89200 43.71000 24.96900
C  5.16600 43.80800 25.62500
C  4.96900 43.63700 26.98900
C  3.61000 43.51300 27.18000
C  6.50300 43.84500 24.83600
C  5.63600 43.49900 28.24000
O  6.86200 43.40800 28.43400
C  4.51600 43.43900 29.36800
C  4.83600 42.30000 30.27100
O  5.21800 41.17300 29.99700
O  4.69800 42.77500 31.56700
C  5.09900 41.95200 32.70300
H  -2.12500 41.64000 28.97700
H  -1.82700 42.24000 22.59100
H  4.37800 44.06200 23.05000
H  2.17700 42.09300 30.91200
H  -0.59700 43.35200 30.74700
H  -1.03000 41.71000 31.95300
H  0.51300 41.01600 31.79800
H  -0.76100 40.54000 30.56300
H  1.50300 45.07000 30.73500
H  2.87400 44.44200 31.42800
H  0.23900 45.04600 32.52400
H  1.69500 45.19600 33.31300
H  -5.08000 40.87600 26.97400
H  -4.03500 41.25600 28.32300
H  -3.93600 39.67000 27.48900
H  -4.94700 39.42200 24.94900
H  -5.46800 39.64100 23.36300
H  -6.01600 40.93400 24.49700
H  -0.31600 43.29000 20.95700
H  2.71800 42.88100 21.09300
H  0.18400 40.55500 21.31100
H  1.59900 41.04200 20.37400
H  0.04700 41.35600 19.71900
H  1.42000 44.78400 19.89000
H  2.89200 45.18900 20.73200
H  0.87000 45.72000 22.63400
H  0.53300 46.38300 20.94600
H  2.04800 46.74000 21.68200
H  6.50000 43.43800 23.82500
H  7.16200 43.17100 25.38400
H  6.89500 44.86200 24.84900
H  4.56500 44.32300 30.00400
H  6.14300 42.18600 32.91600
H  4.87000 40.89100 32.60200
H  4.43000 42.19800 33.52800

