158

Mg 46.64200 25.52700 28.62000
C  47.90500 27.50900 31.18900
C  45.75000 23.09000 31.21700
C  45.84000 23.28700 26.29800
C  48.13400 27.54700 26.40000
N  46.76600 25.35300 30.90000
C  47.23800 26.38000 31.68700
C  47.01000 26.05500 33.15600
C  46.45400 24.58600 33.18300
C  46.30000 24.30600 31.67600
C  47.24900 23.46600 33.97200
C  46.04800 27.17600 33.79100
C  46.50000 27.84300 35.11800
H  45.42900 28.02900 36.19700
N  45.76100 23.49600 28.73900
C  45.54100 22.66100 29.85900
C  44.82100 21.55200 29.36300
C  44.62700 21.59600 27.93700
C  45.46600 22.79100 27.59900
C  44.29600 20.49300 30.42700
C  43.96400 20.72800 26.94500
O  43.94800 20.96100 25.76100
C  43.18700 19.53400 27.49400
N  46.92000 25.45100 26.57500
C  46.47300 24.43800 25.78000
C  46.75400 24.71900 24.31800
C  47.34900 26.14600 24.33000
C  47.55300 26.43100 25.84300
C  47.64200 23.67000 23.60900
C  46.38600 27.15500 23.68400
C  46.99700 28.33600 23.00400
N  47.83100 27.20800 28.74600
C  48.36000 27.93000 27.70200
C  48.93400 29.13700 28.17500
C  48.83600 29.08700 29.56700
C  48.10300 27.83900 29.88300
C  49.55400 30.18600 27.35700
C  49.12200 29.77800 30.88200
O  49.77200 30.80700 31.12400
C  48.51200 28.70200 31.92300
C  49.45100 28.28400 32.99200
O  50.28000 27.41800 32.81200
O  49.45700 29.05700 34.13900
C  50.48500 29.03700 35.23200
H  45.61300 22.33400 31.99300
H  45.61100 22.73600 25.38300
H  48.47600 28.15700 25.56200
H  48.02100 26.11500 33.55900
H  45.43000 24.58200 33.55700
H  47.81500 22.87500 33.25100
H  46.64600 22.75600 34.53700
H  48.01400 23.86400 34.63900
H  45.17200 26.59000 34.06600
H  45.64500 27.89800 33.08100
H  46.88900 28.83000 34.86500
H  47.28900 27.21700 35.53300
H  44.75200 20.52300 31.41700
H  44.25400 19.46700 30.06200
H  43.26200 20.71100 30.69400
H  42.33500 19.90700 28.06300
H  43.79300 18.84100 28.07800
H  42.80900 19.00300 26.62000
H  45.81600 24.75300 23.76400
H  48.32100 26.16500 23.83700
H  47.44600 22.72900 24.12300
H  48.70300 23.88900 23.72600
H  47.33200 23.63900 22.56500
H  45.84700 27.70200 24.45800
H  45.60400 26.69600 23.08000
H  46.39900 28.40900 22.09500
H  48.07200 28.34200 22.82600
H  46.93900 29.26900 23.56400
H  49.32700 31.13900 27.83500
H  49.22300 30.24600 26.32100
H  50.63600 30.05700 27.31400
H  47.70300 29.29500 32.35000
H  50.20000 28.42900 36.09100
H  50.53000 30.08800 35.51500
H  51.46500 28.76600 34.84000
Mg 49.50100 35.77400 27.00800
C  47.02800 34.78100 29.29100
C  50.20400 38.50800 28.66000
C  51.63200 36.54100 24.51300
C  48.14800 33.21800 24.83600
N  48.68900 36.46500 28.76300
C  47.74900 35.92400 29.62400
C  47.52400 36.87300 30.81600
C  48.35800 38.15600 30.44000
C  49.25900 37.67100 29.25500
C  47.50600 39.46900 30.27200
C  47.86500 36.30600 32.22000
C  46.66500 36.20500 33.14600
H  46.48500 37.51200 33.92800
N  50.89900 37.29900 26.75000
C  51.10200 38.26800 27.58200
C  52.22600 39.08300 27.13300
C  52.65600 38.55800 25.86900
C  51.71200 37.48700 25.62700
C  52.66100 40.30300 27.84100
C  53.80700 38.96600 25.01400
O  54.15600 38.36400 23.97200
C  54.73700 40.11600 25.49000
N  49.65800 35.06300 24.93200
C  50.72800 35.56400 24.20400
C  50.99100 34.71300 22.88900
C  50.11700 33.40400 23.26500
C  49.22600 33.92200 24.33300
C  50.71900 35.27000 21.48600
C  50.97000 32.21200 23.74900
C  51.25400 31.12800 22.75600
N  47.96600 34.16000 26.99100
C  47.51000 33.25700 26.07200
C  46.37900 32.50200 26.64900
C  46.09500 33.14900 27.85000
C  47.14200 34.11500 28.07700
C  45.73800 31.22100 26.03900
C  45.25200 33.13500 28.97500
O  44.30900 32.44800 29.25200
C  45.85200 34.15100 29.95500
C  46.05900 33.42600 31.26200
O  47.10100 32.86800 31.66600
O  44.84100 33.50700 31.95800
C  44.90200 33.00700 33.36100
H  50.40600 39.46400 29.14600
H  52.41500 36.72700 23.77400
H  47.85000 32.39400 24.18400
H  46.44000 36.98700 30.79700
H  49.04700 38.30100 31.27300
H  47.89200 39.92800 29.36200
H  47.68900 40.14800 31.10500
H  46.46100 39.21400 30.09700
H  48.63800 36.91600 32.68700
H  48.30000 35.32000 32.05100
H  46.79400 35.36200 33.82400
H  45.75300 35.97800 32.59500
H  53.72200 40.27700 28.08900
H  52.22500 40.38900 28.83600
H  52.48600 41.18400 27.22200
H  54.15200 41.03500 25.54200
H  55.59000 40.16200 24.81300
H  55.04700 39.89400 26.51100
H  52.02000 34.35200 22.86900
H  49.48300 33.03900 22.45600
H  51.57600 35.14800 20.82400
H  50.63900 36.33900 21.68200
H  49.84300 34.84400 20.99600
H  50.46100 31.64900 24.53200
H  51.97800 32.47000 24.07200
H  50.76100 31.24300 21.79100
H  50.87700 30.16300 23.09400
H  52.31000 31.07300 22.49000
H  46.45900 30.41300 26.16600
H  45.62200 31.41700 24.97300
H  44.77600 30.96400 26.48200
H  45.17200 34.98700 30.12300
H  45.86600 32.75000 33.80000
H  44.33400 32.07900 33.29100
H  44.40800 33.72100 34.02000

