158

Mg 49.01300 34.60000 27.57700
C  47.17700 33.55900 30.24200
C  49.70000 37.45800 29.38500
C  50.92900 35.81600 24.98000
C  47.81500 32.18000 25.63300
N  48.64900 35.26000 29.62700
C  47.95100 34.62700 30.62600
C  48.21900 35.20000 31.98100
C  48.55800 36.66400 31.51000
C  49.01700 36.49500 30.06600
C  47.34100 37.68400 31.69300
C  49.44000 34.45600 32.71200
C  49.44500 34.64800 34.28200
H  48.50400 35.62800 34.95600
N  50.22500 36.32700 27.27300
C  50.33100 37.41500 28.16900
C  51.20200 38.38000 27.58500
C  51.66800 37.83500 26.36300
C  50.94000 36.62500 26.12500
C  51.43700 39.72000 28.22800
C  52.76100 38.37000 25.33700
O  53.01900 37.87100 24.25000
C  53.57300 39.58100 25.68400
N  49.23900 34.13200 25.52900
C  50.10800 34.75000 24.71900
C  50.36000 33.92200 23.47400
C  49.40200 32.70100 23.61600
C  48.74500 33.01300 24.99000
C  50.27000 34.74900 22.08900
C  50.17800 31.34400 23.68700
C  49.30400 30.14400 23.15300
N  47.76800 33.00500 27.89500
C  47.29000 32.09700 26.94300
C  46.36700 31.17400 27.52900
C  46.34800 31.65600 28.89000
C  47.13200 32.80700 29.05000
C  45.81200 29.89900 26.92800
C  45.75800 31.45300 30.19300
O  44.95000 30.61100 30.58700
C  46.16300 32.68400 31.08900
C  46.68100 32.04200 32.33900
O  47.47700 31.15500 32.37300
O  46.26000 32.74000 33.44600
C  46.65900 32.08300 34.70400
H  49.94200 38.29200 30.04800
H  51.66500 36.01400 24.19800
H  47.40400 31.43100 24.95200
H  47.34500 35.15700 32.63000
H  49.36400 37.08800 32.10900
H  46.59300 37.24700 32.35400
H  46.93200 37.95200 30.71900
H  47.69100 38.65000 32.05700
H  50.38500 34.90500 32.40700
H  49.48800 33.45300 32.28800
H  50.44700 34.98700 34.54700
H  49.36800 33.65000 34.71400
H  52.45300 39.78200 28.61800
H  50.86500 39.97000 29.12100
H  51.22200 40.51800 27.51700
H  52.87300 40.36200 25.98200
H  54.21600 39.86100 24.84900
H  54.06400 39.12700 26.54500
H  51.39400 33.57600 23.48700
H  48.58300 32.78100 22.90100
H  51.24100 35.01800 21.67300
H  49.75600 35.70200 22.21000
H  49.60800 34.26200 21.37300
H  50.53200 31.24300 24.71300
H  51.00800 31.30400 22.98200
H  49.87900 29.62500 22.38700
H  48.37200 30.45700 22.68100
H  49.04200 29.44400 23.94600
H  46.48200 29.06300 27.12800
H  45.58400 29.99300 25.86600
H  44.88500 29.74400 27.48000
H  45.27900 33.24300 31.39600
H  46.34700 32.59700 35.61300
H  47.71600 31.83000 34.78300
H  46.03200 31.19800 34.81000
Mg 27.49400 49.94800 26.95900
C  25.41400 50.69200 29.75400
C  29.91700 49.15100 29.36300
C  29.32800 49.01700 24.53200
C  24.87100 50.94000 24.92600
N  27.60800 49.91000 29.35900
C  26.61300 50.19100 30.24900
C  27.02300 50.01900 31.71900
C  28.58500 49.74500 31.57000
C  28.73300 49.58100 29.99200
C  29.47600 50.84600 32.16100
C  26.20900 48.92600 32.40100
C  25.48400 49.38600 33.71600
H  25.73200 48.44100 34.94000
N  29.40600 49.21600 26.95200
C  30.24900 48.92100 27.98300
C  31.45200 48.36300 27.44500
C  31.35000 48.47000 26.06100
C  30.02300 48.88100 25.79300
C  32.56100 47.75900 28.36600
C  32.47600 48.21500 25.12300
O  32.40500 48.43800 23.91300
C  33.75600 47.79700 25.62400
N  27.19500 50.11300 25.01700
C  28.10800 49.56500 24.18100
C  27.53900 49.29500 22.72300
C  26.02600 49.78800 22.90700
C  25.98700 50.31400 24.39900
C  28.38000 49.98600 21.61100
C  24.92700 48.63100 22.65300
C  24.31200 48.64600 21.27900
N  25.59400 50.84700 27.21100
C  24.61400 51.08800 26.28100
C  23.49500 51.66300 26.94100
C  23.73800 51.44400 28.28100
C  25.01300 50.93300 28.38500
C  22.17900 52.16000 26.36700
C  23.10800 51.43700 29.61800
O  22.02100 51.80700 29.96600
C  24.23700 51.02300 30.66300
C  24.43800 52.20100 31.48400
O  25.22300 53.13300 31.27900
O  23.76000 52.08000 32.68300
C  23.84200 53.10100 33.79700
H  30.74200 49.00700 30.06300
H  29.90900 48.58700 23.71400
H  24.04600 51.15100 24.24200
H  26.89000 50.90100 32.34500
H  28.77900 48.73800 31.93900
H  28.90200 51.51600 32.80200
H  29.89900 51.40000 31.32300
H  30.35100 50.50900 32.71600
H  26.77700 48.04600 32.70200
H  25.35500 48.63900 31.78700
H  24.42100 49.25900 33.51300
H  25.68400 50.43100 33.95500
H  32.59000 46.67100 28.30700
H  32.30400 47.72700 29.42400
H  33.57100 48.15500 28.26300
H  34.11000 48.63800 26.22000
H  34.52900 47.66300 24.86700
H  33.59400 46.84700 26.13200
H  27.54200 48.21900 22.54600
H  25.83900 50.64400 22.25800
H  28.43400 49.30000 20.76500
H  29.41400 50.05500 21.94800
H  28.01600 50.98300 21.36000
H  24.14200 48.73100 23.40200
H  25.50400 47.71800 22.79800
H  23.23400 48.74000 21.40900
H  24.58200 47.74500 20.72900
H  24.52200 49.57200 20.74400
H  21.54400 51.42700 25.86900
H  22.33400 53.04200 25.74400
H  21.70000 52.32400 27.33200
H  23.83400 50.13700 31.15400
H  23.66200 54.11200 33.43100
H  24.79700 53.10600 34.32300
H  23.04900 53.03400 34.54200

