158

Mg 7.79100 2.68400 27.58300
C  9.06100 0.97900 30.34200
C  5.58500 4.47800 29.77600
C  6.02700 3.65200 24.90100
C  9.31800 0.11900 25.54600
N  7.32800 2.67800 29.82100
C  8.14100 2.00000 30.73000
C  7.85700 2.43400 32.17400
C  6.67500 3.54500 31.95700
C  6.52000 3.59000 30.46400
C  5.39400 3.21500 32.77400
C  9.23900 3.01800 32.72500
C  9.47800 2.75500 34.16000
H  9.37900 3.89800 35.12800
N  6.25700 4.07000 27.34900
C  5.45500 4.63200 28.33800
C  4.66600 5.66800 27.67100
C  4.79100 5.47300 26.26800
C  5.74200 4.35600 26.08000
C  3.75700 6.59400 28.50600
C  4.19600 6.28200 25.04400
O  4.32400 5.98500 23.81500
C  3.32400 7.48800 25.32600
N  7.55200 1.79100 25.46100
C  6.81300 2.52000 24.58800
C  7.08400 2.04700 23.08300
C  8.17100 0.89400 23.36300
C  8.42300 0.94000 24.87500
C  5.86500 1.61500 22.29400
C  9.49500 0.97200 22.60800
C  9.86600 -0.17600 21.73100
N  9.01600 0.98800 27.80300
C  9.56000 0.03700 26.88800
C  10.34100 -0.87600 27.62600
C  10.19600 -0.54600 28.98700
C  9.39500 0.59500 29.02300
C  11.02000 -1.99300 27.00000
C  10.58800 -0.91100 30.34300
O  11.30400 -1.74600 30.82700
C  9.90400 0.09300 31.18200
C  9.09300 -0.66300 32.19200
O  8.12800 -1.32500 31.91500
O  9.68900 -0.47500 33.41400
C  8.76700 -1.04900 34.48100
H  4.99400 5.13300 30.42000
H  5.55200 4.09000 24.02100
H  9.88400 -0.61800 24.97200
H  7.52300 1.47600 32.57300
H  7.06000 4.55300 32.10600
H  4.68400 2.78800 32.06600
H  5.03900 4.13400 33.24100
H  5.59400 2.49100 33.56400
H  9.18600 4.10700 32.69400
H  10.07000 2.75300 32.07200
H  10.48100 2.36600 34.33200
H  8.73200 2.03200 34.49100
H  4.14600 6.87800 29.48400
H  2.85600 5.99900 28.65000
H  3.42000 7.50300 28.00700
H  3.92100 8.04500 26.04800
H  2.36200 7.19700 25.74700
H  3.38700 8.19300 24.49800
H  7.55900 2.78400 22.43500
H  7.64100 -0.04800 23.22300
H  4.95600 1.69200 22.89000
H  6.02900 0.58100 21.99100
H  5.61600 2.32400 21.50300
H  10.36500 1.15200 23.23900
H  9.54900 1.89500 22.03100
H  10.38400 0.20700 20.85200
H  9.03600 -0.80000 21.40100
H  10.59400 -0.83200 22.20800
H  11.57900 -2.45500 27.81300
H  11.70600 -1.56900 26.26600
H  10.28900 -2.71300 26.63300
H  10.71100 0.65600 31.64900
H  7.70300 -1.19000 34.29100
H  8.93200 -0.38400 35.32900
H  9.22300 -1.98400 34.80800
Mg 46.64400 16.21600 28.39700
C  44.54300 16.17800 31.27300
C  48.83500 18.21900 30.32100
C  47.99800 17.24200 25.66500
C  44.17900 14.58500 26.65300
N  46.65700 17.13600 30.55700
C  45.70300 16.89200 31.51300
C  46.21600 17.40300 32.91800
C  47.56900 18.11500 32.59700
C  47.71400 17.82700 31.05600
C  47.62700 19.66800 32.92800
C  46.48700 16.19100 33.89300
C  46.26900 16.51400 35.43600
H  46.13200 17.98200 35.91900
N  48.31500 17.46300 28.00400
C  49.02100 18.19400 28.95900
C  49.99500 18.94700 28.25100
C  49.73600 18.82100 26.83100
C  48.70100 17.80000 26.73900
C  51.08800 19.69100 29.02100
C  50.39300 19.41800 25.58800
O  50.16200 19.03800 24.42900
C  51.32000 20.57000 25.78700
N  46.16200 15.84600 26.40400
C  46.89500 16.34500 25.43500
C  46.44600 15.93500 24.05800
C  45.49300 14.72200 24.37400
C  45.29800 14.95100 25.87000
C  45.80200 17.13400 23.33800
C  45.96600 13.25400 24.01400
C  45.20900 12.58700 22.87400
N  44.80000 15.44700 28.89100
C  43.90200 14.81500 28.07900
C  42.73200 14.42100 28.75400
C  42.93700 14.92800 30.02900
C  44.26300 15.50100 30.07900
C  41.52000 13.79800 28.21300
C  42.29000 15.06500 31.33700
O  41.21500 14.73900 31.77000
C  43.39700 15.91900 32.18700
C  42.91800 17.22900 32.75200
O  42.78500 18.26600 32.16200
O  42.55900 16.95200 34.02200
C  41.91300 18.10300 34.67900
H  49.60000 18.72200 30.91600
H  48.40500 17.70800 24.76500
H  43.51900 13.89800 26.11900
H  45.52000 18.15000 33.30000
H  48.52000 17.71400 32.95000
H  48.52500 19.90200 33.49900
H  46.80400 19.95800 33.58100
H  47.59000 20.20400 31.98000
H  47.51200 15.82700 33.82400
H  45.92800 15.30000 33.60600
H  47.12900 16.08400 35.94900
H  45.41100 15.99000 35.85800
H  51.85200 19.00800 29.39300
H  50.70900 20.24100 29.88300
H  51.59600 20.39500 28.36200
H  50.97600 21.38000 26.43100
H  51.41700 20.92200 24.76000
H  52.28700 20.14900 26.06200
H  47.32400 15.62300 23.49400
H  44.54200 14.88300 23.86500
H  46.60600 17.74900 22.93200
H  45.23400 17.63100 24.12400
H  45.03400 16.83000 22.62700
H  45.87800 12.53300 24.82700
H  46.98100 13.36700 23.63500
H  44.37100 13.23900 22.62700
H  44.80000 11.59600 23.07000
H  45.91000 12.43500 22.05300
H  41.35700 13.95100 27.14600
H  40.70300 14.42300 28.57400
H  41.47700 12.71100 28.27100
H  43.79800 15.30200 32.99100
H  41.86900 17.85300 35.73900
H  40.88200 18.17700 34.33600
H  42.65900 18.88200 34.52000

