158

Mg 53.57600 23.61100 45.11400
C  51.26800 26.04600 43.91000
C  51.72400 21.19900 43.69500
C  56.37900 21.63700 45.38600
C  55.66900 26.44200 46.07200
N  51.82700 23.63200 43.76300
C  51.01700 24.71800 43.42500
C  49.82200 24.25700 42.53200
C  49.66100 22.77300 43.03100
C  51.16400 22.49000 43.55300
C  48.58500 22.55800 44.11300
C  50.16800 24.35500 41.02200
C  49.17200 24.81900 39.96100
H  49.73000 25.24200 38.56600
N  53.96900 21.64700 44.80600
C  52.99100 20.84300 44.24900
C  53.47300 19.52800 44.29800
C  54.78700 19.55700 44.74400
C  55.15000 20.98800 45.00800
C  52.63700 18.28700 43.85000
C  55.72200 18.43400 44.78400
O  55.30700 17.29400 44.59000
C  57.12100 18.54700 45.30400
N  55.75400 24.01100 45.60500
C  56.69300 23.00200 45.71400
C  58.04400 23.48400 46.08500
C  57.70400 24.89900 46.46600
C  56.26600 25.13600 46.06500
C  58.76400 22.76800 47.26100
C  58.68700 25.99800 46.04600
C  58.69700 26.48100 44.59700
N  53.44200 25.78100 45.17900
C  54.38200 26.76700 45.60400
C  53.78200 28.08700 45.42900
C  52.57500 27.82500 44.71300
C  52.44000 26.41100 44.63300
C  54.42600 29.41900 45.71600
C  51.43100 28.38200 44.04600
O  51.08100 29.57400 43.86300
C  50.46600 27.24700 43.74500
C  49.78300 27.54200 42.39200
O  50.36900 27.67500 41.30700
O  48.46200 27.83600 42.51400
C  47.89500 28.49300 41.34700
H  51.10200 20.41400 43.26000
H  57.31200 21.07900 45.27500
H  56.15300 27.35300 46.43200
H  48.85900 24.76100 42.45000
H  49.35100 22.15900 42.18500
H  49.02100 22.22700 45.05600
H  47.88700 21.86000 43.65200
H  48.06600 23.48400 44.36400
H  50.49400 23.34500 40.77200
H  51.02200 25.03200 40.98400
H  48.51500 25.57500 40.39200
H  48.57000 23.92700 39.78300
H  52.40100 18.25300 42.78700
H  51.61600 18.29900 44.23100
H  52.99800 17.32100 44.20200
H  57.03300 19.01700 46.28300
H  57.59300 19.09600 44.48900
H  57.44600 17.51700 45.44800
H  58.73400 23.65300 45.25800
H  57.60600 25.02000 47.54500
H  58.72200 23.43200 48.12400
H  59.81300 22.56500 47.04800
H  58.16500 21.87900 47.45800
H  59.68600 25.60300 46.23300
H  58.48300 26.78600 46.77100
H  59.54000 26.19000 43.96900
H  58.64100 27.56700 44.67200
H  57.73500 26.12700 44.22600
H  55.45800 29.31300 45.37900
H  54.34700 29.69200 46.76800
H  53.87800 30.08800 45.05200
H  49.72200 27.32200 44.53800
H  47.97900 29.55000 41.60100
H  46.84300 28.35100 41.10100
H  48.40400 28.38600 40.38900
Mg 26.63600 50.22300 26.36300
C  24.54400 51.58400 28.83700
C  28.80400 49.35100 28.84900
C  28.80900 49.06400 23.99400
C  24.53400 51.50600 23.94100
N  26.68200 50.54400 28.60800
C  25.73600 51.07800 29.40400
C  26.06400 50.91600 30.83300
C  27.59300 50.51300 30.84000
C  27.70600 50.06400 29.32600
C  28.60300 51.54500 31.36000
C  25.16700 49.86400 31.61300
C  24.46800 50.40500 32.96100
H  25.41700 51.09500 33.97800
N  28.44300 49.23300 26.42600
C  29.18400 48.96500 27.54100
C  30.45400 48.26900 27.16900
C  30.48600 48.24600 25.75000
C  29.21600 48.78900 25.35200
C  31.44800 47.75400 28.20200
C  31.53400 47.70000 24.81000
O  31.47900 47.81800 23.64300
C  32.66200 46.89100 25.30600
N  26.69300 50.31900 24.28200
C  27.68000 49.77500 23.49900
C  27.36700 49.80300 21.99600
C  25.95300 50.52300 21.95300
C  25.66000 50.79000 23.53600
C  28.44400 50.61100 21.13200
C  24.85000 49.65000 21.30700
C  23.56200 50.39800 20.89600
N  24.80900 51.37100 26.32000
C  24.09800 51.79700 25.26400
C  22.96800 52.54300 25.74900
C  23.04200 52.44300 27.18300
C  24.22400 51.73500 27.45800
C  21.80400 53.04600 25.05100
C  22.49100 52.83700 28.40200
O  21.56300 53.59000 28.65400
C  23.35300 52.27300 29.54600
C  23.90300 53.38300 30.33500
O  24.96800 53.96900 30.08900
O  23.07200 53.73200 31.38700
C  23.58300 54.80000 32.20200
H  29.43900 49.05900 29.68800
H  29.46700 48.72600 23.19100
H  23.92700 51.79200 23.07900
H  25.90000 51.90300 31.26400
H  27.70800 49.73400 31.59400
H  28.09100 52.43700 31.72300
H  29.35600 51.73700 30.59700
H  29.16500 51.09300 32.17700
H  25.84200 49.03100 31.81000
H  24.42000 49.40400 30.96500
H  23.90300 49.64000 33.49400
H  23.73400 51.16300 32.69000
H  31.47200 46.68100 28.39100
H  31.38600 48.24300 29.17400
H  32.42600 48.01000 27.79500
H  33.53300 47.44400 25.65700
H  32.91200 46.24900 24.46100
H  32.41800 46.12900 26.04600
H  27.32500 48.77000 21.64900
H  26.17900 51.46200 21.44900
H  28.64400 49.99000 20.25900
H  29.30100 50.81700 21.77400
H  28.21200 51.60500 20.75000
H  24.57200 48.71500 21.79400
H  25.30100 49.24500 20.40100
H  22.85100 50.15400 21.68500
H  23.15600 50.00900 19.96200
H  23.56100 51.48700 20.84500
H  21.83600 54.13400 25.00000
H  20.91400 52.89400 25.66200
H  21.71000 52.71500 24.01600
H  22.71900 51.63500 30.16200
H  23.77500 55.70200 31.62100
H  24.48700 54.49000 32.72600
H  22.87000 54.98400 33.00600

