158

Mg 53.52600 23.33800 45.29700
C  51.02000 25.49900 44.30600
C  51.61700 20.70200 44.20900
C  56.39000 21.27800 45.13200
C  55.65200 26.02500 46.06700
N  51.50700 23.11700 44.22700
C  50.69900 24.15700 44.08200
C  49.34500 23.59600 43.53600
C  49.41400 22.12800 44.05800
C  50.94200 21.91400 44.21600
C  48.62400 21.82500 45.38700
C  49.41000 23.65400 41.94800
C  48.07400 24.02700 41.28500
H  47.95400 23.76100 39.73700
N  53.87500 21.26800 44.86700
C  52.93300 20.41400 44.42100
C  53.50900 19.10200 44.41100
C  54.93700 19.17400 44.77400
C  55.13700 20.58900 44.91700
C  52.66600 17.84400 43.94200
C  55.84000 17.99000 45.08900
O  55.41100 16.91500 44.75900
C  57.18400 18.07900 45.80600
N  55.84400 23.59800 45.53700
C  56.74500 22.64100 45.52000
C  58.14500 23.18000 45.83700
C  57.88200 24.72500 46.17100
C  56.40000 24.80800 45.82800
C  58.77700 22.32400 46.98900
C  58.78700 25.73700 45.39700
C  59.47700 26.80500 46.31000
N  53.41900 25.34900 45.29800
C  54.24700 26.32600 45.77000
C  53.56700 27.66200 45.74300
C  52.31100 27.37600 45.13900
C  52.25700 25.92600 44.87700
C  54.09500 28.96200 46.24200
C  51.08100 27.95900 44.69900
O  50.63300 29.11100 44.71500
C  50.16500 26.77100 44.11200
C  49.87900 27.03600 42.64800
O  50.82200 27.20200 41.87000
O  48.58700 27.19600 42.42400
C  48.20600 27.84400 41.14600
H  50.85600 19.92300 44.13200
H  57.29400 20.67500 45.03100
H  56.35200 26.82500 46.31800
H  48.48600 24.13600 43.93400
H  48.93200 21.41700 43.38700
H  48.21600 22.72800 45.84100
H  49.31500 21.34900 46.08200
H  47.86400 21.06600 45.19900
H  49.69400 22.68900 41.52900
H  50.12300 24.34300 41.49400
H  47.87600 25.07100 41.52700
H  47.23400 23.49500 41.73200
H  52.20000 17.39500 44.81900
H  53.30300 17.04000 43.57500
H  51.86000 18.06300 43.24100
H  56.93100 18.62300 46.71600
H  57.99400 18.56500 45.26300
H  57.44900 17.04900 46.04500
H  58.66500 23.06800 44.88600
H  57.99000 24.78600 47.25400
H  59.40300 22.96700 47.60800
H  59.32700 21.49700 46.53800
H  57.97400 21.88200 47.57900
H  58.29500 26.36900 44.65900
H  59.60200 25.33600 44.79400
H  58.67300 27.51700 46.50000
H  60.34800 27.35100 45.94700
H  59.90900 26.29700 47.17100
H  55.11900 28.71500 46.52200
H  53.60900 29.33500 47.14300
H  53.97900 29.78600 45.53700
H  49.25100 26.83700 44.70300
H  49.03200 27.88600 40.43500
H  47.92400 28.85500 41.44000
H  47.31200 27.40200 40.70700
Mg 16.69400 51.50600 25.54200
C  18.30200 50.59700 28.42800
C  13.98000 52.46200 27.53300
C  15.03800 52.14800 22.83300
C  19.27800 50.02900 23.68500
N  16.28700 51.65100 27.74300
C  17.11100 51.20600 28.73700
C  16.58600 51.48000 30.14700
C  15.10000 51.98800 29.84000
C  15.13700 52.15700 28.27800
C  13.73600 51.24500 30.30300
C  17.51900 52.38300 31.10600
C  17.89200 51.92800 32.51300
H  16.94100 51.02500 33.35500
N  14.75300 52.15900 25.23600
C  13.83200 52.51800 26.11500
C  12.64500 53.06600 25.45000
C  12.91800 53.08100 24.06700
C  14.27200 52.39600 23.95300
C  11.51200 53.59700 26.16100
C  12.07300 53.57500 22.88400
O  12.53100 53.68700 21.73300
C  10.65400 53.84900 23.20100
N  17.03700 51.07900 23.52700
C  16.23200 51.50000 22.57200
C  16.80700 51.10800 21.15600
C  18.23000 50.77800 21.55200
C  18.17000 50.55100 23.03100
C  15.97500 49.97000 20.54100
C  19.29100 51.89200 21.17800
C  20.73200 51.43800 20.90500
N  18.49300 50.59400 25.90700
C  19.39300 49.99300 25.11400
C  20.45100 49.36200 25.87600
C  19.97700 49.52600 27.15600
C  18.85000 50.32100 27.16500
C  21.69000 48.65400 25.31100
C  20.32400 49.22700 28.52800
O  21.22300 48.62500 29.02200
C  19.19000 49.82200 29.41100
C  18.61700 48.78700 30.32500
O  17.76400 47.92200 30.07400
O  19.33200 48.92300 31.50400
C  19.28500 47.89400 32.50300
H  13.09300 52.69600 28.12500
H  14.56400 52.33300 21.86700
H  20.13300 49.61400 23.14700
H  16.44900 50.47600 30.55000
H  14.96000 52.95700 30.31900
H  13.18700 50.78600 29.48100
H  13.12000 52.03400 30.73600
H  13.89700 50.47600 31.05800
H  17.22900 53.43400 31.09900
H  18.46800 52.46100 30.57400
H  18.00200 52.82200 33.12700
H  18.90900 51.53600 32.52800
H  11.77400 54.09400 27.09500
H  10.87500 52.74300 26.39200
H  11.02200 54.33700 25.52900
H  10.54000 54.85600 23.60200
H  10.20300 52.97900 23.67800
H  10.07600 53.80200 22.27800
H  16.73600 52.04800 20.60700
H  18.53400 49.84300 21.08300
H  15.38500 49.55300 21.35700
H  16.50000 49.12700 20.09100
H  15.23900 50.42000 19.87400
H  19.23200 52.58100 22.02100
H  18.95100 52.39400 20.27300
H  21.49600 52.00500 21.43800
H  20.79100 51.70600 19.85000
H  20.85800 50.37100 21.08600
H  22.40300 49.47800 25.34500
H  21.44300 48.32100 24.30300
H  21.83400 47.76600 25.92500
H  19.72600 50.54700 30.02300
H  19.89900 47.04600 32.19600
H  18.24000 47.67000 32.71800
H  19.70500 48.25600 33.44200

