158

Mg 34.39700 3.25700 30.08000
C  31.99700 3.98700 32.51300
C  36.86800 3.46600 32.45700
C  36.68600 2.82000 27.62700
C  31.90200 3.74200 27.56500
N  34.45000 3.83000 32.26500
C  33.32600 3.91900 33.03700
C  33.76300 3.81600 34.51300
C  35.33900 3.90600 34.47000
C  35.61300 3.63600 32.99200
C  36.07900 5.16600 34.97900
C  33.18400 2.56800 35.15600
C  32.95400 2.58800 36.65200
H  33.72400 3.63100 37.49800
N  36.50200 2.95000 30.05700
C  37.35600 3.22600 31.20800
C  38.74000 3.13900 30.80800
C  38.67100 2.71900 29.46400
C  37.24400 2.81800 28.97500
C  40.00200 3.16300 31.80100
C  39.82300 2.57000 28.47800
O  39.63300 2.15400 27.32300
C  41.24200 2.73300 28.89400
N  34.33000 3.35800 27.86600
C  35.39400 3.05400 27.07600
C  34.96000 3.04700 25.57500
C  33.39500 3.07700 25.68300
C  33.14500 3.42700 27.15800
C  35.55400 4.22800 24.79600
C  32.63600 1.76300 25.15100
C  31.54300 2.03800 24.09500
N  32.35300 3.87400 30.01200
C  31.51900 3.90700 28.92700
C  30.19800 4.11200 29.45700
C  30.29600 4.20300 30.86100
C  31.63800 3.99400 31.15300
C  29.01900 4.37400 28.59300
C  29.57100 4.50600 32.10400
O  28.45200 4.92700 32.28600
C  30.64800 4.30000 33.23000
C  30.73400 5.51000 34.09500
O  30.58100 6.70300 33.73400
O  30.78800 5.14500 35.41500
C  30.49300 6.05700 36.49800
H  37.63500 3.40200 33.23100
H  37.47800 2.65600 26.89200
H  31.18500 3.88900 26.75500
H  33.37400 4.64600 35.10200
H  35.77600 2.99400 34.87500
H  35.29600 5.87900 35.24000
H  36.50400 5.65700 34.10300
H  36.76200 5.07700 35.82400
H  33.92400 1.77400 35.05000
H  32.26600 2.26900 34.65000
H  33.26700 1.64100 37.09300
H  31.89000 2.62000 36.88500
H  40.70400 2.38100 31.51200
H  39.82300 2.78900 32.81000
H  40.50200 4.12000 31.95100
H  41.88700 2.50400 28.04600
H  41.29100 1.91900 29.61700
H  41.51700 3.61200 29.47800
H  35.28000 2.17400 25.00600
H  33.01500 3.88500 25.05900
H  34.82800 4.88900 24.32300
H  36.16800 3.87300 23.96800
H  36.11100 4.86100 25.48700
H  32.15400 1.28900 26.00700
H  33.30400 1.09000 24.61300
H  31.44800 3.08100 23.79300
H  30.61000 1.74100 24.57500
H  31.70000 1.47900 23.17300
H  28.93800 5.43900 28.37900
H  28.13400 4.08700 29.16100
H  29.05000 3.71800 27.72300
H  30.22600 3.44600 33.76000
H  29.49500 6.02000 36.93400
H  30.54200 7.08300 36.13300
H  31.22900 5.84900 37.27500
Mg 49.24400 45.99400 42.74500
C  45.78500 46.10900 42.37200
C  49.27000 42.71400 41.64900
C  52.70300 46.11200 42.27500
C  49.28600 49.37400 43.36900
N  47.77600 44.64800 41.94300
C  46.41800 44.87700 42.00300
C  45.59800 43.60200 41.55000
C  46.68500 42.45900 41.73000
C  47.96700 43.31900 41.78500
C  46.54100 41.67000 43.03800
C  45.08100 43.77600 40.10500
C  43.61000 43.36800 39.90600
H  43.03800 43.78100 38.54200
N  50.82200 44.57300 42.17100
C  50.57200 43.27200 41.82400
C  51.78200 42.64900 41.56400
C  52.80100 43.59900 41.68800
C  52.12000 44.80300 42.07500
C  51.85800 41.20300 41.14000
C  54.32300 43.33600 41.31600
O  54.66300 42.19800 41.10300
C  55.26000 44.38500 41.14900
N  50.80400 47.44900 42.79400
C  52.07500 47.26600 42.71000
C  52.92600 48.60100 42.85600
C  51.81900 49.56300 43.38700
C  50.56000 48.74700 43.10200
C  54.08200 48.54600 43.88100
C  51.86000 50.91900 42.66700
C  51.74800 52.21100 43.48900
N  47.85500 47.49700 42.77700
C  48.02200 48.81600 43.22300
C  46.74500 49.42500 43.33000
C  45.81700 48.39500 43.04600
C  46.53900 47.25500 42.73400
C  46.46900 50.85900 43.59600
C  44.42700 48.06300 42.89400
O  43.40600 48.67900 43.01500
C  44.35300 46.52200 42.50900
C  43.58700 45.80300 43.50500
O  43.98500 45.53900 44.61900
O  42.40500 45.48600 42.96400
C  41.51400 44.70400 43.87300
H  49.25200 41.64300 41.43700
H  53.77100 46.24800 42.09300
H  49.36000 50.36600 43.82100
H  44.75100 43.48400 42.22600
H  46.68200 41.69200 40.95500
H  45.78300 42.13700 43.66800
H  47.51100 41.69400 43.53400
H  46.18300 40.65900 42.84400
H  45.79000 43.17400 39.53700
H  45.11000 44.82700 39.81400
H  43.01200 43.73400 40.74100
H  43.49500 42.30000 40.09100
H  52.79500 40.64600 41.16500
H  51.35300 41.08600 40.18100
H  51.16300 40.60900 41.73300
H  54.93200 44.87800 40.23400
H  56.25600 44.03000 40.88400
H  55.23300 44.95500 42.07800
H  53.20000 48.71100 41.80700
H  51.77600 49.81400 44.44700
H  54.00500 49.42800 44.51700
H  55.02400 48.52700 43.33300
H  54.10300 47.64200 44.49000
H  50.95600 50.83300 42.06200
H  52.70300 50.90100 41.97600
H  52.68300 52.76900 43.44300
H  51.47200 51.94600 44.51000
H  50.95000 52.82100 43.06600
H  47.18200 51.15100 44.36700
H  45.44100 50.98200 43.93700
H  46.52200 51.52300 42.73300
H  43.88900 46.36800 41.53500
H  40.62500 44.43000 43.30400
H  41.27400 45.43400 44.64600
H  42.10400 43.82600 44.13600

