158

Mg 47.17000 15.98100 28.32000
C  45.40100 15.69000 31.25200
C  49.44200 18.02900 29.97900
C  48.77800 16.63700 25.35800
C  44.80800 14.21100 26.55500
N  47.23800 16.96100 30.37000
C  46.46900 16.57300 31.37700
C  47.10600 17.03500 32.74300
C  48.27100 18.00300 32.33000
C  48.34200 17.63500 30.78700
C  48.09000 19.54100 32.52300
C  47.61800 15.84700 33.52000
C  48.03100 16.06200 34.99800
H  47.59200 17.31700 35.72100
N  48.90800 17.14900 27.83600
C  49.78100 17.76900 28.70400
C  50.90100 18.28500 27.97800
C  50.81600 17.78700 26.58900
C  49.45800 17.18800 26.51900
C  51.99600 19.06100 28.62300
C  51.70700 18.01100 25.37100
O  51.47300 17.40800 24.34100
C  52.98800 18.86800 25.46600
N  46.70100 15.68400 26.15700
C  47.58400 15.95600 25.18600
C  47.04700 15.46100 23.78300
C  45.80100 14.59900 24.16600
C  45.74800 14.85200 25.66200
C  46.78500 16.65300 22.78500
C  45.74000 13.10600 23.73800
C  44.74300 12.71600 22.63900
N  45.39700 15.22200 28.74800
C  44.58100 14.47900 27.95800
C  43.46300 14.07700 28.76500
C  43.69000 14.48500 30.09000
C  44.93100 15.16200 30.03100
C  42.24600 13.32700 28.22500
C  43.27300 14.43100 31.45000
O  42.30500 13.92300 31.91700
C  44.38000 15.16600 32.27600
C  43.67800 16.12700 33.19400
O  43.56500 17.30800 32.95800
O  43.16800 15.48000 34.29700
C  42.73700 16.43600 35.27600
H  50.26900 18.44100 30.56100
H  49.22200 16.79100 24.37200
H  44.08700 13.56000 26.05700
H  46.36400 17.65600 33.24600
H  49.20300 17.65700 32.77600
H  48.84300 20.08100 33.09700
H  47.18600 19.63200 33.12400
H  47.94800 20.04300 31.56500
H  48.50700 15.52600 32.97700
H  46.93900 14.99600 33.47300
H  49.11400 16.03500 34.87300
H  47.78600 15.20300 35.62200
H  52.04000 20.04100 28.14800
H  52.92200 18.56200 28.33800
H  51.93900 19.15000 29.70800
H  53.26600 19.09000 24.43500
H  53.84700 18.27800 25.78700
H  52.71700 19.78800 25.98300
H  47.85400 14.85900 23.36500
H  44.86900 15.02900 23.79800
H  47.18600 16.47800 21.78600
H  47.27800 17.54500 23.17100
H  45.73400 16.89000 22.62100
H  45.40000 12.42400 24.51800
H  46.75000 12.82100 23.44300
H  45.02000 11.81200 22.09500
H  44.79000 13.47800 21.86100
H  43.70300 12.53800 22.91300
H  42.59300 12.31000 28.04100
H  41.96200 13.81200 27.29100
H  41.36400 13.40400 28.86100
H  44.78700 14.36600 32.89500
H  43.59500 17.09100 35.42400
H  42.55700 15.98600 36.25200
H  41.86600 17.03700 35.01500
Mg 0.31500 43.36600 26.54200
C  2.40400 43.19500 29.41800
C  -2.31600 42.83200 28.52700
C  -1.36200 42.62700 23.85100
C  3.28300 43.54200 24.67900
N  0.14600 43.02200 28.63100
C  1.02300 43.15200 29.68200
C  0.38600 43.16000 31.03900
C  -1.02600 42.61600 30.71400
C  -1.09400 42.72800 29.20200
C  -1.45500 41.21700 31.30500
C  0.32700 44.56200 31.68900
C  0.94500 44.52300 33.10100
H  0.54400 43.34000 33.92600
N  -1.55500 42.97900 26.18300
C  -2.53400 42.76400 27.18000
C  -3.77500 42.57900 26.53600
C  -3.58800 42.58800 25.14600
C  -2.13400 42.74800 25.03300
C  -5.11600 42.36500 27.26900
C  -4.54900 42.45800 23.94600
O  -4.28100 42.29000 22.76600
C  -6.04000 42.45700 24.34700
N  0.85900 43.17500 24.51700
C  -0.02900 42.87700 23.58600
C  0.62600 42.53600 22.25500
C  1.98700 43.29600 22.38600
C  2.07000 43.36200 23.91200
C  0.87500 41.03800 22.05700
C  2.05600 44.79200 21.85700
C  2.54900 44.93500 20.40200
N  2.43100 43.43100 26.90700
C  3.53500 43.62600 26.05900
C  4.77300 43.78600 26.72700
C  4.39200 43.48700 28.03900
C  2.96100 43.30100 28.11300
C  6.12700 44.13100 26.09100
C  4.85600 43.22600 29.44000
O  5.95400 43.08400 29.94200
C  3.58500 43.26900 30.33400
C  3.65200 42.19800 31.27600
O  3.17000 41.03500 31.10500
O  4.23700 42.54700 32.37000
C  4.34700 41.54600 33.51600
H  -3.17500 42.70100 29.18800
H  -1.82200 42.39800 22.88800
H  4.19500 43.78800 24.13200
H  0.87700 42.34800 31.57600
H  -1.85000 43.24800 31.04500
H  -0.75300 40.67300 31.93700
H  -1.56400 40.48800 30.50200
H  -2.39100 41.38500 31.83800
H  -0.70800 44.90300 31.73200
H  0.93100 45.25200 31.10000
H  0.49100 45.33800 33.66600
H  2.01300 44.66000 32.93200
H  -5.59800 43.34200 27.30400
H  -4.91400 42.00900 28.27900
H  -5.82300 41.61600 26.91100
H  -6.29500 43.19600 25.10700
H  -6.22300 41.44600 24.71200
H  -6.64500 42.59600 23.45100
H  -0.05600 42.91000 21.49200
H  2.85900 42.76700 21.99900
H  1.87900 40.74600 21.74800
H  0.15700 40.57000 21.38300
H  0.77500 40.53300 23.01700
H  2.69200 45.41700 22.48500
H  1.01700 45.12000 21.87500
H  1.88900 45.58800 19.83100
H  2.69900 43.94600 19.96900
H  3.49700 45.47300 20.43700
H  6.20000 45.18700 25.83100
H  6.31900 43.61100 25.15300
H  6.86900 43.85400 26.84100
H  3.69200 44.26300 30.77000
H  4.01600 40.54300 33.24700
H  3.70000 41.79100 34.35800
H  5.39500 41.52100 33.81500

