158

Mg 26.16800 -0.76700 29.43100
C  28.14500 -1.14700 32.43400
C  23.53600 -0.37200 31.44700
C  24.44800 -0.24400 26.57900
C  29.02100 -1.66500 27.50800
N  25.89800 -0.92000 31.71800
C  26.86400 -0.82100 32.72800
C  26.22000 -0.64900 34.16300
C  24.64300 -0.72900 33.82600
C  24.68000 -0.66300 32.25400
C  23.91100 -1.96600 34.36000
C  26.80100 0.57600 34.95100
C  27.37200 0.38200 36.30100
H  26.48900 -0.30400 37.35000
N  24.27900 -0.30900 29.05600
C  23.26300 -0.25900 29.99900
C  22.02900 -0.06200 29.35200
C  22.25000 0.06400 27.99700
C  23.71100 -0.12600 27.82200
C  20.64300 0.00500 30.07400
C  21.27800 0.09200 26.79600
O  21.59600 0.23000 25.61100
C  19.78600 0.10600 26.98900
N  26.63800 -1.07800 27.27000
C  25.80100 -0.65300 26.31200
C  26.44400 -0.60500 24.90500
C  27.87200 -1.17200 25.20200
C  27.85300 -1.42700 26.73800
C  25.63600 -1.30200 23.82300
C  28.98800 -0.14200 24.71900
C  30.31600 -0.89600 24.49900
N  28.16400 -1.24400 29.83300
C  29.20000 -1.64600 28.93000
C  30.43000 -1.69000 29.73300
C  30.05600 -1.57200 31.05900
C  28.66400 -1.35500 31.09100
C  31.81200 -1.99200 29.18900
C  30.55200 -1.58800 32.43600
O  31.71300 -1.85300 32.83000
C  29.39700 -1.32200 33.32400
C  29.28100 -2.50900 34.18800
O  28.54900 -3.45400 33.87400
O  30.04100 -2.39300 35.33700
C  29.76400 -3.43800 36.36100
H  22.59100 -0.27200 31.98400
H  23.96500 0.05100 25.64500
H  29.94300 -1.80900 26.94200
H  26.56300 -1.53900 34.69000
H  24.18600 0.21800 34.11200
H  23.46000 -2.59300 33.59100
H  23.16700 -1.55600 35.04200
H  24.61200 -2.57000 34.93700
H  25.90700 1.19900 34.97500
H  27.48900 1.11800 34.30100
H  27.42900 1.34400 36.80900
H  28.29300 -0.20000 36.33100
H  20.22200 0.99300 29.88700
H  20.74300 -0.18400 31.14300
H  20.02400 -0.78200 29.64200
H  19.63900 1.04100 27.52900
H  19.41100 -0.77200 27.51400
H  19.29100 0.20500 26.02400
H  26.57000 0.41800 24.55000
H  28.04800 -2.10100 24.66100
H  26.13100 -2.22000 23.50500
H  25.50200 -0.61000 22.99100
H  24.63500 -1.54000 24.18200
H  29.19800 0.60500 25.48400
H  28.62900 0.35700 23.81900
H  30.91500 -0.67500 25.38200
H  30.70800 -0.71900 23.49800
H  30.28100 -1.98400 24.43900
H  31.98800 -1.40600 28.28600
H  31.87100 -3.01700 28.82500
H  32.52100 -1.82300 29.99900
H  29.57400 -0.43600 33.93400
H  29.60300 -4.45100 35.99000
H  28.94500 -3.21600 37.04500
H  30.58200 -3.36800 37.07800
Mg 45.81100 24.68900 28.59000
C  46.30400 26.80800 31.32700
C  45.87500 22.04800 30.80400
C  46.10300 22.73000 25.90000
C  46.46100 27.53900 26.50300
N  46.10500 24.53800 30.79600
C  46.17500 25.50300 31.70800
C  46.06600 24.99200 33.16600
C  46.04600 23.40300 32.98700
C  45.87300 23.27300 31.42200
C  47.32500 22.75800 33.55600
C  44.87000 25.60500 33.97900
C  45.18800 26.00800 35.43200
H  44.26300 25.65800 36.59100
N  45.87700 22.60200 28.37600
C  45.83100 21.70900 29.37800
C  45.74100 20.37800 28.85400
C  45.81600 20.51800 27.39100
C  45.96300 22.00600 27.16300
C  45.68900 19.25100 29.73900
C  45.72000 19.51800 26.31100
O  45.92000 19.80400 25.09600
C  45.31200 18.14800 26.68200
N  46.11500 25.07600 26.54400
C  46.08500 24.09900 25.59100
C  45.95600 24.66700 24.07700
C  46.00700 26.22900 24.41500
C  46.27100 26.32600 25.90000
C  47.17800 24.28800 23.14400
C  44.76800 27.13500 23.93300
C  43.40000 26.70500 24.37400
N  46.07000 26.77500 28.79000
C  46.40900 27.75800 27.89700
C  46.69900 28.99000 28.57400
C  46.71400 28.63600 29.92800
C  46.23600 27.31300 30.01100
C  46.97400 30.32600 27.93800
C  46.94000 29.16000 31.24000
O  47.34200 30.30700 31.52400
C  46.61700 28.05100 32.24000
C  47.83800 27.84100 33.10300
O  48.94000 27.33900 32.81800
O  47.56300 28.39400 34.33900
C  48.55300 28.11200 35.40500
H  45.81300 21.27500 31.57200
H  46.12800 22.15200 24.97400
H  46.60000 28.40500 25.85300
H  46.94100 25.37700 33.69000
H  45.21200 22.94200 33.51600
H  48.00300 22.41100 32.77600
H  46.97800 21.88800 34.11300
H  47.89600 23.39900 34.22800
H  44.17800 24.77700 34.13300
H  44.35300 26.42000 33.47200
H  45.15200 27.08800 35.28700
H  46.19500 25.64500 35.63900
H  45.45500 18.29200 29.27700
H  44.90300 19.37200 30.48400
H  46.67300 19.23200 30.20800
H  45.37500 17.46800 25.83200
H  44.28000 18.17400 27.03200
H  46.01400 17.69500 27.38200
H  45.00900 24.32500 23.66000
H  46.92000 26.61800 23.96300
H  48.05300 24.86900 23.43600
H  46.86500 24.60300 22.14800
H  47.50400 23.26500 23.33000
H  44.72600 27.06400 22.84600
H  44.97900 28.16800 24.20800
H  43.68000 25.93700 25.09400
H  42.71100 26.19400 23.70200
H  42.91900 27.55300 24.86300
H  48.06000 30.38900 27.87300
H  46.66000 31.07900 28.66000
H  46.49000 30.45700 26.97100
H  45.67500 28.32100 32.71800
H  49.48000 28.61300 35.12700
H  48.69500 27.03200 35.36500
H  48.39800 28.44200 36.43200

