158

Mg 54.35600 24.54700 44.66500
C  51.84000 26.91700 43.99400
C  52.13600 22.05100 43.49400
C  56.87600 22.41700 44.53700
C  56.59800 27.18300 45.18100
N  52.27400 24.57800 43.78900
C  51.50900 25.62000 43.62600
C  50.17600 25.15000 42.92800
C  50.11100 23.60000 43.22100
C  51.58000 23.37400 43.56700
C  49.12400 22.97600 44.18400
C  50.28400 25.45100 41.42100
C  48.86500 25.41200 40.73500
H  48.77000 24.38800 39.63700
N  54.48300 22.47600 44.06900
C  53.48000 21.62400 43.71700
C  54.01400 20.27000 43.59900
C  55.35000 20.36700 44.06200
C  55.64200 21.79300 44.22900
C  53.24700 19.10300 43.09100
C  56.28300 19.12900 44.17600
O  55.75800 18.01100 44.01000
C  57.84000 19.15200 44.43000
N  56.44300 24.80300 44.74000
C  57.28300 23.75700 44.77700
C  58.73700 24.08500 45.12200
C  58.63600 25.61900 45.18600
C  57.11800 25.94400 45.01900
C  59.19800 23.37200 46.38800
C  59.58800 26.32200 44.17200
C  60.14400 27.63700 44.75700
N  54.27400 26.62800 44.79100
C  55.22300 27.53800 45.07200
C  54.55400 28.80300 45.34800
C  53.24900 28.60000 44.82300
C  53.09100 27.21500 44.59500
C  55.18300 30.02600 45.81000
C  52.06300 29.27900 44.54000
O  51.73500 30.48900 44.69900
C  51.09000 28.16500 44.00000
C  50.76800 28.60100 42.64100
O  51.51300 28.70400 41.65900
O  49.50700 28.81000 42.51200
C  48.97700 29.39600 41.30400
H  51.40800 21.29700 43.18800
H  57.61800 21.62600 44.41600
H  57.13200 28.09300 45.46200
H  49.30200 25.57900 43.41800
H  50.02700 22.98000 42.32800
H  49.00500 21.92400 43.92700
H  48.16700 23.39000 43.86800
H  49.42700 23.24300 45.19600
H  51.03200 24.79400 40.97800
H  50.74700 26.41700 41.22200
H  48.68600 26.43800 40.41200
H  48.09400 25.19300 41.47400
H  52.19800 19.25900 42.83900
H  53.22700 18.28200 43.80700
H  53.68000 18.68400 42.18300
H  58.40800 19.64900 43.64300
H  58.20900 18.12900 44.50200
H  58.06600 19.52900 45.42700
H  59.32000 23.73800 44.26800
H  59.00400 25.99400 46.14200
H  59.11400 23.99800 47.27600
H  60.21500 22.98200 46.34700
H  58.58200 22.48500 46.53900
H  58.97100 26.43200 43.28000
H  60.47900 25.71700 44.00800
H  59.83000 28.55200 44.25400
H  61.23300 27.64600 44.70700
H  59.84900 27.74400 45.80100
H  54.91100 30.84500 45.14400
H  56.25700 29.85400 45.88200
H  54.72800 30.18300 46.78700
H  50.21800 28.10100 44.65100
H  48.71700 28.61500 40.59000
H  49.61300 30.19100 40.91500
H  48.05900 29.94200 41.52000
Mg -1.08400 34.01400 26.88100
C  -2.86400 32.49500 29.30600
C  0.15000 36.25100 29.28700
C  0.33400 35.92800 24.41100
C  -2.68800 32.17700 24.49400
N  -1.45200 34.33800 29.10900
C  -2.06700 33.42200 29.88400
C  -1.68500 33.63300 31.41100
C  -0.83400 34.98300 31.31900
C  -0.72300 35.25500 29.78300
C  -1.27300 36.18400 32.18000
C  -1.04500 32.30400 31.98900
C  -1.92200 31.59900 33.13600
H  -1.25600 31.41700 34.53500
N  0.09300 35.77700 26.88100
C  0.47000 36.52100 27.98800
C  1.33800 37.56000 27.54900
C  1.38500 37.52300 26.11900
C  0.59400 36.38100 25.72700
C  2.01400 38.51200 28.51300
C  2.10800 38.37900 25.09600
O  2.04700 38.23000 23.88300
C  2.93400 39.53400 25.60400
N  -1.19800 34.03900 24.72800
C  -0.37000 34.83300 23.95600
C  -0.35400 34.38600 22.49600
C  -1.42800 33.21600 22.48900
C  -1.72900 33.03100 24.01500
C  -0.62400 35.40900 21.41400
C  -1.03700 31.98600 21.57400
C  -0.37800 30.74000 22.31800
N  -2.53800 32.67700 26.85800
C  -3.13900 31.98400 25.82500
C  -4.14300 31.16100 26.34200
C  -4.06800 31.22800 27.72400
C  -3.08100 32.20000 28.00500
C  -5.03700 30.18200 25.55700
C  -4.60600 30.77200 28.98700
O  -5.47500 29.92900 29.16900
C  -3.77500 31.56400 30.09200
C  -4.83100 32.23000 30.88100
O  -5.30400 33.30400 30.53800
O  -5.19300 31.47800 32.00500
C  -6.34200 32.03500 32.77900
H  0.67900 36.81300 30.05900
H  0.70600 36.54300 23.58900
H  -3.00200 31.51400 23.68500
H  -2.60600 33.98200 31.87800
H  0.22300 35.00300 31.58800
H  -2.00100 35.83000 32.90900
H  -1.78800 36.89200 31.53000
H  -0.45900 36.76500 32.61400
H  -0.08800 32.57100 32.43600
H  -0.86000 31.51400 31.26100
H  -2.19300 30.58000 32.86100
H  -2.79500 32.18800 33.41500
H  3.06500 38.59500 28.23800
H  1.94100 38.12600 29.52900
H  1.59300 39.51800 28.51500
H  3.03600 40.37200 24.91400
H  3.90400 39.11400 25.86700
H  2.40400 39.87900 26.49200
H  0.64200 33.96500 22.35900
H  -2.42000 33.55600 22.19200
H  -1.02800 36.32300 21.84800
H  -1.27000 34.94700 20.66700
H  0.38400 35.61800 21.05600
H  -0.28500 32.30900 20.85400
H  -1.91100 31.64200 21.01900
H  0.49100 30.46300 21.72100
H  -1.05300 29.88500 22.36300
H  -0.15100 31.10500 23.32000
H  -4.55000 29.70800 24.70400
H  -5.89700 30.64400 25.07200
H  -5.23900 29.36500 26.25000
H  -3.31400 30.75100 30.65300
H  -6.95300 32.75900 32.24000
H  -5.74300 32.47300 33.57700
H  -6.94400 31.21300 33.16500

