158

Mg 47.61400 25.60500 28.45000
C  48.41500 27.75300 31.14900
C  45.87700 23.51600 30.76200
C  47.22000 23.35300 26.01800
C  49.47800 27.69000 26.32200
N  47.26600 25.66600 30.72900
C  47.51200 26.75500 31.55600
C  46.84300 26.54800 32.95500
C  46.21600 25.06800 32.82400
C  46.47600 24.70000 31.34300
C  46.57500 24.05800 33.94800
C  45.90700 27.64700 33.37500
C  45.91100 28.22000 34.83500
H  46.45500 27.40600 36.02600
N  46.65100 23.72600 28.33800
C  45.98400 23.08300 29.36100
C  45.48600 21.83400 28.86800
C  45.94600 21.64000 27.51700
C  46.61800 22.94700 27.22600
C  44.67100 20.83200 29.68600
C  45.76700 20.51900 26.60000
O  46.28900 20.55600 25.50300
C  45.00800 19.27900 26.77200
N  48.19700 25.52900 26.49900
C  47.99600 24.48100 25.68800
C  48.60100 24.71300 24.27300
C  49.05400 26.17300 24.29500
C  48.99900 26.47600 25.79400
C  49.67800 23.66300 23.98400
C  48.18400 27.20800 23.52000
C  49.02300 28.11900 22.65400
N  48.78200 27.33500 28.66200
C  49.55000 28.05700 27.69700
C  50.06900 29.24300 28.29800
C  49.67700 29.09400 29.64100
C  48.87100 27.99600 29.78900
C  50.69900 30.39300 27.56500
C  49.74800 29.70000 31.01200
O  50.37300 30.76400 31.30200
C  48.89200 28.86900 31.93700
C  49.73400 28.55100 33.10100
O  50.55400 27.62500 33.18500
O  49.41400 29.31400 34.17200
C  50.39100 29.32900 35.33600
H  45.40100 22.84100 31.47700
H  47.05100 22.70300 25.15700
H  50.03300 28.39800 25.70400
H  47.59700 26.41900 33.73200
H  45.12700 25.09300 32.77900
H  47.24800 24.55800 34.64400
H  47.02500 23.17500 33.49300
H  45.72900 23.66500 34.51300
H  44.92900 27.16700 33.37600
H  45.91200 28.47500 32.66600
H  44.87800 28.45700 35.09100
H  46.60100 29.06300 34.79100
H  43.83500 20.59400 29.02900
H  44.29200 21.28400 30.60300
H  45.23200 19.92700 29.91500
H  45.21200 18.74600 27.70000
H  45.23400 18.52800 26.01500
H  43.95700 19.53100 26.63200
H  47.85400 24.58800 23.48900
H  50.12800 26.21800 24.11700
H  50.58100 24.25900 23.85000
H  49.37900 23.14300 23.07400
H  49.69700 22.93100 24.79200
H  47.64100 27.84400 24.21800
H  47.38800 26.74300 22.93900
H  50.07800 27.88700 22.79900
H  48.79200 29.17500 22.79600
H  48.79000 27.84600 21.62500
H  50.17100 30.73800 26.67600
H  51.61800 29.96200 27.16800
H  50.90500 31.17800 28.29400
H  47.98800 29.37200 32.28000
H  49.90000 28.75400 36.12100
H  50.59800 30.32000 35.74100
H  51.36700 28.89700 35.11500
Mg 30.57400 58.09500 40.44200
C  27.69800 56.30100 39.56700
C  32.55600 55.70500 39.17300
C  33.24200 60.23800 40.53700
C  28.43300 60.84100 41.24600
N  30.11700 56.29400 39.37400
C  28.89300 55.66200 39.21800
C  29.02400 54.19400 38.71300
C  30.57800 54.08600 38.75300
C  31.17300 55.46300 39.16400
C  31.02800 52.98700 39.71000
C  28.27400 53.80300 37.39800
C  29.05900 53.90500 36.06700
H  28.21800 54.11600 34.84900
N  32.66200 58.00000 40.07200
C  33.23900 56.88100 39.50500
C  34.68800 57.04800 39.51800
C  34.92500 58.35200 40.01100
C  33.54900 58.94700 40.21200
C  35.69600 55.97800 39.13900
C  36.30500 59.02600 40.33900
O  37.39100 58.38600 40.21300
C  36.49800 60.49400 40.70600
N  30.82100 60.18900 40.87400
C  32.04000 60.80900 40.94400
C  31.86800 62.29600 41.11500
C  30.35300 62.44800 41.51200
C  29.81600 61.07600 41.18700
C  32.81800 63.09300 42.08700
C  29.49600 63.73600 40.92600
C  28.75700 64.58000 42.01700
N  28.47400 58.52100 40.52000
C  27.70600 59.68100 40.85000
C  26.26800 59.34400 40.56600
C  26.27700 57.99100 40.29600
C  27.57400 57.59600 40.13300
C  25.08600 60.20900 40.72600
C  25.35600 56.86400 40.09500
O  24.14700 56.85100 40.21600
C  26.30400 55.76800 39.48400
C  26.11200 54.60800 40.36100
O  26.64000 54.42300 41.43500
O  25.23800 53.64500 39.79800
C  24.89700 52.41200 40.69200
H  33.27500 54.93300 38.89300
H  33.89700 61.10100 40.40100
H  27.82600 61.68000 41.59400
H  28.61200 53.50300 39.44900
H  30.99300 53.84700 37.77400
H  31.47700 53.33600 40.64000
H  31.76800 52.40500 39.16100
H  30.23500 52.25700 39.86700
H  27.36600 54.40000 37.32000
H  27.99100 52.77500 37.62100
H  29.65100 52.99800 35.94400
H  29.88600 54.59900 36.21700
H  36.48600 56.44200 38.54900
H  35.20600 55.34800 38.39700
H  36.02000 55.36000 39.97700
H  35.87200 60.69500 41.57500
H  36.21100 61.08100 39.83400
H  37.55800 60.69100 40.86600
H  31.94600 62.83400 40.17100
H  30.36000 62.32100 42.59400
H  32.30600 63.54400 42.93600
H  33.28000 63.79100 41.38800
H  33.59800 62.50200 42.56600
H  28.82900 63.38900 40.13600
H  30.21000 64.43000 40.48200
H  29.40100 65.45500 42.09900
H  28.68600 64.04700 42.96600
H  27.74700 64.85600 41.71300
H  25.13700 60.95400 41.52000
H  24.10900 59.73900 40.83500
H  25.11600 60.76500 39.78900
H  26.03500 55.70900 38.43000
H  25.54300 51.56800 40.45000
H  23.85000 52.11400 40.64900
H  24.98200 52.53700 41.77200

