158

Mg 47.63700 16.11900 28.98900
C  45.54300 15.96000 31.71000
C  49.60400 18.25000 30.90400
C  49.70000 16.49200 26.35400
C  45.18100 14.67200 26.96200
N  47.65700 16.88300 31.07300
C  46.65900 16.66200 31.99100
C  46.95600 17.26300 33.38300
C  48.07000 18.30400 32.94400
C  48.46600 17.87900 31.54700
C  47.61200 19.79400 32.83300
C  47.44700 16.18200 34.37600
C  47.49900 16.62500 35.81100
H  47.26400 18.12700 36.30900
N  49.41200 17.12300 28.72700
C  50.03600 17.96600 29.56100
C  51.31700 18.39800 29.08300
C  51.44800 17.80500 27.75100
C  50.18700 17.09400 27.54800
C  52.45600 19.10200 29.87700
C  52.64300 17.74100 26.79000
O  52.63900 17.11300 25.75100
C  53.86600 18.49300 27.15800
N  47.51100 15.63300 26.95100
C  48.46000 15.85400 26.05000
C  48.11800 15.32400 24.61800
C  46.70000 14.60800 24.83800
C  46.41500 15.04600 26.32100
C  47.94000 16.49600 23.56800
C  46.76000 13.10200 24.53000
C  47.49100 12.12200 25.49200
N  45.75700 15.47400 29.18700
C  44.86400 14.78800 28.31200
C  43.72800 14.38800 29.05300
C  43.98300 14.73000 30.42000
C  45.20800 15.43100 30.47400
C  42.49500 13.75400 28.43100
C  43.44700 14.67200 31.73200
O  42.35500 14.24600 32.15700
C  44.42900 15.49700 32.64900
C  43.66900 16.56600 33.38200
O  43.34100 17.69000 32.98700
O  43.42400 16.13600 34.68000
C  42.87800 17.10500 35.64700
H  50.27200 18.93800 31.42600
H  50.37500 16.52600 25.49600
H  44.42400 14.16800 26.35800
H  46.06400 17.74800 33.77700
H  48.94200 18.27300 33.59700
H  47.42100 20.05400 31.79200
H  48.43300 20.47000 33.07400
H  46.73300 20.05700 33.42100
H  48.44400 15.83400 34.10500
H  46.74000 15.36100 34.49200
H  48.56600 16.57600 36.03100
H  46.84700 15.97200 36.39100
H  53.22600 18.47800 30.33100
H  52.07600 19.62500 30.75400
H  52.86500 19.84000 29.18800
H  54.31100 18.26100 28.12500
H  53.82000 19.58000 27.21600
H  54.67700 18.35700 26.44300
H  48.86200 14.62600 24.23400
H  45.83700 15.03200 24.32500
H  47.92800 16.17300 22.52700
H  48.92100 16.97000 23.54700
H  47.18500 17.24200 23.81600
H  47.28400 13.00300 23.57900
H  45.70800 12.82400 24.47800
H  47.71500 12.56100 26.46500
H  48.30000 11.53500 25.05700
H  46.80300 11.33800 25.80900
H  42.13700 14.33100 27.57900
H  41.64100 13.80500 29.10500
H  42.70200 12.75400 28.04900
H  44.82200 14.72800 33.31300
H  42.02700 17.62100 35.20300
H  43.55500 17.88800 35.98800
H  42.66400 16.60800 36.59300
Mg 9.46100 47.63300 26.58700
C  7.35700 47.56300 29.39500
C  12.12300 48.28900 28.62500
C  11.34100 47.86900 23.85200
C  6.61700 47.44000 24.45400
N  9.64900 48.21800 28.78300
C  8.65200 47.97900 29.74500
C  9.36200 48.03000 31.23100
C  10.85200 48.38700 30.84300
C  10.90300 48.30200 29.34300
C  11.39200 49.77100 31.42300
C  9.23700 46.63600 32.01700
C  10.39000 46.29500 33.12700
H  10.15100 45.35100 34.29600
N  11.45600 47.97100 26.30000
C  12.44400 48.15000 27.23700
C  13.72500 48.18900 26.60800
C  13.51200 48.11500 25.14200
C  12.04800 48.01200 25.05500
C  14.95500 48.32200 27.47000
C  14.48100 48.29200 23.99900
O  14.12000 48.41100 22.78200
C  15.92000 48.34000 24.38800
N  9.03800 47.68200 24.44000
C  10.02100 47.70500 23.49200
C  9.48600 47.46400 22.03600
C  7.99100 47.16000 22.34100
C  7.83900 47.41000 23.84700
C  9.77600 48.55900 20.96100
C  7.53800 45.73500 21.94300
C  8.21600 44.59300 22.73500
N  7.43200 47.51700 26.83300
C  6.42400 47.34400 25.86800
C  5.16800 47.04600 26.57500
C  5.47700 47.09400 27.92600
C  6.89600 47.45200 28.03300
C  3.78300 46.82100 26.00300
C  4.94600 47.00600 29.30000
O  3.85400 46.71800 29.68800
C  6.13200 47.34700 30.33400
C  6.21700 46.10200 31.11300
O  6.78000 45.05000 30.74400
O  5.59400 46.20300 32.33300
C  5.58800 44.99400 33.10500
H  12.97200 48.33600 29.31100
H  11.88500 47.74700 22.91300
H  5.80700 47.11200 23.79900
H  8.95900 48.85200 31.82200
H  11.56700 47.62700 31.15700
H  11.98000 50.30500 30.67700
H  12.12400 49.55000 32.20000
H  10.62000 50.35200 31.92800
H  9.31200 45.83200 31.28500
H  8.23000 46.52400 32.42000
H  10.74800 47.25700 33.49300
H  11.16700 45.73900 32.60200
H  15.41200 49.30700 27.57100
H  15.77600 47.65200 27.21800
H  14.80600 47.95900 28.48700
H  16.01500 49.21300 25.03200
H  16.55900 48.25700 23.50900
H  16.00700 47.53600 25.11900
H  10.00800 46.57100 21.69100
H  7.46900 47.98700 21.85900
H  10.46100 49.29500 21.38200
H  8.92000 49.19900 20.74600
H  10.28400 48.18900 20.07100
H  7.82700 45.73800 20.89200
H  6.45000 45.67100 21.98100
H  8.73100 43.92500 22.04400
H  7.47000 43.90200 23.12500
H  9.00300 45.03000 23.35000
H  3.25600 47.67100 26.43700
H  3.32400 45.88700 26.32600
H  3.67600 46.97600 24.92900
H  5.78100 48.11900 31.01900
H  5.04800 45.28800 34.00400
H  6.58100 44.63700 33.37800
H  5.06300 44.13000 32.69800

