158

Mg 35.84000 49.49600 24.82300
C  36.25400 47.65300 27.92400
C  34.37000 51.97000 26.67900
C  35.22700 51.02700 21.94000
C  37.22000 46.76600 23.07000
N  35.39800 49.73500 26.98500
C  35.57300 48.87200 28.03500
C  35.17500 49.51300 29.37200
C  34.46900 50.87700 28.91100
C  34.69600 50.81400 27.40000
C  32.96600 51.09300 29.28300
C  36.40200 49.58100 30.35500
C  36.06200 49.27400 31.81500
H  34.61000 49.01700 32.38600
N  35.16400 51.28100 24.42600
C  34.61500 52.20300 25.31500
C  34.13500 53.40300 24.58200
C  34.42300 53.19600 23.18900
C  34.94800 51.76800 23.11600
C  33.65300 54.65400 25.28300
C  34.18400 54.12300 21.89300
O  34.58300 53.84700 20.76800
C  33.43100 55.43500 22.03400
N  36.24600 48.98100 22.77100
C  35.85600 49.81400 21.73400
C  36.35400 49.32500 20.37300
C  37.27100 48.02100 20.80100
C  36.94900 47.90300 22.30000
C  35.23100 49.05900 19.30000
C  38.79100 48.17100 20.57700
C  39.61100 47.24000 19.76000
N  36.48700 47.52100 25.33400
C  37.03800 46.53400 24.47300
C  37.54100 45.42500 25.30600
C  37.18300 45.83700 26.61700
C  36.61400 47.08100 26.60000
C  38.14500 44.07800 24.90000
C  37.16100 45.37200 28.02100
O  37.50000 44.25000 28.45100
C  36.56800 46.53900 28.90300
C  35.44300 46.15800 29.83500
O  34.27100 46.14500 29.51800
O  35.93600 45.73700 31.00800
C  35.07200 45.09300 32.02700
H  33.93500 52.73000 27.33200
H  35.01300 51.51800 20.98900
H  37.71300 45.99200 22.47900
H  34.46600 48.77200 29.74100
H  35.02500 51.71300 29.33500
H  32.42500 50.67500 28.43400
H  32.74100 52.14100 29.48200
H  32.77600 50.47300 30.15900
H  36.75200 50.61300 30.38000
H  37.24900 48.98100 30.02300
H  36.64100 49.84600 32.54000
H  36.41700 48.24900 31.91600
H  33.87900 55.54900 24.70300
H  34.07600 54.71900 26.28600
H  32.56600 54.58700 25.31900
H  33.06600 55.66300 21.03200
H  34.03100 56.17400 22.56500
H  32.60500 55.31400 22.73500
H  36.97900 50.18100 20.12100
H  36.89500 47.19200 20.20200
H  35.78400 49.45600 18.44900
H  34.33000 49.62900 19.52700
H  35.00300 48.02300 19.05000
H  39.32000 48.44200 21.49000
H  38.93800 49.13700 20.09300
H  40.63300 47.31800 20.12900
H  39.54800 47.45400 18.69300
H  39.30300 46.19700 19.82600
H  38.02900 43.97500 23.82100
H  37.72700 43.21100 25.41100
H  39.21500 44.03600 25.10300
H  37.35400 46.74000 29.63100
H  35.68600 45.50500 32.82700
H  35.23200 44.04200 32.27100
H  34.04200 45.44700 32.07800
Mg 9.71100 48.28100 25.80500
C  7.38700 48.54900 28.48000
C  12.23300 49.29000 27.84400
C  11.70800 48.11400 23.16600
C  6.95500 47.54000 23.69400
N  9.76800 48.83400 27.89800
C  8.77200 48.78100 28.85900
C  9.16700 49.16000 30.22100
C  10.64000 49.71200 29.90600
C  10.92600 49.22300 28.45400
C  10.99800 51.17300 30.25300
C  9.15800 47.92700 31.24700
C  8.67600 48.18400 32.68400
H  8.59900 47.04400 33.69100
N  11.68700 48.59400 25.56200
C  12.58100 48.97500 26.52900
C  13.94400 48.89200 26.01800
C  13.79800 48.59600 24.62500
C  12.33600 48.43100 24.37100
C  15.21600 49.16300 26.84100
C  14.94800 48.31900 23.58000
O  14.69200 48.06300 22.44800
C  16.40900 48.17900 24.09000
N  9.35400 48.00600 23.75300
C  10.34900 48.00500 22.88300
C  9.98500 47.48800 21.48500
C  8.44300 47.27800 21.72800
C  8.22900 47.65300 23.14600
C  10.31500 48.45400 20.29100
C  8.01600 45.76100 21.44300
C  8.67100 44.74000 22.40000
N  7.56700 48.05700 25.97200
C  6.58100 47.75600 25.05600
C  5.25000 47.71400 25.65700
C  5.59500 47.96900 27.00500
C  6.95600 48.21300 27.13700
C  3.95800 47.33200 25.09000
C  4.98400 48.00800 28.29300
O  3.81200 47.89700 28.67600
C  6.09900 48.43800 29.31200
C  6.10500 47.37900 30.34500
O  6.51300 46.24400 30.09000
O  5.48000 47.76800 31.50500
C  5.08400 46.65900 32.38700
H  12.93900 49.72300 28.55600
H  12.37600 47.82300 22.35200
H  6.23000 47.07200 23.02500
H  8.66700 49.97500 30.74400
H  11.35900 49.13800 30.49000
H  11.65300 51.25300 31.12100
H  10.07300 51.68200 30.52200
H  11.35500 51.67700 29.35500
H  10.17400 47.72200 31.58600
H  8.68500 46.97900 30.99300
H  7.76300 48.77900 32.65400
H  9.37200 48.91000 33.10300
H  14.92100 49.46500 27.84600
H  15.83000 49.93700 26.38000
H  15.80600 48.24700 26.86700
H  16.46500 47.58500 25.00200
H  16.72900 49.17000 24.41100
H  17.01400 47.81500 23.25900
H  10.56000 46.57700 21.32000
H  7.76400 47.91300 21.15900
H  10.76200 49.37300 20.67200
H  9.45900 48.85700 19.75000
H  11.01300 47.95500 19.61900
H  8.33000 45.52800 20.42500
H  6.93800 45.60500 21.39700
H  8.95700 45.24900 23.32100
H  9.56800 44.35800 21.91400
H  8.04800 43.90800 22.72800
H  3.53400 46.36300 25.35300
H  4.08900 47.28100 24.00900
H  3.09500 47.95700 25.31900
H  5.91800 49.37300 29.84200
H  4.09300 46.81900 32.81200
H  5.76000 46.55200 33.23600
H  5.15300 45.66600 31.94200

