158

Mg 40.99300 9.11200 29.91200
C  42.88200 10.16200 32.65800
C  38.62600 7.91100 32.19900
C  39.39300 8.12300 27.32700
C  43.78400 9.90800 27.85300
N  40.84400 9.04100 32.21500
C  41.63300 9.75800 33.09300
C  41.00500 9.71200 34.53900
C  39.86300 8.69200 34.40100
C  39.79000 8.50500 32.85300
C  40.06900 7.30700 35.06800
C  40.68400 11.12500 35.07800
C  39.99200 11.17300 36.41600
H  40.61600 12.19500 37.36600
N  39.21700 8.28200 29.78200
C  38.31000 7.90400 30.74800
C  37.06900 7.50000 30.11800
C  37.35500 7.53400 28.73700
C  38.73600 7.95300 28.54600
C  35.84200 7.06000 30.83600
C  36.39100 7.06800 27.54300
O  36.69600 7.21100 26.34500
C  35.05600 6.50600 27.80100
N  41.57500 8.97000 27.88900
C  40.70400 8.46800 27.04700
C  41.14500 8.65300 25.59600
C  42.37000 9.53800 25.73900
C  42.64500 9.46200 27.25100
C  41.57100 7.38600 24.87600
C  42.20300 10.95700 25.14200
C  40.91400 11.80100 25.37300
N  43.03900 9.73600 30.15100
C  43.99000 10.05900 29.22700
C  45.06700 10.60200 29.92000
C  44.67200 10.70000 31.24400
C  43.45500 10.09000 31.33900
C  46.29500 11.16200 29.40400
C  45.05000 11.18800 32.50100
O  46.09000 11.74000 32.78000
C  43.91700 10.85800 33.46800
C  44.51100 9.98300 34.54200
O  45.38100 9.13000 34.48200
O  43.88800 10.52300 35.68300
C  44.26500 9.84100 36.93400
H  37.89500 7.45200 32.86800
H  38.78700 7.97100 26.43200
H  44.49900 10.29900 27.12500
H  41.91000 9.28900 34.97500
H  38.92700 9.05700 34.82400
H  39.72600 6.41300 34.54800
H  39.80000 7.32200 36.12500
H  41.14900 7.19800 35.17200
H  40.13100 11.48800 34.21200
H  41.61300 11.67600 35.22500
H  39.91200 10.14400 36.76800
H  38.98900 11.55000 36.21500
H  36.01100 7.41900 31.85100
H  35.82900 5.97200 30.90400
H  34.91100 7.44400 30.42000
H  34.70800 5.92800 26.94500
H  34.31200 7.28200 27.97800
H  35.17700 5.78700 28.61200
H  40.41600 9.17100 24.97400
H  43.25600 9.11900 25.26400
H  40.71200 6.75900 24.63500
H  42.14600 6.80500 25.59600
H  42.09700 7.66900 23.96400
H  42.43500 10.93200 24.07700
H  42.95600 11.55500 25.65700
H  41.12500 12.76800 25.83000
H  40.28000 11.37300 26.15000
H  40.30900 11.96100 24.48100
H  47.06000 11.07500 30.17600
H  46.06500 12.21500 29.24100
H  46.58200 10.74700 28.43900
H  43.50300 11.77800 33.88100
H  44.06400 8.79600 36.69600
H  43.64700 10.15700 37.77400
H  45.32100 9.92700 37.18900
Mg 5.90400 53.20400 41.55200
C  5.59500 49.71300 41.46900
C  9.19300 52.72800 40.48700
C  6.16300 56.56700 41.07400
C  2.45400 53.37400 41.89400
N  7.13800 51.39900 40.77800
C  6.79200 50.13500 40.84600
C  7.92900 49.24400 40.26500
C  9.09000 50.21800 40.43100
C  8.46200 51.51700 40.56700
C  9.95200 49.96000 41.63000
C  7.67800 48.63300 38.78200
C  6.77300 49.43700 37.77700
H  6.33700 48.82000 36.50000
N  7.57400 54.47900 40.91600
C  8.83600 54.10700 40.67000
C  9.68900 55.24500 40.53200
C  8.79800 56.44000 40.60000
C  7.40600 55.87200 40.87400
C  11.12800 55.13000 40.18200
C  9.20700 57.84100 40.64900
O  10.41500 57.98600 40.39600
C  8.35900 59.00800 40.97000
N  4.48500 54.73600 41.40500
C  4.88400 56.07700 41.37700
C  3.69000 56.99400 41.75600
C  2.49100 55.96900 41.50400
C  3.13900 54.60600 41.54000
C  3.77500 57.52900 43.20800
C  1.51800 56.15300 40.30100
C  0.09900 56.47100 40.59100
N  4.32500 51.87200 41.93100
C  2.97000 52.08200 42.10400
C  2.35500 50.89300 42.60400
C  3.35300 49.87700 42.39100
C  4.49300 50.55100 41.86600
C  0.93600 50.75800 43.11700
C  3.63100 48.43500 42.35100
O  3.10000 47.43800 42.77300
C  5.05500 48.32200 41.75900
C  4.79800 47.61400 40.42400
O  4.13000 48.08300 39.52000
O  5.48700 46.35600 40.50000
C  5.28700 45.51700 39.33300
H  10.24900 52.53300 40.28500
H  6.22000 57.65200 40.96400
H  1.36900 53.32200 42.01000
H  8.07900 48.38800 40.92400
H  9.61100 50.32700 39.48000
H  10.93200 50.31900 41.31700
H  9.99800 48.92700 41.97700
H  9.78400 50.53900 42.53800
H  7.30000 47.62000 38.92300
H  8.66500 48.66700 38.32100
H  7.32700 50.28600 37.37600
H  5.84200 49.76900 38.23700
H  11.74100 55.94900 40.55800
H  11.25900 55.10900 39.10100
H  11.56500 54.22300 40.60000
H  9.00500 59.88600 40.98800
H  7.82600 58.75800 41.88700
H  7.71900 58.86500 40.09900
H  3.74100 57.90300 41.15800
H  1.88200 55.95500 42.40800
H  4.69200 57.16900 43.67400
H  3.02900 57.03100 43.82800
H  3.64500 58.61100 43.24100
H  1.57600 55.41500 39.50100
H  1.80200 57.04400 39.74100
H  -0.35000 57.21100 39.92800
H  -0.15500 56.54600 41.64900
H  -0.40400 55.58000 40.21800
H  0.45900 51.73200 43.22500
H  0.80400 50.27500 44.08500
H  0.40800 50.23600 42.31900
H  5.75600 47.72200 42.33900
H  6.18600 44.93000 39.14400
H  5.21200 46.13900 38.44100
H  4.46200 44.81700 39.46900

