158

Mg 24.99600 -6.27200 47.51300
C  26.51900 -3.62400 45.76200
C  22.34500 -6.19800 45.34000
C  24.17900 -9.26300 48.60800
C  28.14400 -6.54400 49.29300
N  24.65300 -5.18400 45.60700
C  25.34100 -4.04600 45.18500
C  24.67300 -3.45600 43.90300
C  23.21400 -4.07300 44.04200
C  23.35000 -5.25500 45.07000
C  22.12200 -2.96200 44.44700
C  25.45900 -3.88700 42.62600
C  25.93700 -2.75400 41.77400
H  25.21000 -2.38300 40.44000
N  23.36200 -7.54300 47.16600
C  22.37300 -7.31000 46.24300
C  21.49700 -8.46600 46.23200
C  22.04500 -9.46600 47.10500
C  23.24400 -8.78400 47.71300
C  20.29800 -8.49200 45.28300
C  21.50400 -10.84400 47.42500
O  20.50900 -11.21200 46.74800
C  21.92600 -11.77200 48.52300
N  26.01300 -7.64600 48.82900
C  25.39300 -8.78900 49.12100
C  26.29300 -9.78600 49.88500
C  27.64200 -8.96100 49.95500
C  27.30500 -7.65200 49.35400
C  25.86600 -10.37100 51.28400
C  28.82800 -9.60000 49.26200
C  29.84400 -10.29200 50.17300
N  26.91300 -5.22200 47.67800
C  28.03500 -5.40100 48.47300
C  29.00000 -4.27200 48.32500
C  28.39700 -3.50600 47.29100
C  27.25800 -4.23400 46.85700
C  30.18800 -4.03300 49.25100
C  28.52100 -2.32500 46.40900
O  29.37900 -1.47900 46.40700
C  27.38600 -2.42400 45.34800
C  26.68500 -1.02500 45.50200
O  27.21500 0.02400 45.13600
O  25.49400 -1.19900 46.25200
C  24.79100 0.00500 46.68700
H  21.48200 -5.95600 44.71600
H  23.96300 -10.25000 49.02200
H  29.05200 -6.65900 49.88800
H  24.55200 -2.38300 44.05600
H  22.89400 -4.40000 43.05300
H  21.68500 -3.15100 45.42800
H  21.39000 -3.02400 43.64200
H  22.56100 -1.96700 44.37000
H  24.80400 -4.51000 42.01700
H  26.33600 -4.48700 42.86800
H  27.00700 -2.89900 41.62600
H  25.93400 -1.79900 42.30000
H  20.20500 -9.40600 44.69600
H  20.28900 -7.74200 44.49200
H  19.48200 -8.42300 46.00300
H  22.85400 -12.23200 48.18500
H  21.22900 -12.60600 48.61500
H  21.98600 -11.23900 49.47200
H  26.23000 -10.70300 49.29800
H  28.01800 -8.81800 50.96800
H  26.61600 -10.19700 52.05600
H  25.48500 -11.38600 51.17400
H  25.12400 -9.65300 51.63500
H  29.39000 -8.79400 48.79000
H  28.51400 -10.28900 48.47800
H  30.12600 -11.30600 49.89100
H  29.29300 -10.47200 51.09600
H  30.66400 -9.58100 50.27100
H  30.18500 -2.95200 49.38800
H  31.03500 -4.33900 48.63600
H  30.12300 -4.58700 50.18800
H  27.87200 -2.60500 44.39000
H  23.98400 -0.38000 47.31000
H  24.39200 0.46500 45.78200
H  25.42200 0.67400 47.27300
Mg 26.18200 0.64800 29.01700
C  27.81500 0.43700 32.17100
C  23.35600 1.02400 30.77400
C  24.58900 0.82600 26.16100
C  29.19000 -0.29700 27.48400
N  25.67300 0.59600 31.29300
C  26.50400 0.80300 32.35200
C  25.67000 0.93200 33.67600
C  24.21100 0.94800 33.16700
C  24.43900 0.84300 31.65600
C  23.22500 -0.13800 33.63900
C  26.23500 2.12700 34.47300
C  26.90800 1.76000 35.85100
H  26.49700 2.60900 37.06500
N  24.18000 0.86200 28.48600
C  23.16200 0.98400 29.38500
C  21.88300 1.16700 28.70100
C  22.19200 1.18100 27.30300
C  23.66200 1.00200 27.23900
C  20.58000 1.17600 29.46600
C  21.27800 1.38100 26.09400
O  21.65900 1.26700 24.89300
C  19.83800 1.65200 26.30600
N  26.79500 0.29500 27.10800
C  25.97600 0.50500 26.08400
C  26.65800 0.59800 24.76800
C  28.10700 0.14200 25.10600
C  28.08300 0.02400 26.65600
C  25.99900 -0.04400 23.46900
C  29.29200 0.90000 24.55200
C  29.81200 0.61800 23.15000
N  28.10300 0.15700 29.63400
C  29.21500 -0.24800 28.87400
C  30.30600 -0.55700 29.75400
C  29.76800 -0.29400 31.03300
C  28.43100 0.14200 30.87500
C  31.72400 -0.86900 29.28600
C  30.09600 -0.34100 32.42200
O  31.18500 -0.70000 32.95700
C  28.89900 0.26200 33.19500
C  28.58000 -0.73100 34.23000
O  28.00600 -1.79000 34.01300
O  29.19200 -0.47100 35.43600
C  29.02300 -1.58100 36.39200
H  22.44600 1.19500 31.35300
H  24.05500 0.84900 25.20800
H  30.13700 -0.56000 27.00800
H  25.73500 -0.02200 34.19900
H  23.92600 1.97400 33.40300
H  23.70100 -0.67900 34.45700
H  23.01500 -0.83900 32.83100
H  22.38000 0.38900 34.08200
H  25.46500 2.89000 34.58800
H  27.09300 2.54700 33.94700
H  27.98700 1.91700 35.83600
H  26.67700 0.70100 35.97200
H  19.84800 1.82100 28.98100
H  20.80600 1.44200 30.49900
H  20.16600 0.17100 29.37900
H  19.36200 0.77300 26.74100
H  19.21600 1.63300 25.41100
H  19.66000 2.49000 26.97900
H  26.66900 1.66100 24.53000
H  28.24700 -0.88000 24.75600
H  25.70400 0.71400 22.74400
H  25.04700 -0.49600 23.74700
H  26.66700 -0.78900 23.03700
H  30.18100 0.74600 25.16300
H  28.88900 1.91200 24.51300
H  30.83800 0.24800 23.15700
H  29.86400 1.56700 22.61600
H  29.25100 -0.19600 22.69100
H  32.33300 -0.04700 28.91100
H  31.65500 -1.64300 28.52100
H  32.15500 -1.39500 30.13800
H  29.28600 1.14800 33.69700
H  27.96600 -1.71700 36.61900
H  29.55500 -1.29300 37.29900
H  29.36700 -2.59300 36.18200

