158

Mg 2.05700 -1.50700 44.27000
C  5.47300 -0.93200 43.23800
C  1.08700 0.90600 42.13200
C  -1.13800 -2.68400 44.51500
C  3.07800 -4.03700 46.30900
N  3.17400 -0.28400 42.76900
C  4.51800 -0.14800 42.55300
C  4.84200 0.95700 41.51600
C  3.41200 1.60600 41.36900
C  2.47900 0.73200 42.24500
C  3.39200 3.12700 41.74000
C  5.41500 0.43600 40.16400
C  6.57100 1.13000 39.39800
H  6.29700 1.57700 37.89300
N  0.19500 -0.94900 43.46400
C  0.00100 0.13600 42.67600
C  -1.40900 0.29500 42.45400
C  -2.08000 -0.77700 43.10000
C  -1.03800 -1.48300 43.76200
C  -1.97400 1.49500 41.60800
C  -3.62600 -1.09500 43.09300
O  -4.35800 -0.31000 42.50200
C  -4.23700 -2.28900 43.70500
N  1.09500 -3.28700 45.12200
C  -0.21400 -3.52500 45.16200
C  -0.58600 -4.72600 46.10200
C  0.85600 -5.05200 46.67100
C  1.75300 -4.06800 46.00300
C  -1.66300 -4.37200 47.21400
C  1.25100 -6.52000 46.38800
C  2.18100 -7.16700 47.34000
N  3.91400 -2.25900 44.89600
C  4.13900 -3.27100 45.71200
C  5.55500 -3.47400 45.84900
C  6.08700 -2.57900 44.86900
C  5.04300 -1.87400 44.28900
C  6.29700 -4.50800 46.78000
C  7.35900 -2.01200 44.31700
O  8.52400 -2.21000 44.64100
C  6.90700 -0.99500 43.19600
C  7.59100 0.32900 43.44300
O  8.61700 0.53700 42.77100
O  7.21700 1.12500 44.52200
C  8.31600 1.87200 45.15600
H  0.86100 1.80400 41.55200
H  -2.06500 -3.23800 44.67000
H  3.27200 -4.83400 47.03000
H  5.44200 1.69300 42.05200
H  3.13900 1.56600 40.31500
H  2.57400 3.36700 42.41900
H  3.23100 3.80500 40.90200
H  4.19300 3.50700 42.37500
H  4.61100 0.33500 39.43400
H  5.74500 -0.57200 40.41400
H  7.44900 0.50200 39.24900
H  7.00000 1.90300 40.03500
H  -2.87800 1.25100 41.05100
H  -1.20400 1.74900 40.87900
H  -2.27200 2.27700 42.30700
H  -3.90200 -2.42400 44.73400
H  -4.05800 -3.07100 42.96700
H  -5.32700 -2.31400 43.71600
H  -1.02900 -5.47200 45.44200
H  0.85700 -4.98100 47.75900
H  -2.37600 -5.18500 47.34900
H  -2.24600 -3.52200 46.85800
H  -1.29000 -4.24800 48.23000
H  1.65900 -6.55400 45.37700
H  0.29600 -7.04500 46.41800
H  1.73500 -8.13500 47.56800
H  2.39700 -6.64200 48.27000
H  3.05400 -7.33800 46.71000
H  7.16100 -3.98400 47.18600
H  6.57800 -5.39500 46.21200
H  5.56200 -4.77700 47.53800
H  7.19900 -1.46000 42.25500
H  8.69200 2.61800 44.45600
H  9.14900 1.18100 45.29200
H  8.06100 2.34200 46.10600
Mg 27.32700 50.13700 27.10000
C  25.10700 50.96200 29.66100
C  29.71100 49.43900 29.52500
C  29.57700 49.53400 24.65100
C  25.11700 51.41700 24.81300
N  27.37400 50.26300 29.28300
C  26.28100 50.42200 30.14200
C  26.63100 50.24900 31.59600
C  28.23900 50.01700 31.48500
C  28.50400 49.95500 29.96000
C  29.05000 50.97300 32.41800
C  25.74000 49.11900 32.29800
C  24.84000 49.53100 33.55300
H  24.72300 48.63500 34.81300
N  29.35500 49.49600 27.07700
C  30.09900 49.17400 28.14600
C  31.39000 48.75900 27.76400
C  31.41200 48.85700 26.36400
C  30.06000 49.38200 25.95300
C  32.45600 48.30800 28.76700
C  32.52600 48.58000 25.30500
O  32.42700 48.71100 24.09200
C  33.85700 47.96900 25.73500
N  27.32700 50.28800 24.99400
C  28.30500 49.89100 24.19700
C  27.80300 49.92700 22.66300
C  26.34900 50.51500 22.78600
C  26.26400 50.78500 24.28900
C  28.62600 50.58800 21.53800
C  25.23600 49.55700 22.32700
C  24.05800 50.21500 21.65000
N  25.44900 50.96800 27.12800
C  24.63500 51.36200 26.11500
C  23.35000 51.76200 26.58200
C  23.46100 51.71300 27.99200
C  24.79200 51.13300 28.27000
C  22.20100 52.20000 25.74200
C  22.80300 51.94500 29.31200
O  21.71600 52.31700 29.60500
C  23.90700 51.42800 30.48900
C  24.14900 52.63800 31.27100
O  24.75400 53.58300 30.75400
O  23.58200 52.66500 32.49400
C  23.47000 53.92400 33.17600
H  30.35400 49.14500 30.35700
H  30.26700 49.23200 23.86000
H  24.30800 51.65500 24.11900
H  26.45200 51.21300 32.07300
H  28.36700 49.01900 31.90200
H  29.92100 51.37800 31.90300
H  29.58000 50.63800 33.31000
H  28.47400 51.85500 32.69700
H  26.39900 48.36300 32.72600
H  25.19800 48.60400 31.50500
H  23.77100 49.51800 33.34300
H  25.21300 50.51700 33.82800
H  33.47700 48.24600 28.39300
H  32.32000 47.31700 29.20200
H  32.39000 49.04200 29.57000
H  33.74900 46.92800 26.03900
H  34.19300 48.63200 26.53200
H  34.54800 47.91800 24.89300
H  27.72400 48.87700 22.38100
H  26.26700 51.52200 22.37700
H  29.11500 49.91600 20.83400
H  29.37700 51.24400 21.98100
H  27.95800 51.20200 20.93500
H  24.90700 48.94200 23.16400
H  25.68800 49.00100 21.50500
H  24.25700 51.27100 21.46800
H  23.09500 50.14700 22.15500
H  24.07100 49.74300 20.66800
H  22.58200 52.96600 25.06600
H  21.44600 52.59100 26.42300
H  21.74900 51.36200 25.21000
H  23.56100 50.65700 31.17700
H  22.39100 54.03800 33.28600
H  23.72000 54.83100 32.62700
H  23.91900 53.88500 34.16900

