158

Mg -9.66000 40.27400 39.30300
C  -8.87900 36.99900 38.43500
C  -6.44100 41.15400 38.27200
C  -10.68400 43.54600 39.07100
C  -13.04600 39.36700 39.67200
N  -7.93200 39.20500 38.33700
C  -7.82700 37.84100 38.16700
C  -6.39000 37.50800 37.65500
C  -5.60200 38.80500 37.90200
C  -6.70800 39.80700 38.22100
C  -4.48200 38.63500 38.93800
C  -6.36700 36.93000 36.17800
C  -7.14900 37.75600 35.18900
H  -8.29400 37.00700 34.46200
N  -8.65800 42.04000 38.82500
C  -7.34100 42.23700 38.49600
C  -7.02000 43.64000 38.32900
C  -8.23300 44.35900 38.59700
C  -9.30000 43.30000 38.83200
C  -5.60300 44.03100 38.20300
C  -8.28900 45.85600 38.68900
O  -7.36800 46.58200 38.39100
C  -9.50600 46.61000 39.27600
N  -11.61500 41.31300 39.36100
C  -11.77900 42.67100 39.30800
C  -13.31200 43.11400 39.46800
C  -13.99300 41.73000 39.57700
C  -12.84500 40.71800 39.48300
C  -13.60100 44.18800 40.57200
C  -15.19100 41.34900 38.65900
C  -16.65100 41.28100 39.35600
N  -10.79300 38.58000 39.29100
C  -12.13900 38.36400 39.46600
C  -12.35100 36.94600 39.47100
C  -11.10800 36.39400 39.16700
C  -10.14600 37.42200 38.97300
C  -13.61900 36.26400 39.37400
C  -10.38300 35.15100 38.84500
O  -10.85500 33.97000 38.90200
C  -8.93100 35.46700 38.32500
C  -7.87900 34.74700 39.11300
O  -8.02100 34.32500 40.25500
O  -6.82800 34.45400 38.23900
C  -5.73600 33.81600 38.91300
H  -5.40100 41.39300 38.03900
H  -11.04200 44.57100 38.95500
H  -14.07600 39.03300 39.81300
H  -6.17800 36.73800 38.39600
H  -5.12900 39.25700 37.03000
H  -4.26900 37.58300 39.12700
H  -4.78400 39.12600 39.86300
H  -3.50500 38.99000 38.61000
H  -6.72200 35.90500 36.28200
H  -5.38000 36.80900 35.73000
H  -6.33400 38.01100 34.51100
H  -7.63600 38.67600 35.51200
H  -5.36300 45.08100 38.03500
H  -5.08500 43.42800 37.45800
H  -5.12900 43.83400 39.16400
H  -9.77600 45.97000 40.11500
H  -10.31200 46.70600 38.54800
H  -9.15700 47.54300 39.71900
H  -13.61100 43.49100 38.49000
H  -14.37500 41.60400 40.58900
H  -12.71500 44.77500 40.81700
H  -13.98500 43.69800 41.46700
H  -14.35700 44.91100 40.26400
H  -15.04000 40.37100 38.20100
H  -15.27700 42.04100 37.82200
H  -17.12300 40.37700 38.97000
H  -17.29700 42.02500 38.88900
H  -16.56500 41.22300 40.44100
H  -14.46100 36.94900 39.27600
H  -13.78700 35.66400 40.26900
H  -13.67900 35.67900 38.45600
H  -8.95000 35.09000 37.30300
H  -5.92800 32.77100 39.15600
H  -5.35300 34.38300 39.76200
H  -4.91400 33.93300 38.20700
Mg -2.78100 35.05800 26.85000
C  -4.66300 33.04100 29.10800
C  -1.96500 37.14500 29.43400
C  -1.03300 36.61300 24.69500
C  -4.49300 33.30200 24.27300
N  -3.14700 34.99500 28.93100
C  -3.90200 34.14300 29.66700
C  -3.70200 34.43100 31.18000
C  -2.90200 35.78400 31.28900
C  -2.71300 36.01800 29.73300
C  -3.55100 36.91300 32.08600
C  -3.07200 33.11400 31.94700
C  -3.70700 32.64400 33.22900
H  -2.89800 33.06200 34.47200
N  -1.72200 36.75900 27.01800
C  -1.41000 37.48200 28.13600
C  -0.47400 38.51200 27.83800
C  -0.18900 38.31500 26.45100
C  -0.97600 37.25100 25.99100
C  -0.10700 39.51400 28.83900
C  0.65100 39.12900 25.48800
O  0.73200 38.92400 24.25800
C  1.31800 40.38100 26.06600
N  -2.74000 34.87500 24.71100
C  -1.85000 35.69700 24.05400
C  -1.96300 35.43400 22.51400
C  -3.07700 34.34300 22.37600
C  -3.43900 34.15800 23.84300
C  -2.30800 36.78100 21.70900
C  -2.53600 33.05800 21.74500
C  -3.49300 32.32100 20.85700
N  -4.22200 33.42300 26.63200
C  -4.87000 32.85900 25.52900
C  -5.88200 31.85900 25.94200
C  -5.78800 31.89400 27.32900
C  -4.86400 32.87800 27.70700
C  -6.72200 31.07900 25.00900
C  -6.29700 31.34500 28.51600
O  -7.15300 30.50200 28.63700
C  -5.64700 32.05400 29.78000
C  -6.76800 32.69500 30.51800
O  -7.31200 33.72000 30.07100
O  -7.08900 32.16800 31.76000
C  -8.02400 33.03900 32.50100
H  -1.58000 37.68600 30.30000
H  -0.32600 36.96000 23.93900
H  -5.09300 32.76700 23.53500
H  -4.67200 34.70600 31.59500
H  -1.93700 35.69600 31.78800
H  -4.57600 36.58900 32.26500
H  -3.60400 37.89200 31.61000
H  -3.04300 37.12800 33.02600
H  -2.05300 33.47300 32.09200
H  -3.05500 32.22700 31.31300
H  -3.81400 31.56100 33.29600
H  -4.72100 33.03600 33.30500
H  0.97400 39.65100 28.86800
H  -0.35800 39.33800 29.88500
H  -0.65000 40.41600 28.55800
H  0.51500 41.09800 26.23800
H  1.94300 40.78200 25.26800
H  1.92400 40.13600 26.93800
H  -1.01800 34.98400 22.21100
H  -3.96500 34.62500 21.80900
H  -1.76800 36.82500 20.76300
H  -2.06100 37.61400 22.36700
H  -3.38900 36.84200 21.58700
H  -2.27200 32.40400 22.57500
H  -1.61700 33.13500 21.16400
H  -3.08100 31.48300 20.29500
H  -3.89200 33.02800 20.13000
H  -4.33500 31.92800 21.42800
H  -6.07800 30.70100 24.21500
H  -7.49600 31.69300 24.54800
H  -7.24600 30.33100 25.60300
H  -5.25100 31.18800 30.31100
H  -7.91700 32.94100 33.58200
H  -8.99600 32.60000 32.27700
H  -7.93500 34.11300 32.33400

