158

Mg 36.01300 3.24400 30.30500
C  33.36200 3.93700 32.64100
C  38.12500 2.98200 32.85700
C  38.27200 2.68800 28.05300
C  33.50500 3.34100 27.72300
N  35.72700 3.42300 32.52000
C  34.59300 3.68300 33.21200
C  34.90700 3.51400 34.69500
C  36.45400 3.44600 34.77400
C  36.80100 3.24100 33.30900
C  37.13400 4.65000 35.46900
C  34.25900 2.22500 35.30900
C  34.07300 2.34100 36.78800
H  34.89100 3.29000 37.68000
N  37.96600 2.97000 30.43600
C  38.67600 2.89400 31.56700
C  40.10100 2.65600 31.20700
C  40.10000 2.48800 29.77200
C  38.75000 2.74500 29.35600
C  41.15400 2.53300 32.28100
C  41.23000 1.98600 28.94400
O  41.20100 1.90200 27.71100
C  42.62700 1.68400 29.53200
N  35.88600 3.22700 28.16200
C  37.02500 2.96400 27.41300
C  36.68600 2.55200 25.96600
C  35.16400 2.56500 25.99400
C  34.80200 3.11300 27.34700
C  37.51000 3.42800 24.92000
C  34.51600 1.16000 25.65200
C  33.56500 0.93500 24.38200
N  33.87900 3.66000 30.14800
C  32.98700 3.69900 29.04400
C  31.64900 3.95700 29.51000
C  31.79500 4.06300 30.90700
C  33.13600 3.86400 31.25200
C  30.45000 4.16000 28.66100
C  31.01900 4.28500 32.09100
O  29.87500 4.58600 32.23700
C  32.02700 4.12500 33.31500
C  32.07600 5.41500 33.99800
O  32.29900 6.52400 33.52500
O  31.79800 5.19600 35.35000
C  31.88700 6.43300 36.18400
H  38.81300 2.71300 33.66000
H  39.13000 2.49000 27.40700
H  32.69900 3.24100 26.99300
H  34.65500 4.43700 35.21700
H  36.79300 2.50500 35.20800
H  36.56200 5.55400 35.26100
H  38.04300 4.92100 34.93000
H  37.23800 4.45600 36.53600
H  35.02800 1.47500 35.12800
H  33.32500 1.94800 34.82100
H  34.30100 1.35800 37.20000
H  33.02700 2.63300 36.87800
H  42.18200 2.44500 31.93100
H  41.04200 1.57500 32.78900
H  40.99900 3.28500 33.05500
H  43.34800 1.41600 28.75900
H  42.57100 0.84000 30.21900
H  43.05000 2.61500 29.91000
H  37.08400 1.53700 25.98700
H  34.75600 3.26600 25.26500
H  36.85200 3.99700 24.26300
H  38.04600 2.75600 24.25000
H  38.19200 4.12800 25.40200
H  34.22800 0.75200 26.62100
H  35.21400 0.39700 25.30800
H  33.97400 0.08600 23.83400
H  33.54900 1.77500 23.68700
H  32.53400 0.66600 24.61100
H  29.86500 3.25400 28.82300
H  30.53000 4.23300 27.57700
H  29.88200 5.04600 28.94500
H  31.81300 3.35100 34.05200
H  32.73900 7.02500 35.85100
H  32.02600 6.11700 37.21800
H  31.00300 7.06500 36.09400
Mg 30.10300 58.41000 40.17300
C  27.27300 56.67500 39.19800
C  31.97700 55.63800 39.37400
C  33.10000 60.39100 39.94000
C  28.31100 61.22100 40.55500
N  29.68500 56.35800 39.25600
C  28.43300 55.87800 39.10200
C  28.53300 54.31100 38.88100
C  30.08700 53.96100 39.15400
C  30.62000 55.38500 39.33300
C  30.37600 52.97600 40.28300
C  28.13800 53.91900 37.34000
C  28.70800 54.70700 36.20200
H  27.81400 55.53000 35.26600
N  32.25300 58.06900 39.88200
C  32.76600 56.79400 39.55200
C  34.19100 56.93300 39.41200
C  34.57900 58.25700 39.69200
C  33.30400 58.97000 39.83400
C  35.05900 55.77100 38.99100
C  36.03600 58.74500 39.59100
O  36.91400 57.96600 39.23200
C  36.50800 60.19800 39.99900
N  30.67000 60.51900 40.08800
C  31.88000 61.10200 40.06700
C  31.86800 62.65400 40.22600
C  30.39600 62.74100 40.77700
C  29.74300 61.43600 40.48300
C  32.93000 63.05200 41.28900
C  29.71800 63.95300 39.96800
C  29.41200 65.27000 40.74500
N  28.18600 58.88600 39.90200
C  27.57600 60.07800 40.18500
C  26.16100 59.89300 40.21800
C  25.96900 58.64400 39.65800
C  27.28600 58.07000 39.51800
C  25.14600 60.95300 40.50900
C  25.03100 57.72000 39.20300
O  23.79400 57.78100 39.13400
C  25.83800 56.34000 38.88600
C  25.28300 55.20600 39.68900
O  25.06400 55.23000 40.84100
O  24.84700 54.19400 38.89100
C  23.92000 53.20500 39.59600
H  32.51500 54.69400 39.26100
H  34.00200 61.00400 39.88000
H  27.73100 62.10700 40.82300
H  27.87600 53.86700 39.62900
H  30.53300 53.67500 38.20100
H  31.06000 53.34800 41.04600
H  30.88300 52.09200 39.89800
H  29.44400 52.62200 40.72400
H  27.07900 54.16900 37.29600
H  28.29400 52.85100 37.19200
H  29.36600 54.09800 35.58100
H  29.31200 55.48600 36.66700
H  35.81100 56.04100 38.24900
H  34.40500 54.98500 38.61400
H  35.42800 55.39000 39.94300
H  36.08500 60.91200 39.29200
H  37.58600 60.27400 39.86000
H  36.45300 60.54700 41.03000
H  32.12000 63.17800 39.30500
H  30.36200 62.77600 41.86600
H  32.64100 63.80200 42.02500
H  33.81300 63.40400 40.75600
H  33.21300 62.23000 41.94600
H  28.78000 63.70600 39.47100
H  30.29500 64.19900 39.07600
H  28.44200 65.68900 40.47600
H  30.13100 66.07700 40.60400
H  29.31700 65.00400 41.79800
H  25.19800 61.71700 39.73200
H  25.28900 61.56200 41.40200
H  24.09800 60.72500 40.70100
H  25.71500 56.11900 37.82600
H  23.84200 52.26400 39.05300
H  22.93700 53.65000 39.75800
H  24.24000 52.93100 40.60100

