158

Mg 47.31500 44.69300 42.72900
C  43.85600 44.15500 42.69500
C  47.74600 41.20300 42.31600
C  50.62300 45.14100 42.88000
C  46.79900 48.02700 42.56500
N  45.97000 42.94000 42.30000
C  44.54700 42.93400 42.39000
C  43.98300 41.52200 42.34200
C  45.29400 40.63300 42.07200
C  46.43000 41.62400 42.28600
C  45.40200 39.31000 42.92200
C  42.92700 41.32300 41.17600
C  43.22800 42.03200 39.76500
H  43.21300 41.16600 38.50000
N  49.00800 43.38000 42.63500
C  48.92400 42.04500 42.38400
C  50.28200 41.47400 42.23800
C  51.18700 42.58100 42.36400
C  50.28900 43.77000 42.61900
C  50.55600 39.98300 42.03700
C  52.64600 42.52100 42.32200
O  53.24200 41.48800 42.04700
C  53.53300 43.66500 42.64400
N  48.58200 46.29100 42.33700
C  49.89100 46.22900 42.64700
C  50.53900 47.60100 42.75400
C  49.29100 48.57200 42.55600
C  48.12000 47.58400 42.46000
C  51.51000 47.98600 43.99900
C  49.43100 49.59400 41.31300
C  49.46500 51.04900 41.63500
N  45.65400 45.91600 42.72400
C  45.57000 47.27900 42.70500
C  44.23700 47.71200 42.78600
C  43.45000 46.51200 42.85800
C  44.42900 45.44300 42.82900
C  43.79900 49.13800 42.81300
C  42.15000 45.89400 42.99300
O  41.04700 46.29000 43.11000
C  42.44100 44.29600 42.87200
C  41.95300 43.58800 44.14700
O  42.47600 43.65800 45.21600
O  40.80200 42.81500 43.92400
C  40.43200 41.85200 45.01300
H  47.92400 40.16100 42.04600
H  51.70200 45.29900 42.92300
H  46.74400 49.11400 42.47600
H  43.65900 41.29300 43.35700
H  45.18100 40.19100 41.08200
H  44.60800 39.32200 43.66900
H  46.32500 39.17000 43.48400
H  45.36000 38.50800 42.18500
H  41.94500 41.69800 41.46200
H  42.94700 40.23300 41.17600
H  44.18200 42.52900 39.94400
H  42.50600 42.84300 39.67000
H  50.06800 39.50800 41.18500
H  50.34200 39.42800 42.95000
H  51.62700 39.79700 41.94900
H  53.36100 44.52300 41.99400
H  54.57500 43.38700 42.48200
H  53.48600 43.95900 43.69200
H  51.12000 47.68800 41.83600
H  49.14800 49.08300 43.50800
H  51.22100 47.43400 44.89300
H  51.27100 49.02800 44.21300
H  52.55100 47.86900 43.69900
H  48.61700 49.42100 40.60900
H  50.33300 49.41100 40.72900
H  49.47500 51.26300 42.70400
H  48.55700 51.56700 41.32700
H  50.30700 51.48400 41.09700
H  42.85400 49.17300 43.35500
H  43.57700 49.61500 41.85800
H  44.53300 49.79100 43.28600
H  41.93600 43.90400 41.99000
H  39.56800 41.32900 44.60300
H  40.09300 42.40000 45.89200
H  41.33500 41.30500 45.28400
Mg 26.21000 50.24200 26.19600
C  24.13100 51.51100 28.47900
C  28.65800 49.65400 28.57900
C  28.38300 49.52300 23.70700
C  23.93600 51.50800 23.57600
N  26.35100 50.39400 28.29400
C  25.37700 51.05000 29.06600
C  25.75500 50.95400 30.55800
C  27.31300 50.68700 30.52500
C  27.46200 50.13200 29.07500
C  28.22700 51.87200 30.97600
C  24.92500 49.81500 31.30900
C  24.17400 50.22400 32.61100
H  24.41500 49.36600 33.81700
N  28.13900 49.49500 26.19700
C  28.94000 49.30400 27.26400
C  30.18600 48.72400 26.76500
C  30.22200 48.76900 25.37500
C  28.90600 49.29900 25.07600
C  31.26400 48.19500 27.72100
C  31.33400 48.36200 24.40500
O  31.32900 48.65700 23.21200
C  32.57600 47.53800 24.71000
N  26.20300 50.62700 23.97400
C  27.22800 50.14100 23.24600
C  27.05800 50.41000 21.71900
C  25.53400 50.77700 21.70100
C  25.17700 51.04400 23.14300
C  27.93700 51.59100 21.25400
C  24.52500 49.72900 21.11500
C  23.35100 50.24000 20.17800
N  24.41500 51.29100 26.00600
C  23.55800 51.77100 24.94200
C  22.27400 52.10800 25.49300
C  22.48900 51.99400 26.87400
C  23.77400 51.55100 27.09600
C  21.18400 52.53100 24.60300
C  21.85300 52.36800 28.11000
O  20.72500 52.85800 28.25500
C  22.88100 51.91800 29.22100
C  23.00700 53.05800 30.21600
O  23.57000 54.15000 30.01100
O  22.34700 52.67900 31.28600
C  22.42800 53.57400 32.48500
H  29.36900 49.41300 29.37200
H  29.15700 49.36100 22.95400
H  23.25100 51.81400 22.78300
H  25.56800 51.93000 31.00500
H  27.56600 49.89000 31.22400
H  28.71200 52.27200 30.08500
H  28.98200 51.60700 31.71500
H  27.68600 52.69800 31.43700
H  25.60600 48.98600 31.50300
H  24.12700 49.36100 30.72200
H  23.10300 50.32100 32.43500
H  24.44500 51.25100 32.85600
H  32.19800 48.70000 27.47400
H  31.49500 47.15000 27.51200
H  31.06300 48.50600 28.74600
H  33.27100 48.11700 25.31700
H  33.02900 47.33000 23.74000
H  32.35600 46.65300 25.30700
H  27.27300 49.57500 21.05300
H  25.41800 51.72300 21.17200
H  27.29100 52.41100 20.93900
H  28.49600 51.31100 20.36100
H  28.56900 51.91400 22.08200
H  24.16800 49.07800 21.91300
H  25.17200 49.15700 20.45000
H  23.25500 49.63500 19.27700
H  23.54100 51.27000 19.87400
H  22.37500 50.22200 20.66300
H  20.31200 52.22900 25.18300
H  21.09900 52.16700 23.57900
H  21.22400 53.61900 24.55500
H  22.39200 51.10900 29.76400
H  23.15500 54.37500 32.35200
H  22.78000 52.95400 33.30900
H  21.40200 53.86500 32.71000

