158

Mg 2.10800 -1.56800 43.56000
C  5.52000 -0.62100 43.06200
C  1.21700 1.58400 42.15800
C  -0.99400 -2.73800 42.90500
C  3.18200 -4.72700 44.39000
N  3.28300 0.39500 42.83900
C  4.67600 0.45600 42.62900
C  4.99800 1.64000 41.80000
C  3.68100 2.53900 41.98900
C  2.60400 1.45500 42.38300
C  3.80600 3.77600 42.95600
C  5.35700 1.16800 40.37300
C  6.69800 1.53300 39.79200
H  6.65600 2.25300 38.46400
N  0.27700 -0.71900 42.71000
C  0.15400 0.60300 42.29100
C  -1.24300 0.87200 41.99400
C  -1.95000 -0.40000 42.19800
C  -0.90000 -1.31500 42.54700
C  -1.84700 2.20300 41.71200
C  -3.46000 -0.59200 42.13000
O  -4.16800 0.41300 41.89900
C  -4.14300 -1.89800 42.34300
N  1.19000 -3.46900 43.78800
C  -0.07100 -3.71300 43.44800
C  -0.40400 -5.20500 43.59900
C  0.90900 -5.79500 44.08800
C  1.85600 -4.56500 44.12300
C  -1.68700 -5.52600 44.42000
C  1.55000 -6.98000 43.22500
C  1.37300 -8.42200 43.74900
N  3.98200 -2.51300 43.95100
C  4.23900 -3.77800 44.19300
C  5.66000 -3.95500 44.17800
C  6.18700 -2.73000 43.73300
C  5.08700 -1.86900 43.58200
C  6.47900 -5.14500 44.43700
C  7.43100 -1.99900 43.42600
O  8.58500 -2.43800 43.43100
C  7.01300 -0.63400 42.82000
C  7.79700 0.36900 43.52900
O  7.61700 0.77400 44.66600
O  8.83500 0.84100 42.66700
C  9.41000 2.00100 43.17300
H  0.89800 2.55900 41.78300
H  -1.99000 -3.17900 42.82500
H  3.69700 -5.68600 44.47300
H  5.79400 2.08600 42.39700
H  3.38000 3.05900 41.08000
H  4.64500 3.65700 43.64200
H  2.84100 3.78800 43.46400
H  3.95800 4.66100 42.33800
H  4.60500 1.61900 39.72500
H  5.17600 0.10100 40.23900
H  7.31100 0.64300 39.65600
H  7.18600 2.19800 40.50500
H  -2.74800 2.08900 41.11100
H  -1.15900 2.90900 41.24600
H  -2.20400 2.63100 42.64900
H  -5.22900 -1.81200 42.31000
H  -3.83100 -2.23700 43.33100
H  -3.87500 -2.66300 41.61500
H  -0.70500 -5.43500 42.57700
H  0.71100 -6.12200 45.10900
H  -1.55300 -6.25500 45.22000
H  -2.48300 -5.87900 43.76400
H  -1.93500 -4.54000 44.81400
H  2.60000 -6.77100 43.02300
H  1.04800 -6.93000 42.25900
H  2.19200 -8.67100 44.42400
H  1.24000 -9.00500 42.83800
H  0.43000 -8.60800 44.26300
H  7.51500 -4.86900 44.63500
H  6.55800 -5.71300 43.51000
H  6.11900 -5.80200 45.22800
H  7.25400 -0.58900 41.75800
H  10.09800 1.77500 43.98800
H  8.70600 2.77500 43.47700
H  9.98000 2.52700 42.40700
Mg 25.89000 0.97400 29.14000
C  27.66400 0.64000 32.06000
C  22.93600 1.31400 30.88200
C  24.24200 1.43400 26.19100
C  28.79800 0.20000 27.37900
N  25.36400 0.79400 31.19900
C  26.32600 0.85400 32.24400
C  25.62000 1.05700 33.62000
C  24.10400 0.88200 33.18100
C  24.09500 1.00300 31.65200
C  23.22800 -0.27600 33.70200
C  25.97900 2.46700 34.17900
C  26.95100 2.40700 35.36200
H  26.49700 3.30200 36.51700
N  23.89900 1.24200 28.61700
C  22.88500 1.41200 29.46500
C  21.70800 1.65600 28.72200
C  22.01100 1.93100 27.39300
C  23.45500 1.52200 27.34600
C  20.43000 1.66700 29.44500
C  21.17200 2.39600 26.22500
O  21.58600 2.62500 25.10300
C  19.74300 2.68300 26.50100
N  26.46000 0.70800 27.08600
C  25.59400 1.16100 26.08200
C  26.33300 1.27500 24.74300
C  27.80600 1.05600 25.16700
C  27.71400 0.59900 26.65900
C  25.78100 0.38300 23.64400
C  28.68100 2.39100 24.92500
C  29.20200 2.50300 23.49400
N  27.82500 0.36900 29.56300
C  28.84600 0.01600 28.76400
C  30.02500 -0.31600 29.53300
C  29.60900 -0.05600 30.88200
C  28.24200 0.34800 30.81400
C  31.33400 -0.72200 29.04600
C  30.03600 0.05000 32.23900
O  31.16700 -0.18000 32.69400
C  28.76300 0.45100 33.12900
C  28.45800 -0.63000 34.07300
O  27.78600 -1.66500 33.85400
O  28.93800 -0.26700 35.24000
C  28.60000 -1.13100 36.41300
H  22.07300 1.64400 31.46400
H  23.81400 1.81200 25.26000
H  29.74700 0.19800 26.83800
H  25.94500 0.24100 34.26400
H  23.58800 1.81900 33.39000
H  23.92300 -0.93500 34.22200
H  22.82800 -0.73600 32.79900
H  22.37100 -0.10500 34.35300
H  25.09800 3.02200 34.50100
H  26.35300 3.10000 33.37500
H  27.89400 2.80100 34.98400
H  27.16600 1.40100 35.72200
H  20.12600 2.68100 29.70400
H  20.48200 0.95400 30.26800
H  19.64700 1.24500 28.81500
H  19.18600 1.80100 26.81700
H  19.23900 3.04700 25.60600
H  19.70400 3.51300 27.20700
H  26.27200 2.30600 24.39400
H  28.31500 0.23000 24.67200
H  24.73500 0.14500 23.83800
H  26.25900 -0.55900 23.37300
H  26.01900 0.99200 22.77200
H  29.57200 2.28600 25.54400
H  28.09500 3.25600 25.23600
H  30.27800 2.33400 23.44400
H  28.93400 3.47800 23.08900
H  28.83700 1.71900 22.83100
H  32.10000 -0.02100 29.37700
H  31.41200 -0.60900 27.96500
H  31.54600 -1.76800 29.26700
H  29.13500 1.33200 33.65100
H  28.70700 -2.18000 36.13700
H  27.65700 -0.93900 36.92400
H  29.32900 -0.87900 37.18300

