158

Mg 27.69400 49.87900 26.46600
C  25.38100 51.08200 29.03000
C  29.75400 49.04100 28.83700
C  29.58800 48.87100 23.99400
C  25.25300 51.02800 24.17600
N  27.48300 50.08100 28.69800
C  26.53600 50.52300 29.54300
C  26.90200 50.27300 31.00000
C  28.45800 49.97000 30.87100
C  28.56800 49.62700 29.37000
C  29.41000 51.15700 31.34400
C  26.06600 49.20900 31.68900
C  25.08500 49.75200 32.76800
H  25.35000 49.21500 34.21000
N  29.47800 49.14900 26.46800
C  30.19000 48.84500 27.53000
C  31.38700 48.03800 27.11200
C  31.41000 48.06500 25.69600
C  30.13600 48.69600 25.32100
C  32.35800 47.43100 28.09300
C  32.36800 47.48900 24.70100
O  32.37300 47.87400 23.55400
C  33.46200 46.53600 25.17200
N  27.53400 50.15800 24.31900
C  28.41500 49.51400 23.53300
C  27.98500 49.56400 22.07900
C  26.48300 50.00000 22.21600
C  26.42100 50.46000 23.67900
C  28.77400 50.62900 21.21800
C  25.46400 48.92500 21.85500
C  24.22800 49.48700 21.13600
N  25.74400 51.02500 26.51300
C  24.83300 51.35000 25.52600
C  23.55300 51.94300 26.06800
C  23.78800 51.89600 27.42800
C  25.10200 51.33000 27.67500
C  22.43000 52.53700 25.33800
C  23.23400 52.27000 28.73500
O  22.14200 52.82300 29.03600
C  24.22500 51.70000 29.81100
C  24.67000 52.88400 30.58000
O  25.63000 53.60300 30.37600
O  23.83500 53.10400 31.66100
C  24.05500 54.28700 32.43600
H  30.34100 48.56600 29.62700
H  30.07900 48.26700 23.22800
H  24.50800 51.18400 23.39300
H  26.85700 51.24300 31.49500
H  28.81800 49.11300 31.44000
H  28.87100 52.04000 31.68900
H  29.98700 51.52400 30.49500
H  30.11000 50.89900 32.13800
H  26.71400 48.53200 32.24500
H  25.42000 48.67700 30.99100
H  24.08400 49.42800 32.48500
H  25.04000 50.84100 32.78800
H  32.05500 47.60600 29.12600
H  33.34200 47.87100 27.93100
H  32.31000 46.36000 27.90000
H  34.35600 46.93500 25.65100
H  33.81000 46.14100 24.21700
H  33.01100 45.66700 25.65200
H  28.04300 48.60500 21.56400
H  26.22800 50.87500 21.61700
H  29.64000 50.97300 21.78200
H  28.12700 51.40100 20.80300
H  29.29300 50.23000 20.34600
H  25.18200 48.53300 22.83200
H  26.00800 48.17800 21.27600
H  23.37500 49.52300 21.81300
H  24.03400 48.83900 20.28100
H  24.42800 50.48300 20.74000
H  22.62600 53.60400 25.43900
H  21.45600 52.19900 25.69000
H  22.54300 52.22400 24.30000
H  23.70100 51.04200 30.50400
H  23.24300 54.44700 33.14600
H  24.14700 55.20000 31.84800
H  25.00300 54.11500 32.94500
Mg -11.50700 15.86800 41.57100
C  -8.66200 14.02300 41.09900
C  -9.84200 18.71500 40.30200
C  -14.52200 17.52000 41.40800
C  -13.14500 12.86900 42.29200
N  -9.56000 16.27800 40.62400
C  -8.49600 15.37500 40.71100
C  -7.23300 16.03600 40.11200
C  -7.59500 17.55900 40.31500
C  -9.07000 17.53000 40.34700
C  -7.11100 18.17300 41.59700
C  -6.75600 15.67900 38.64500
C  -5.24900 15.61800 38.47400
H  -4.67700 16.16100 37.22200
N  -12.04200 17.83500 40.98500
C  -11.25200 18.87000 40.54600
C  -12.04500 20.09200 40.27000
C  -13.36200 19.77600 40.57900
C  -13.39200 18.28500 41.03100
C  -11.46100 21.29800 39.55800
C  -14.54100 20.67600 40.49400
O  -14.28100 21.81700 40.18700
C  -16.13600 20.32600 40.69400
N  -13.59700 15.32500 41.85300
C  -14.64600 16.14000 41.78200
C  -15.99200 15.41300 41.75200
C  -15.55700 13.97400 42.28900
C  -13.99900 14.04500 42.25100
C  -17.13200 16.04500 42.62600
C  -16.06700 12.84100 41.47700
C  -17.42100 12.92600 40.79800
N  -10.96900 13.82300 41.87600
C  -11.82000 12.75500 42.04700
C  -11.00100 11.56100 42.07400
C  -9.71800 12.04100 41.76800
C  -9.82900 13.39000 41.48100
C  -11.36800 10.19400 42.35900
C  -8.35800 11.65500 41.46200
O  -7.78700 10.59100 41.34800
C  -7.59700 12.94500 41.11700
C  -6.66800 13.29600 42.08700
O  -6.83900 13.54000 43.25600
O  -5.41700 13.08500 41.61300
C  -4.24200 13.23500 42.47000
H  -9.27800 19.64100 40.17600
H  -15.53500 17.87700 41.21500
H  -13.73900 11.96300 42.43000
H  -6.40900 15.89600 40.81100
H  -7.29700 18.17800 39.47000
H  -6.39900 17.51100 42.09000
H  -7.87900 18.34000 42.35200
H  -6.69500 19.14700 41.34100
H  -7.28000 16.30600 37.92400
H  -7.12500 14.65600 38.58000
H  -4.85700 14.61100 38.61100
H  -4.81400 16.28400 39.21900
H  -11.99900 21.50200 38.63200
H  -10.42700 21.24000 39.21600
H  -11.49400 22.19400 40.17700
H  -16.62200 21.30000 40.74500
H  -16.17400 19.74300 41.61400
H  -16.33900 19.75700 39.78700
H  -16.15500 15.37600 40.67500
H  -15.83400 13.79200 43.32700
H  -18.00800 16.14500 41.98500
H  -16.70500 16.98300 42.97900
H  -17.35800 15.40200 43.47600
H  -16.22100 12.05700 42.21800
H  -15.27400 12.60000 40.76900
H  -18.00800 13.71100 41.27500
H  -17.83900 11.94000 41.00200
H  -17.27600 13.16100 39.74400
H  -10.45700 9.65500 42.61900
H  -11.88900 9.71400 41.53000
H  -11.97200 10.20100 43.26700
H  -7.22700 12.84800 40.09600
H  -3.46400 12.66200 41.96700
H  -4.45700 12.86200 43.47100
H  -3.83800 14.24700 42.43200

