158

Mg 2.82000 -1.17800 45.12100
C  6.27600 -0.62800 44.54000
C  2.12900 1.54200 43.05000
C  -0.38000 -2.30700 45.03900
C  3.76800 -4.12200 46.90300
N  4.06100 0.32100 43.95200
C  5.46300 0.25000 43.80700
C  5.93400 1.36900 42.91600
C  4.59600 2.12300 42.63000
C  3.49100 1.28700 43.23400
C  4.50400 3.53100 43.24300
C  6.73400 0.72200 41.70900
C  7.96500 1.47700 41.08600
H  7.71000 2.23700 39.79500
N  1.11800 -0.40500 44.23600
C  1.01400 0.72200 43.43100
C  -0.39300 0.98900 43.23600
C  -1.16800 -0.01800 43.84200
C  -0.13800 -0.97600 44.43400
C  -0.94100 2.11100 42.42600
C  -2.68800 -0.13600 43.81000
O  -3.37000 0.70100 43.27500
C  -3.33900 -1.20700 44.60500
N  1.85400 -2.87000 45.79100
C  0.51000 -3.15300 45.66700
C  0.14300 -4.59600 46.20800
C  1.42800 -5.06900 46.96000
C  2.41600 -3.92000 46.50300
C  -1.21400 -4.57400 47.04700
C  1.82700 -6.57500 46.56000
C  1.28400 -7.66200 47.49600
N  4.61600 -2.16300 45.76600
C  4.85900 -3.26200 46.53400
C  6.23800 -3.47200 46.72300
C  6.83300 -2.38400 46.06200
C  5.83600 -1.72700 45.37600
C  6.98800 -4.60500 47.36100
C  8.11500 -1.71100 45.66900
O  9.24400 -1.96300 45.85500
C  7.74700 -0.62500 44.70900
C  8.26800 0.67600 45.28900
O  7.66000 1.34800 46.11500
O  9.40000 1.02900 44.59800
C  9.81500 2.39600 44.91600
H  1.89800 2.30700 42.30600
H  -1.35700 -2.76700 44.87700
H  3.94200 -5.03500 47.47600
H  6.55400 1.99500 43.55700
H  4.35700 2.18500 41.56900
H  5.34600 4.18000 43.00300
H  4.58400 3.26300 44.29600
H  3.53100 3.97400 43.03200
H  6.00100 0.59200 40.91200
H  7.07600 -0.30200 41.85700
H  8.73300 0.73000 40.88400
H  8.27300 2.21100 41.83000
H  -0.91700 1.80200 41.38100
H  -0.23500 2.93900 42.48900
H  -1.90400 2.55500 42.67600
H  -3.14100 -1.14300 45.67400
H  -3.01000 -2.20200 44.30400
H  -4.41500 -1.29400 44.45500
H  -0.06100 -5.27100 45.37700
H  1.21800 -4.87400 48.01100
H  -1.93900 -5.18200 46.50600
H  -1.53300 -3.53800 47.16000
H  -0.96000 -5.07200 47.98200
H  2.90200 -6.62500 46.38600
H  1.47400 -6.78100 45.55000
H  1.00600 -7.22000 48.45200
H  2.10700 -8.37700 47.48400
H  0.44800 -8.20800 47.06000
H  7.16700 -5.41700 46.65700
H  6.38400 -4.83400 48.23900
H  7.94300 -4.23200 47.73200
H  8.30300 -0.82000 43.79200
H  10.62000 2.53200 44.19400
H  10.21000 2.51000 45.92500
H  9.08400 3.17600 44.70500
Mg 43.27900 3.88700 47.09900
C  41.36000 6.84900 47.09400
C  40.29000 2.11600 46.74700
C  45.01600 1.20800 46.25400
C  46.08400 6.00600 46.50100
N  41.09000 4.49800 46.94500
C  40.51400 5.72300 47.06200
C  38.96800 5.66400 47.08200
C  38.79900 4.10500 47.11800
C  40.15700 3.47400 46.88300
C  38.15300 3.58800 48.43200
C  38.26200 6.36800 45.86300
C  39.19600 6.92100 44.76000
H  38.80600 6.38900 43.36100
N  42.75300 1.87000 46.85600
C  41.49000 1.31400 46.69700
C  41.54600 -0.04300 46.42700
C  42.95200 -0.39800 46.32500
C  43.63800 0.86800 46.53400
C  40.34200 -0.89300 46.22500
C  43.44100 -1.89200 46.07400
O  42.63500 -2.82800 45.86200
C  44.85500 -2.29600 46.03300
N  45.21600 3.65600 46.36100
C  45.71800 2.39400 46.16400
C  47.15400 2.49400 45.68000
C  47.54700 3.97800 45.98200
C  46.18400 4.64600 46.29800
C  48.02500 1.46500 46.39800
C  48.53500 4.71300 44.99000
C  49.87800 4.95600 45.62300
N  43.70400 6.04600 46.75800
C  44.94500 6.72300 46.65300
C  44.65300 8.18700 46.75000
C  43.26800 8.26400 46.97000
C  42.74300 6.94700 46.97300
C  45.75600 9.23800 46.65800
C  42.19700 9.17100 47.29600
O  42.22400 10.39100 47.34900
C  40.91600 8.28900 47.31200
C  40.08900 8.54100 48.49600
O  40.10800 7.81700 49.46000
O  39.28000 9.59700 48.33200
C  38.28800 10.07800 49.27000
H  39.28800 1.70900 46.59900
H  45.53400 0.30400 45.92900
H  47.03300 6.53400 46.61600
H  38.65800 6.13000 48.01800
H  38.21500 3.64000 46.32400
H  37.72500 4.40900 49.00600
H  38.93200 3.14500 49.05300
H  37.39100 2.85400 48.17100
H  37.72200 7.23800 46.23700
H  37.52700 5.73500 45.36600
H  40.23600 6.60600 44.84300
H  39.06500 8.00300 44.77700
H  39.85000 -0.80100 45.25700
H  39.55800 -0.62800 46.93500
H  40.46400 -1.94800 46.46800
H  45.44600 -1.88200 46.85000
H  45.16400 -1.94400 45.04900
H  44.99100 -3.37700 46.03700
H  47.16700 2.30400 44.60700
H  48.02600 3.81400 46.94700
H  48.90400 1.91400 46.86000
H  48.26900 0.79300 45.57500
H  47.51000 0.99800 47.23700
H  48.16800 5.71100 44.75000
H  48.52700 4.20900 44.02300
H  50.62000 4.47900 44.98200
H  49.95400 4.49100 46.60500
H  49.98000 6.03300 45.75500
H  46.13200 9.48600 47.65000
H  45.39900 10.20500 46.30400
H  46.58600 8.89600 46.04000
H  40.30000 8.64100 46.48400
H  38.28200 9.43100 50.14700
H  37.38300 10.03500 48.66400
H  38.58200 11.10000 49.51200

