158

Mg 30.02500 57.82100 39.47800
C  27.44500 55.77500 38.13500
C  32.36100 55.47500 38.14300
C  32.43000 60.13800 39.78800
C  27.66100 60.32200 39.85700
N  29.92800 55.80000 38.22800
C  28.74400 55.21800 37.83200
C  29.10400 53.80400 37.29900
C  30.57900 53.64500 37.70300
C  31.02700 55.05200 38.00600
C  30.76800 52.74200 38.91100
C  28.73300 53.58200 35.85100
C  29.34500 54.41900 34.79000
H  28.45700 54.95000 33.76900
N  32.10600 57.71100 39.27400
C  32.88100 56.69200 38.74100
C  34.22000 57.10000 38.80200
C  34.35300 58.45600 39.40100
C  32.92700 58.85700 39.50200
C  35.34600 56.20300 38.35100
C  35.52200 59.26600 39.71500
O  36.65500 58.77800 39.43300
C  35.49500 60.65900 40.35400
N  29.99400 59.87100 39.99200
C  31.14200 60.59200 39.92600
C  30.97500 62.08500 40.15200
C  29.39500 62.16800 40.36100
C  29.00300 60.72100 40.04500
C  31.84900 62.80900 41.21000
C  28.73900 63.27400 39.47100
C  27.64600 64.05900 40.21300
N  27.95700 58.00500 39.24200
C  27.15600 59.05800 39.52000
C  25.76100 58.61800 39.26200
C  25.83700 57.31700 38.76400
C  27.17800 57.02600 38.71500
C  24.50300 59.45900 39.35900
C  25.04800 56.23900 38.20900
O  23.86100 56.21000 37.98900
C  26.05600 55.13600 37.90400
C  25.82600 53.87100 38.68900
O  26.37400 53.51500 39.74000
O  24.70700 53.21200 38.09400
C  24.09200 52.09000 38.86700
H  33.09600 54.80400 37.69200
H  33.12700 60.97900 39.79400
H  26.97500 61.15800 40.01400
H  28.47200 53.13600 37.88400
H  31.11800 53.28900 36.82600
H  31.01100 51.78900 38.44300
H  29.90600 52.49000 39.52900
H  31.50600 53.16500 39.59300
H  27.64700 53.60100 35.76100
H  28.78400 52.51000 35.65800
H  30.17000 53.84800 34.36500
H  29.76100 55.31800 35.24600
H  35.93200 55.79600 39.17600
H  35.90100 56.87200 37.69300
H  35.13500 55.28900 37.79500
H  36.38700 61.15700 40.73500
H  34.78000 60.72500 41.17400
H  35.28700 61.31000 39.50500
H  31.24900 62.54900 39.20400
H  29.01700 62.30000 41.37500
H  31.15800 63.16500 41.97400
H  32.30900 63.66900 40.72500
H  32.59200 62.15200 41.66400
H  28.25700 62.74000 38.65200
H  29.48000 64.03700 39.23200
H  28.02100 65.01500 40.57800
H  27.34000 63.43500 41.05200
H  26.78300 64.28800 39.58700
H  24.51500 60.15100 38.51700
H  24.42100 59.97300 40.31700
H  23.66400 58.78500 39.18900
H  25.86100 54.87100 36.86500
H  24.26900 52.33900 39.91300
H  24.64700 51.20100 38.56700
H  23.02200 52.08200 38.66000
Mg 36.16000 48.77400 25.95700
C  36.34300 47.22600 29.08100
C  34.67800 51.48300 27.58800
C  35.54200 50.07500 22.97400
C  37.03200 45.78000 24.49500
N  35.52700 49.25600 28.06700
C  35.86400 48.55100 29.13900
C  35.46700 49.32700 30.46200
C  34.67700 50.56300 29.94300
C  34.99600 50.44700 28.42700
C  33.19900 50.64100 30.31400
C  36.79700 49.73500 31.19600
C  37.09500 49.18500 32.57200
H  36.10800 49.53800 33.74500
N  35.32300 50.61300 25.33800
C  34.77200 51.59500 26.20800
C  34.32700 52.69100 25.37700
C  34.61300 52.32100 23.97100
C  35.08800 50.95600 24.03700
C  33.82700 54.06600 26.02800
C  34.41600 53.05700 22.67500
O  34.62200 52.56000 21.54000
C  33.87100 54.42200 22.69900
N  36.22900 48.00500 24.00600
C  36.06400 48.80200 22.99100
C  36.27300 48.03000 21.66200
C  36.81300 46.57900 22.15400
C  36.83300 46.82900 23.60200
C  34.97700 47.99700 20.80700
C  38.18500 46.33100 21.54700
C  38.22900 45.30200 20.42100
N  36.46600 46.83500 26.57800
C  36.82200 45.70900 25.92400
C  36.96200 44.57000 26.84000
C  36.85800 45.16500 28.10600
C  36.54300 46.51100 27.88500
C  37.26400 43.14700 26.49400
C  36.96700 44.85500 29.54500
O  37.24100 43.84900 30.10700
C  36.67400 46.24200 30.24400
C  35.55300 46.12200 31.17100
O  34.34400 46.16200 30.88400
O  36.00800 45.74100 32.45900
C  35.08800 45.39500 33.50200
H  34.05200 52.25300 28.04500
H  35.44000 50.49400 21.97000
H  37.19100 44.81400 24.01000
H  34.81800 48.69000 31.06400
H  35.07600 51.52600 30.26300
H  32.62300 50.65900 29.38900
H  33.08200 51.56300 30.88200
H  33.04200 49.74100 30.90900
H  36.77400 50.81000 31.37700
H  37.65200 49.59500 30.53500
H  38.09500 49.53900 32.82300
H  37.29600 48.11500 32.62100
H  34.61500 54.72500 26.39300
H  33.17400 53.89900 26.88400
H  33.29900 54.55900 25.21100
H  34.39200 55.23100 23.21200
H  32.85300 54.39600 23.09000
H  33.71900 54.64000 21.64100
H  37.00900 48.58300 21.07800
H  36.13200 45.75300 21.95300
H  34.90700 47.02300 20.32100
H  34.92200 48.81100 20.08500
H  34.08300 48.18600 21.40100
H  38.80700 45.79400 22.26300
H  38.71100 47.21000 21.17500
H  38.50400 45.75000 19.46600
H  37.25400 44.85700 20.21900
H  38.97500 44.54300 20.65700
H  38.20100 42.99400 27.02900
H  37.45900 43.01300 25.43000
H  36.60000 42.34100 26.80500
H  37.52500 46.60300 30.82000
H  35.34800 44.36900 33.76100
H  34.03100 45.52400 33.26900
H  35.10900 46.02400 34.39100

