158

Mg 4.76900 53.84000 41.30800
C  4.46600 50.40900 40.90600
C  7.57600 53.92900 39.55500
C  4.57000 57.24500 41.41900
C  1.43000 53.76400 42.86600
N  5.86900 52.39100 40.41800
C  5.56300 51.01600 40.29200
C  6.64300 50.28200 39.43100
C  7.78300 51.35200 39.31500
C  7.02900 52.66000 39.77400
C  9.00800 51.04200 40.29100
C  6.09200 49.96400 38.01100
C  6.83100 48.90100 37.29500
H  6.28900 48.26600 35.98900
N  5.93900 55.39800 40.62400
C  7.10900 55.21600 40.02800
C  7.80400 56.50500 39.95200
C  6.95900 57.39400 40.55400
C  5.73300 56.71600 40.92900
C  9.10500 56.81100 39.34900
C  7.23400 58.91100 40.48400
O  8.17200 59.41200 39.92300
C  6.30200 59.87300 41.11400
N  3.14300 55.25700 41.82400
C  3.37700 56.60200 41.79300
C  2.12900 57.36100 42.27700
C  1.15600 56.29100 42.80200
C  1.98500 55.00100 42.52500
C  2.46700 58.55700 43.28500
C  -0.19600 56.20700 42.24000
C  -1.19300 55.94300 43.38200
N  3.13600 52.38600 41.81700
C  2.01200 52.48500 42.58300
C  1.51400 51.17000 42.93500
C  2.43100 50.27600 42.29400
C  3.41100 51.08600 41.64400
C  0.35500 50.82600 43.79600
C  2.83000 48.91500 42.00700
O  2.31600 47.87300 42.36900
C  4.10600 48.96400 41.08400
C  3.78000 48.15600 39.90200
O  2.94200 48.48000 39.06000
O  4.57200 46.97900 39.84600
C  4.46000 46.18300 38.61000
H  8.58900 53.87600 39.15200
H  4.50800 58.32500 41.56500
H  0.44000 53.74700 43.32500
H  7.00500 49.39400 39.95000
H  8.15000 51.41000 38.29100
H  8.92600 50.01100 40.63500
H  8.95500 51.75600 41.11400
H  9.95900 51.05100 39.75900
H  6.12100 50.79700 37.30800
H  5.07200 49.58000 38.02900
H  7.19100 48.11300 37.95700
H  7.74600 49.39800 36.97600
H  9.42600 55.91100 38.82500
H  9.78300 56.97500 40.18700
H  9.14300 57.66400 38.67200
H  6.74500 60.83900 41.35700
H  6.04900 59.37500 42.05000
H  5.50100 60.00600 40.38700
H  1.72800 57.95200 41.45300
H  1.19000 56.44500 43.88100
H  2.55000 59.46900 42.69400
H  3.36600 58.40100 43.88100
H  1.56400 58.67300 43.88400
H  -0.46100 55.40200 41.55500
H  -0.37200 57.20000 41.82600
H  -1.48300 56.93500 43.72800
H  -0.89000 55.30100 44.20900
H  -2.11000 55.51200 42.98100
H  -0.17500 50.14100 43.13500
H  -0.27800 51.66500 44.08700
H  0.70400 50.21900 44.63200
H  5.00500 48.48900 41.47500
H  4.12200 46.81800 37.79100
H  3.81400 45.31800 38.76300
H  5.45100 45.82100 38.33700
Mg -12.15300 39.06700 41.45100
C  -10.17400 36.27600 40.54100
C  -9.68400 41.10000 40.01300
C  -14.34000 41.49000 41.49800
C  -14.78400 36.74400 42.16200
N  -10.21100 38.64200 40.27600
C  -9.58800 37.46300 40.10100
C  -8.14300 37.66100 39.53600
C  -7.94900 39.19000 39.71100
C  -9.36400 39.69900 39.99000
C  -6.89600 39.74500 40.76400
C  -8.01300 37.03800 38.11300
C  -7.26500 35.72300 37.92000
H  -6.08600 35.77900 36.91500
N  -12.01100 41.07200 40.95000
C  -10.95100 41.72600 40.38000
C  -11.30000 43.17900 40.27800
C  -12.66000 43.23900 40.81900
C  -13.08000 41.88800 41.01900
C  -10.42800 44.25400 39.81800
C  -13.39400 44.57000 41.00100
O  -12.87600 45.59600 40.49000
C  -14.81900 44.65800 41.56800
N  -14.26000 39.07700 41.66600
C  -14.90700 40.27400 41.77700
C  -16.42000 40.01900 41.90100
C  -16.57000 38.51200 42.05600
C  -15.10600 38.06000 42.00400
C  -17.07100 40.93800 42.98100
C  -17.39900 37.69300 41.01000
C  -18.49200 36.82600 41.73600
N  -12.42200 37.01000 41.58300
C  -13.53100 36.17800 41.95300
C  -13.14300 34.80500 41.92400
C  -11.82900 34.84000 41.44200
C  -11.44300 36.14100 41.16800
C  -14.00700 33.62100 42.31500
C  -10.77400 33.99500 41.09000
O  -10.60300 32.77900 41.31500
C  -9.70600 34.91900 40.43700
C  -8.38200 34.69500 41.09900
O  -7.50500 33.90400 40.75900
O  -8.18300 35.52100 42.17000
C  -6.98900 35.31900 43.10000
H  -8.84300 41.75100 39.76300
H  -15.17600 42.18200 41.37600
H  -15.56800 36.00600 42.34500
H  -7.45100 37.19700 40.24000
H  -7.53100 39.48100 38.74700
H  -7.25100 40.71800 41.10300
H  -5.91900 39.75400 40.27900
H  -6.90800 38.98800 41.54800
H  -7.60100 37.75300 37.40100
H  -9.05800 36.93900 37.82200
H  -8.00200 34.96800 37.64700
H  -6.78300 35.36900 38.83200
H  -10.46300 45.11000 40.49100
H  -10.66900 44.29500 38.75600
H  -9.39700 43.90800 39.74200
H  -15.61900 44.37500 40.88500
H  -15.04400 45.64400 41.97400
H  -14.84600 44.02400 42.45400
H  -16.72600 40.23800 40.87800
H  -16.93600 38.24700 43.04800
H  -17.71400 41.59700 42.39700
H  -16.29700 41.50800 43.49500
H  -17.58700 40.41400 43.78500
H  -16.85200 36.97500 40.39900
H  -17.98800 38.33600 40.35600
H  -19.43100 37.33900 41.52700
H  -18.40300 36.74500 42.82000
H  -18.53400 35.86500 41.22400
H  -14.87800 33.88900 42.91300
H  -13.45700 32.78700 42.75100
H  -14.43800 33.25400 41.38300
H  -9.47400 34.73600 39.38800
H  -7.31600 35.67900 44.07500
H  -6.07300 35.82700 42.79800
H  -6.76500 34.25200 43.10400

