158

Mg 16.90400 -1.60700 27.70300
C  16.57700 0.73300 30.31100
C  19.02000 -3.48600 30.03500
C  18.19700 -3.28100 25.25400
C  15.56900 0.79900 25.52400
N  17.78100 -1.36700 29.88400
C  17.31200 -0.41500 30.73600
C  17.73800 -0.71000 32.17700
C  18.84100 -1.89300 31.93600
C  18.50300 -2.32400 30.53600
C  20.42100 -1.45600 32.14700
C  16.47100 -1.04100 33.01200
C  16.35300 -0.38900 34.46600
H  17.53900 0.39100 35.11300
N  18.31100 -3.26200 27.60300
C  18.96800 -3.91900 28.68100
C  19.59900 -5.08200 28.07200
C  19.37000 -4.99900 26.69800
C  18.59400 -3.79800 26.48400
C  20.24400 -6.14800 28.89000
C  19.90900 -5.98400 25.61200
O  19.63900 -5.88200 24.42200
C  20.72000 -7.22800 26.08000
N  16.81800 -1.27900 25.60500
C  17.50300 -2.16400 24.87800
C  17.37400 -1.71600 23.38500
C  16.42600 -0.52400 23.41000
C  16.23600 -0.29800 24.93100
C  18.67500 -1.56500 22.54800
C  15.11500 -0.57400 22.53000
C  15.11700 0.34900 21.31200
N  16.13900 0.24100 27.86300
C  15.52500 1.11700 26.87800
C  14.83500 2.23800 27.55200
C  15.22100 2.11100 28.86200
C  16.03200 0.93700 29.00100
C  14.17100 3.29100 26.77800
C  15.15500 2.77700 30.11900
O  14.54200 3.81500 30.49300
C  16.04800 1.86600 31.14200
C  17.13900 2.56800 31.82500
O  18.32500 2.70400 31.55900
O  16.50300 3.36500 32.86600
C  17.39600 4.31500 33.53900
H  19.66800 -4.01500 30.73800
H  18.64300 -3.79100 24.39700
H  15.01500 1.46700 24.86200
H  18.21300 0.18200 32.58500
H  18.70800 -2.73100 32.61900
H  20.87100 -1.38600 31.15600
H  20.90700 -2.24900 32.71400
H  20.53900 -0.45300 32.55700
H  16.41100 -2.12900 33.05700
H  15.59000 -0.61000 32.53400
H  16.01400 -1.12200 35.19800
H  15.46100 0.23600 34.43500
H  21.30500 -5.91000 28.81300
H  19.98500 -7.15400 28.55800
H  19.95300 -6.14700 29.94000
H  20.10600 -8.02900 26.49100
H  21.54700 -7.01400 26.75800
H  21.10200 -7.71600 25.18300
H  16.86600 -2.48700 22.80600
H  16.94800 0.33200 22.98200
H  18.37100 -0.78500 21.85100
H  18.83800 -2.50100 22.01400
H  19.55900 -1.28100 23.11900
H  14.22400 -0.44200 23.14400
H  14.94900 -1.56800 22.11400
H  15.90200 -0.02500 20.65500
H  15.33100 1.36000 21.65800
H  14.23800 0.37000 20.66800
H  13.28600 2.90800 26.27000
H  14.93600 3.71600 26.12800
H  13.96500 4.08300 27.49700
H  15.41000 1.54100 31.96300
H  18.43000 3.99200 33.65700
H  16.98900 4.31800 34.55000
H  17.37000 5.34800 33.19200
Mg -5.21300 24.72200 26.32100
C  -3.72300 26.59500 29.03300
C  -6.67300 22.68600 28.69800
C  -6.72900 23.41500 23.86400
C  -3.44700 26.95000 24.15800
N  -5.28900 24.77800 28.65000
C  -4.65200 25.55200 29.51100
C  -5.08100 25.30000 30.96100
C  -5.81700 23.94600 30.89600
C  -5.91100 23.74500 29.33800
C  -5.15400 22.69900 31.55000
C  -6.03600 26.51100 31.39700
C  -6.45400 26.60300 32.93200
H  -5.83300 25.62900 33.92500
N  -6.49200 23.22700 26.24200
C  -7.00700 22.47700 27.32900
C  -7.86500 21.45400 26.75400
C  -7.97500 21.61200 25.36100
C  -7.13300 22.85300 25.12200
C  -8.47300 20.45700 27.67900
C  -8.69000 20.75000 24.33300
O  -8.80600 21.08000 23.14900
C  -9.20300 19.38900 24.75100
N  -5.05800 25.19000 24.25700
C  -5.83900 24.45500 23.38700
C  -5.53200 24.73400 21.89600
C  -4.70600 26.10900 22.04800
C  -4.35500 26.09800 23.56200
C  -4.81700 23.54700 21.18900
C  -5.44900 27.37700 21.61900
C  -4.59400 28.42800 20.84000
N  -3.74300 26.32600 26.55200
C  -3.15200 27.05100 25.54400
C  -2.11000 27.87400 26.13900
C  -2.33000 27.73600 27.56300
C  -3.35400 26.85500 27.71400
C  -1.03200 28.76300 25.37400
C  -2.09500 28.32600 28.91400
O  -1.39300 29.23500 29.33000
C  -2.87300 27.45100 29.89500
C  -1.86900 26.53300 30.62200
O  -1.51200 25.40600 30.30200
O  -1.58800 27.11200 31.81600
C  -0.89800 26.28400 32.82300
H  -7.21900 22.08900 29.43100
H  -7.31800 22.87800 23.11800
H  -2.82800 27.53100 23.47000
H  -4.22600 25.37700 31.63200
H  -6.84100 24.02500 31.26100
H  -5.80900 22.32100 32.33400
H  -4.27600 23.02900 32.10500
H  -4.82400 21.93000 30.85100
H  -6.93300 26.31800 30.80900
H  -5.57000 27.45400 31.11000
H  -7.54000 26.64400 33.02000
H  -6.08000 27.60900 33.12400
H  -9.52600 20.71400 27.78900
H  -7.97800 20.47000 28.65000
H  -8.33700 19.42300 27.36300
H  -8.34600 18.85800 25.16500
H  -9.50900 18.86000 23.84800
H  -9.96300 19.56800 25.51100
H  -6.52900 24.79700 21.46000
H  -3.81900 25.99200 21.42500
H  -3.79300 23.60200 21.56000
H  -4.92700 23.48600 20.10700
H  -5.33800 22.68600 21.60800
H  -5.79900 27.89700 22.51100
H  -6.31400 27.06000 21.03700
H  -3.79700 27.97800 20.24900
H  -4.06600 29.12900 21.48700
H  -5.14900 29.03600 20.12600
H  -1.55100 29.57500 24.86300
H  -0.45400 28.09500 24.73600
H  -0.42900 29.27500 26.12400
H  -3.41600 28.06100 30.61600
H  0.03400 26.70600 33.20000
H  -0.63100 25.27300 32.51800
H  -1.57600 26.04200 33.64100

