158

Mg -0.01000 7.40800 27.31800
C  1.08700 9.56600 29.91300
C  -0.12800 4.82200 29.73300
C  -0.65800 5.33700 24.82100
C  0.56600 9.95200 25.09300
N  0.60700 7.21800 29.56400
C  0.80300 8.31900 30.44700
C  0.64100 7.89900 31.89900
C  0.51100 6.36400 31.77800
C  0.36500 6.05700 30.26600
C  1.66100 5.58900 32.41400
C  -0.61800 8.58500 32.54400
C  -0.52800 8.91100 34.06900
H  0.66000 8.46700 34.91400
N  -0.35500 5.33200 27.25300
C  -0.35200 4.48400 28.28900
C  -0.59400 3.13000 27.77800
C  -0.74800 3.27400 26.35700
C  -0.55500 4.69800 26.08700
C  -0.54600 1.92100 28.68000
C  -1.08800 2.17200 25.38300
O  -1.20700 2.42800 24.19800
C  -1.33500 0.74500 25.81500
N  0.01200 7.59100 25.28000
C  -0.26400 6.58300 24.41800
C  -0.31500 7.02900 22.99500
C  -0.24100 8.59600 23.13500
C  0.09500 8.74500 24.58500
C  0.83200 6.48500 22.14400
C  -1.57300 9.37900 22.79000
C  -1.41500 10.62400 21.87000
N  0.78000 9.34700 27.37200
C  0.95000 10.25700 26.39500
C  1.33000 11.51200 26.96400
C  1.36900 11.30300 28.37100
C  1.04400 9.97200 28.57100
C  1.69900 12.75000 26.18600
C  1.68400 11.95200 29.65600
O  2.21500 13.03800 29.92900
C  1.39700 10.88500 30.75800
C  2.59300 10.82600 31.65300
O  3.40900 9.92300 31.62800
O  2.48300 11.73300 32.70600
C  3.46400 11.64900 33.76900
H  -0.30700 3.98200 30.40700
H  -0.91500 4.67200 23.99300
H  0.60300 10.79400 24.39800
H  1.55300 8.21500 32.40500
H  -0.36600 6.02400 32.32900
H  2.19800 6.16300 33.16900
H  2.25200 5.35100 31.52900
H  1.27100 4.67700 32.86500
H  -1.43200 7.88700 32.34700
H  -0.83500 9.46300 31.93600
H  -1.40600 8.45000 34.52200
H  -0.61900 9.99700 34.05600
H  0.20700 1.28000 28.22200
H  -1.53400 1.46000 28.63900
H  -0.31200 2.04900 29.73700
H  -1.85200 0.19100 25.03100
H  -1.88700 0.58200 26.74000
H  -0.32400 0.36800 25.96700
H  -1.27100 6.72300 22.56900
H  0.57600 9.04200 22.56900
H  1.68100 7.15100 22.29600
H  0.58100 6.39300 21.08700
H  1.11100 5.49000 22.48900
H  -1.99100 9.79600 23.70600
H  -2.30200 8.69300 22.35900
H  -0.37300 10.75400 21.57700
H  -1.72500 11.50700 22.43000
H  -2.10900 10.50800 21.03800
H  0.73600 13.10900 25.82400
H  2.21900 12.41300 25.28900
H  2.29200 13.43700 26.79100
H  0.61400 11.25100 31.42200
H  3.08400 11.11000 34.63700
H  3.77800 12.66500 34.00900
H  4.35400 11.12400 33.42300
Mg 53.97300 24.69500 44.43100
C  51.24200 26.81800 44.17900
C  51.96400 22.19000 43.39600
C  56.77600 22.96800 43.99200
C  55.91800 27.43300 45.37300
N  51.85100 24.53600 43.59600
C  50.95700 25.52400 43.73900
C  49.57200 24.98400 43.50700
C  49.74300 23.46300 43.72800
C  51.27500 23.37100 43.49000
C  49.18300 23.01600 45.09600
C  49.07700 25.50900 42.17500
C  48.52800 24.48600 41.14500
H  48.15200 24.82800 39.70300
N  54.32300 22.82300 43.70500
C  53.36400 21.87800 43.44200
C  54.06400 20.55900 43.05900
C  55.47800 20.83700 43.35300
C  55.59500 22.27700 43.68600
C  53.38800 19.33300 42.62500
C  56.51600 19.73700 43.36300
O  56.19800 18.65200 42.93300
C  57.87800 19.85400 43.86000
N  56.04600 25.26100 44.26700
C  57.04300 24.33400 44.22500
C  58.45400 24.88700 44.50400
C  58.12900 26.36700 44.75300
C  56.56500 26.40200 44.71800
C  59.19800 24.15600 45.63500
C  58.70700 27.38500 43.80500
C  59.45500 28.54900 44.41600
N  53.71700 26.76000 44.80000
C  54.57400 27.71100 45.32100
C  53.78400 28.83900 45.66500
C  52.53600 28.52800 45.16000
C  52.50300 27.28700 44.63500
C  54.26400 30.09000 46.34000
C  51.28300 29.13000 44.90900
O  50.98500 30.34100 45.11800
C  50.30000 28.06100 44.23300
C  49.68600 28.53800 42.88200
O  50.39300 28.85600 41.92500
O  48.27800 28.69200 42.88300
C  47.77600 29.14800 41.61900
H  51.34700 21.35800 43.05100
H  57.69100 22.38900 43.85400
H  56.55900 28.18700 45.83600
H  49.02300 25.44100 44.33000
H  49.18100 22.84500 43.02700
H  48.88500 23.82000 45.76900
H  50.00600 22.43500 45.51200
H  48.28700 22.42500 44.90600
H  49.81000 26.08500 41.61000
H  48.21400 26.13000 42.41500
H  47.72100 23.92900 41.62100
H  49.33800 23.78900 40.93100
H  53.77900 19.02200 41.65700
H  52.32200 19.54300 42.53500
H  53.48500 18.50100 43.32200
H  58.44400 20.42300 43.12300
H  58.37100 18.88500 43.94400
H  57.92200 20.28300 44.86100
H  59.13100 24.76600 43.65800
H  58.36200 26.69400 45.76600
H  60.20500 24.01000 45.24300
H  58.75800 23.16800 45.76800
H  59.17800 24.65900 46.60100
H  57.97800 27.78100 43.09800
H  59.46300 26.95500 43.14700
H  59.46200 28.44900 45.50200
H  58.98600 29.47100 44.07300
H  60.43400 28.61000 43.93900
H  53.99000 30.87200 45.63100
H  55.35200 30.10700 46.40500
H  53.77100 30.26100 47.29600
H  49.46500 27.91200 44.91700
H  47.98900 28.41300 40.84300
H  48.15000 30.14800 41.39900
H  46.71500 29.39400 41.66000

