158

Mg 40.27000 9.56500 29.19100
C  42.13800 10.43800 32.09600
C  37.80800 7.93100 31.26400
C  38.77600 8.27900 26.46300
C  42.91300 10.68600 27.32600
N  40.10200 9.18400 31.40100
C  40.89100 9.79500 32.32900
C  40.26300 9.54600 33.72800
C  38.95200 8.58900 33.44100
C  38.94600 8.60200 31.92400
C  38.90300 7.28000 34.27700
C  39.87900 10.92300 34.43200
C  39.04100 10.69800 35.68200
H  39.35300 11.63200 36.83900
N  38.58200 8.31000 28.89600
C  37.76400 7.71300 29.83700
C  36.70600 7.01000 29.21500
C  36.82400 7.18600 27.75700
C  38.05900 8.03400 27.67300
C  35.70000 6.19100 30.06000
C  35.95000 6.76600 26.58000
O  36.14900 7.01400 25.37000
C  34.68900 6.08500 26.92500
N  40.79100 9.47800 27.19600
C  39.97000 8.95100 26.25200
C  40.60900 9.05500 24.78400
C  41.92600 9.87000 25.05700
C  41.84300 10.03800 26.62700
C  40.87300 7.66200 24.12800
C  42.15100 11.18100 24.23600
C  41.23200 12.34400 24.68500
N  42.09500 10.52700 29.56400
C  43.08100 10.92100 28.72300
C  44.26300 11.38800 29.41500
C  43.97700 11.29300 30.76600
C  42.60600 10.72800 30.83400
C  45.43100 12.12400 28.67900
C  44.32300 11.66100 32.12600
O  45.25700 12.26000 32.59900
C  43.13100 11.12100 33.00600
C  43.71500 10.27200 34.05600
O  44.48700 9.34300 33.83600
O  43.34300 10.76800 35.31000
C  43.97000 10.16400 36.48600
H  37.00200 7.62900 31.93600
H  38.22600 7.95600 25.57700
H  43.83600 11.00500 26.83700
H  40.97300 8.92900 34.27900
H  38.06700 9.13500 33.76700
H  38.89400 6.37600 33.66800
H  38.06600 7.16300 34.96600
H  39.68200 7.17900 35.03300
H  39.36500 11.40200 33.59800
H  40.70900 11.53000 34.79300
H  39.21000 9.69900 36.08500
H  37.98800 10.85000 35.44400
H  36.10800 6.01700 31.05600
H  35.55500 5.23700 29.55500
H  34.73700 6.65000 30.28500
H  34.80700 5.34700 27.71800
H  34.30500 5.62600 26.01400
H  34.01500 6.87200 27.26500
H  39.88900 9.56200 24.14200
H  42.87900 9.35400 24.93900
H  40.31300 6.85900 24.60700
H  41.94600 7.46800 24.10700
H  40.69100 7.75500 23.05800
H  42.10000 11.13800 23.14800
H  43.19100 11.36400 24.50500
H  41.78500 13.28300 24.68200
H  40.70400 12.09500 25.60600
H  40.51800 12.32500 23.86200
H  45.78600 11.44800 27.90200
H  46.23100 12.40200 29.36600
H  45.04100 13.04100 28.23700
H  42.79500 12.07600 33.40800
H  45.05500 10.22600 36.39900
H  43.62400 9.13800 36.61000
H  43.80000 10.74100 37.39500
Mg 49.13100 45.60400 41.03400
C  45.84600 46.58900 40.20100
C  48.76200 42.56200 39.56600
C  52.54600 44.96400 41.39900
C  49.72400 48.93800 42.10300
N  47.49800 44.78400 39.97000
C  46.25300 45.25300 39.83000
C  45.40500 44.15600 39.07600
C  46.23000 42.90900 39.31400
C  47.61600 43.41200 39.58200
C  45.75300 41.97600 40.53900
C  45.36200 44.51100 37.54400
C  44.22000 43.83800 36.78800
H  44.40500 43.78500 35.28500
N  50.43700 43.88700 40.68000
C  50.01700 42.77500 40.04700
C  51.14700 41.88500 40.04500
C  52.24400 42.53500 40.65400
C  51.77600 43.89700 40.90500
C  51.05900 40.49200 39.54300
C  53.53900 41.88000 41.06900
O  53.83900 40.75100 40.68300
C  54.58200 42.43300 41.98100
N  51.00900 46.81400 41.78400
C  52.24900 46.32600 41.81700
C  53.22000 47.44400 42.13700
C  52.33100 48.72400 42.44600
C  50.90500 48.14600 42.12500
C  54.33000 47.20600 43.20700
C  52.68600 50.09700 41.70400
C  53.68900 50.99300 42.45700
N  48.07900 47.39000 41.09300
C  48.43400 48.63000 41.51600
C  47.33200 49.58600 41.29600
C  46.26300 48.80900 40.82700
C  46.81800 47.51600 40.68000
C  47.26600 51.08600 41.56000
C  44.86300 48.78200 40.49900
O  44.01400 49.69700 40.52000
C  44.52900 47.31300 39.96700
C  43.41300 46.76200 40.74600
O  43.51500 46.33800 41.83800
O  42.26100 46.65800 39.99800
C  41.12100 45.86800 40.51200
H  48.58300 41.52300 39.28000
H  53.62400 44.79100 41.42400
H  49.94300 49.97600 42.36300
H  44.39500 44.08200 39.47900
H  46.35700 42.24500 38.45900
H  44.77200 42.26900 40.91300
H  46.19800 42.06800 41.53000
H  45.72500 40.92400 40.25800
H  46.27700 44.21000 37.03400
H  45.40300 45.59400 37.42300
H  43.22200 44.23100 36.98000
H  44.07800 42.81200 37.12600
H  51.78000 40.21000 38.77500
H  50.13400 40.21200 39.04000
H  51.23900 39.76300 40.33300
H  55.27700 42.95300 41.32200
H  54.97200 41.52900 42.44900
H  54.14300 43.14000 42.68500
H  53.75900 47.75700 41.24200
H  52.48800 48.82100 43.52000
H  54.56000 46.14800 43.33900
H  54.14900 47.67800 44.17300
H  55.14300 47.78100 42.76400
H  51.78000 50.67800 41.53000
H  53.04600 49.93800 40.68800
H  54.58200 51.22300 41.87500
H  54.03600 50.41100 43.31100
H  53.18500 51.92800 42.69800
H  46.27100 51.44100 41.83000
H  47.54100 51.55500 40.61600
H  47.93700 51.20000 42.41200
H  44.21800 47.20000 38.92900
H  40.22300 46.25300 40.02900
H  40.82300 46.07000 41.54100
H  41.21100 44.79600 40.33700

