158

Mg 16.20600 -2.18200 27.57600
C  14.79600 -0.59200 30.37500
C  18.11400 -4.02100 29.75800
C  17.60900 -3.77600 24.90400
C  14.32900 -0.21200 25.49600
N  16.50500 -2.22700 29.80100
C  15.79700 -1.53800 30.79200
C  16.38300 -1.71200 32.20700
C  17.51500 -2.69500 31.83200
C  17.42000 -2.97100 30.36100
C  18.95100 -2.28600 32.34300
C  15.33300 -2.16300 33.16400
C  15.19700 -1.41800 34.50800
H  16.51100 -0.81800 35.02600
N  17.66500 -3.65500 27.38000
C  18.30000 -4.34400 28.43400
C  19.20300 -5.29800 27.95900
C  18.97700 -5.37400 26.51600
C  18.01400 -4.24300 26.19800
C  20.12700 -6.04900 28.79500
C  19.51000 -6.30900 25.46200
O  19.10300 -6.19800 24.26500
C  20.40600 -7.44200 25.89200
N  16.01300 -2.06800 25.44000
C  16.69900 -2.79000 24.51000
C  16.35800 -2.17400 23.09000
C  15.07900 -1.31400 23.35700
C  15.10300 -1.19100 24.87400
C  17.61400 -1.44600 22.56800
C  13.66800 -1.79500 22.69700
C  13.23100 -1.26800 21.27900
N  14.84700 -0.74100 27.79200
C  14.12200 -0.01000 26.88400
C  13.16200 0.87400 27.54600
C  13.48100 0.67800 28.91700
C  14.49000 -0.29100 29.01000
C  12.17400 1.70700 26.90300
C  13.02400 1.12200 30.21500
O  12.25200 2.00700 30.52400
C  13.87600 0.35200 31.15100
C  14.65500 1.26400 31.93900
O  15.69700 1.78700 31.65700
O  13.98000 1.54500 33.06800
C  14.63600 2.48600 34.03100
H  18.60200 -4.66500 30.49200
H  18.13500 -4.17800 24.03500
H  13.76100 0.50000 24.89300
H  16.90100 -0.80300 32.51300
H  17.33500 -3.64800 32.33000
H  19.04300 -1.25400 32.68100
H  19.70400 -2.49600 31.58300
H  19.28000 -2.84200 33.22200
H  15.53400 -3.22500 33.30900
H  14.34400 -2.11800 32.70800
H  14.78900 -2.00500 35.33100
H  14.40300 -0.69500 34.31900
H  19.50300 -6.38900 29.62100
H  20.83500 -5.28400 29.11200
H  20.60400 -6.91000 28.32600
H  19.97800 -7.98500 26.73400
H  21.43000 -7.10700 26.06100
H  20.27300 -8.18200 25.10300
H  16.16900 -2.97800 22.37800
H  15.33900 -0.35000 22.92100
H  18.17500 -2.02900 21.83900
H  18.29100 -1.29700 23.40900
H  17.36600 -0.50000 22.08700
H  12.81700 -1.74900 23.37700
H  13.77800 -2.86100 22.49900
H  12.26900 -0.84200 21.56500
H  13.22400 -2.04300 20.51400
H  13.94600 -0.56100 20.85900
H  12.27600 1.71300 25.81800
H  12.23600 2.67900 27.39200
H  11.16300 1.35300 27.10700
H  13.27100 -0.27700 31.80500
H  14.49400 3.49600 33.64700
H  15.69600 2.25500 34.13400
H  14.05100 2.42800 34.94800
Mg 47.62700 25.38300 27.97100
C  48.19500 27.75100 30.32400
C  46.47000 23.24900 30.29500
C  46.66700 23.50700 25.43800
C  49.03500 27.62200 25.48200
N  47.40700 25.51700 30.06600
C  47.62900 26.59900 30.89000
C  47.26300 26.32500 32.32700
C  46.73300 24.88000 32.31600
C  46.85100 24.52200 30.78700
C  47.26100 23.87300 33.31300
C  46.19600 27.29300 32.79700
C  45.46800 27.11100 34.13700
H  45.34000 28.34200 35.07100
N  46.82100 23.60700 27.85900
C  46.46700 22.82500 28.91700
C  45.97000 21.58100 28.38900
C  45.72800 21.78400 27.00900
C  46.40200 23.00100 26.74900
C  45.56200 20.42200 29.25300
C  44.85800 21.02900 26.06700
O  44.80400 21.30600 24.86100
C  44.07700 19.77500 26.38100
N  47.95600 25.55500 25.73400
C  47.36600 24.60200 24.94600
C  47.84700 24.81800 23.48000
C  48.43600 26.17200 23.48000
C  48.42500 26.51800 24.94700
C  48.89400 23.75200 23.03200
C  47.79800 27.33900 22.66000
C  48.75200 28.11900 21.67400
N  48.42900 27.25300 27.83500
C  49.01000 28.02700 26.81200
C  49.45800 29.27800 27.42500
C  49.17300 29.15400 28.78400
C  48.53200 27.96100 28.96000
C  50.11900 30.37100 26.75500
C  49.30800 29.89800 29.99900
O  49.84500 30.96900 30.28300
C  48.55400 29.00200 31.01500
C  49.60900 28.69600 32.08500
O  50.46500 27.82000 32.07200
O  49.50700 29.61700 33.04200
C  50.26500 29.24100 34.28600
H  46.10400 22.52000 31.02100
H  46.44100 22.88900 24.56700
H  49.46700 28.42000 24.87500
H  48.16700 26.32300 32.93700
H  45.65900 24.89900 32.50300
H  47.78500 23.11100 32.73500
H  46.41200 23.38700 33.79300
H  47.76600 24.42000 34.10900
H  45.39500 27.43600 32.07300
H  46.62800 28.29200 32.85500
H  45.96200 26.37500 34.77100
H  44.55200 26.63400 33.78700
H  44.47400 20.39700 29.30100
H  45.96200 20.56200 30.25800
H  46.00700 19.63200 28.64800
H  43.42500 19.95500 27.23700
H  44.70600 18.89300 26.50200
H  43.30200 19.57300 25.64200
H  46.98000 24.72200 22.82800
H  49.48800 26.13400 23.20000
H  49.87700 23.92900 23.46900
H  48.82500 23.50700 21.97200
H  48.51800 22.86100 23.53500
H  47.32600 28.00300 23.38400
H  47.02900 26.92500 22.00800
H  48.45700 29.16300 21.77800
H  48.64800 27.80500 20.63600
H  49.80000 27.90100 21.88000
H  51.17600 30.11300 26.68000
H  49.97700 31.32000 27.27100
H  49.74100 30.48500 25.73900
H  47.76700 29.59900 31.47500
H  51.28000 28.86100 34.17000
H  49.58200 28.52300 34.74000
H  50.32300 30.09100 34.96600

