158

Mg -1.47300 34.44600 26.71300
C  -2.83300 32.82400 29.49500
C  0.12900 36.61900 28.71500
C  -0.71900 36.26100 23.94000
C  -3.41200 32.34000 24.70500
N  -1.59100 34.82100 28.88700
C  -1.99400 33.89600 29.82300
C  -1.56500 34.31900 31.24200
C  -0.63600 35.50700 30.97200
C  -0.65400 35.67300 29.43400
C  -1.05800 36.76000 31.75000
C  -0.78400 33.25600 32.05800
C  -1.40700 32.95100 33.39400
H  -0.40900 32.98400 34.57200
N  -0.36600 36.18900 26.34900
C  0.24100 36.92300 27.31900
C  1.02900 37.91400 26.69800
C  0.70700 37.93900 25.27400
C  -0.10200 36.73800 25.12200
C  1.79300 38.90500 27.50100
C  1.24000 38.78100 24.17800
O  0.92100 38.60400 23.00200
C  2.34000 39.79600 24.49700
N  -2.15900 34.43300 24.63200
C  -1.67100 35.31800 23.71300
C  -2.05600 34.87300 22.29000
C  -2.37800 33.38400 22.50100
C  -2.73500 33.36500 24.03900
C  -3.16200 35.71000 21.54300
C  -1.32600 32.34000 22.23300
C  0.15400 32.67000 22.51100
N  -2.85800 32.86700 26.92100
C  -3.58400 32.13400 26.07000
C  -4.41000 31.15900 26.72600
C  -4.13900 31.35200 28.12000
C  -3.19300 32.39200 28.17800
C  -5.37500 30.12800 26.17400
C  -4.39200 30.90100 29.44200
O  -5.13900 29.99600 29.86800
C  -3.62000 31.88000 30.39700
C  -4.62800 32.54800 31.20400
O  -5.23400 33.59500 30.94700
O  -4.76100 31.76600 32.37700
C  -5.71300 32.34800 33.33600
H  0.64200 37.30400 29.39300
H  -0.55500 36.80200 23.00500
H  -3.99100 31.70200 24.03200
H  -2.49600 34.50100 31.78000
H  0.39900 35.31500 31.25800
H  -0.19200 37.23800 32.20800
H  -1.78200 36.56500 32.54100
H  -1.58200 37.50200 31.14700
H  0.25900 33.53800 32.20900
H  -0.76600 32.39300 31.39300
H  -1.83000 31.94600 33.38200
H  -2.33200 33.47400 33.63800
H  1.19100 39.05800 28.39700
H  1.80600 39.89000 27.03300
H  2.82000 38.55500 27.60300
H  2.84800 39.92600 23.54100
H  3.04900 39.48400 25.26400
H  1.92500 40.74300 24.84200
H  -1.12100 34.89400 21.73000
H  -3.12300 33.12700 21.74700
H  -3.54700 36.41600 22.27800
H  -4.06300 35.23300 21.15700
H  -2.80400 36.35800 20.74300
H  -1.58000 32.18400 21.18400
H  -1.48800 31.45400 22.84600
H  0.44000 33.62400 22.95200
H  0.76600 32.56300 21.61600
H  0.47300 31.98200 23.29400
H  -5.33900 29.75900 25.14900
H  -6.41800 30.43100 26.26300
H  -5.33500 29.28300 26.86200
H  -3.01800 31.20800 31.00800
H  -5.78400 31.66000 34.17800
H  -6.64700 32.57600 32.82400
H  -5.14700 33.22900 33.63900
Mg -9.45000 18.09100 42.04200
C  -5.98800 17.42200 42.25100
C  -8.73800 21.27300 41.37600
C  -12.74500 18.56200 41.67400
C  -9.94800 14.52000 41.97300
N  -7.55700 19.13000 41.59300
C  -6.33300 18.73500 42.02200
C  -5.34200 19.86500 41.70800
C  -6.27700 21.13600 41.61300
C  -7.65400 20.49500 41.56700
C  -6.04200 22.18300 42.78500
C  -4.43300 19.44600 40.49200
C  -4.99300 18.69700 39.25200
H  -4.79900 19.17600 37.79000
N  -10.60700 19.73200 41.70800
C  -10.09000 20.96000 41.42200
C  -11.16800 21.90400 41.50600
C  -12.41300 21.16900 41.52400
C  -11.98900 19.79500 41.63200
C  -10.96700 23.35500 41.24200
C  -13.85200 21.78300 41.48700
O  -13.91000 23.00000 41.41500
C  -15.13300 20.97000 41.85400
N  -11.04000 16.70300 41.80500
C  -12.35000 17.17300 41.70400
C  -13.37400 15.99800 41.88400
C  -12.45400 14.77100 41.63600
C  -11.03600 15.33700 41.85100
C  -14.30600 15.91900 43.12300
C  -12.61600 14.04400 40.22600
C  -12.61300 12.50200 40.18200
N  -8.29700 16.25200 42.15300
C  -8.61100 14.91900 42.15500
C  -7.40400 14.11700 42.41900
C  -6.38200 15.03600 42.57600
C  -6.94400 16.38100 42.36100
C  -7.14700 12.56000 42.45300
C  -4.94500 15.18400 42.84300
O  -4.10300 14.33100 43.10300
C  -4.64500 16.72900 42.57400
C  -4.01400 17.25400 43.75900
O  -2.82200 17.02100 44.07700
O  -4.80300 18.09800 44.53200
C  -4.12700 18.79000 45.63700
H  -8.36100 22.29400 41.28500
H  -13.81900 18.56300 41.47700
H  -10.12600 13.44500 41.90200
H  -4.81500 19.79000 42.65900
H  -6.15800 21.59100 40.62900
H  -6.98900 22.25600 43.31900
H  -5.70100 23.16000 42.44200
H  -5.22400 21.75600 43.36500
H  -3.61300 18.84500 40.88400
H  -4.08200 20.45500 40.27600
H  -6.07800 18.60100 39.28900
H  -4.48300 17.73500 39.29500
H  -10.96000 23.66300 40.19600
H  -10.02600 23.72400 41.65000
H  -11.62900 23.94000 41.88100
H  -14.91500 20.31100 42.69500
H  -15.36000 20.35200 40.98500
H  -16.01300 21.59300 42.01300
H  -14.02400 15.96700 41.01000
H  -12.58400 14.04200 42.43600
H  -14.43700 14.84500 43.25700
H  -15.25000 16.44300 42.97500
H  -13.88200 16.32500 44.04100
H  -11.70400 14.37800 39.73200
H  -13.47000 14.35100 39.62200
H  -13.46200 12.06400 39.65800
H  -12.82400 12.12900 41.18500
H  -11.75900 11.99400 39.73500
H  -6.38000 12.27400 41.73400
H  -8.07100 12.05800 42.16400
H  -7.07100 12.23300 43.49000
H  -3.90800 16.82000 41.77600
H  -4.51200 19.80600 45.72300
H  -3.04800 18.94000 45.62100
H  -4.26200 18.22400 46.55800

