158

Mg 45.43100 4.65000 47.54200
C  43.43100 7.47900 47.43000
C  42.71200 2.77800 46.40500
C  47.34400 1.86700 47.70600
C  48.12500 6.53600 48.28300
N  43.37700 5.12700 46.82500
C  42.73500 6.29500 46.93400
C  41.20600 6.19500 46.55400
C  41.03800 4.65000 46.70100
C  42.50100 4.14000 46.54800
C  40.37300 4.06700 47.98400
C  40.93100 6.77500 45.14500
C  39.70100 7.68900 45.05800
H  38.62200 7.34600 44.02800
N  45.04000 2.56300 47.11800
C  43.87600 1.98700 46.71700
C  44.09800 0.53700 46.47100
C  45.42500 0.25200 46.74000
C  46.02000 1.59400 47.26700
C  42.94900 -0.38000 46.24200
C  46.09900 -1.07000 46.41500
O  45.47500 -1.98900 45.90700
C  47.60400 -1.24700 46.54900
N  47.45400 4.27800 47.77500
C  47.96000 3.01500 47.94600
C  49.42000 3.05200 48.44500
C  49.75400 4.62000 48.54300
C  48.36400 5.17500 48.21000
C  49.72700 2.28100 49.77500
C  50.84400 5.13300 47.57300
C  51.75900 6.30600 48.19900
N  45.75600 6.63900 47.77400
C  46.91400 7.28000 48.15900
C  46.58400 8.66400 48.49400
C  45.22600 8.80300 48.21100
C  44.78000 7.55500 47.78000
C  47.56400 9.69000 49.06400
C  44.12700 9.67800 48.24000
O  43.97900 10.83300 48.72700
C  42.88900 8.84400 47.65800
C  41.84500 8.96300 48.78300
O  42.04200 8.71800 49.95800
O  40.71100 9.39900 48.28200
C  39.67800 9.75900 49.26300
H  41.81400 2.22200 46.12500
H  47.85600 0.90900 47.81800
H  48.95800 7.14000 48.65000
H  40.66800 6.70300 47.35400
H  40.49500 4.25500 45.84300
H  40.07500 4.87100 48.65600
H  41.04000 3.40500 48.53700
H  39.43800 3.62900 47.63600
H  40.81400 5.90100 44.50300
H  41.78700 7.39100 44.87100
H  40.18000 8.64700 44.85500
H  39.22700 7.77000 46.03700
H  43.03600 -0.98000 45.33600
H  41.96500 0.08300 46.16900
H  42.83100 -1.01200 47.12200
H  47.87600 -2.26200 46.26000
H  47.93200 -1.22800 47.58800
H  48.09000 -0.45200 45.98300
H  49.98000 2.62900 47.61100
H  50.10100 4.85200 49.54900
H  48.79000 2.05400 50.28500
H  50.33000 2.75400 50.55100
H  50.20300 1.31200 49.62700
H  50.44200 5.38200 46.59100
H  51.50200 4.27600 47.42700
H  52.70700 6.54200 47.71400
H  51.95200 6.00500 49.22900
H  51.15700 7.20200 48.04500
H  48.21000 9.26800 49.83400
H  46.96200 10.48800 49.49700
H  48.24300 10.16100 48.35400
H  42.44200 9.27200 46.76100
H  39.40500 10.79300 49.05100
H  39.85200 9.71200 50.33800
H  38.81400 9.11500 49.10100
Mg 54.52400 24.39800 44.89800
C  51.93000 26.33500 43.87000
C  52.83900 21.62500 43.81600
C  57.34900 22.52600 45.28700
C  56.43600 27.29500 45.41100
N  52.71300 24.05600 43.84100
C  51.83500 24.98500 43.44000
C  50.66600 24.34900 42.67800
C  50.67900 22.94000 43.31200
C  52.18900 22.82200 43.69600
C  49.66000 22.64100 44.50500
C  50.93600 24.53200 41.13300
C  49.68500 24.71600 40.33400
H  49.59300 23.96800 39.03200
N  54.93900 22.36700 44.67800
C  54.09000 21.36800 44.21900
C  54.73700 20.07000 44.41600
C  56.05700 20.33200 44.87700
C  56.17800 21.79400 45.01600
C  54.05300 18.75400 44.02700
C  57.09000 19.19700 45.25500
O  56.80800 17.99500 45.16600
C  58.60300 19.49700 45.50800
N  56.57800 24.84600 44.99000
C  57.52700 23.94500 45.21100
C  58.96400 24.55700 45.31900
C  58.67300 26.08300 45.51500
C  57.06400 26.08300 45.32100
C  59.61900 24.01100 46.56700
C  59.35500 26.98900 44.46900
C  60.37500 28.05500 44.93000
N  54.24800 26.44900 44.79500
C  55.04000 27.51100 45.15300
C  54.22700 28.72100 45.15300
C  52.91200 28.32900 44.65700
C  53.05400 26.90100 44.46500
C  54.68200 30.09000 45.62500
C  51.60100 28.77500 44.25800
O  51.05600 29.84900 44.26200
C  50.92800 27.45700 43.75300
C  50.39400 27.91700 42.47000
O  50.94200 27.97100 41.39400
O  49.08800 28.26300 42.67400
C  48.32400 28.52400 41.47700
H  52.31400 20.68400 43.64000
H  58.27900 21.95300 45.27900
H  57.04200 28.14900 45.72100
H  49.81300 24.90900 43.06000
H  50.45700 22.19800 42.54500
H  50.17900 22.15500 45.33100
H  48.96300 21.87900 44.15400
H  49.25800 23.61100 44.79500
H  51.57100 23.72800 40.76100
H  51.47200 25.47900 41.07400
H  49.47900 25.77200 40.15600
H  48.89900 24.33000 40.98300
H  54.79500 18.00000 43.76500
H  53.57400 19.07700 43.10200
H  53.26900 18.28100 44.61700
H  59.06900 19.92100 44.61800
H  59.09600 18.53000 45.60500
H  58.73200 20.06700 46.42800
H  59.49700 24.35400 44.39000
H  58.75200 26.28800 46.58200
H  59.01000 23.28700 47.10900
H  60.10200 24.67800 47.28200
H  60.45800 23.47100 46.12900
H  58.60400 27.55000 43.91300
H  59.91500 26.32900 43.80700
H  60.50500 28.87800 44.22800
H  61.38900 27.65500 44.91100
H  60.21300 28.51200 45.90600
H  54.27400 30.77700 44.88400
H  55.75100 30.07100 45.84100
H  54.22000 30.25400 46.59800
H  50.12100 27.17600 44.42900
H  48.75000 27.97800 40.63500
H  48.37800 29.57200 41.18400
H  47.28300 28.22900 41.60600

