158

Mg 25.29900 1.60600 29.89700
C  27.34600 1.54800 32.81200
C  22.64200 1.77600 32.02500
C  23.36900 1.55000 27.17100
C  28.16100 1.37300 28.00700
N  25.02300 1.77800 32.19700
C  26.00800 1.80700 33.14900
C  25.45300 2.08800 34.54300
C  23.89700 2.20500 34.26500
C  23.84700 1.94700 32.74000
C  22.99000 1.22700 35.02200
C  26.06700 3.35900 35.31300
C  25.46600 3.86300 36.69100
H  26.22300 3.70300 37.95900
N  23.27100 1.60300 29.66600
C  22.30800 1.56600 30.65600
C  20.99800 1.38800 30.06000
C  21.14000 1.46500 28.63200
C  22.64000 1.47400 28.44100
C  19.73400 1.37800 30.82600
C  20.14000 1.60000 27.47100
O  20.45000 1.68900 26.29400
C  18.62000 1.37300 27.81000
N  25.70800 1.22200 27.84500
C  24.78200 1.50700 26.92000
C  25.37800 1.88000 25.58500
C  26.86700 1.79800 25.90600
C  26.91600 1.48000 27.38700
C  24.81200 0.99900 24.39200
C  27.82400 2.86900 25.32200
C  27.62600 4.36500 25.71000
N  27.29200 1.20400 30.26600
C  28.35400 1.15000 29.37100
C  29.57000 1.07400 30.13700
C  29.17800 1.19000 31.49000
C  27.82500 1.29700 31.54700
C  30.91100 0.87600 29.55200
C  29.75100 1.25800 32.74900
O  30.91000 1.14100 33.13000
C  28.53600 1.55500 33.69800
C  28.42400 0.47500 34.74900
O  28.31500 -0.80100 34.59400
O  28.73600 1.07700 35.94600
C  28.88500 0.18100 37.12900
H  21.79700 1.89300 32.70700
H  22.80700 1.72900 26.25200
H  29.08700 1.50500 27.44300
H  25.81800 1.21600 35.08500
H  23.61700 3.24900 34.41100
H  22.58300 0.43300 34.39600
H  22.17700 1.84700 35.40100
H  23.59000 0.80100 35.82600
H  26.14900 4.20600 34.63300
H  27.10800 3.07400 35.46700
H  24.54700 3.34000 36.95700
H  25.30000 4.94000 36.65600
H  19.93900 1.33200 31.89500
H  19.28800 0.43800 30.50200
H  19.08000 2.18600 30.49700
H  18.36700 0.63200 28.56900
H  17.99900 1.16200 26.94000
H  18.23200 2.34500 28.11600
H  24.94500 2.87300 25.46900
H  27.13700 0.82700 25.49100
H  25.64200 0.60900 23.80400
H  24.05900 1.61400 23.89900
H  24.27000 0.14500 24.79900
H  27.77800 2.76500 24.23800
H  28.84700 2.65700 25.63400
H  28.52600 4.95300 25.88700
H  26.91400 4.50700 26.52400
H  27.10200 4.70900 24.81800
H  31.00200 1.56300 28.71100
H  31.15000 -0.17300 29.37800
H  31.60300 1.24600 30.30800
H  28.74700 2.51900 34.16300
H  29.96200 0.09000 37.26400
H  28.45700 -0.81700 37.02500
H  28.52500 0.69700 38.01900
Mg -12.15300 38.53500 41.59000
C  -9.62600 36.26000 40.94500
C  -10.41500 40.92100 39.82200
C  -14.81200 40.64000 41.84200
C  -14.22300 35.97000 42.74000
N  -10.42600 38.48600 40.13000
C  -9.47200 37.48000 40.19200
C  -8.19100 37.87900 39.53700
C  -8.47300 39.40900 39.13500
C  -9.83700 39.67400 39.75700
C  -7.25700 40.33700 39.50400
C  -7.72700 36.95100 38.35400
C  -6.27900 36.40500 38.43400
H  -5.50900 36.44400 37.09500
N  -12.56600 40.53800 40.87700
C  -11.65900 41.38400 40.24100
C  -12.33800 42.61100 39.88800
C  -13.58500 42.61600 40.52700
C  -13.71700 41.19000 41.09400
C  -11.63000 43.75000 39.06800
C  -14.58200 43.79700 40.56600
O  -14.26400 44.86200 40.04600
C  -15.95300 43.76600 41.07400
N  -14.36300 38.24800 41.99100
C  -15.16300 39.32200 42.18200
C  -16.53900 38.90100 42.73300
C  -16.38400 37.28900 42.89500
C  -14.94800 37.12200 42.50400
C  -16.95000 39.65400 44.04000
C  -17.36300 36.39400 42.02600
C  -18.61500 35.92200 42.76100
N  -12.07000 36.44600 41.76500
C  -12.93400 35.56300 42.41700
C  -12.17500 34.32600 42.61900
C  -10.88500 34.58600 42.16500
C  -10.90000 35.81700 41.55600
C  -12.60800 33.17400 43.43500
C  -9.47500 34.08300 42.03500
O  -9.08200 32.98000 42.36100
C  -8.69000 35.08100 41.17600
C  -7.40600 35.37700 41.90900
O  -6.35900 34.74200 41.68300
O  -7.49700 36.49800 42.66600
C  -6.21900 36.88700 43.29400
H  -9.72800 41.67300 39.42800
H  -15.60900 41.31800 42.15600
H  -14.89500 35.21900 43.16100
H  -7.45200 37.81700 40.33600
H  -8.53500 39.47600 38.04900
H  -6.64500 39.78000 40.21400
H  -7.51800 41.35100 39.80600
H  -6.61000 40.55600 38.65400
H  -7.84000 37.60600 37.49000
H  -8.39900 36.13400 38.09200
H  -6.17700 35.40500 38.85700
H  -5.75600 37.02700 39.15900
H  -12.32200 44.26100 38.39900
H  -11.07800 43.22800 38.28600
H  -10.84700 44.31300 39.57700
H  -16.48800 42.96300 40.56700
H  -16.49500 44.70600 40.97600
H  -16.01100 43.46900 42.12100
H  -17.22000 39.16500 41.92400
H  -16.43300 37.06700 43.96100
H  -17.41500 40.59900 43.75700
H  -16.07000 39.91800 44.62600
H  -17.60200 39.06700 44.68700
H  -16.77600 35.51500 41.75900
H  -17.81800 37.00400 41.24500
H  -18.48600 36.22700 43.79900
H  -18.74100 34.85100 42.59800
H  -19.46800 36.40900 42.29000
H  -12.84800 32.27200 42.87100
H  -13.39000 33.43700 44.14700
H  -11.75300 32.94700 44.07200
H  -8.49500 34.57500 40.23100
H  -6.10400 36.03900 43.97000
H  -6.27600 37.71200 44.00400
H  -5.43300 36.99100 42.54700

