158

Mg 3.13400 -3.50800 44.83500
C  6.08700 -1.75600 44.43100
C  1.59900 -1.20900 42.71000
C  0.51600 -5.50900 44.69800
C  5.00000 -6.10100 46.37200
N  3.78800 -1.71900 43.63000
C  5.06100 -1.19300 43.59800
C  5.14400 0.00700 42.76600
C  3.57700 0.43500 42.67600
C  2.92200 -0.91000 43.02800
C  3.10600 1.62700 43.61400
C  5.73300 -0.49300 41.39400
C  6.63700 0.52700 40.61200
H  5.96300 1.40600 39.53200
N  1.26300 -3.33400 43.91400
C  0.80500 -2.30200 43.09100
C  -0.56500 -2.54800 42.70800
C  -0.96700 -3.80100 43.24800
C  0.25900 -4.28800 44.01200
C  -1.42900 -1.52300 41.90200
C  -2.36300 -4.43900 43.14800
O  -3.22800 -3.88100 42.50800
C  -2.75000 -5.75200 43.79100
N  2.76900 -5.51400 45.48000
C  1.57500 -6.09100 45.37100
C  1.51300 -7.55300 45.96400
C  3.00900 -7.67900 46.49500
C  3.64300 -6.33900 46.18600
C  0.40100 -7.63500 47.08000
C  3.76100 -8.84100 45.84100
C  4.36400 -9.97000 46.79100
N  5.07800 -3.86000 45.43600
C  5.74800 -4.97000 45.99400
C  7.07300 -4.56900 46.27900
C  7.22200 -3.32300 45.74500
C  6.04000 -2.97200 45.09400
C  8.22700 -5.36400 46.93200
C  8.15900 -2.29400 45.48800
O  9.32700 -2.11700 45.76800
C  7.44800 -1.16100 44.63800
C  7.33900 0.04000 45.48500
O  6.35600 0.24600 46.24200
O  8.30200 0.96500 45.17500
C  8.06900 2.25000 45.65600
H  1.15700 -0.43200 42.08300
H  -0.39300 -6.11400 44.69800
H  5.48700 -6.94500 46.86600
H  5.57100 0.91800 43.18600
H  3.23100 0.60100 41.65500
H  2.98600 1.32700 44.65500
H  2.21600 2.09900 43.19800
H  3.89000 2.38300 43.66500
H  4.88100 -0.65500 40.73300
H  6.35400 -1.36400 41.60300
H  7.45800 -0.07100 40.21500
H  7.08500 1.08100 41.43700
H  -2.37400 -1.40100 42.43200
H  -1.75000 -1.90600 40.93300
H  -1.01100 -0.52400 41.77500
H  -2.01900 -6.42700 43.34600
H  -3.73400 -6.06500 43.44000
H  -2.64100 -5.60600 44.86500
H  1.29900 -8.15400 45.08000
H  3.20600 -7.72800 47.56600
H  0.93800 -7.73000 48.02300
H  -0.21800 -8.52600 46.98100
H  -0.24000 -6.75400 47.04200
H  4.68600 -8.45200 45.41500
H  3.21400 -9.30400 45.02000
H  4.12900 -9.86900 47.85100
H  5.45100 -10.03600 46.74600
H  3.93200 -10.95000 46.59000
H  8.43900 -4.89700 47.89400
H  9.11900 -5.40900 46.30700
H  7.91100 -6.40300 47.02400
H  8.01600 -0.94100 43.73400
H  7.32200 2.44100 46.42700
H  7.91300 2.99200 44.87400
H  9.03500 2.49700 46.09500
Mg 10.09800 48.26300 26.09700
C  8.02100 48.02700 28.89100
C  12.50300 49.38200 27.90200
C  11.79100 48.74500 23.12400
C  7.21300 47.29900 23.94400
N  10.13800 48.76700 28.16300
C  9.32800 48.37300 29.16000
C  10.02600 48.58100 30.56000
C  11.22500 49.44200 30.12100
C  11.32000 49.20500 28.66100
C  11.23100 50.99300 30.44700
C  10.33500 47.40700 31.38300
C  9.82400 47.40700 32.79800
H  10.34600 46.36000 33.85400
N  11.92500 48.84600 25.62000
C  12.84600 49.26800 26.58500
C  14.07400 49.51200 25.97300
C  13.86600 49.37000 24.56200
C  12.46600 49.03000 24.33500
C  15.34900 49.96000 26.72100
C  14.81300 49.52800 23.42600
O  14.63500 49.42800 22.23700
C  16.19900 49.86000 23.76700
N  9.48600 48.15800 23.89000
C  10.46000 48.50800 22.91100
C  9.76800 48.37800 21.51500
C  8.55800 47.34600 21.81700
C  8.43300 47.59600 23.31600
C  9.28700 49.76500 20.93100
C  8.95100 45.89300 21.38000
C  9.01000 44.79200 22.38900
N  8.00800 47.80800 26.28200
C  7.00500 47.51400 25.35200
C  5.79900 47.36400 26.14200
C  6.17800 47.39200 27.46300
C  7.45600 47.77600 27.52700
C  4.50200 47.04600 25.57800
C  5.68200 47.24800 28.80800
O  4.50000 47.04900 29.14800
C  6.78700 47.63100 29.82300
C  7.13000 46.45800 30.61800
O  7.72800 45.49700 30.17700
O  6.67200 46.44200 31.88900
C  6.81800 45.21400 32.69400
H  13.34600 49.73200 28.50200
H  12.35700 48.76300 22.19000
H  6.38300 46.90600 23.35300
H  9.35900 49.22800 31.13000
H  12.14100 49.09400 30.59800
H  12.24500 51.38300 30.35000
H  10.81900 51.32700 31.39900
H  10.74300 51.44000 29.58100
H  11.41300 47.27700 31.48300
H  9.95700 46.48400 30.94300
H  8.75800 47.29100 32.60200
H  9.85400 48.40900 33.22700
H  15.61300 50.99800 26.52100
H  16.15400 49.25300 26.52000
H  15.26700 49.86500 27.80400
H  16.76000 50.14100 22.87600
H  16.68100 48.93100 24.06900
H  16.42400 50.70500 24.41700
H  10.47400 47.96300 20.79600
H  7.69800 47.79900 21.32300
H  9.33200 50.61400 21.61200
H  8.28300 49.69900 20.51000
H  9.97500 49.94900 20.10700
H  9.96000 45.97100 20.97600
H  8.39200 45.53500 20.51600
H  8.33300 45.09700 23.18700
H  10.00300 44.53000 22.75600
H  8.54600 43.85300 22.08600
H  4.61800 46.43900 24.68000
H  3.98500 47.95500 25.27000
H  3.91300 46.50500 26.31800
H  6.40400 48.45600 30.42400
H  7.59700 45.26200 33.45500
H  6.90200 44.27800 32.14200
H  5.87400 45.18000 33.23700

