158

Mg 16.17900 -2.07700 28.05300
C  15.30400 0.22400 30.72800
C  18.05600 -3.81200 30.30600
C  17.16000 -3.84000 25.42900
C  14.57300 0.30600 25.81800
N  16.72700 -1.70600 30.29600
C  16.17800 -0.83600 31.16900
C  16.77600 -0.97700 32.58700
C  17.75300 -2.26600 32.34400
C  17.46200 -2.65000 30.87600
C  19.26700 -2.02100 32.51100
C  15.67500 -1.09400 33.76800
C  15.95200 -0.35800 35.10700
H  17.40400 0.01500 35.40500
N  17.49200 -3.67800 27.86800
C  18.07800 -4.28900 28.91100
C  18.59100 -5.54000 28.40200
C  18.35300 -5.53900 26.95400
C  17.65500 -4.32800 26.67300
C  19.27900 -6.48700 29.29900
C  18.76500 -6.57500 25.99000
O  18.54300 -6.50800 24.75800
C  19.39600 -7.81500 26.44400
N  15.97400 -1.68800 25.89000
C  16.46800 -2.64200 25.04100
C  16.22100 -2.13400 23.55000
C  15.58900 -0.69200 23.64500
C  15.25400 -0.72000 25.15600
C  17.52200 -2.22400 22.66800
C  14.31200 -0.59800 22.79100
C  13.91900 0.85900 22.51200
N  14.98600 -0.30000 28.19700
C  14.49100 0.54500 27.19400
C  13.81400 1.60500 27.87700
C  14.15700 1.58800 29.22000
C  14.91600 0.38200 29.34000
C  12.90300 2.58600 27.27700
C  13.97000 2.25000 30.49100
O  13.22200 3.19300 30.71600
C  14.80400 1.44700 31.49100
C  15.81700 2.46700 31.96900
O  16.47900 3.18100 31.23500
O  15.73500 2.56800 33.35200
C  16.50500 3.74900 33.91900
H  18.53100 -4.48200 31.02500
H  17.51100 -4.39100 24.55400
H  14.08900 1.08900 25.23100
H  17.33700 -0.07000 32.81200
H  17.50700 -3.12700 32.96500
H  19.59400 -1.40200 33.34700
H  19.68400 -1.61900 31.58700
H  19.63400 -3.03900 32.64100
H  15.32600 -2.12300 33.86100
H  14.81100 -0.55800 33.37800
H  15.67500 -0.91300 36.00400
H  15.39700 0.57900 35.06400
H  20.00300 -7.21300 28.92800
H  18.65200 -7.05600 29.98600
H  19.86600 -5.91100 30.01400
H  18.76700 -8.26600 27.21200
H  20.43600 -7.71100 26.75200
H  19.31900 -8.54100 25.63500
H  15.49900 -2.82300 23.11100
H  16.19800 0.19900 23.49500
H  17.81700 -1.24200 22.29900
H  17.30700 -2.81200 21.77600
H  18.39600 -2.59400 23.20400
H  13.55200 -1.04100 23.43500
H  14.42200 -1.20900 21.89600
H  12.93100 1.09500 22.90600
H  13.95700 0.87700 21.42200
H  14.63000 1.64800 22.75500
H  13.46600 3.31400 26.69400
H  12.26800 2.95000 28.08500
H  12.19800 2.05800 26.63400
H  14.15400 1.12300 32.30400
H  15.93100 4.02100 34.80600
H  16.64200 4.67800 33.36500
H  17.51200 3.41700 34.17000
Mg 17.06600 52.99600 25.59500
C  18.56700 51.20400 28.33500
C  14.37700 53.40800 27.74700
C  15.25200 54.40000 23.08300
C  19.37900 51.63200 23.57700
N  16.67100 52.55700 27.84000
C  17.41800 51.94800 28.70400
C  16.85500 52.05300 30.07600
C  15.38800 52.39800 29.82500
C  15.44900 52.87500 28.37800
C  14.39500 51.28800 30.00900
C  17.60600 53.09900 30.93500
C  17.98800 52.64400 32.37000
H  17.14400 53.26700 33.50100
N  15.11000 53.86200 25.46700
C  14.14900 53.92000 26.44600
C  12.96600 54.57800 25.94100
C  13.26400 54.96800 24.60400
C  14.61400 54.42500 24.31200
C  11.76400 54.88100 26.80900
C  12.49100 55.89800 23.63800
O  13.01800 56.35800 22.66800
C  11.18700 56.38900 24.04100
N  17.19600 52.99500 23.65700
C  16.40200 53.66900 22.74000
C  17.03000 53.75800 21.29900
C  18.36400 52.87300 21.54100
C  18.40500 52.49500 23.05800
C  16.12000 53.15600 20.25500
C  19.56900 53.68500 20.98500
C  20.33000 54.57600 21.93700
N  18.83600 51.74300 25.89000
C  19.57600 51.20000 24.93200
C  20.57400 50.31000 25.55300
C  20.37000 50.44900 26.93000
C  19.17700 51.16000 27.06100
C  21.77300 49.65500 24.81000
C  20.71000 50.12600 28.27200
O  21.68300 49.58500 28.65200
C  19.49500 50.53800 29.18600
C  18.97700 49.28700 29.92600
O  18.19700 48.44400 29.48800
O  19.56100 49.18600 31.18200
C  19.11500 48.11000 32.04300
H  13.55400 53.52700 28.45500
H  14.84800 55.00000 22.26600
H  20.08900 51.30800 22.81300
H  16.92400 51.09400 30.58900
H  15.04600 53.31900 30.29900
H  14.56700 50.79700 30.96700
H  14.51700 50.62100 29.15500
H  13.41200 51.75000 29.91700
H  16.99500 54.00100 30.94200
H  18.52200 53.39700 30.42500
H  19.05100 52.77200 32.57600
H  17.78100 51.57600 32.44600
H  11.81000 54.41900 27.79500
H  10.86800 54.63200 26.24000
H  11.76300 55.95000 27.01800
H  10.79500 57.04500 23.26400
H  11.30500 57.06400 24.88900
H  10.44400 55.59600 24.12200
H  17.20200 54.78400 20.97400
H  18.34400 51.93100 20.99200
H  16.08700 53.81500 19.38700
H  15.09200 52.97600 20.56900
H  16.52400 52.21600 19.87800
H  19.17200 54.29500 20.17300
H  20.29600 52.99600 20.55700
H  20.03000 54.33900 22.95700
H  20.10600 55.59900 21.63500
H  21.40000 54.37400 21.87700
H  21.82100 48.57400 24.94500
H  22.69900 50.10800 25.16300
H  21.66500 49.76400 23.73100
H  19.93800 51.19700 29.93200
H  19.28300 48.28500 33.10600
H  19.52300 47.12600 31.80900
H  18.04100 47.96800 31.92700

