158

Mg 8.85700 3.77400 27.57700
C  10.23200 2.26100 30.47100
C  6.90900 5.78600 29.82100
C  7.61300 5.36000 24.92400
C  10.72600 1.67600 25.57300
N  8.67000 3.96300 29.88400
C  9.38300 3.28900 30.88200
C  8.94100 3.69600 32.28300
C  8.03400 4.90100 32.00100
C  7.81100 4.85500 30.47800
C  6.65400 5.05500 32.75800
C  10.10000 4.02300 33.21300
C  9.93200 4.98600 34.40700
H  10.73200 4.66600 35.67200
N  7.36200 5.28500 27.36400
C  6.73000 6.02100 28.40300
C  5.94900 7.12600 27.75200
C  6.20800 7.03000 26.32500
C  7.09900 5.86000 26.15400
C  5.00600 8.06400 28.50000
C  5.81300 7.92400 25.15600
O  6.01600 7.73400 23.96400
C  4.94800 9.18300 25.47000
N  9.17100 3.58100 25.55300
C  8.56200 4.38500 24.61000
C  8.88300 3.92700 23.17100
C  9.97700 2.76400 23.37200
C  10.00700 2.66400 24.93500
C  7.59800 3.59300 22.35700
C  11.33400 3.08100 22.69500
C  11.88300 2.03400 21.72100
N  10.17200 2.22800 27.89700
C  10.87600 1.49300 27.03200
C  11.65900 0.45700 27.75600
C  11.45400 0.83000 29.08100
C  10.53400 1.90000 29.14100
C  12.43400 -0.67100 27.14500
C  11.78500 0.36700 30.42300
O  12.58400 -0.51800 30.87800
C  11.04800 1.31500 31.38500
C  10.21100 0.49100 32.33200
O  9.06900 0.06700 32.08000
O  10.73800 0.43500 33.59200
C  9.86600 -0.07200 34.58400
H  6.34900 6.44000 30.49200
H  7.35000 5.85700 23.98700
H  11.49400 1.03500 25.13500
H  8.41200 2.78700 32.56800
H  8.54800 5.85500 32.11700
H  6.42900 6.10800 32.92700
H  6.52700 4.45900 33.66200
H  5.83000 4.67800 32.15200
H  11.01700 4.29200 32.68900
H  10.30400 3.06100 33.68300
H  8.88800 4.84200 34.68600
H  10.17700 5.97100 34.01000
H  5.49200 9.02200 28.68600
H  4.90700 7.60500 29.48300
H  4.14200 8.09500 27.83600
H  3.99000 8.82500 25.84900
H  4.77700 9.65500 24.50300
H  5.35300 9.83400 26.24400
H  9.37600 4.67000 22.54400
H  9.53700 1.87400 22.92100
H  7.84500 2.75100 21.70900
H  7.18600 4.50500 21.92600
H  6.87900 3.19200 23.07100
H  12.06000 3.37300 23.45400
H  11.24600 4.00500 22.12200
H  11.04300 1.36900 21.52000
H  12.73300 1.47200 22.10900
H  12.16500 2.52800 20.79100
H  13.29000 -0.26800 26.60400
H  11.75600 -1.09700 26.40500
H  12.88100 -1.42900 27.78900
H  11.87200 1.78300 31.92400
H  9.30100 -0.93500 34.23200
H  9.20600 0.78200 34.73800
H  10.29400 -0.42800 35.52200
Mg 16.34600 52.50100 26.52200
C  18.10400 50.90300 29.17600
C  13.80500 53.12100 28.67900
C  14.60800 53.71500 23.86900
C  18.68400 51.00800 24.31700
N  16.09000 52.02600 28.66800
C  16.96300 51.58100 29.55400
C  16.45900 51.78900 31.01400
C  14.91600 52.15000 30.84200
C  14.91400 52.47600 29.27100
C  13.79500 51.10900 31.23100
C  17.29800 52.97700 31.70700
C  17.15900 53.19500 33.26300
H  16.40400 52.20900 34.19600
N  14.43400 53.26800 26.29200
C  13.50400 53.46700 27.30100
C  12.30400 54.10100 26.73700
C  12.57500 54.32900 25.37800
C  13.95300 53.77000 25.13400
C  11.11300 54.32300 27.67900
C  11.78800 55.10700 24.42300
O  12.07300 55.23800 23.22300
C  10.58500 55.91600 24.91300
N  16.54300 52.19500 24.31700
C  15.78800 53.00300 23.50800
C  16.37400 52.98400 22.02000
C  17.82200 52.35200 22.31600
C  17.72300 51.81400 23.69200
C  15.41600 52.04600 21.18100
C  19.04800 53.37800 22.22400
C  20.26200 52.88500 21.44400
N  18.12100 51.26500 26.67500
C  18.93300 50.77600 25.67400
C  19.87600 49.85300 26.29700
C  19.72000 49.99900 27.66900
C  18.55500 50.78400 27.86100
C  20.99300 49.22100 25.59600
C  20.26000 49.51800 28.98700
O  21.25100 48.85200 29.31700
C  19.23700 50.23900 30.00700
C  18.75100 49.22300 30.94900
O  18.15300 48.23700 30.57100
O  19.09300 49.45600 32.23500
C  18.69600 48.50000 33.35600
H  13.09000 53.42700 29.44500
H  14.28200 54.23600 22.96700
H  19.46500 50.77400 23.59000
H  16.56200 50.88300 31.61100
H  14.67300 53.06800 31.37800
H  13.05700 51.01500 30.43500
H  13.35900 51.39800 32.18800
H  14.31600 50.16200 31.37100
H  17.04200 53.90100 31.18800
H  18.33500 52.82000 31.41000
H  16.71000 54.18100 33.37800
H  18.15400 53.42400 33.64400
H  10.11100 54.22400 27.26200
H  11.17900 55.32900 28.09400
H  11.25000 53.52800 28.41100
H  10.31500 56.68900 24.19400
H  10.78400 56.40400 25.86700
H  9.66600 55.33100 24.94300
H  16.39600 54.01300 21.66000
H  17.99900 51.46600 21.70700
H  15.93400 51.16100 20.81100
H  14.89000 52.63800 20.43100
H  14.57200 51.74400 21.80000
H  19.40900 53.72100 23.19400
H  18.65700 54.22300 21.65700
H  20.41800 53.58800 20.62600
H  20.18300 51.85700 21.09000
H  21.09500 52.95100 22.14400
H  20.94800 48.13300 25.55300
H  21.84500 49.56800 26.18000
H  21.17100 49.61400 24.59400
H  19.82200 50.95100 30.59000
H  18.19900 47.61700 32.95300
H  17.89700 48.89600 33.98200
H  19.50200 48.18400 34.01900

