158

Mg 40.78000 8.41500 28.30900
C  42.34600 9.85900 31.03700
C  38.64500 6.91600 30.55800
C  39.03900 7.24700 25.59300
C  43.07900 9.63700 26.22500
N  40.46800 8.56900 30.62700
C  41.16700 9.24100 31.46400
C  40.74100 8.95000 32.91600
C  39.69200 7.84700 32.72000
C  39.61000 7.69300 31.19200
C  39.82000 6.52200 33.50400
C  40.31600 10.27500 33.66800
C  41.17500 10.71800 34.91400
H  40.51600 11.74700 35.85600
N  39.20100 7.22600 28.11100
C  38.41600 6.75600 29.17400
C  37.27900 5.96600 28.67500
C  37.33600 5.99100 27.25600
C  38.58200 6.85400 26.91500
C  36.17100 5.37600 29.56300
C  36.42200 5.48600 26.09400
O  36.69700 5.50400 24.89600
C  35.09300 4.84000 26.45400
N  41.14600 8.24100 26.11200
C  40.15800 7.97500 25.26200
C  40.49400 8.25500 23.82700
C  41.89400 8.91700 23.97200
C  42.04700 8.99400 25.50100
C  40.45500 7.04300 22.85400
C  42.08300 10.26000 23.14200
C  41.57400 11.57100 23.73900
N  42.47900 9.39300 28.52500
C  43.33200 9.82700 27.60500
C  44.48400 10.51100 28.20400
C  44.06500 10.62000 29.57800
C  42.85200 9.91600 29.69800
C  45.55300 11.10400 27.50000
C  44.43000 11.13100 30.89000
O  45.36500 11.78400 31.16500
C  43.31800 10.54600 31.88600
C  44.03900 9.66800 32.88700
O  44.08800 8.43600 32.78800
O  44.40500 10.43600 33.96500
C  44.87600 9.67400 35.09900
H  37.95600 6.53600 31.31500
H  38.35900 6.96100 24.78800
H  43.89000 10.04500 25.62000
H  41.56700 8.59900 33.53500
H  38.71800 8.19700 33.06000
H  38.85200 6.34900 33.97400
H  40.67400 6.56900 34.18000
H  39.94800 5.67200 32.83300
H  39.27000 10.26900 33.97300
H  40.44400 11.09800 32.96500
H  42.08900 11.16900 34.52600
H  41.50600 9.81400 35.42600
H  36.15800 5.48800 30.64700
H  35.90600 4.33900 29.35800
H  35.37500 6.02300 29.19300
H  35.05000 4.32700 27.41400
H  34.72700 4.15500 25.68900
H  34.33700 5.62500 26.50400
H  39.73800 8.88100 23.35300
H  42.57100 8.17300 23.55200
H  41.40200 7.08600 22.31500
H  39.72300 7.08400 22.04700
H  40.30300 6.06300 23.30800
H  41.63900 10.17900 22.15000
H  43.14900 10.38200 22.94900
H  42.42000 12.24700 23.85900
H  41.00100 11.51100 24.66500
H  40.80000 12.07400 23.15900
H  45.14600 11.87900 26.85100
H  45.98300 10.37500 26.81400
H  46.26300 11.41100 28.26800
H  42.75400 11.34200 32.37300
H  45.79700 9.20200 34.75600
H  44.14400 8.91800 35.38500
H  45.21600 10.16500 36.01200
Mg 26.67000 50.45600 27.04300
C  24.52900 51.22600 29.73400
C  28.95600 49.57800 29.34300
C  28.73000 49.89200 24.53900
C  24.20000 51.68900 24.87800
N  26.67300 50.30700 29.35300
C  25.67200 50.62900 30.19400
C  26.05000 50.17800 31.62600
C  27.51100 49.76400 31.48500
C  27.77300 49.96900 29.99100
C  28.64200 50.48500 32.27900
C  25.03200 49.19500 32.34400
C  24.17200 49.74100 33.44400
H  24.36300 49.19300 34.85300
N  28.59900 49.94300 26.95200
C  29.35600 49.53000 28.00800
C  30.67800 49.06500 27.50700
C  30.67300 49.33800 26.10600
C  29.33200 49.79900 25.79400
C  31.66100 48.43700 28.39300
C  31.80700 48.97300 25.20200
O  31.69600 49.05300 23.94100
C  33.01300 48.40800 25.68500
N  26.39700 50.62400 25.05700
C  27.41600 50.22400 24.14800
C  26.84200 50.25900 22.69600
C  25.41000 50.81300 22.86000
C  25.30700 51.06700 24.32800
C  27.59000 50.95400 21.57100
C  24.26600 49.89900 22.26300
C  23.84100 50.47300 20.88000
N  24.79300 51.40600 27.25900
C  23.92000 51.90800 26.26400
C  22.68000 52.24900 26.85900
C  22.89500 52.06100 28.26000
C  24.18900 51.57500 28.41200
C  21.45500 52.61700 26.15800
C  22.24900 52.18500 29.51800
O  21.11700 52.60800 29.84100
C  23.32100 51.65500 30.55500
C  23.66900 52.79900 31.43400
O  24.30800 53.78200 31.07100
O  23.08500 52.68300 32.59900
C  23.26000 53.77300 33.60200
H  29.63500 49.34300 30.16500
H  29.33200 49.65600 23.65900
H  23.43900 52.03400 24.17600
H  26.10700 51.17800 32.05700
H  27.52900 48.68600 31.64700
H  29.25600 49.68400 32.69100
H  28.22000 51.12700 33.05100
H  29.23700 51.11500 31.61700
H  25.67100 48.40500 32.74000
H  24.39700 48.81700 31.54300
H  23.11100 49.57100 33.26100
H  24.40400 50.80600 33.46300
H  32.49900 49.11300 28.56300
H  32.03800 47.48000 28.03000
H  31.25600 48.04700 29.32700
H  33.74300 48.39600 24.87600
H  32.71900 47.43200 26.07000
H  33.31600 49.11700 26.45700
H  26.90400 49.17700 22.57800
H  25.36500 51.79700 22.39400
H  28.56000 51.40000 21.79300
H  26.95900 51.64800 21.01500
H  27.72600 50.05900 20.96400
H  23.47700 49.89200 23.01600
H  24.55500 48.86200 22.09400
H  24.23400 51.48300 20.76200
H  22.75300 50.53500 20.85000
H  24.18400 49.78200 20.11000
H  21.46500 52.20900 25.14700
H  21.36200 53.69700 26.05200
H  20.69900 52.17800 26.81000
H  22.83900 50.80600 31.03900
H  23.97300 54.55900 33.35300
H  23.72000 53.09500 34.32100
H  22.38300 54.34300 33.91000

