158

Mg 25.43900 1.99300 29.99800
C  27.41500 1.55700 32.82500
C  22.55100 1.78800 32.03200
C  23.52200 1.92500 27.22100
C  28.29500 1.30300 27.90900
N  25.02500 1.78800 32.21200
C  26.05500 1.67400 33.11100
C  25.43400 1.68200 34.52900
C  23.86000 1.53000 34.31300
C  23.77700 1.70500 32.75500
C  23.23400 0.18100 34.80200
C  25.71500 2.99100 35.24700
C  26.37900 2.96300 36.65200
H  25.76700 3.79300 37.75600
N  23.33300 1.93500 29.67300
C  22.33600 1.91700 30.64700
C  21.07200 1.87600 29.93100
C  21.34400 1.76300 28.55100
C  22.76700 1.85300 28.43200
C  19.77500 1.68100 30.67400
C  20.37300 1.38500 27.41900
O  20.73900 1.21600 26.26300
C  18.94700 1.17400 27.66100
N  25.81700 1.74700 27.92000
C  24.87300 1.87800 26.99400
C  25.45600 2.10000 25.56900
C  26.92400 1.73700 25.75600
C  27.06100 1.62900 27.25900
C  24.75800 1.46100 24.31200
C  28.03700 2.68500 25.10700
C  27.88500 4.16100 25.51600
N  27.54200 1.68600 30.26200
C  28.49700 1.31600 29.36700
C  29.57200 0.86100 30.11100
C  29.26800 0.98500 31.43100
C  27.98300 1.53100 31.51700
C  30.87400 0.49000 29.59200
C  29.78800 0.80000 32.78700
O  30.89500 0.36800 33.21100
C  28.61500 1.29900 33.78600
C  28.34100 0.18400 34.78700
O  27.74600 -0.79600 34.43900
O  28.80000 0.63900 35.98800
C  28.78700 -0.40000 37.03100
H  21.64300 1.78300 32.63800
H  22.83900 2.10400 26.38900
H  29.06000 1.10100 27.15600
H  25.79100 0.78800 35.04000
H  23.24900 2.35800 34.67200
H  23.64500 -0.67000 34.26100
H  22.18600 0.17900 34.50300
H  23.26400 -0.08900 35.85800
H  24.76900 3.52600 35.33300
H  26.35800 3.67600 34.69500
H  27.39100 3.36900 36.66100
H  26.48800 1.95800 37.06000
H  19.22400 0.76500 30.46300
H  19.16200 2.52900 30.36900
H  19.90300 1.91400 31.73200
H  18.42900 1.98800 28.16900
H  18.91400 0.29200 28.30100
H  18.39200 0.92000 26.75800
H  25.39800 3.16800 25.35900
H  27.14100 0.82600 25.19900
H  23.70400 1.30600 24.54200
H  25.18800 0.48400 24.08900
H  24.74700 2.15600 23.47200
H  27.82700 2.62500 24.03900
H  29.06300 2.34500 25.25200
H  28.77500 4.67900 25.87300
H  27.05700 4.26800 26.21700
H  27.59300 4.64600 24.58400
H  31.22700 1.34700 29.01900
H  30.69200 -0.41000 29.00300
H  31.52500 0.25900 30.43500
H  28.84700 2.13600 34.44400
H  27.76500 -0.44700 37.40900
H  29.47900 -0.13100 37.82900
H  29.15400 -1.35100 36.64500
Mg -2.07700 34.12600 27.08400
C  -3.69100 32.47800 29.73200
C  -0.25500 35.95500 29.31200
C  -0.69400 35.74700 24.44400
C  -3.84300 31.93100 24.80000
N  -2.04600 34.16900 29.27600
C  -2.79700 33.49400 30.19200
C  -2.25100 33.72000 31.66200
C  -1.34200 34.95400 31.50900
C  -1.16300 35.04000 29.91500
C  -1.73700 36.27900 32.20700
C  -1.53200 32.44000 32.16600
C  -0.92700 32.55800 33.62300
H  -1.61400 31.60400 34.64800
N  -0.68900 35.67000 26.90100
C  -0.00800 36.30700 27.90300
C  0.93900 37.31400 27.40600
C  0.82900 37.29200 26.01200
C  -0.25500 36.17200 25.72500
C  1.84600 38.11000 28.29700
C  1.59700 38.07000 24.95500
O  1.31800 37.96400 23.76300
C  2.64600 39.03600 25.36200
N  -2.52600 34.09400 24.87400
C  -1.62500 34.73200 24.02200
C  -1.70800 34.22200 22.58300
C  -2.51500 32.83700 22.78300
C  -3.03300 32.94900 24.21200
C  -2.33800 35.29900 21.60900
C  -1.69100 31.54200 22.56700
C  -0.27400 31.39300 23.13100
N  -3.60600 32.66200 27.19100
C  -4.19300 31.86400 26.18100
C  -4.98900 30.83900 26.82400
C  -4.81100 31.10600 28.19400
C  -3.96300 32.17200 28.39300
C  -5.90500 29.85500 26.17700
C  -5.20600 30.65000 29.49100
O  -5.92400 29.69300 29.80800
C  -4.50900 31.47900 30.53500
C  -5.59400 32.10300 31.32300
O  -6.29900 33.01900 30.94800
O  -5.83900 31.43600 32.49400
C  -7.03700 31.84700 33.22200
H  0.41000 36.42500 30.04000
H  -0.11400 36.30000 23.70200
H  -4.23800 31.05000 24.28900
H  -3.12100 33.91100 32.29100
H  -0.31700 34.74200 31.81400
H  -0.90700 36.82000 32.65900
H  -2.30300 35.90700 33.06100
H  -2.33900 37.00400 31.65900
H  -0.57600 32.36000 31.64800
H  -2.06100 31.51100 31.95300
H  -1.05400 33.56300 34.02500
H  0.15700 32.44100 33.61900
H  2.02000 39.10500 27.88800
H  2.81900 37.62000 28.27600
H  1.42700 38.16400 29.30200
H  2.12300 39.85200 25.85900
H  3.11500 39.41900 24.45600
H  3.42800 38.60200 25.98600
H  -0.72000 33.92300 22.23200
H  -3.30700 32.89700 22.03700
H  -1.56000 35.57800 20.89900
H  -2.73800 36.24000 21.98800
H  -3.17400 34.84400 21.07800
H  -1.59500 31.48400 21.48300
H  -2.28900 30.65000 22.75200
H  0.32700 31.37700 22.22200
H  -0.17400 30.36300 23.47600
H  0.00000 32.15400 23.86100
H  -6.89800 30.29400 26.27600
H  -5.78800 28.96100 26.79000
H  -5.75900 29.58200 25.13200
H  -3.95400 30.83600 31.21800
H  -6.67300 32.18700 34.19100
H  -7.78800 31.07400 33.38200
H  -7.64100 32.65400 32.80600

