158

Mg -1.12000 17.58300 27.26200
C  -1.64000 15.17500 29.74200
C  -1.59000 20.03100 29.48800
C  -0.55900 19.87100 24.71400
C  -0.50900 14.95000 24.90900
N  -1.57900 17.60600 29.35400
C  -1.79200 16.48400 30.23500
C  -2.02100 16.98000 31.71800
C  -2.05700 18.51600 31.49700
C  -1.83700 18.75700 30.00200
C  -3.31400 19.26400 32.18600
C  -0.86700 16.50000 32.65700
C  -0.55400 17.33700 33.92200
H  -0.12600 16.45100 35.12800
N  -1.19400 19.65400 27.07300
C  -1.43200 20.50300 28.13300
C  -1.38800 21.91200 27.67300
C  -0.99500 21.80600 26.27400
C  -0.97100 20.37700 25.94700
C  -1.73700 23.08300 28.53500
C  -0.88600 22.92200 25.25900
O  -0.66900 22.81700 24.03200
C  -1.24600 24.29500 25.85100
N  -0.71700 17.43800 25.12400
C  -0.57600 18.54000 24.26500
C  -0.37400 18.03600 22.82400
C  -0.14000 16.53400 23.01300
C  -0.43100 16.28200 24.46800
C  -1.62800 18.46900 21.89400
C  1.26700 16.04100 22.58100
C  2.46300 16.20700 23.50100
N  -1.17500 15.50900 27.25400
C  -0.83600 14.55400 26.29300
C  -1.11500 13.21400 26.76600
C  -1.37800 13.36600 28.13000
C  -1.38000 14.78700 28.36200
C  -0.96800 11.92000 26.01200
C  -1.65600 12.74600 29.40900
O  -1.69500 11.55900 29.68000
C  -1.88000 13.89100 30.47000
C  -0.94600 13.42400 31.57400
O  0.26600 13.47100 31.51200
O  -1.67000 12.69700 32.50000
C  -0.82000 12.17900 33.56300
H  -1.86500 20.82200 30.18900
H  -0.47200 20.45000 23.79200
H  -0.18400 14.18400 24.20200
H  -2.96500 16.57700 32.08500
H  -1.15200 18.98600 31.88200
H  -2.98300 19.97100 32.94700
H  -3.87800 18.48800 32.70400
H  -3.99100 19.78400 31.50800
H  -0.03100 16.26700 31.99700
H  -1.25300 15.57300 33.08100
H  -1.46100 17.91300 34.10500
H  0.20900 18.08800 33.71700
H  -2.55000 23.60300 28.02900
H  -0.86400 23.71500 28.70000
H  -2.09700 22.83500 29.53300
H  -2.31500 24.34300 26.05400
H  -1.09900 25.05800 25.08600
H  -0.53600 24.45900 26.66200
H  0.50100 18.52800 22.39900
H  -0.92000 15.96000 22.51300
H  -1.81200 19.52500 22.09400
H  -2.45900 17.94800 22.36800
H  -1.50900 18.29100 20.82500
H  1.57600 16.52200 21.65300
H  1.29500 14.96300 22.42600
H  3.38500 16.39500 22.95100
H  2.54900 15.43500 24.26600
H  2.43400 17.15600 24.03700
H  -0.31600 12.11100 25.15900
H  -1.98400 11.68200 25.69800
H  -0.72400 11.06600 26.64400
H  -2.90200 13.90200 30.84900
H  -0.37800 11.21100 33.32300
H  -1.35500 12.14600 34.51200
H  0.01500 12.84600 33.77800
Mg 8.84500 3.35900 27.13200
C  9.93600 1.97600 30.11800
C  6.69300 5.27800 28.97100
C  7.92600 4.63400 24.37100
C  10.32400 0.59500 25.37300
N  8.27000 3.37600 29.28800
C  8.96700 2.88900 30.33500
C  8.35500 3.36900 31.65600
C  7.01500 4.04800 31.23300
C  7.38600 4.30500 29.74800
C  5.70900 3.25400 31.51800
C  9.40500 4.33000 32.32900
C  9.25900 4.56600 33.82600
H  10.45700 4.27500 34.85200
N  7.60100 4.83100 26.76500
C  6.88200 5.59800 27.58600
C  6.16500 6.63800 26.93100
C  6.48400 6.46600 25.55600
C  7.44500 5.30800 25.48700
C  5.17600 7.73200 27.57500
C  6.13200 7.50200 24.40700
O  6.59500 7.29300 23.29100
C  5.25000 8.63400 24.68800
N  8.92400 2.60100 25.16500
C  8.51700 3.40900 24.12900
C  8.83300 2.92700 22.73700
C  9.65900 1.62600 23.11300
C  9.58800 1.53300 24.62500
C  7.62600 2.70400 21.88400
C  11.12000 1.66300 22.65600
C  12.03900 2.71200 23.29300
N  10.00700 1.63500 27.63600
C  10.59500 0.68200 26.83800
C  11.46100 -0.11000 27.69300
C  11.28600 0.35700 28.98000
C  10.37000 1.39800 28.87900
C  12.38400 -1.28800 27.32000
C  11.66100 0.25500 30.35800
O  12.48100 -0.46100 30.88900
C  10.86100 1.28700 31.16300
C  10.12600 0.56400 32.22000
O  9.01000 0.00700 32.00900
O  10.76100 0.64100 33.44400
C  9.84600 0.09000 34.45500
H  6.09000 5.93700 29.60000
H  7.57000 5.12600 23.46300
H  10.87800 -0.20000 24.86900
H  8.24200 2.50400 32.31100
H  6.97500 5.02500 31.71300
H  5.34200 2.95200 30.53700
H  5.06900 3.90800 32.11000
H  5.90000 2.28300 31.97500
H  9.23100 5.25900 31.78600
H  10.41000 3.93600 32.17700
H  8.47200 3.84000 34.03100
H  8.97900 5.60400 34.00300
H  5.71600 8.67900 27.56100
H  4.97100 7.50500 28.62100
H  4.22900 7.81100 27.04100
H  4.23000 8.38400 24.97900
H  5.11600 9.19300 23.76200
H  5.65800 9.43200 25.30800
H  9.41100 3.75800 22.33300
H  9.21000 0.70400 22.74300
H  6.75100 3.04400 22.43800
H  7.47100 1.64400 21.68600
H  7.67900 3.19500 20.91200
H  11.10100 1.74200 21.56900
H  11.49600 0.64900 22.78700
H  12.62000 3.13800 22.47600
H  12.70900 2.21400 23.99400
H  11.43500 3.40100 23.88400
H  12.83000 -1.09900 26.34400
H  11.70700 -2.12400 27.14600
H  12.99300 -1.55600 28.18300
H  11.54800 2.00600 31.61000
H  9.03200 0.79800 34.61700
H  10.33500 0.05400 35.42800
H  9.41100 -0.87100 34.17900

