158

Mg 0.96700 -1.60400 44.35300
C  3.91200 -0.28100 43.22500
C  -0.72900 0.93000 42.70500
C  -1.99300 -3.29800 44.74400
C  2.80200 -4.37800 45.43200
N  1.55700 0.01300 43.00800
C  2.81100 0.44600 42.70900
C  2.83500 1.88800 42.16300
C  1.38200 2.32000 42.21000
C  0.66400 1.04800 42.71000
C  1.26000 3.53500 43.16200
C  3.61000 1.95300 40.73000
C  4.78100 2.91100 40.64200
H  5.71400 2.55900 39.56400
N  -1.07600 -1.19800 43.95000
C  -1.51700 -0.12800 43.24000
C  -2.95800 -0.19200 43.17700
C  -3.37200 -1.43800 43.70200
C  -2.14000 -2.06200 44.18300
C  -3.66500 0.84700 42.39200
C  -4.76400 -1.96200 43.71300
O  -5.65000 -1.31600 43.18700
C  -5.07000 -3.19800 44.49400
N  0.43400 -3.41400 45.20300
C  -0.80500 -3.97200 45.14900
C  -0.79200 -5.50400 45.29000
C  0.74500 -5.84700 45.40100
C  1.39400 -4.46300 45.38800
C  -1.65800 -6.06700 46.55600
C  1.33600 -6.80700 44.33600
C  2.58700 -7.65600 44.74600
N  2.93200 -2.24500 44.47000
C  3.57200 -3.26900 45.00300
C  4.99600 -3.18200 44.96800
C  5.18300 -1.96400 44.33100
C  3.86000 -1.47400 43.99100
C  6.02900 -4.22500 45.48500
C  6.18600 -1.09400 43.68700
O  7.41500 -1.18200 43.58700
C  5.35700 0.14600 43.12600
C  5.78000 1.26300 44.03300
O  5.43600 1.43900 45.24500
O  6.81400 2.12300 43.42000
C  7.19400 3.19400 44.27700
H  -1.30000 1.82500 42.44900
H  -2.75300 -4.08200 44.73900
H  3.45000 -5.20500 45.72800
H  3.36800 2.55600 42.84000
H  0.83800 2.60000 41.30700
H  0.21200 3.83000 43.11700
H  1.98000 4.27700 42.81600
H  1.52300 3.29600 44.19200
H  2.95900 2.31400 39.93500
H  3.93500 0.95800 40.42800
H  5.34900 2.81300 41.56700
H  4.42400 3.93200 40.50500
H  -3.83100 1.65200 43.10700
H  -4.59100 0.46200 41.96400
H  -3.07600 1.14800 41.52600
H  -4.72900 -4.00100 43.84100
H  -6.15300 -3.23900 44.60900
H  -4.54500 -3.05000 45.43800
H  -1.20800 -5.88200 44.35600
H  1.00300 -6.12000 46.42400
H  -2.02300 -5.22600 47.14500
H  -0.93300 -6.67100 47.10100
H  -2.50200 -6.71100 46.30900
H  1.64300 -6.18800 43.49300
H  0.47900 -7.42200 44.06100
H  3.40800 -7.39800 44.07700
H  2.32700 -8.68900 44.51400
H  2.92100 -7.44600 45.76200
H  7.02200 -3.86300 45.21800
H  5.91900 -5.21100 45.03300
H  5.87400 -4.22800 46.56300
H  5.75900 0.37700 42.14000
H  6.31200 3.67700 44.69700
H  7.80200 3.94800 43.77600
H  7.78000 2.80600 45.11000
Mg 17.47100 51.45400 25.82000
C  19.21800 50.06100 28.59700
C  14.76100 52.16600 28.00800
C  15.60100 52.37600 23.24000
C  19.89500 50.12900 23.76700
N  16.98200 51.00500 28.04700
C  17.94700 50.65200 28.94400
C  17.52800 50.98500 30.40200
C  15.99200 51.47400 30.20300
C  15.81700 51.51000 28.64300
C  14.87700 50.57500 30.80000
C  18.41800 52.12800 30.98300
C  18.49300 52.12600 32.51300
H  17.47200 51.31700 33.24300
N  15.51700 52.28200 25.66900
C  14.59300 52.53600 26.67300
C  13.51500 53.33400 26.08700
C  13.72600 53.46000 24.66100
C  14.96600 52.66800 24.45700
C  12.35700 53.78800 26.99500
C  12.87500 54.09300 23.55500
O  13.19900 54.03300 22.35100
C  11.55600 54.74700 23.87900
N  17.64100 51.13500 23.80300
C  16.77700 51.64800 22.93200
C  17.16600 51.31700 21.55700
C  18.73900 50.97900 21.73600
C  18.78300 50.75300 23.21600
C  16.34400 50.15900 20.95600
C  19.70100 52.15500 21.23700
C  19.40400 53.51800 21.82900
N  19.21800 50.35200 26.04100
C  20.11300 49.95700 25.12700
C  21.21300 49.18600 25.75300
C  20.86800 49.28000 27.12400
C  19.70800 50.01600 27.20300
C  22.37000 48.46300 25.10600
C  21.33000 48.88400 28.41400
O  22.30900 48.33600 28.89100
C  20.22400 49.31700 29.40800
C  19.73800 48.14100 30.20700
O  19.13800 47.18000 29.85400
O  20.09800 48.28300 31.46700
C  19.64700 47.41000 32.54100
H  13.97100 52.36400 28.73500
H  15.10100 52.76900 22.35200
H  20.62800 49.86100 23.00400
H  17.62800 50.04400 30.94200
H  15.87600 52.49600 30.56400
H  14.27000 51.22400 31.43000
H  15.33600 49.73800 31.32700
H  14.26400 50.10900 30.02800
H  18.18200 53.11200 30.57900
H  19.45500 51.95400 30.69800
H  18.19500 53.14000 32.78000
H  19.51100 51.97300 32.87000
H  11.60100 54.38400 26.48400
H  12.84100 54.37700 27.77300
H  11.94100 52.89800 27.46700
H  10.79000 54.08700 24.28700
H  11.25200 55.29200 22.98600
H  11.68700 55.65000 24.47600
H  17.05100 52.22600 20.96700
H  18.98000 50.03500 21.24700
H  15.60500 50.62400 20.30300
H  15.80600 49.49000 21.62800
H  16.97200 49.57400 20.28400
H  19.75600 52.05800 20.15300
H  20.62700 51.75600 21.65000
H  20.32200 53.85100 22.31200
H  18.44400 53.55400 22.34400
H  19.40400 54.24800 21.01900
H  21.99400 48.05800 24.16700
H  22.60100 47.59400 25.72300
H  23.18300 49.18900 25.08200
H  20.68100 50.06500 30.05500
H  19.45100 48.06300 33.39200
H  20.37300 46.63300 32.78000
H  18.75300 46.81300 32.36100

