158

Mg 46.65000 16.66200 28.23900
C  44.76000 16.62800 31.06700
C  48.99100 18.78100 29.86900
C  48.10100 17.37800 25.26400
C  44.03400 15.17200 26.54700
N  46.77900 17.73400 30.19000
C  45.97400 17.30800 31.25200
C  46.55800 17.74600 32.61900
C  47.65100 18.79400 32.12400
C  47.88500 18.42000 30.69500
C  47.34800 20.30300 32.31700
C  47.06700 16.50500 33.38100
C  47.13200 16.56500 34.91200
H  47.16600 17.91000 35.62200
N  48.38200 17.72000 27.69000
C  49.18600 18.48000 28.51200
C  50.33300 18.88300 27.74200
C  49.95700 18.72100 26.39500
C  48.80600 17.87100 26.40400
C  51.62000 19.46800 28.35100
C  50.63200 19.19100 25.12300
O  50.24700 18.95100 23.98200
C  51.78900 20.15700 25.26800
N  46.28500 16.04500 26.17700
C  46.99600 16.51400 25.16400
C  46.29400 16.28000 23.81400
C  45.14100 15.28100 24.29600
C  45.14300 15.52300 25.80200
C  45.89800 17.46900 22.95800
C  45.40400 13.86600 23.83400
C  44.80900 13.40000 22.51400
N  44.78600 15.92300 28.67100
C  43.86000 15.27000 27.94500
C  42.65400 14.93400 28.75100
C  42.93800 15.47900 30.01800
C  44.25000 16.06800 29.90400
C  41.57100 14.08400 28.27400
C  42.49200 15.62100 31.33200
O  41.44100 15.21400 31.79200
C  43.68200 16.29600 32.14200
C  43.11300 17.55400 32.73500
O  42.95000 18.62000 32.19800
O  42.64000 17.16500 33.96900
C  41.55900 17.94900 34.52400
H  49.84200 19.32200 30.28900
H  48.33600 17.60000 24.22100
H  43.20400 14.81100 25.93600
H  45.70500 18.11200 33.19000
H  48.56100 18.77400 32.72300
H  46.34100 20.40900 32.72100
H  47.42100 20.93300 31.43000
H  47.99500 20.67200 33.11300
H  48.05400 16.37200 32.93700
H  46.52200 15.63000 33.02700
H  48.00700 15.96600 35.16500
H  46.35100 16.01200 35.43500
H  52.42000 18.74000 28.21700
H  51.52600 19.73100 29.40400
H  51.75100 20.43500 27.86500
H  51.44100 21.14400 25.57100
H  52.26900 20.22600 24.29200
H  52.52900 19.80900 25.99000
H  46.94600 15.62100 23.24000
H  44.17500 15.56700 23.87900
H  46.50200 18.36300 23.11000
H  44.88700 17.72200 23.28000
H  45.99600 17.23100 21.89900
H  44.93000 13.26800 24.61200
H  46.45700 13.58600 23.86500
H  45.69400 13.29600 21.88600
H  44.06000 14.02400 22.02700
H  44.42600 12.40400 22.73500
H  40.65600 14.66300 28.15100
H  41.37300 13.27000 28.97200
H  41.89000 13.74800 27.28700
H  43.94000 15.51800 32.86100
H  40.85000 18.21900 33.74200
H  41.98800 18.87600 34.90600
H  41.09100 17.48800 35.39400
Mg -10.09300 17.22500 41.40100
C  -6.63000 16.38400 41.39500
C  -9.10200 20.40600 40.50400
C  -13.29000 18.00300 41.06400
C  -10.77200 13.83900 41.41600
N  -8.05300 18.25900 40.96300
C  -6.79600 17.74900 41.03500
C  -5.74400 18.77800 40.55600
C  -6.54000 20.17600 40.72600
C  -8.00800 19.62300 40.83200
C  -6.04600 21.02700 41.87600
C  -5.25500 18.63000 39.08900
C  -3.81900 18.33700 38.73800
H  -3.42300 16.90900 38.28100
N  -11.08400 18.99900 40.88800
C  -10.44000 20.15300 40.50600
C  -11.50700 21.09800 40.13800
C  -12.71300 20.47900 40.35500
C  -12.42100 19.13900 40.78600
C  -11.29300 22.46400 39.68400
C  -14.05000 21.07000 40.12500
O  -14.23300 22.23400 39.75400
C  -15.20700 20.29100 40.50700
N  -11.77300 16.08100 41.08900
C  -13.01300 16.63900 41.12000
C  -14.19100 15.59600 41.14200
C  -13.39700 14.28100 41.33100
C  -11.86000 14.74700 41.29400
C  -15.29800 15.79300 42.15200
C  -13.69600 13.17900 40.20100
C  -13.94700 11.73400 40.87400
N  -9.01300 15.39500 41.52100
C  -9.40300 14.11600 41.57100
C  -8.23700 13.22500 41.62000
C  -7.14500 14.12700 41.64100
C  -7.65100 15.43600 41.55500
C  -8.20900 11.77100 41.43700
C  -5.67300 14.18800 41.67400
O  -4.82300 13.29400 41.59000
C  -5.32600 15.70400 41.72300
C  -4.88700 16.03400 43.12600
O  -5.32200 16.92800 43.82300
O  -3.94400 15.10700 43.55500
C  -3.48300 15.28000 44.89200
H  -8.77200 21.41500 40.24700
H  -14.37400 18.12400 41.03500
H  -11.10500 12.80300 41.33400
H  -4.88000 18.72200 41.21900
H  -6.52800 20.74600 39.79700
H  -6.76200 20.96700 42.69600
H  -5.98600 22.06400 41.54500
H  -5.07400 20.67400 42.22200
H  -5.67300 19.45300 38.50900
H  -5.78000 17.75700 38.70100
H  -3.18200 18.63800 39.57000
H  -3.57500 19.03400 37.93600
H  -11.45200 22.63500 38.62000
H  -10.26900 22.76900 39.90000
H  -11.85500 23.06300 40.40100
H  -15.34300 19.47200 39.80100
H  -16.07300 20.95200 40.46700
H  -15.10900 20.02200 41.55800
H  -14.57500 15.63300 40.12300
H  -13.51200 13.89200 42.34300
H  -16.09500 16.43000 41.76800
H  -15.02100 16.30300 43.07500
H  -15.73600 14.85000 42.47800
H  -12.86500 13.19100 39.49600
H  -14.60200 13.40100 39.63600
H  -13.28300 11.04100 40.35700
H  -14.95600 11.32600 40.80100
H  -13.68700 11.81300 41.92900
H  -9.22600 11.37800 41.41100
H  -7.61600 11.37500 42.26100
H  -7.88000 11.42600 40.45700
H  -4.44700 15.83000 41.09200
H  -4.21600 15.60800 45.62800
H  -2.64600 15.97700 44.94600
H  -3.03900 14.32100 45.16000

