158

Mg 6.91100 54.49800 40.73100
C  6.49600 50.96000 41.20200
C  10.17700 54.00400 40.02500
C  6.92400 57.61700 39.83000
C  3.36400 54.65100 41.43300
N  8.08400 52.65300 40.42100
C  7.75300 51.34300 40.72100
C  8.87600 50.39200 40.53400
C  10.12400 51.40000 40.43700
C  9.44200 52.76700 40.26000
C  11.20700 51.33200 41.53500
C  8.76100 49.35200 39.33300
C  8.81300 49.83900 37.93900
H  7.41200 49.79100 37.24200
N  8.36600 55.67400 39.89700
C  9.69100 55.30300 39.77800
C  10.41500 56.44200 39.43000
C  9.54200 57.57200 39.32400
C  8.19000 56.98100 39.58000
C  11.91600 56.35200 39.21600
C  9.99400 59.00900 38.99000
O  11.17800 59.31600 38.88300
C  9.06000 60.10300 38.81700
N  5.37500 55.89700 40.47700
C  5.65500 57.14700 40.17200
C  4.49000 58.06700 40.55600
C  3.35200 57.02400 40.81900
C  4.09200 55.72000 40.95900
C  4.77600 58.94500 41.82800
C  2.27000 57.02800 39.65400
C  1.15200 58.00100 39.75000
N  5.18700 53.13100 41.16300
C  3.85900 53.33300 41.52900
C  3.24200 52.20900 42.06900
C  4.28800 51.20400 41.96300
C  5.38100 51.82500 41.39500
C  1.83800 51.98300 42.61300
C  4.58300 49.86700 42.42100
O  3.87500 48.97600 42.94100
C  5.96600 49.57200 41.67900
C  5.68600 48.58100 40.51200
O  5.11600 48.82900 39.46200
O  6.14700 47.36200 40.87400
C  5.90200 46.30600 39.89900
H  11.25700 53.84300 40.04600
H  6.86700 58.70100 39.71300
H  2.33400 54.69500 41.79400
H  8.94200 49.87300 41.49100
H  10.71400 51.24300 39.53500
H  11.19200 52.23400 42.14600
H  12.19900 51.06900 41.16800
H  10.90700 50.49000 42.15900
H  7.93200 48.64700 39.39000
H  9.71300 48.82600 39.40600
H  9.44800 49.27400 37.25700
H  9.11300 50.88700 37.93600
H  12.45000 56.63100 40.12400
H  12.09600 56.89500 38.28800
H  12.22900 55.33800 38.97000
H  8.68000 60.43500 39.78300
H  8.19700 59.75100 38.25100
H  9.47200 60.95600 38.27900
H  4.26300 58.71000 39.70500
H  2.87900 57.22300 41.78100
H  4.27100 58.60300 42.73100
H  4.51400 59.97800 41.60000
H  5.85000 58.89800 42.00700
H  1.84500 56.03500 39.50800
H  2.80100 57.16800 38.71200
H  1.21300 58.71300 38.92700
H  1.08800 58.34300 40.78300
H  0.15500 57.58000 39.61500
H  1.41800 51.06400 42.20500
H  1.25100 52.75000 42.10900
H  1.75500 51.95700 43.70000
H  6.65300 49.04900 42.34300
H  4.91300 46.34300 39.44100
H  6.12700 45.33900 40.34700
H  6.60900 46.46000 39.08400
Mg -5.23700 24.99100 25.79600
C  -3.53600 26.41800 28.49100
C  -6.49700 22.61900 27.93900
C  -6.28900 23.19200 23.10300
C  -3.12300 26.89000 23.57400
N  -4.83500 24.41000 28.02400
C  -4.25600 25.21700 28.89900
C  -4.61700 24.87500 30.34500
C  -5.39400 23.50900 30.12100
C  -5.62900 23.49600 28.59200
C  -4.54900 22.31000 30.53500
C  -5.54800 25.97200 31.02500
C  -5.47100 26.08300 32.55700
H  -4.88800 24.91700 33.41200
N  -6.35300 23.29500 25.53300
C  -6.80100 22.46900 26.57100
C  -7.71500 21.55600 26.01100
C  -7.66900 21.65900 24.59900
C  -6.72400 22.78000 24.37900
C  -8.57500 20.59700 26.84400
C  -8.33500 20.80300 23.44000
O  -8.27700 21.24300 22.33500
C  -9.27700 19.52600 23.69700
N  -4.70900 25.00200 23.61500
C  -5.38600 24.18700 22.70900
C  -4.93400 24.47400 21.25300
C  -3.98200 25.71900 21.42400
C  -3.92000 25.91500 22.94600
C  -4.29500 23.15800 20.70600
C  -4.57900 27.04800 20.78200
C  -3.60700 28.20500 20.37700
N  -3.81400 26.49600 25.93400
C  -3.02400 27.14400 25.00300
C  -2.22800 28.17100 25.69800
C  -2.44800 27.95400 27.07700
C  -3.30900 26.89100 27.16600
C  -1.41400 29.28100 25.09700
C  -1.97200 28.34800 28.41500
O  -1.15300 29.15500 28.86600
C  -2.78700 27.41300 29.45300
C  -1.76500 26.69500 30.29900
O  -0.89300 25.90400 29.95100
O  -2.04600 27.09600 31.55900
C  -0.98600 26.64000 32.51200
H  -7.08300 22.09800 28.69900
H  -6.65800 22.76900 22.16600
H  -2.59700 27.66100 23.00600
H  -3.66600 24.82600 30.87400
H  -6.37500 23.48400 30.59400
H  -5.11300 21.66400 31.20700
H  -3.60900 22.61300 30.99700
H  -4.26100 21.64200 29.72300
H  -6.58600 25.76700 30.76600
H  -5.32300 26.95600 30.61400
H  -6.39700 26.43800 33.00900
H  -4.83300 26.94800 32.73600
H  -9.58300 21.00000 26.74500
H  -8.41000 20.52000 27.91900
H  -8.61000 19.59500 26.41700
H  -9.46600 19.17500 22.68300
H  -10.25500 19.86400 24.03900
H  -8.73800 18.84400 24.35600
H  -5.83700 24.71900 20.69200
H  -3.01800 25.48600 20.97000
H  -4.26300 22.41900 21.50600
H  -3.29400 23.38800 20.34200
H  -4.89100 22.68200 19.92700
H  -5.27200 27.58000 21.43400
H  -5.18300 26.68700 19.95000
H  -4.03200 28.49100 19.41500
H  -2.59400 27.80600 20.31900
H  -3.70300 29.02500 21.08900
H  -1.57800 30.20200 25.65700
H  -1.67200 29.53300 24.06900
H  -0.34000 29.09400 25.08300
H  -3.40600 28.15500 29.95600
H  -0.36300 27.46700 32.85200
H  -0.33800 25.80800 32.23500
H  -1.51500 26.21900 33.36700

