158

Mg 16.63700 51.45600 26.32100
C  18.50500 49.97700 28.89900
C  14.45900 52.63600 28.78100
C  14.78300 52.71800 23.92600
C  18.97900 50.18000 24.03800
N  16.35700 51.07200 28.50000
C  17.32800 50.60200 29.33100
C  17.06600 50.98300 30.85200
C  15.56400 51.41400 30.77400
C  15.44100 51.71400 29.24200
C  14.50100 50.38500 31.23500
C  18.05900 52.11400 31.33100
C  18.59600 51.96700 32.78300
H  17.75600 51.12700 33.74600
N  14.83200 52.44700 26.33300
C  14.09500 52.92400 27.42500
C  12.91700 53.66900 26.95100
C  13.05000 53.75600 25.59700
C  14.28700 52.94000 25.23800
C  12.01800 54.33700 27.97500
C  12.10800 54.39600 24.60600
O  12.37200 54.39500 23.41200
C  10.84900 54.91300 25.01300
N  16.78200 51.36700 24.26300
C  15.98300 52.15100 23.50300
C  16.39700 52.08000 22.05600
C  17.83400 51.41900 22.11200
C  17.90000 50.95100 23.55900
C  15.39800 51.42400 21.02100
C  19.06200 52.37800 21.78400
C  20.35700 51.68400 21.34400
N  18.34200 50.17800 26.32000
C  19.18100 49.77400 25.35200
C  20.30400 49.04200 25.93500
C  20.01700 49.03600 27.31400
C  18.82800 49.74600 27.51200
C  21.53200 48.51900 25.21600
C  20.47700 48.51600 28.58400
O  21.46800 47.78300 28.82700
C  19.49600 49.24000 29.71400
C  19.03900 48.33100 30.84000
O  18.22300 47.41700 30.75900
O  19.87200 48.52400 31.89700
C  19.99100 47.49600 32.87900
H  13.90200 52.94800 29.66700
H  14.29400 53.35200 23.18400
H  19.76600 49.94800 23.31800
H  17.12700 50.09700 31.48400
H  15.45200 52.31600 31.37500
H  13.85400 50.83100 31.99100
H  14.93500 49.54900 31.78400
H  13.97200 49.93200 30.39700
H  17.52000 53.06100 31.33000
H  18.81200 52.10900 30.54300
H  18.67300 53.01700 33.06200
H  19.63400 51.63200 32.80800
H  12.28800 53.97500 28.96700
H  10.98800 54.03600 27.78500
H  12.09600 55.42200 27.92200
H  11.04300 55.81600 25.59100
H  10.35900 54.34200 25.80200
H  10.18500 54.93400 24.14900
H  16.69400 53.08600 21.75900
H  17.83300 50.47600 21.56500
H  15.04400 50.45700 21.37900
H  16.10800 51.20000 20.22500
H  14.65300 52.05900 20.54100
H  19.28500 52.87400 22.72900
H  18.75800 53.05400 20.98400
H  21.07000 51.84100 22.15300
H  20.71100 52.15200 20.42600
H  20.30600 50.61000 21.16500
H  21.82200 49.15900 24.38300
H  21.28700 47.48900 24.95700
H  22.33800 48.52200 25.95000
H  20.15100 50.01500 30.11300
H  20.46500 46.54600 32.63200
H  19.02900 47.19800 33.29500
H  20.51400 47.96200 33.71400
Mg -8.12000 39.19500 39.96700
C  -7.73300 35.87400 38.94600
C  -4.79000 39.76500 39.13900
C  -8.68900 42.56000 39.73100
C  -11.49600 38.66200 40.24500
N  -6.52700 38.06000 39.02800
C  -6.53600 36.67800 38.86000
C  -5.12000 36.21600 38.49000
C  -4.14300 37.37900 38.95600
C  -5.18300 38.48300 39.07200
C  -3.38400 37.10800 40.26400
C  -4.95100 35.84300 37.00500
C  -5.29800 36.96400 35.99400
H  -6.53500 36.74800 35.04800
N  -6.92100 40.96100 39.50900
C  -5.59500 40.94300 39.31600
C  -5.06900 42.26900 39.17400
C  -6.22300 43.16700 39.15100
C  -7.35400 42.23700 39.49700
C  -3.69200 42.70000 38.82600
C  -6.16200 44.67200 38.79400
O  -5.10200 45.31300 38.61100
C  -7.51000 45.38000 38.58900
N  -9.78300 40.47200 39.96900
C  -9.74800 41.80800 40.03700
C  -11.20600 42.31900 40.39600
C  -11.95800 41.10600 40.90400
C  -11.07300 39.95800 40.22900
C  -11.28200 43.53400 41.29000
C  -13.49800 40.93900 40.66200
C  -14.36200 40.46500 41.87100
N  -9.36600 37.55100 39.81700
C  -10.72600 37.50300 40.02500
C  -11.15000 36.09700 40.03000
C  -10.05000 35.47400 39.48100
C  -8.99000 36.40000 39.38800
C  -12.59800 35.55300 40.06600
C  -9.53600 34.22900 39.05600
O  -10.03300 33.11400 39.03400
C  -7.99400 34.38800 38.72100
C  -7.07200 33.59700 39.47700
O  -6.76000 33.77600 40.64400
O  -6.56200 32.57100 38.62100
C  -5.56800 31.63400 39.15400
H  -3.72500 39.97000 39.01500
H  -8.92300 43.62700 39.71700
H  -12.53800 38.36100 40.36600
H  -4.81500 35.37900 39.11700
H  -3.55900 37.67800 38.08600
H  -3.39100 36.06900 40.59300
H  -3.67500 37.76100 41.08700
H  -2.36400 37.48500 40.19700
H  -5.53200 34.92600 36.90500
H  -3.89100 35.61100 36.89800
H  -4.39300 37.15400 35.41700
H  -5.42300 37.89100 36.55400
H  -2.97300 41.88100 38.79600
H  -3.33900 43.38500 39.59700
H  -3.80400 43.22100 37.87400
H  -7.94500 45.55900 39.57300
H  -8.04600 44.65900 37.97100
H  -7.34100 46.30600 38.04100
H  -11.55700 42.53300 39.38600
H  -11.78200 40.96400 41.97000
H  -12.06700 43.45800 42.04100
H  -11.45700 44.46100 40.74300
H  -10.39500 43.52300 41.92300
H  -13.75900 40.26300 39.84800
H  -13.83100 41.95700 40.46100
H  -14.68300 39.42800 41.78300
H  -15.32000 40.98500 41.91900
H  -13.85000 40.52400 42.83100
H  -13.12900 36.38600 39.60700
H  -13.05700 35.15400 40.97000
H  -12.63100 34.73900 39.34200
H  -7.87300 34.15200 37.66300
H  -4.67600 31.66800 38.52900
H  -5.91100 30.59900 39.16300
H  -5.20000 31.97900 40.12000

