158

Mg -1.56100 18.10700 26.87300
C  -2.34700 15.90600 29.61400
C  -2.10500 20.80000 28.99300
C  -1.53600 20.18400 24.26000
C  -2.14600 15.43200 24.79400
N  -2.20200 18.25500 29.04300
C  -2.34600 17.31400 29.96800
C  -2.30300 17.86800 31.41200
C  -2.64600 19.37700 31.14200
C  -2.22300 19.50800 29.66200
C  -4.19600 19.68300 31.16600
C  -1.05600 17.65500 32.35700
C  -1.39500 17.11700 33.70200
H  -0.29700 16.91700 34.73800
N  -1.73100 20.18800 26.67400
C  -1.77300 21.15200 27.68900
C  -1.43600 22.44100 27.15400
C  -1.30400 22.35300 25.75000
C  -1.42500 20.84000 25.53000
C  -1.46900 23.57900 28.02200
C  -0.94200 23.37200 24.68800
O  -0.87700 23.08400 23.48200
C  -0.63800 24.71600 25.12300
N  -1.86700 17.77600 24.81500
C  -1.81700 18.86200 23.91500
C  -1.97300 18.34900 22.48000
C  -2.05100 16.77400 22.67400
C  -2.19300 16.66900 24.16100
C  -3.25400 18.82900 21.67100
C  -0.72600 16.03000 22.16800
C  -0.89700 14.53600 21.59100
N  -1.88500 16.01200 27.11500
C  -2.04900 15.09500 26.13400
C  -2.33500 13.80200 26.88900
C  -2.37700 14.09800 28.24800
C  -2.14500 15.48400 28.30200
C  -2.68100 12.51100 26.12100
C  -2.62800 13.47500 29.48000
O  -2.69500 12.30800 29.86800
C  -2.47900 14.69000 30.46200
C  -1.28100 14.44700 31.33200
O  -0.08800 14.75900 31.01000
O  -1.54600 13.68600 32.37700
C  -0.33500 13.19700 33.12200
H  -2.13800 21.61000 29.72500
H  -1.50600 20.80300 23.36100
H  -2.46200 14.59900 24.16300
H  -3.11200 17.46900 32.02400
H  -2.03000 20.09500 31.68400
H  -4.57700 19.77400 30.14900
H  -4.33800 20.68000 31.58300
H  -4.77400 18.94500 31.72300
H  -0.72700 18.65000 32.65500
H  -0.23700 17.09500 31.90500
H  -1.94600 16.18800 33.55400
H  -2.09800 17.84200 34.11100
H  -1.49400 23.31800 29.08000
H  -2.39700 24.07300 27.73700
H  -0.56000 24.16500 27.88700
H  -0.59000 25.47300 24.34000
H  0.30900 24.57300 25.64300
H  -1.35100 25.08400 25.86000
H  -1.18400 18.72200 21.82700
H  -2.92600 16.31500 22.21300
H  -3.50600 19.75600 22.18500
H  -3.98500 18.03300 21.81400
H  -3.06900 19.09500 20.63100
H  0.01200 15.86700 22.95300
H  -0.29100 16.62700 21.36700
H  -0.27000 13.84600 22.15500
H  -0.57300 14.35000 20.56700
H  -1.96300 14.31000 21.61100
H  -3.44600 12.69300 25.36500
H  -3.02400 11.74400 26.81600
H  -1.79000 12.22400 25.56300
H  -3.29600 14.72200 31.18300
H  -0.61900 13.29700 34.16900
H  0.55900 13.76900 32.87700
H  -0.21600 12.14700 32.85600
Mg 16.18800 52.20600 26.29800
C  18.19300 51.37800 29.09300
C  13.65600 52.93000 28.57300
C  14.52300 53.28000 23.78900
C  18.79400 51.08800 24.25500
N  16.01800 52.29600 28.63200
C  16.91700 51.79300 29.49900
C  16.32600 51.93100 30.99700
C  14.75200 52.17600 30.73100
C  14.74000 52.46900 29.24300
C  13.88200 50.95800 31.17100
C  16.95200 53.23300 31.62000
C  17.53900 52.99500 33.09600
H  16.60600 52.26200 34.12700
N  14.31300 52.99300 26.13500
C  13.44500 53.23000 27.13900
C  12.28800 53.85400 26.59400
C  12.54500 54.06000 25.24400
C  13.84200 53.47700 24.99400
C  11.13500 54.45800 27.46100
C  11.75700 54.86600 24.16000
O  12.07200 54.93000 22.98300
C  10.45300 55.38600 24.50600
N  16.66200 52.12900 24.30200
C  15.76700 52.70600 23.40500
C  16.29300 52.63200 21.95500
C  17.72300 52.10100 22.20000
C  17.74200 51.74900 23.72100
C  15.33700 51.80300 20.88500
C  18.88100 53.12000 21.83900
C  20.22300 52.50000 21.47300
N  18.05500 51.29900 26.54900
C  18.98100 50.95200 25.61800
C  20.16800 50.47900 26.31200
C  19.87200 50.64500 27.66000
C  18.61300 51.20100 27.76000
C  21.29600 49.87000 25.70800
C  20.41700 50.50500 29.05100
O  21.49500 50.07400 29.48200
C  19.35100 51.01700 29.99800
C  18.98400 49.81300 30.83200
O  18.28000 48.86900 30.45200
O  19.37800 50.07100 32.10500
C  18.67400 49.20100 33.02900
H  12.75400 53.18000 29.13600
H  14.03000 53.66900 22.89500
H  19.55300 50.79300 23.52700
H  16.50100 50.98800 31.51500
H  14.34300 53.09500 31.14900
H  13.08200 50.73100 30.46700
H  13.40100 51.20900 32.11600
H  14.45400 50.03600 31.28000
H  16.21500 54.03200 31.69900
H  17.77800 53.64400 31.03900
H  17.85400 53.94700 33.52300
H  18.44900 52.39800 33.03700
H  11.14100 54.12400 28.49900
H  10.20800 54.11800 26.99900
H  11.18600 55.54400 27.53500
H  9.78400 55.65600 23.68800
H  10.50700 56.23500 25.18800
H  9.97900 54.51000 24.94700
H  16.30200 53.63100 21.51800
H  17.86100 51.21000 21.58800
H  14.64400 51.17200 21.44100
H  15.93000 51.31900 20.10900
H  14.71200 52.58500 20.45300
H  19.15200 53.79400 22.65000
H  18.58900 53.79400 21.03400
H  20.09800 51.56500 20.92600
H  20.77400 52.30900 22.39400
H  20.79900 53.17800 20.84400
H  21.02500 49.07200 25.01600
H  21.92900 49.44600 26.48800
H  21.86200 50.58200 25.10800
H  19.65700 51.80800 30.68300
H  18.89800 49.76100 33.93600
H  19.04300 48.18700 33.18400
H  17.62700 49.15300 32.72700

