158

Mg -1.92500 17.13500 25.59600
C  -2.03900 15.08000 28.45600
C  -2.79200 19.73000 27.53500
C  -1.91700 18.97600 22.81400
C  -1.50500 14.22100 23.65400
N  -2.23200 17.26500 27.75100
C  -2.23700 16.37000 28.73100
C  -2.53300 17.01200 30.19700
C  -2.93300 18.46100 29.74300
C  -2.58700 18.54400 28.23400
C  -4.41700 18.86100 29.97000
C  -1.30400 16.89900 31.12700
C  -1.52000 16.15600 32.45100
H  -2.22500 16.87300 33.58000
N  -2.20400 19.11900 25.26600
C  -2.54600 20.05300 26.23200
C  -2.49000 21.35500 25.55600
C  -2.20800 21.18100 24.17700
C  -1.99700 19.70100 24.06000
C  -2.63800 22.72200 26.32500
C  -1.99600 22.22000 23.06500
O  -2.09200 21.97400 21.87400
C  -1.76200 23.70700 23.45700
N  -1.75700 16.66000 23.54900
C  -1.86000 17.60600 22.55900
C  -1.80700 16.99000 21.12100
C  -1.33900 15.59100 21.41800
C  -1.58800 15.45000 22.94600
C  -3.02300 17.17600 20.25500
C  0.09500 15.39900 20.88900
C  1.16100 16.04400 21.80600
N  -1.78600 15.02000 25.98500
C  -1.62300 13.95100 25.07700
C  -1.53400 12.71300 25.73500
C  -1.76700 13.05300 27.08200
C  -1.86800 14.43300 27.17900
C  -1.38500 11.29800 25.20500
C  -1.92100 12.53700 28.45700
O  -1.94100 11.37000 28.82100
C  -1.97500 13.77600 29.35300
C  -0.65600 13.70700 30.10200
O  0.40800 14.20500 29.72200
O  -0.87600 12.91900 31.22100
C  0.24800 12.65900 32.19100
H  -3.14800 20.55100 28.16100
H  -1.90800 19.50800 21.86100
H  -1.23900 13.37400 23.01700
H  -3.36900 16.54800 30.72100
H  -2.27500 19.19300 30.21100
H  -4.41300 19.87400 30.37400
H  -4.91900 18.23900 30.71100
H  -4.92600 18.87000 29.00600
H  -1.05200 17.89800 31.48300
H  -0.46800 16.43200 30.60700
H  -0.55100 15.80000 32.80100
H  -2.14500 15.28700 32.24500
H  -2.72200 22.53100 27.39500
H  -3.40700 23.37900 25.92000
H  -1.66400 23.18100 26.15700
H  -1.83200 24.23200 22.50400
H  -0.77300 23.91600 23.86600
H  -2.64400 24.09700 23.96400
H  -0.96300 17.53300 20.69500
H  -1.94600 14.80100 20.97700
H  -2.64200 17.56500 19.31000
H  -3.67700 17.90100 20.74000
H  -3.51300 16.21500 20.10000
H  0.29800 15.69300 19.85900
H  0.38900 14.34900 20.86200
H  0.68300 16.85200 22.35900
H  2.04300 16.44700 21.30900
H  1.47800 15.30200 22.53900
H  -0.87500 10.65900 25.92600
H  -0.71000 11.31300 24.34900
H  -2.40300 10.92800 25.08800
H  -2.79100 13.61200 30.05600
H  0.00300 11.71700 32.68100
H  0.22900 13.46800 32.92000
H  1.25500 12.61300 31.77600
Mg 3.22600 -0.91100 44.03200
C  5.61000 1.57900 43.72700
C  0.93100 1.07000 42.53500
C  1.09000 -3.56600 43.95600
C  5.92900 -3.24100 44.78600
N  3.27800 1.13400 43.08300
C  4.27600 2.00900 43.29000
C  3.90200 3.41700 42.90900
C  2.37300 3.22300 42.67700
C  2.15600 1.66700 42.74700
C  1.38900 3.97900 43.61600
C  4.74600 3.98300 41.71700
C  4.62700 3.24900 40.33600
H  5.78400 2.37900 39.80400
N  1.25100 -1.19400 43.42200
C  0.45500 -0.22700 42.86600
C  -0.86900 -0.80300 42.54900
C  -0.84700 -2.14900 43.01900
C  0.56000 -2.33300 43.55300
C  -1.96200 -0.08000 41.95500
C  -1.95700 -3.17000 42.87100
O  -2.99300 -2.83700 42.33200
C  -1.92000 -4.62900 43.45200
N  3.45500 -3.10800 44.28800
C  2.38600 -3.93100 44.37400
C  2.77300 -5.35300 44.69300
C  4.29300 -5.19900 45.03200
C  4.62500 -3.77500 44.60700
C  1.93900 -5.98200 45.77200
C  5.16600 -6.36000 44.40600
C  6.23800 -7.05500 45.28000
N  5.30500 -0.92200 44.35400
C  6.31800 -1.83900 44.61900
C  7.61000 -1.28800 44.67000
C  7.33000 0.10600 44.36500
C  5.98800 0.23700 44.10900
C  8.92500 -2.03700 44.79900
C  7.99000 1.41900 44.26900
O  9.13500 1.80600 44.46000
C  6.87900 2.36300 43.83000
C  6.72400 3.40700 44.89400
O  7.11000 4.56900 44.76800
O  6.19900 2.89300 46.06600
C  6.55800 3.59100 47.31200
H  0.15300 1.80700 42.32600
H  0.46300 -4.45900 43.94100
H  6.68500 -3.99600 45.01000
H  3.99800 4.18400 43.67700
H  2.19900 3.55400 41.65300
H  1.91900 4.39100 44.47500
H  0.67300 3.28300 44.05400
H  0.78600 4.68800 43.05000
H  5.77400 4.26000 41.95100
H  4.35100 4.99400 41.61600
H  4.54200 4.01600 39.56700
H  3.66400 2.74400 40.39900
H  -2.13400 -0.16500 40.88200
H  -1.74300 0.98600 41.90600
H  -2.84800 -0.12500 42.58800
H  -1.34900 -5.25000 42.76200
H  -2.95300 -4.96300 43.54200
H  -1.50200 -4.51600 44.45300
H  2.68700 -6.00400 43.82400
H  4.41700 -5.32500 46.10700
H  1.20900 -6.68300 45.36800
H  1.31200 -5.24500 46.27300
H  2.54900 -6.60000 46.43200
H  5.70300 -5.89600 43.57800
H  4.54600 -7.03900 43.81900
H  6.13100 -8.13300 45.40500
H  6.10100 -6.68900 46.29700
H  7.22500 -6.76100 44.92300
H  9.69900 -1.54100 44.21400
H  8.88600 -3.02400 44.33900
H  9.21800 -2.14900 45.84300
H  7.32300 2.79300 42.93200
H  5.65500 4.03000 47.73600
H  7.21500 4.45900 47.25600
H  6.92100 2.96400 48.12600

