158

Mg 42.47900 41.78500 26.92000
C  41.81900 44.33300 29.24600
C  43.37700 39.76700 29.50900
C  43.17600 39.51600 24.65000
C  41.82200 44.07500 24.24700
N  42.65000 42.07300 29.03100
C  42.18300 43.10200 29.81900
C  42.17900 42.75400 31.28700
C  42.92600 41.38000 31.31000
C  42.97600 41.03600 29.84800
C  44.25500 41.33100 32.02500
C  40.72800 42.87400 31.85600
C  40.44800 43.69800 33.05600
H  39.87800 43.02800 34.33900
N  43.18000 39.89400 27.06200
C  43.43700 39.18500 28.23900
C  43.79200 37.78700 27.86800
C  43.75500 37.69100 26.43600
C  43.33500 39.08100 25.96500
C  43.98400 36.76600 28.87700
C  44.05500 36.49000 25.52000
O  43.93900 36.46700 24.27500
C  44.43500 35.10700 26.10900
N  42.47300 41.81700 24.68200
C  42.77700 40.68600 24.03200
C  42.58600 40.77600 22.51500
C  42.04500 42.27900 22.35600
C  42.05600 42.78300 23.85600
C  43.88700 40.53800 21.74300
C  40.65600 42.51100 21.62600
C  39.55700 41.70800 22.29500
N  42.05400 43.88400 26.73300
C  41.70500 44.59000 25.57500
C  41.34500 45.90600 25.96500
C  41.29900 45.82200 27.44100
C  41.73600 44.56400 27.80300
C  41.05700 47.07400 25.01100
C  40.99500 46.59900 28.64400
O  40.55800 47.72600 28.83500
C  41.27300 45.62900 29.86600
C  42.28900 46.31300 30.72300
O  43.42500 46.71200 30.43000
O  41.69300 46.39200 31.99500
C  42.38400 47.28400 33.00600
H  43.56700 39.08900 30.34400
H  43.33000 38.64500 24.01000
H  41.58600 44.82100 23.48500
H  42.77000 43.55200 31.73600
H  42.19500 40.73500 31.79700
H  44.37800 40.72300 32.92100
H  44.53300 42.36300 32.23900
H  44.99600 40.98800 31.30400
H  40.20200 41.92900 31.99200
H  40.11000 43.29000 31.06100
H  39.73700 44.49300 32.82700
H  41.45100 44.05600 33.28600
H  43.96600 37.13000 29.90400
H  44.94100 36.27000 28.71400
H  43.19400 36.04500 28.67200
H  43.50300 34.56400 26.26400
H  44.95200 35.12200 27.06900
H  45.17900 34.56500 25.52500
H  41.87300 40.04800 22.12700
H  42.78500 42.86000 21.80500
H  44.73800 40.27200 22.36900
H  44.18400 41.48400 21.29100
H  43.72000 39.79700 20.96100
H  40.72400 42.12200 20.61000
H  40.43600 43.57800 21.64500
H  39.25900 40.94100 21.58000
H  38.73500 42.31700 22.67200
H  39.86100 41.23300 23.22800
H  40.32100 47.84400 25.24300
H  40.73300 46.76600 24.01700
H  41.99500 47.61600 24.89100
H  40.35200 45.50200 30.43600
H  43.23300 47.78400 32.54100
H  42.74700 46.69600 33.84900
H  41.60700 47.90300 33.45500
Mg -1.20700 34.87000 27.47300
C  -2.89400 33.09800 29.95900
C  -0.05400 37.07500 29.81300
C  -0.12200 36.88100 24.97300
C  -2.52200 32.67300 25.06300
N  -1.57500 35.08900 29.71200
C  -2.17800 34.19500 30.52200
C  -2.06600 34.67000 32.00500
C  -1.30800 36.01300 31.82600
C  -0.87900 36.06000 30.38700
C  -2.12800 37.29400 32.31300
C  -1.32200 33.61900 32.91600
C  -1.92700 33.44700 34.31600
H  -0.97600 33.43300 35.46100
N  -0.07500 36.57800 27.43100
C  0.29500 37.32900 28.50200
C  1.10800 38.43300 28.04300
C  1.01400 38.51500 26.65100
C  0.30600 37.27100 26.28200
C  1.85300 39.36500 29.02400
C  1.70200 39.44300 25.62900
O  1.40300 39.44300 24.44400
C  2.96800 40.23700 25.98100
N  -1.27300 34.76400 25.35900
C  -0.82900 35.78000 24.49500
C  -1.34300 35.62600 23.10900
C  -1.77700 34.13900 23.16000
C  -1.89200 33.85000 24.60100
C  -2.56300 36.57400 22.87400
C  -0.98000 33.12900 22.31800
C  0.31700 32.55800 22.82800
N  -2.45900 33.27100 27.42600
C  -2.82400 32.40100 26.40700
C  -3.71900 31.41000 26.92200
C  -3.70400 31.51300 28.31900
C  -3.02000 32.74700 28.60100
C  -4.38500 30.35700 25.98800
C  -4.09300 30.94400 29.62200
O  -4.73100 29.89300 29.85100
C  -3.66800 31.95700 30.76900
C  -4.82400 32.41300 31.51000
O  -5.76600 33.09200 31.08500
O  -4.67800 31.99700 32.81100
C  -5.81500 32.42300 33.66200
H  0.30100 37.73100 30.61100
H  0.14700 37.59200 24.19000
H  -2.77900 31.98100 24.25900
H  -3.09800 34.77600 32.34000
H  -0.33600 36.04800 32.31800
H  -1.40900 37.99800 32.73200
H  -2.83400 37.05900 33.10900
H  -2.72400 37.72200 31.50700
H  -0.40300 34.14500 33.17400
H  -1.26900 32.68300 32.36000
H  -2.39200 32.46100 34.30400
H  -2.81500 34.07600 34.37500
H  2.93200 39.21700 29.07900
H  1.54400 39.08500 30.03100
H  1.58500 40.37100 28.70100
H  2.71500 40.90300 26.80500
H  3.32000 40.92300 25.21100
H  3.86500 39.71300 26.31300
H  -0.59800 35.85300 22.34700
H  -2.80800 34.01600 22.82600
H  -2.50000 37.42000 23.55900
H  -3.55300 36.11900 22.87900
H  -2.59600 37.03700 21.88800
H  -0.77300 33.55100 21.33400
H  -1.66300 32.29800 22.14300
H  0.76700 33.18700 23.59600
H  0.94000 32.47100 21.93800
H  0.06700 31.56300 23.19600
H  -4.50400 29.43600 26.55900
H  -3.76900 30.04300 25.14500
H  -5.32500 30.65800 25.52500
H  -2.93400 31.41500 31.36500
H  -6.58400 33.08200 33.26000
H  -5.37800 32.73200 34.61200
H  -6.33900 31.54300 34.03600

