158

Mg 1.69800 7.46500 26.62900
C  2.27700 9.74700 29.39600
C  1.84900 4.93100 28.95600
C  1.26200 5.30100 24.13000
C  1.98100 10.14200 24.40300
N  2.19800 7.35300 28.96200
C  2.28700 8.42800 29.91400
C  2.05000 7.91500 31.32600
C  2.01100 6.39900 31.12900
C  2.04200 6.18700 29.59100
C  3.12200 5.56900 31.88700
C  0.80600 8.58600 31.95200
C  1.02400 9.07800 33.34700
H  2.00300 8.35600 34.26800
N  1.53600 5.44300 26.52500
C  1.65600 4.56000 27.58900
C  1.33300 3.22900 27.10300
C  1.05600 3.29800 25.71400
C  1.34500 4.73300 25.36700
C  1.33400 2.07200 28.00000
C  0.60100 2.33200 24.69200
O  0.51800 2.54900 23.52700
C  0.40500 0.90600 25.26400
N  1.90700 7.64500 24.52900
C  1.46800 6.62700 23.69900
C  1.41200 7.08400 22.22400
C  1.55400 8.63600 22.37800
C  1.85600 8.85700 23.86900
C  2.55000 6.36200 21.46900
C  0.30300 9.52200 21.97900
C  0.64600 10.80500 21.27300
N  2.07300 9.53600 26.80800
C  2.14100 10.46800 25.85000
C  2.17200 11.84900 26.47100
C  2.29800 11.57400 27.78400
C  2.25200 10.15600 27.98000
C  2.17300 13.14700 25.75200
C  2.49000 12.14000 29.12000
O  2.60600 13.29800 29.45400
C  2.36800 11.00600 30.11300
C  3.52100 11.14200 31.07700
O  4.64800 10.81600 30.77000
O  3.10900 11.72400 32.20900
C  4.20100 12.13600 33.12600
H  1.85700 4.16700 29.73500
H  0.99900 4.75000 23.22500
H  1.91100 10.99700 23.72800
H  2.97600 8.26100 31.78500
H  1.01200 6.01300 31.33000
H  3.79500 5.06800 31.19100
H  2.64400 4.72100 32.37600
H  3.64500 6.17000 32.63100
H  0.05700 7.81100 32.11900
H  0.27500 9.32300 31.35000
H  0.00900 9.11900 33.74400
H  1.39000 10.10400 33.37600
H  0.32800 1.68700 28.16700
H  1.81700 2.19800 28.96900
H  1.98900 1.29100 27.61500
H  1.36800 0.45300 25.49900
H  -0.16100 0.39800 24.48200
H  -0.21800 1.04100 26.14800
H  0.49200 6.67900 21.80000
H  2.37100 8.97500 21.74000
H  2.26700 5.99300 20.48300
H  2.88100 5.47400 22.00800
H  3.33100 7.12200 21.44100
H  -0.24900 9.69300 22.90300
H  -0.43500 8.94700 21.42000
H  0.26200 11.65400 21.83800
H  0.29600 10.85100 20.24100
H  1.72500 10.91700 21.16800
H  2.70400 13.02200 24.80800
H  2.71500 13.95000 26.25000
H  1.12600 13.40800 25.59800
H  1.48600 11.20200 30.72400
H  3.78100 12.56700 34.03500
H  5.00300 12.72400 32.67900
H  4.61800 11.20600 33.51200
Mg 6.38000 57.25500 42.16800
C  5.22900 53.94200 42.25100
C  9.23600 56.17800 40.97300
C  7.16500 60.47900 41.78000
C  3.09300 58.34100 43.12900
N  6.94100 55.27600 41.39700
C  6.44600 54.08400 41.55000
C  7.36400 52.98400 40.86800
C  8.71600 53.69000 40.94300
C  8.26100 55.18200 41.13000
C  9.65100 53.24400 42.15100
C  6.89900 52.66000 39.45100
C  7.53700 51.41800 38.92600
H  6.63700 50.56100 38.02800
N  7.96900 58.18800 41.33400
C  9.15500 57.59500 40.94100
C  10.05000 58.60700 40.38800
C  9.43000 59.87100 40.59500
C  8.10100 59.53200 41.30700
C  11.35200 58.16800 39.76700
C  10.09800 61.17200 40.17200
O  11.18500 61.20300 39.61000
C  9.56500 62.57300 40.66400
N  5.26100 59.15600 42.33900
C  5.87500 60.31600 42.24500
C  4.94600 61.47200 42.61700
C  3.53600 60.82000 42.64900
C  3.97200 59.35100 42.71200
C  5.37700 62.33000 43.79000
C  2.64500 61.11100 41.40500
C  1.09900 61.05200 41.61300
N  4.47300 56.32600 42.62600
C  3.29800 56.86600 43.14200
C  2.39200 55.74300 43.41300
C  3.21900 54.59200 43.26100
C  4.37800 54.98000 42.62600
C  0.96300 55.83900 43.87700
C  3.14900 53.14100 43.31000
O  2.37100 52.30600 43.78900
C  4.55100 52.68900 42.70200
C  4.37600 51.58200 41.71100
O  3.87300 51.62500 40.61500
O  4.92900 50.49400 42.31000
C  4.91800 49.20800 41.60100
H  10.25900 55.86400 40.75600
H  7.35500 61.55400 41.80100
H  2.08600 58.56000 43.48900
H  7.19000 52.22500 41.63000
H  9.30200 53.57900 40.03000
H  9.30600 52.26000 42.46900
H  9.67900 53.90800 43.01500
H  10.64200 53.09600 41.72400
H  7.21600 53.54700 38.90300
H  5.81400 52.57300 39.51000
H  8.03200 50.86300 39.72200
H  8.49100 51.73900 38.50800
H  11.19800 57.81100 38.74900
H  11.80600 57.30300 40.25000
H  12.12200 58.94000 39.74100
H  8.58800 62.61700 40.18300
H  10.09200 63.45500 40.30000
H  9.43200 62.55900 41.74500
H  4.90100 62.08600 41.71800
H  3.03100 61.12400 43.56600
H  6.33700 61.98100 44.17000
H  4.67100 62.31600 44.62000
H  5.43200 63.36900 43.46300
H  2.98300 60.49300 40.57300
H  2.85800 62.13600 41.10300
H  0.57500 60.51000 40.82500
H  0.56200 61.99200 41.48400
H  0.83200 60.64400 42.58800
H  0.33400 56.16300 43.04800
H  0.92100 56.66100 44.59100
H  0.67200 54.93900 44.41900
H  5.24400 52.36000 43.47600
H  5.81000 49.18000 40.97500
H  4.10900 48.88400 40.94500
H  4.92000 48.41600 42.34900

