158

Mg 9.30600 47.56800 26.50900
C  7.36600 47.49400 29.48400
C  11.91500 48.77800 28.24000
C  10.92200 47.29800 23.68500
C  6.27100 46.72300 24.82900
N  9.45900 48.35000 28.54800
C  8.66400 47.99100 29.65700
C  9.28200 48.47500 30.97200
C  10.62600 49.05800 30.55400
C  10.67600 48.74200 29.02100
C  10.79000 50.61200 30.77800
C  9.42500 47.40200 32.13100
C  10.17600 47.86400 33.41000
H  9.61300 47.53900 34.84300
N  11.17600 48.05700 26.00600
C  12.22300 48.44000 26.86800
C  13.42100 48.37300 26.19300
C  13.15500 47.89900 24.80900
C  11.64500 47.79000 24.79700
C  14.74100 48.70900 26.93200
C  14.13600 47.63500 23.73100
O  13.82400 47.53500 22.55700
C  15.57500 47.69900 24.00900
N  8.72600 47.13100 24.47500
C  9.63900 46.86800 23.57600
C  8.98900 46.49200 22.22000
C  7.54800 46.08300 22.67400
C  7.51000 46.68100 24.07500
C  9.03800 47.63700 21.17700
C  7.25400 44.54400 22.61800
C  7.83500 43.52300 23.62800
N  7.24400 47.25300 27.03500
C  6.12900 46.90600 26.20400
C  4.97300 46.76800 26.98400
C  5.41200 46.89100 28.29200
C  6.76100 47.29600 28.27600
C  3.59000 46.36600 26.50900
C  5.03000 46.72800 29.66700
O  3.91800 46.39100 30.11900
C  6.26700 47.19300 30.51500
C  6.55000 46.07500 31.40100
O  7.36800 45.17800 31.17600
O  5.80900 46.17400 32.56500
C  6.24800 45.24400 33.62500
H  12.77800 49.16800 28.78400
H  11.61300 47.10700 22.86100
H  5.44900 46.33300 24.22500
H  8.59800 49.23900 31.34200
H  11.44000 48.50800 31.02500
H  11.62500 50.94100 31.39600
H  9.90400 50.89300 31.34800
H  10.78900 51.13800 29.82300
H  9.89300 46.52600 31.68200
H  8.42800 47.15200 32.49600
H  10.38200 48.93200 33.33800
H  11.16200 47.40800 33.49400
H  14.68700 48.98600 27.98500
H  15.35400 49.49600 26.49300
H  15.37700 47.82500 26.88200
H  15.79600 46.93800 24.75800
H  15.90100 48.60000 24.52800
H  16.22300 47.53700 23.14800
H  9.58200 45.64200 21.88300
H  6.79300 46.56300 22.05200
H  9.54500 48.56300 21.45000
H  8.04000 47.92700 20.85100
H  9.48000 47.25800 20.25500
H  7.47200 44.07400 21.65900
H  6.16800 44.45500 22.62100
H  8.33300 44.08700 24.41600
H  8.34300 42.61900 23.29200
H  6.95100 43.13200 24.13000
H  3.59900 45.76300 25.60000
H  2.96600 47.25900 26.48700
H  3.25000 45.64700 27.25400
H  5.83400 48.06500 31.00400
H  7.17700 45.58000 34.08600
H  6.42200 44.20000 33.36800
H  5.47000 45.25500 34.38900
Mg 0.51000 42.38200 26.88400
C  2.08100 42.41500 29.97400
C  -2.34800 41.23600 28.25500
C  -0.69200 41.72200 23.78600
C  3.64900 43.20500 25.37300
N  -0.02800 41.99000 28.83600
C  0.72700 42.15700 29.98800
C  -0.18100 41.96400 31.20100
C  -1.55500 41.35200 30.71400
C  -1.30400 41.59100 29.14100
C  -1.79000 39.90500 31.18300
C  -0.39400 43.25500 32.03100
C  -0.01200 43.11500 33.56800
H  -0.31200 41.84400 34.39900
N  -1.24600 41.60400 26.11400
C  -2.39600 41.23900 26.84700
C  -3.48500 40.82200 25.94900
C  -2.96000 40.92300 24.65100
C  -1.54500 41.45000 24.79300
C  -4.90300 40.37400 26.39900
C  -3.70500 40.73300 23.35400
O  -3.21500 41.04300 22.27300
C  -5.10400 40.22900 23.23800
N  1.31500 42.41900 24.87100
C  0.64700 42.14300 23.78700
C  1.43500 42.46400 22.53200
C  2.73500 43.12600 23.02000
C  2.52600 43.02700 24.57500
C  1.65500 41.25500 21.61200
C  2.95800 44.60300 22.48600
C  3.78200 44.73800 21.13800
N  2.42600 42.81000 27.51000
C  3.61000 43.04400 26.78800
C  4.75300 43.20000 27.73600
C  4.13100 42.99900 29.04400
C  2.80300 42.69600 28.82400
C  6.15900 43.51800 27.41100
C  4.36600 42.85500 30.51700
O  5.41200 42.93800 31.17700
C  3.02100 42.61500 31.23800
C  3.06800 41.34400 32.01000
O  2.92000 40.24900 31.51600
O  3.54000 41.55700 33.30700
C  3.74500 40.36600 34.23800
H  -3.27600 40.96600 28.76400
H  -1.11700 41.53400 22.79800
H  4.59100 43.62100 25.01100
H  0.42400 41.30600 31.82600
H  -2.41000 41.90700 31.09800
H  -2.77300 39.71100 31.61400
H  -0.95100 39.51700 31.76100
H  -1.93400 39.33100 30.26800
H  -1.37900 43.70800 31.91900
H  0.30800 43.95500 31.57700
H  -0.63200 43.87500 34.04500
H  1.04800 43.30700 33.73400
H  -5.73300 41.04500 26.17700
H  -4.81300 40.35900 27.48500
H  -5.05400 39.35000 26.05600
H  -5.26900 39.25700 23.70300
H  -5.30100 40.08300 22.17600
H  -5.92500 40.93000 23.38900
H  0.87700 43.27900 22.07200
H  3.57800 42.50700 22.71300
H  1.18700 41.51700 20.66400
H  1.06700 40.43200 22.01900
H  2.70900 40.98400 21.53600
H  3.41400 45.17300 23.29600
H  1.98100 45.06100 22.33600
H  3.23300 45.29600 20.37900
H  4.08600 43.78800 20.69900
H  4.68100 45.33200 21.30400
H  6.39200 43.23300 26.38400
H  6.82600 42.97600 28.08100
H  6.31400 44.57800 27.61000
H  2.82700 43.47900 31.87300
H  4.72000 40.38000 34.72400
H  3.62100 39.34100 33.88700
H  2.96300 40.54800 34.97500

