158

Mg 46.55800 25.26900 27.51100
C  47.49600 27.52300 29.90700
C  46.18400 22.87200 29.99000
C  45.94100 22.90200 25.20200
C  47.36000 27.53900 25.10900
N  47.01300 25.14200 29.65600
C  47.09900 26.27100 30.51000
C  47.03900 25.99600 31.99300
C  46.62200 24.42800 31.97500
C  46.70200 24.06900 30.45400
C  47.47100 23.45300 32.80200
C  46.07600 26.96900 32.82400
C  45.59300 26.50800 34.19500
H  45.91800 27.46400 35.44200
N  45.94400 23.19400 27.58800
C  45.84500 22.41700 28.68200
C  45.52900 21.02100 28.32400
C  45.40400 21.03500 26.96700
C  45.74500 22.43000 26.51100
C  45.40300 19.83700 29.34600
C  45.06800 19.91200 26.06400
O  44.81100 19.98100 24.86200
C  44.97000 18.57800 26.61300
N  46.61300 25.22500 25.42700
C  46.36800 24.12600 24.71700
C  46.39900 24.39800 23.15800
C  46.57600 25.94800 23.21800
C  46.89500 26.28200 24.71400
C  47.53700 23.68900 22.42000
C  45.35600 26.81100 22.74900
C  45.75100 28.04000 21.84900
N  47.32400 27.14000 27.42200
C  47.65200 27.95200 26.38400
C  48.19500 29.15100 26.81400
C  48.16000 29.10300 28.22500
C  47.62800 27.88300 28.53800
C  48.69000 30.15600 25.86500
C  48.42500 29.79700 29.47900
O  48.91100 30.95000 29.64900
C  47.88000 28.88500 30.56100
C  48.89700 28.61200 31.67300
O  49.79300 27.71600 31.71700
O  48.55000 29.49800 32.66700
C  49.23700 29.45400 33.96100
H  46.07300 22.11400 30.76800
H  45.73400 22.15700 24.43100
H  47.70000 28.18500 24.29700
H  47.98000 26.02100 32.54300
H  45.58000 24.24800 32.24000
H  48.03800 22.80100 32.13700
H  46.96200 22.69600 33.39800
H  48.08600 23.95500 33.54900
H  45.19300 27.17800 32.21900
H  46.62500 27.88600 33.03700
H  45.95800 25.51200 34.44200
H  44.50800 26.39800 34.19300
H  44.36300 19.52300 29.26900
H  45.61800 20.24900 30.33200
H  46.14900 19.05700 29.19400
H  44.20400 18.57100 27.38900
H  45.96400 18.52700 27.05800
H  44.65500 17.81800 25.89900
H  45.42200 24.18900 22.72100
H  47.52300 26.26200 22.78000
H  48.36300 24.28700 22.80800
H  47.45600 23.68800 21.33300
H  47.58900 22.65500 22.76100
H  44.90300 27.32300 23.59800
H  44.52600 26.23900 22.33500
H  46.77700 28.00000 21.48300
H  45.64400 28.94300 22.45100
H  45.16000 28.17200 20.94300
H  49.61400 29.72600 25.47900
H  48.86500 31.11200 26.35900
H  48.02100 30.32600 25.02200
H  46.93300 29.25600 30.95300
H  48.64400 28.71100 34.49300
H  49.22700 30.44700 34.41100
H  50.26200 29.08800 34.02700
Mg 4.57500 55.21800 41.00000
C  3.85000 51.81500 41.09100
C  7.81000 54.34000 40.05900
C  5.05500 58.41900 39.80200
C  1.15800 55.86000 41.58000
N  5.57700 53.33600 40.37500
C  5.10400 52.06600 40.62600
C  6.20500 51.00600 40.37900
C  7.50000 51.86600 40.28700
C  6.93700 53.25800 40.24900
C  8.47500 51.63900 41.50800
C  5.99200 49.97600 39.16100
C  5.56500 50.61400 37.81600
H  6.55700 50.57400 36.71900
N  6.17200 56.23500 40.16200
C  7.40600 55.70300 39.89700
C  8.29800 56.74700 39.51800
C  7.50200 57.94600 39.27200
C  6.17200 57.58700 39.75200
C  9.80600 56.48100 39.42700
C  8.04200 59.21700 38.73400
O  9.25700 59.29700 38.65700
C  7.19400 60.45900 38.45500
N  3.23300 56.83900 40.42300
C  3.72900 58.10300 40.16000
C  2.72900 59.18900 40.58300
C  1.43500 58.33000 40.98400
C  1.95400 56.90700 41.04000
C  3.23100 60.16400 41.67700
C  0.25200 58.37700 39.88700
C  -1.20700 58.32700 40.38000
N  2.89100 54.12900 41.50600
C  1.63300 54.51900 41.84200
C  0.86200 53.43100 42.34700
C  1.63400 52.28700 42.02000
C  2.89200 52.80700 41.53700
C  -0.51100 53.58100 42.93600
C  1.67700 50.85400 42.05000
O  0.85900 50.04300 42.32600
C  3.08400 50.48400 41.45900
C  3.01300 49.47100 40.36000
O  2.71200 49.74900 39.21300
O  3.34800 48.27800 40.83200
C  3.12500 47.17200 39.91600
H  8.78900 53.86700 39.94700
H  5.23300 59.46800 39.55300
H  0.12200 56.09900 41.83300
H  6.21100 50.43900 41.30900
H  7.94400 51.66300 39.31200
H  8.77400 52.56000 42.00800
H  9.45000 51.24900 41.21700
H  8.02600 50.91400 42.18600
H  5.28500 49.22100 39.50600
H  6.91600 49.43500 38.95700
H  5.21300 51.62400 38.02700
H  4.67100 50.08800 37.48100
H  10.30800 57.04100 40.21500
H  10.13400 56.57400 38.39200
H  10.08000 55.43700 39.57500
H  7.78500 61.13100 37.83300
H  7.09400 60.88400 39.45400
H  6.33800 60.10200 37.88300
H  2.58500 59.87900 39.75100
H  0.98600 58.70200 41.90500
H  4.22600 59.90100 42.03500
H  2.65400 60.15500 42.60200
H  3.21800 61.19000 41.30800
H  0.35100 57.48500 39.26800
H  0.38200 59.15200 39.13100
H  -1.74900 57.38100 40.39900
H  -1.79700 59.03000 39.79300
H  -1.34400 58.64900 41.41200
H  -1.03600 52.62700 42.89900
H  -1.04200 54.34100 42.36200
H  -0.50800 54.03100 43.92900
H  3.56300 49.96500 42.28900
H  2.10500 46.78900 39.94600
H  3.71000 46.43500 40.46700
H  3.55500 47.31600 38.92400

