158

Mg 47.44100 17.31500 28.73200
C  45.38300 17.31700 31.62200
C  49.74300 19.08500 30.42800
C  49.04700 17.59400 25.80400
C  44.65400 15.75500 27.02600
N  47.42000 18.36200 30.78900
C  46.56800 18.00200 31.81600
C  47.10800 18.47400 33.17400
C  48.48800 19.12000 32.71500
C  48.63400 18.80400 31.25200
C  48.61400 20.60700 33.16900
C  47.36200 17.39200 34.21300
C  46.92700 17.72500 35.62500
H  46.97600 19.19800 36.10900
N  49.15200 18.19300 28.22100
C  50.02800 18.84200 29.07000
C  51.20000 19.34700 28.33700
C  50.97600 18.85600 27.01400
C  49.73100 18.12300 26.96800
C  52.32200 20.24100 28.95300
C  51.90500 18.97500 25.78900
O  51.64700 18.49700 24.68700
C  53.20400 19.75100 25.90300
N  47.05100 16.48800 26.78000
C  47.86300 16.89200 25.71600
C  47.22500 16.52100 24.34400
C  45.90400 15.67600 24.81400
C  45.82300 16.03100 26.30100
C  46.81300 17.71500 23.50300
C  46.14200 14.16100 24.62100
C  45.14500 13.49300 23.61300
N  45.41900 16.70400 29.15400
C  44.38900 16.15200 28.37100
C  43.10700 16.14500 29.09700
C  43.50600 16.38100 30.38600
C  44.86800 16.73000 30.40300
C  41.76900 15.70300 28.47900
C  43.02600 16.51800 31.65500
O  41.88700 16.42200 32.09500
C  44.28200 16.99500 32.53200
C  43.84700 18.07400 33.44700
O  43.73000 19.27900 33.22500
O  43.35000 17.44100 34.53700
C  42.61400 18.35200 35.50900
H  50.57500 19.45300 31.03100
H  49.41900 17.82700 24.80400
H  43.80100 15.32600 26.49600
H  46.42900 19.25800 33.51100
H  49.34300 18.60500 33.15400
H  49.61700 20.67500 33.58800
H  47.91600 20.96500 33.92600
H  48.78900 21.30900 32.35400
H  48.42500 17.18500 34.33000
H  46.79800 16.52800 33.86200
H  47.43200 17.07700 36.34100
H  45.87700 17.43300 35.59800
H  52.07900 20.37200 30.00800
H  52.53500 21.13300 28.36400
H  53.22400 19.63900 29.05900
H  53.70100 19.59700 24.94500
H  53.83200 19.41400 26.72700
H  52.74400 20.73500 25.99900
H  47.83100 15.77700 23.82700
H  44.98600 15.95300 24.29600
H  47.60000 18.43100 23.73900
H  45.82600 18.11400 23.73900
H  47.03800 17.40600 22.48300
H  45.93100 13.71500 25.59300
H  47.12500 13.88400 24.24000
H  44.45500 14.18500 23.12900
H  44.55000 12.78100 24.18600
H  45.64200 12.82500 22.90900
H  41.65100 15.96300 27.42700
H  41.01200 16.27600 29.01300
H  41.66200 14.62700 28.61800
H  44.49000 16.12800 33.15900
H  42.51700 19.40400 35.23800
H  43.25900 18.34500 36.38700
H  41.59400 18.03100 35.71900
Mg 6.53100 53.71000 41.28700
C  3.87300 51.57300 40.85600
C  8.69400 51.12600 40.21900
C  8.89600 55.98800 40.98200
C  4.28800 56.26300 42.11500
N  6.28500 51.72600 40.31800
C  5.06000 51.03600 40.26300
C  5.27100 49.67500 39.63500
C  6.80400 49.41700 39.81900
C  7.32200 50.84100 40.14500
C  7.08100 48.34400 40.89200
C  4.94500 49.77700 38.12800
C  4.27500 48.50700 37.53800
H  4.88100 47.87100 36.21100
N  8.49800 53.62500 40.65400
C  9.18500 52.49000 40.27800
C  10.57000 52.90300 39.98000
C  10.58800 54.33500 40.08100
C  9.27800 54.73600 40.53800
C  11.61200 51.96500 39.35000
C  11.74900 55.28100 39.54700
O  12.80500 54.77000 39.19300
C  11.62900 56.72300 39.33400
N  6.58400 55.93300 41.30200
C  7.70700 56.57500 41.46100
C  7.58300 58.01100 41.98400
C  6.02900 58.11600 41.98700
C  5.58100 56.70800 41.83500
C  8.25300 58.34700 43.43100
C  5.34200 59.01200 40.88200
C  5.24300 60.52800 41.22800
N  4.59800 53.95300 41.56300
C  3.72600 54.99000 41.97200
C  2.41200 54.55200 42.23000
C  2.44700 53.22000 41.79600
C  3.79200 52.91500 41.37100
C  1.32700 55.41100 42.89200
C  1.64000 52.05500 41.71400
O  0.50900 51.83000 42.18500
C  2.54800 50.93200 41.12800
C  1.93800 50.33800 39.92100
O  1.62400 50.95700 38.93200
O  1.69300 49.00700 40.10000
C  0.76400 48.45600 39.16900
H  9.43000 50.41000 39.84900
H  9.69800 56.69500 41.20800
H  3.67300 57.12300 42.38800
H  4.67900 48.86100 40.05400
H  7.20100 48.98600 38.90000
H  7.49500 48.84800 41.76600
H  7.93900 47.72000 40.64500
H  6.16300 47.80400 41.12400
H  5.84900 49.94600 37.54400
H  4.30900 50.63400 37.90600
H  3.30000 48.91300 37.26800
H  4.14200 47.70800 38.26700
H  12.18600 51.43000 40.10600
H  12.24000 52.49300 38.63300
H  11.07100 51.25600 38.72300
H  10.59300 56.93500 39.06900
H  12.23000 57.08200 38.49900
H  11.87100 57.21200 40.27800
H  8.11400 58.60400 41.24000
H  5.70000 58.42700 42.97800
H  9.13400 57.71200 43.53000
H  7.42000 58.05500 44.07000
H  8.52500 59.39800 43.53100
H  4.31400 58.65600 40.82600
H  5.83800 58.88600 39.92000
H  5.41300 60.71900 42.28800
H  4.32200 61.01300 40.90400
H  6.07500 61.02600 40.73000
H  1.54400 55.31800 43.95600
H  0.29300 55.18200 42.63100
H  1.48100 56.46200 42.65100
H  2.55700 50.08900 41.81900
H  0.52400 47.43100 39.45100
H  0.97500 48.62700 38.11400
H  -0.11700 49.08700 39.28300

