158

Mg 48.17300 16.72500 28.92000
C  46.23100 16.39900 31.93400
C  50.29000 18.52800 30.63800
C  49.48500 17.48700 26.08500
C  45.41400 15.27300 27.19800
N  48.24200 17.38900 31.00700
C  47.45400 17.03500 32.07700
C  48.01200 17.56000 33.44800
C  49.11300 18.56700 32.84900
C  49.19800 18.16700 31.40000
C  48.83600 20.07200 32.97600
C  48.62700 16.47300 34.38000
C  48.16200 16.48600 35.89800
H  47.76000 17.84700 36.54200
N  49.73900 17.71800 28.44600
C  50.59400 18.32000 29.29500
C  51.77200 18.75900 28.63300
C  51.56900 18.49900 27.30000
C  50.22200 17.86300 27.22600
C  53.07400 19.11400 29.35400
C  52.49900 18.84100 26.12400
O  52.25400 18.51400 25.00800
C  53.81700 19.44600 26.26400
N  47.48200 16.53700 26.90400
C  48.27500 16.86100 25.86500
C  47.72600 16.46800 24.46000
C  46.47500 15.60800 24.92200
C  46.46800 15.80300 26.42900
C  47.34900 17.62900 23.70000
C  46.47200 14.10500 24.51500
C  45.85800 13.66600 23.13200
N  46.20200 15.91500 29.41900
C  45.20700 15.42300 28.56800
C  44.08300 15.01300 29.42700
C  44.46800 15.29400 30.70400
C  45.73100 15.82300 30.68800
C  42.70900 14.53400 28.97600
C  44.05100 15.27100 32.12600
O  43.03700 14.88400 32.64300
C  45.14600 15.97100 32.92300
C  44.49100 17.04500 33.69300
O  44.24200 18.11200 33.19000
O  44.01000 16.56600 34.95600
C  43.16200 17.53600 35.73800
H  51.00700 19.12500 31.20600
H  50.04200 17.73100 25.17700
H  44.56500 14.72000 26.79000
H  47.22700 18.16400 33.90200
H  50.09100 18.50700 33.32600
H  49.59200 20.58800 33.56900
H  47.87800 20.20900 33.47700
H  48.85700 20.46500 31.96000
H  49.71200 16.57500 34.35700
H  48.38300 15.52200 33.90700
H  48.91500 16.02300 36.53700
H  47.27400 15.85800 35.96800
H  53.87200 18.43200 29.06000
H  52.98800 19.01900 30.43600
H  53.37700 20.14100 29.14500
H  53.71700 20.25500 26.98700
H  54.20000 19.67100 25.26800
H  54.61400 18.77600 26.58700
H  48.60800 15.97300 24.05400
H  45.56000 16.06700 24.54800
H  46.34100 17.56900 23.29100
H  48.03600 17.67800 22.85400
H  47.47900 18.55300 24.26400
H  46.16900 13.59500 25.42900
H  47.54500 13.94400 24.41800
H  46.50700 13.08300 22.47900
H  45.35100 14.51000 22.66600
H  45.06400 12.93400 23.28000
H  42.25700 15.21100 28.25100
H  42.06500 14.40700 29.84700
H  42.75400 13.54000 28.53200
H  45.81600 15.34300 33.51100
H  42.12400 17.37400 35.44600
H  43.45700 18.56900 35.55500
H  43.14700 17.28500 36.79900
Mg 48.44300 34.98700 26.23300
C  46.76700 33.48700 28.82900
C  48.76600 37.92000 28.02400
C  49.84400 36.48500 23.59900
C  47.69600 32.13200 24.33100
N  47.89000 35.62600 28.14400
C  47.34900 34.82700 29.12400
C  47.24100 35.51600 30.47900
C  47.55100 36.96900 30.06400
C  48.12100 36.85300 28.63300
C  46.31200 37.96500 30.00800
C  48.25000 34.95100 31.54800
C  47.96800 35.20500 33.06500
H  47.25900 36.49600 33.40600
N  49.42900 36.85800 25.95100
C  49.38900 37.92100 26.80300
C  50.26400 38.98700 26.25800
C  50.56200 38.66500 24.97500
C  49.94400 37.25600 24.76700
C  50.62700 40.10800 27.12300
C  51.19900 39.54900 23.89400
O  51.41900 39.10200 22.76300
C  51.54500 40.99100 24.20700
N  48.61800 34.46900 24.24000
C  49.35900 35.24700 23.33300
C  49.54900 34.46500 22.04700
C  49.06900 33.05700 22.37200
C  48.41900 33.19100 23.75100
C  48.68100 35.07600 20.93500
C  50.22600 31.94900 22.21200
C  50.29600 31.09000 21.03000
N  47.30400 33.21600 26.41400
C  47.15200 32.09000 25.62600
C  46.28800 31.16200 26.33100
C  46.14500 31.64800 27.55800
C  46.77200 32.91400 27.60000
C  45.83000 29.82700 25.80100
C  45.50800 31.40300 28.84400
O  44.79800 30.47600 29.23300
C  45.68500 32.71000 29.65700
C  45.92100 32.34900 31.04100
O  46.85200 31.67400 31.43000
O  44.81500 32.73700 31.79000
C  44.73400 32.56500 33.22900
H  48.65200 38.90100 28.48900
H  50.43800 36.91300 22.78900
H  47.63500 31.32400 23.59900
H  46.29500 35.58200 31.01700
H  48.32600 37.38500 30.70800
H  45.43500 37.69900 30.59900
H  45.88300 38.22300 29.04000
H  46.81800 38.85500 30.38100
H  49.27000 35.23600 31.29000
H  48.14900 33.88300 31.35600
H  48.88100 35.13200 33.65500
H  47.35200 34.41200 33.48800
H  50.03200 40.98900 26.88300
H  51.69700 40.29600 27.03500
H  50.38100 40.02900 28.18100
H  50.79800 41.43900 24.86200
H  51.76400 41.63200 23.35300
H  52.36700 40.91900 24.91900
H  50.56800 34.49600 21.66000
H  48.20600 32.80900 21.75400
H  47.91600 35.80100 21.21400
H  48.25000 34.25200 20.36600
H  49.40300 35.53500 20.26000
H  50.15700 31.23800 23.03500
H  51.20100 32.40700 22.38100
H  49.62200 31.36600 20.21900
H  50.00700 30.11300 21.41500
H  51.30100 30.86400 20.67200
H  44.93400 30.12200 25.25600
H  45.59800 29.06600 26.54600
H  46.52100 29.48400 25.03100
H  44.76800 33.30000 29.63500
H  43.71900 32.95000 33.32800
H  45.53600 33.02200 33.80800
H  44.78700 31.51100 33.50400

