158

Mg 17.44600 -0.81700 28.09100
C  16.44600 1.29000 30.83900
C  19.09800 -2.76600 30.10700
C  18.91100 -2.15400 25.24500
C  15.64700 1.48300 25.96700
N  17.85000 -0.63500 30.20600
C  17.29700 0.24300 31.19200
C  17.79600 -0.13900 32.55700
C  18.79400 -1.38600 32.26600
C  18.53800 -1.63700 30.77300
C  20.32000 -1.10200 32.49000
C  16.56700 -0.62700 33.51900
C  16.65700 -0.15800 35.01100
H  17.92600 0.52300 35.58700
N  18.70500 -2.34000 27.75000
C  19.20800 -3.08900 28.71300
C  19.96100 -4.20600 28.19400
C  19.87500 -4.03700 26.76400
C  19.12900 -2.80500 26.50300
C  20.60800 -5.29200 29.00000
C  20.38200 -4.92900 25.63700
O  20.13700 -4.72300 24.48400
C  21.08700 -6.22600 25.82300
N  17.21300 -0.52800 25.93500
C  18.05800 -1.05300 25.02600
C  17.81400 -0.42800 23.60000
C  16.75200 0.59100 23.88300
C  16.45200 0.47600 25.40100
C  19.19300 0.10600 22.90500
C  15.45100 0.47500 23.03900
C  15.18100 1.47200 21.89100
N  16.21600 1.00700 28.27400
C  15.53000 1.78500 27.33700
C  14.86600 2.89400 27.97600
C  15.14800 2.68500 29.42100
C  16.01900 1.58100 29.50900
C  14.16900 4.03300 27.45700
C  14.94400 3.21800 30.74000
O  14.32600 4.19400 31.22800
C  15.75100 2.32000 31.71600
C  16.72800 3.14000 32.48800
O  17.72100 3.61500 32.03700
O  16.17000 3.41600 33.75100
C  16.73900 4.44900 34.61100
H  19.60500 -3.40500 30.83200
H  19.49000 -2.48900 24.38200
H  15.13200 2.09700 25.22600
H  18.36300 0.66300 33.02900
H  18.57900 -2.25400 32.89000
H  20.92900 -1.13000 31.58700
H  20.72500 -1.69700 33.31000
H  20.47800 -0.08900 32.85900
H  16.66000 -1.71100 33.57000
H  15.62100 -0.30800 33.08100
H  16.41000 -1.00500 35.65100
H  15.84700 0.56000 35.14600
H  20.20500 -6.22400 28.60300
H  20.33300 -5.31400 30.05500
H  21.66600 -5.30600 28.74000
H  21.47800 -6.61600 24.88300
H  20.41300 -6.95700 26.27000
H  21.90700 -6.13800 26.53600
H  17.48300 -1.26100 22.97900
H  17.22800 1.55500 23.70300
H  20.08400 -0.03800 23.51700
H  19.04900 1.17900 22.77800
H  19.30600 -0.37600 21.93400
H  14.61100 0.62500 23.71800
H  15.35400 -0.55500 22.69600
H  16.11400 2.03000 21.81900
H  14.36700 2.18200 22.04200
H  15.17200 0.99700 20.91000
H  14.74500 4.48900 26.65200
H  14.08800 4.90500 28.10600
H  13.18300 3.71900 27.11600
H  15.17900 1.75800 32.45500
H  16.12900 4.45400 35.51500
H  16.85900 5.39100 34.07600
H  17.74900 4.14000 34.87700
Mg 48.28900 34.02400 26.61400
C  45.76500 32.89600 28.94000
C  48.40700 37.00800 28.39100
C  50.00600 35.33700 24.03900
C  47.16000 31.43000 24.49500
N  47.27100 34.76900 28.42800
C  46.52300 33.97500 29.36300
C  46.62900 34.58600 30.70400
C  47.12200 36.06900 30.44200
C  47.55700 35.97900 28.92600
C  46.08600 37.15400 30.64300
C  47.60300 33.77300 31.57800
C  47.63300 33.86400 33.10700
H  46.67100 34.75500 33.88900
N  49.10100 35.89900 26.27500
C  49.06800 36.97400 27.11600
C  49.87600 38.04800 26.60200
C  50.39400 37.55600 25.39800
C  49.88800 36.17300 25.21100
C  49.90800 39.42800 27.26700
C  51.32200 38.33200 24.41100
O  51.60200 37.91100 23.33200
C  51.91300 39.71600 24.76000
N  48.41100 33.56500 24.47100
C  49.45600 34.14300 23.74300
C  49.71300 33.34300 22.43100
C  48.79400 32.08600 22.61600
C  48.14800 32.33500 23.95700
C  49.49900 34.09300 21.12800
C  49.56700 30.75800 22.42800
C  50.22600 30.45900 21.05500
N  46.90500 32.42900 26.66200
C  46.57800 31.38100 25.79800
C  45.60000 30.46900 26.30900
C  45.29300 30.99000 27.56700
C  46.06500 32.25700 27.73200
C  45.02400 29.29400 25.73100
C  44.55800 30.76000 28.72100
O  43.74100 29.88000 28.94900
C  44.76100 32.04500 29.62500
C  44.96700 31.67100 31.13000
O  45.76700 30.88800 31.56700
O  43.96000 32.22200 31.81000
C  43.94600 31.93100 33.23600
H  48.53000 37.91900 28.98100
H  50.79400 35.61200 23.33400
H  46.82800 30.59600 23.87200
H  45.76400 34.67600 31.36200
H  47.97100 36.27900 31.09200
H  45.25000 36.74500 31.21100
H  45.67200 37.62400 29.75000
H  46.52300 38.00500 31.16500
H  48.58500 34.06100 31.20400
H  47.42100 32.71400 31.39100
H  48.62200 34.08800 33.50600
H  47.57400 32.85400 33.51400
H  50.76100 39.43300 27.94500
H  49.01200 39.79600 27.76700
H  49.90200 40.16500 26.46400
H  52.32500 39.60900 25.76300
H  51.18400 40.51000 24.59900
H  52.81900 39.88100 24.17600
H  50.75400 33.02100 22.46200
H  48.11500 32.12600 21.76400
H  48.73900 33.68100 20.46400
H  50.47100 34.00500 20.64200
H  49.25800 35.14900 21.25000
H  48.81400 29.97500 22.51600
H  50.37900 30.70800 23.15300
H  50.03900 31.38400 20.51000
H  49.81600 29.55500 20.60500
H  51.30500 30.33300 21.15000
H  44.47000 28.67400 26.43700
H  45.76600 28.58200 25.36900
H  44.43900 29.68800 24.90000
H  43.76200 32.48000 29.65300
H  44.90600 32.18700 33.68500
H  43.76300 30.89300 33.51400
H  43.13400 32.53200 33.64600

