158

Mg 26.99500 49.35000 26.38800
C  24.67700 50.44500 28.72800
C  29.15000 48.71600 29.09000
C  29.26800 48.35500 24.29000
C  24.91000 50.46500 23.85300
N  26.93600 49.69100 28.67800
C  25.80600 49.93600 29.35200
C  25.98100 49.71600 30.93700
C  27.50400 49.28300 30.96200
C  27.87200 49.18800 29.49700
C  28.38100 50.41000 31.61500
C  24.98800 48.66100 31.52300
C  24.12300 48.93600 32.73200
H  24.76700 49.67800 33.96600
N  28.90900 48.70100 26.66200
C  29.61600 48.46900 27.82500
C  30.87800 47.90700 27.54900
C  31.02800 47.93400 26.19200
C  29.69700 48.31300 25.62800
C  31.94500 47.51800 28.58300
C  32.26400 47.55200 25.28900
O  32.34300 47.66900 24.06300
C  33.60200 47.12800 25.88700
N  27.14400 49.53800 24.33900
C  28.14400 48.87900 23.69000
C  27.86300 48.80000 22.22600
C  26.39100 49.35400 22.02100
C  26.17400 49.87800 23.49500
C  28.90800 49.50400 21.33000
C  25.39100 48.20900 21.54900
C  24.62400 47.36500 22.58800
N  25.13900 50.24700 26.26100
C  24.41300 50.67000 25.10800
C  23.18500 51.29400 25.57500
C  23.19400 51.16000 26.92600
C  24.43100 50.56800 27.37100
C  22.16400 51.99500 24.69300
C  22.40800 51.34800 28.16400
O  21.27400 51.80500 28.30800
C  23.28500 50.83300 29.39700
C  23.41600 51.96700 30.40900
O  24.36500 52.73600 30.46700
O  22.47200 51.80100 31.37900
C  22.49400 52.76300 32.39300
H  29.77900 48.34800 29.90300
H  29.97500 47.89700 23.59600
H  24.20600 50.69800 23.05200
H  25.75900 50.62300 31.49900
H  27.69300 48.35600 31.50300
H  29.32500 50.49900 31.07700
H  28.57000 50.13700 32.65300
H  27.89400 51.38300 31.54300
H  25.65000 47.84100 31.80000
H  24.42000 48.23100 30.69800
H  23.81700 47.92900 33.01500
H  23.28200 49.56500 32.44000
H  32.17600 46.46600 28.41300
H  31.57200 47.53700 29.60700
H  32.90700 48.02700 28.63100
H  34.12300 46.67100 25.04600
H  33.32400 46.38700 26.63700
H  34.11200 47.98400 26.32700
H  27.97500 47.74700 21.96500
H  26.29600 50.27200 21.44200
H  29.45300 48.75800 20.75200
H  29.50500 50.15600 21.96700
H  28.44300 50.21400 20.64500
H  26.01000 47.60400 20.88600
H  24.64300 48.74600 20.96600
H  24.92700 46.39500 22.19400
H  23.53800 47.44100 22.62300
H  25.06600 47.43400 23.58200
H  22.01000 51.49000 23.74000
H  22.50200 53.01200 24.49600
H  21.26000 52.05500 25.29900
H  22.74900 50.01300 29.87600
H  22.58700 53.79000 32.04200
H  23.23900 52.50500 33.14600
H  21.47900 52.70400 32.78500
Mg -2.09800 34.50300 26.50400
C  -3.36100 32.80900 29.31100
C  -0.41200 36.60100 28.54200
C  -0.91400 36.14400 23.71800
C  -4.06000 32.43000 24.46600
N  -1.97600 34.62700 28.63400
C  -2.54100 33.89500 29.63600
C  -2.14700 34.34800 30.98100
C  -1.24600 35.59200 30.75200
C  -1.26100 35.65700 29.18500
C  -1.51000 37.02500 31.43200
C  -1.60200 33.16600 31.82200
C  -0.66300 33.46200 33.06400
H  -1.08600 32.95700 34.48900
N  -0.82300 36.15300 26.16800
C  -0.14800 36.88600 27.15700
C  0.64600 37.92700 26.49700
C  0.43000 37.86400 25.13600
C  -0.45600 36.68500 24.94300
C  1.54400 38.84200 27.28200
C  0.95400 38.79800 24.01600
O  0.71000 38.64400 22.85700
C  1.78200 39.91500 24.36500
N  -2.45100 34.32500 24.43400
C  -1.83100 35.09800 23.47300
C  -2.16100 34.54700 22.05800
C  -3.19100 33.45200 22.26400
C  -3.24700 33.40600 23.82700
C  -2.49200 35.60800 20.87700
C  -2.83900 32.16800 21.45800
C  -1.81800 31.13500 22.07800
N  -3.44600 32.84700 26.75900
C  -4.09300 32.10500 25.84700
C  -4.72000 30.98800 26.56700
C  -4.48100 31.22400 27.91800
C  -3.71600 32.41400 27.99900
C  -5.49800 29.91900 25.97900
C  -4.90500 30.81500 29.26400
O  -5.58100 29.87300 29.75900
C  -4.17300 31.85500 30.22300
C  -5.30900 32.71000 30.91500
O  -6.17000 33.33500 30.37200
O  -5.11800 32.73400 32.27200
C  -6.00000 33.45000 33.18500
H  0.09200 37.29600 29.21700
H  -0.51600 36.74100 22.89500
H  -4.49600 31.69700 23.78500
H  -3.10100 34.61100 31.44000
H  -0.26100 35.39900 31.17600
H  -1.88200 37.68100 30.64500
H  -0.63500 37.41100 31.95300
H  -2.25700 36.99100 32.22600
H  -1.16900 32.31900 31.29100
H  -2.46900 32.66000 32.24700
H  -0.41600 34.52300 33.08100
H  0.25700 32.93500 32.80800
H  1.48200 38.65900 28.35500
H  1.28200 39.88200 27.08800
H  2.59500 38.70300 27.02900
H  2.09000 40.34500 23.41200
H  2.68000 39.80500 24.97300
H  1.08500 40.66600 24.73900
H  -1.23400 34.01500 21.84400
H  -4.08600 34.00100 21.97000
H  -2.86300 36.55200 21.27500
H  -3.08600 35.14400 20.09000
H  -1.52500 35.73500 20.39000
H  -2.39300 32.50100 20.52100
H  -3.81800 31.77700 21.17900
H  -1.25600 31.59800 22.88900
H  -1.11100 30.80600 21.31700
H  -2.39800 30.26900 22.39700
H  -6.52500 30.27000 25.87500
H  -5.54100 29.09500 26.69100
H  -5.05600 29.68100 25.01200
H  -3.47100 31.23400 30.77800
H  -6.87800 33.77800 32.62800
H  -5.41900 34.29300 33.55900
H  -6.21300 32.75200 33.99500

