158

Mg 0.29000 7.21200 26.09500
C  0.89400 9.25700 28.93800
C  0.65800 4.41900 28.21700
C  0.25000 5.25500 23.37500
C  0.33700 10.09300 24.02600
N  0.76600 6.86900 28.40000
C  0.97300 7.89400 29.26000
C  1.08300 7.26500 30.66500
C  1.31700 5.67300 30.40900
C  0.91200 5.64300 28.94900
C  2.80100 5.22000 30.73400
C  -0.14800 7.57300 31.49900
C  0.08600 7.86800 32.96300
H  1.32700 7.23700 33.59100
N  0.36400 5.08900 25.79000
C  0.43400 4.17900 26.82000
C  0.33900 2.87500 26.20700
C  0.41300 3.06000 24.79200
C  0.33300 4.47500 24.57600
C  0.13600 1.58300 26.98700
C  0.39400 2.04300 23.66200
O  0.37900 2.31800 22.46600
C  0.47100 0.52200 23.98200
N  0.26900 7.62200 24.01200
C  0.14800 6.62300 23.10900
C  -0.25400 7.24100 21.70200
C  -0.21900 8.70900 21.92600
C  0.04700 8.83100 23.44100
C  0.73100 6.81400 20.60200
C  -1.43200 9.52700 21.51300
C  -1.14500 10.49300 20.33900
N  0.62200 9.21100 26.39800
C  0.56500 10.29800 25.45100
C  0.80000 11.50100 26.13800
C  0.91000 11.18400 27.54100
C  0.79600 9.76800 27.63500
C  0.90700 12.89500 25.49200
C  1.05600 11.71900 28.90800
O  1.30500 12.84300 29.22400
C  0.99000 10.49200 29.88100
C  2.14700 10.61600 30.73300
O  3.32500 10.53200 30.32300
O  1.77200 10.93400 32.05600
C  2.82600 10.96700 33.06800
H  0.73400 3.54800 28.87100
H  0.13600 4.61800 22.49500
H  0.32400 11.02400 23.45600
H  2.06100 7.61400 30.99500
H  0.66100 5.09000 31.05500
H  3.38800 5.95300 31.28700
H  3.35000 4.88900 29.85200
H  2.64700 4.37200 31.40100
H  -0.82200 6.72700 31.63600
H  -0.67200 8.41900 31.05500
H  -0.78500 7.46700 33.48000
H  0.19700 8.94100 33.11900
H  -0.76600 1.07300 26.64700
H  -0.07600 1.65700 28.05400
H  1.05100 1.00400 26.86700
H  0.91000 0.01800 23.12100
H  -0.58000 0.24300 24.06100
H  1.12600 0.38400 24.84200
H  -1.29200 6.95000 21.54600
H  0.64300 9.20600 21.48100
H  1.71800 6.74800 21.06000
H  0.64600 7.58200 19.83400
H  0.55900 5.77700 20.31400
H  -1.73800 10.07400 22.40500
H  -2.26400 8.91200 21.16900
H  -2.08000 10.71500 19.82500
H  -0.55000 10.02900 19.55200
H  -0.66400 11.42000 20.65200
H  -0.15200 13.14900 25.43500
H  1.42500 12.87100 24.53400
H  1.36800 13.61900 26.16400
H  0.17100 10.68300 30.57400
H  2.84800 12.00800 33.39100
H  3.76800 10.52500 32.74200
H  2.36900 10.33100 33.82600
Mg 46.80300 16.39700 27.51600
C  45.19000 16.16700 30.64600
C  48.78400 18.85500 28.96100
C  48.11700 16.85100 24.47700
C  44.21100 14.57200 26.08500
N  47.01400 17.26500 29.63400
C  46.28800 17.00800 30.74100
C  46.94500 17.58600 32.07100
C  47.96400 18.62400 31.48400
C  47.90100 18.26500 29.94800
C  47.66400 20.14300 31.83000
C  47.52700 16.45800 32.94600
C  47.16100 16.42000 34.44500
H  48.41200 16.17400 35.33900
N  48.26100 17.59500 26.80700
C  48.97400 18.56000 27.56000
C  49.92000 19.15600 26.69700
C  49.84000 18.52000 25.38700
C  48.74100 17.58000 25.50100
C  50.83000 20.25800 27.24500
C  50.64300 18.71400 24.10100
O  50.49200 18.04000 23.06000
C  51.84100 19.59100 24.02500
N  46.14100 15.86400 25.52000
C  46.96400 16.04100 24.46500
C  46.43800 15.26500 23.23900
C  45.36700 14.34000 23.82500
C  45.30900 14.85600 25.26100
C  45.83500 16.27300 22.22200
C  45.30200 12.80500 23.57000
C  46.68400 12.17400 23.77800
N  45.12600 15.58100 28.16700
C  44.10500 14.98600 27.47400
C  43.03200 14.57500 28.32000
C  43.38000 15.00800 29.60800
C  44.71600 15.60100 29.44700
C  41.86400 13.65100 27.93100
C  43.01800 14.98300 31.07400
O  42.06300 14.45800 31.65900
C  44.20800 15.77800 31.78200
C  43.51000 17.01200 32.37200
O  43.36200 18.09200 31.76200
O  43.05200 16.68900 33.62200
C  41.98300 17.58500 34.16100
H  49.43100 19.63200 29.37300
H  48.50100 17.00400 23.46600
H  43.33500 14.03700 25.71400
H  46.21700 18.21700 32.58200
H  48.94000 18.52900 31.95900
H  47.72500 20.80200 30.96400
H  48.41700 20.65700 32.42800
H  46.65600 20.28500 32.22100
H  48.61100 16.50700 32.84200
H  47.08900 15.52400 32.59500
H  46.53400 15.55700 34.66800
H  46.71500 17.39600 34.63800
H  51.66500 20.60800 26.63700
H  51.22800 19.88300 28.18800
H  50.23000 21.11600 27.54600
H  51.53400 20.60300 24.29300
H  52.44700 19.50400 23.12300
H  52.55100 19.15900 24.73000
H  47.27300 14.78600 22.72800
H  44.41100 14.66400 23.41300
H  46.35500 17.23200 22.20100
H  44.79500 16.50100 22.45600
H  45.94500 15.83500 21.23000
H  44.86500 12.62100 22.58800
H  44.65600 12.34400 24.31600
H  47.32500 12.79500 24.40500
H  47.24200 12.04900 22.85100
H  46.47300 11.26000 24.33300
H  41.28500 14.05700 27.10200
H  41.22400 13.46000 28.79300
H  42.28400 12.69800 27.61000
H  44.55600 15.03200 32.49600
H  41.24900 16.94800 34.65400
H  41.48600 18.11500 33.34900
H  42.29300 18.30500 34.91900

