158

Mg 44.11200 3.86800 47.55500
C  42.19900 6.70400 46.96400
C  41.50800 1.90400 47.23100
C  46.32200 1.19000 47.50600
C  46.98200 6.00400 47.34700
N  42.09800 4.31500 47.00100
C  41.47500 5.50500 46.87000
C  40.02300 5.30300 46.65300
C  39.88800 3.82800 47.14300
C  41.28100 3.29000 47.03400
C  39.18100 3.64200 48.52300
C  39.51600 5.69100 45.18600
C  38.43000 6.78700 44.94400
H  37.85200 6.77000 43.52200
N  43.93600 1.79500 47.49100
C  42.73000 1.15500 47.43600
C  42.92800 -0.28000 47.46100
C  44.34100 -0.46200 47.51600
C  44.95700 0.88400 47.46100
C  41.79900 -1.32700 47.17900
C  44.99300 -1.86300 47.55000
O  44.33200 -2.88000 47.35300
C  46.52900 -2.04400 47.53100
N  46.30400 3.69900 47.25900
C  46.88700 2.47500 47.51300
C  48.39200 2.67200 47.83300
C  48.61900 4.19200 47.41800
C  47.23500 4.66400 47.23500
C  48.79400 2.32500 49.24100
C  49.41600 4.54200 46.16200
C  50.92500 4.43500 46.19900
N  44.59300 5.95000 47.23600
C  45.71700 6.68800 47.24100
C  45.42700 8.09300 47.24900
C  44.01800 8.14900 47.18200
C  43.56000 6.77600 47.14500
C  46.40300 9.18300 47.34100
C  42.88500 8.97200 47.23800
O  42.87100 10.16600 47.60600
C  41.62900 8.09100 47.02400
C  40.68600 8.37900 48.20100
O  40.84500 7.95400 49.28600
O  39.59700 9.07800 47.76400
C  38.67400 9.44600 48.82900
H  40.57400 1.35900 47.38300
H  47.00900 0.36900 47.72200
H  47.76800 6.75400 47.46200
H  39.42500 5.99500 47.24700
H  39.19600 3.36400 46.44100
H  38.40200 2.89100 48.38700
H  38.67800 4.54100 48.87900
H  39.91900 3.36500 49.27600
H  39.03100 4.80500 44.77600
H  40.38700 5.81000 44.54100
H  38.80000 7.77600 45.21400
H  37.54900 6.70300 45.58000
H  41.73500 -1.42300 46.09600
H  40.85800 -0.97400 47.60200
H  41.96900 -2.32600 47.58000
H  46.92800 -1.87900 48.53200
H  46.90600 -1.37000 46.76200
H  46.79700 -3.08000 47.32600
H  48.94800 2.01600 47.16300
H  48.96600 4.80400 48.25000
H  48.17700 1.47500 49.53600
H  48.61100 3.19900 49.86600
H  49.80100 1.90800 49.25300
H  49.04600 5.47700 45.74200
H  49.02800 3.87800 45.39000
H  51.45800 4.25900 47.13300
H  51.33900 5.36400 45.80600
H  51.35900 3.68900 45.53300
H  46.06000 9.95600 46.65400
H  47.39200 8.85500 47.02000
H  46.45100 9.50500 48.38200
H  40.98700 8.39500 46.19800
H  39.24100 9.79200 49.69300
H  37.93200 8.70800 49.13300
H  38.12000 10.31600 48.47600
Mg 26.05800 50.40000 27.29600
C  24.03300 51.43300 29.91200
C  28.66600 49.79300 29.61700
C  28.09200 49.75600 24.83700
C  23.68900 51.72400 25.07900
N  26.23200 50.41900 29.46500
C  25.22500 50.89400 30.35600
C  25.63600 50.53000 31.81100
C  27.19100 50.23500 31.67900
C  27.39300 50.12700 30.17200
C  28.17700 51.25900 32.20200
C  24.83600 49.34400 32.35800
C  24.55100 49.14000 33.84600
H  25.17000 50.09500 34.91600
N  28.09000 49.70300 27.21800
C  28.97300 49.53300 28.26800
C  30.24500 49.13800 27.68900
C  30.09600 49.08200 26.30100
C  28.69600 49.47000 26.06400
C  31.46500 48.93900 28.58000
C  31.12500 48.86300 25.20200
O  30.79900 48.76800 24.02300
C  32.60900 48.74500 25.49700
N  25.97800 50.81000 25.19900
C  26.90000 50.36000 24.35000
C  26.34000 50.22600 22.92800
C  24.84700 50.64500 23.08300
C  24.82700 51.07000 24.56900
C  27.12200 51.05900 21.80600
C  23.74000 49.58100 22.79900
C  22.44400 50.14000 22.09700
N  24.34000 51.53000 27.38500
C  23.49000 52.04900 26.43700
C  22.32000 52.65400 27.08200
C  22.49700 52.37500 28.44000
C  23.72900 51.76300 28.56200
C  21.17000 53.26800 26.39500
C  21.86700 52.48400 29.71600
O  20.76900 52.90200 30.11800
C  22.89400 51.89300 30.73800
C  23.30200 52.91700 31.75300
O  24.23000 53.67500 31.62500
O  22.62900 52.74200 32.95100
C  23.04900 53.55400 34.10900
H  29.47000 49.80400 30.35600
H  28.67500 49.46000 23.96300
H  22.83500 51.71800 24.39800
H  25.41200 51.45700 32.33700
H  27.52000 49.32300 32.17700
H  28.88100 50.76800 32.87400
H  27.62600 52.04100 32.72500
H  28.68700 51.67200 31.33200
H  25.38100 48.46700 32.00800
H  23.93200 49.21700 31.76200
H  25.15500 48.25100 34.03000
H  23.52800 48.84300 34.07700
H  31.50600 49.82600 29.21200
H  32.42800 48.94300 28.07000
H  31.37400 47.95900 29.04800
H  33.15000 48.60100 24.56100
H  32.76400 47.98600 26.26400
H  32.96700 49.72300 25.81700
H  26.31400 49.16700 22.67100
H  24.65100 51.56800 22.53600
H  27.77100 51.65500 22.44900
H  26.51400 51.79600 21.28100
H  27.70700 50.41900 21.14600
H  23.45000 49.09300 23.73000
H  24.18700 48.89900 22.07600
H  22.40000 49.75100 21.08000
H  22.57400 51.21800 22.00000
H  21.54000 49.91000 22.66000
H  21.21200 52.92400 25.36100
H  21.33400 54.33900 26.51000
H  20.21100 53.08100 26.87800
H  22.47100 51.01200 31.22200
H  23.28700 54.59700 33.90100
H  23.95700 53.05100 34.44200
H  22.26300 53.46400 34.85900

