158

Mg 46.20900 24.76900 28.53000
C  46.39700 27.21900 31.10900
C  45.06300 22.51500 30.85500
C  46.21700 22.52600 26.13000
C  48.00900 26.95500 26.48000
N  45.58600 24.93100 30.70300
C  45.83100 25.99600 31.58200
C  45.45500 25.58700 33.00500
C  45.28300 24.01300 32.88400
C  45.37000 23.78400 31.37100
C  46.29500 23.20700 33.73800
C  44.31200 26.42600 33.57500
C  44.71100 27.09100 34.86900
H  45.11700 26.28900 36.20100
N  45.63200 22.90000 28.48900
C  45.12800 22.13900 29.53000
C  44.75200 20.85200 28.96200
C  45.02500 20.82600 27.55800
C  45.64700 22.10000 27.34900
C  44.13200 19.71400 29.77000
C  44.75500 19.82800 26.52100
O  45.03100 19.95500 25.33600
C  43.87700 18.58600 26.87500
N  46.95800 24.79000 26.60500
C  46.84700 23.68500 25.77800
C  47.31500 23.99800 24.27900
C  47.98500 25.41800 24.42600
C  47.56600 25.80700 25.88000
C  48.20000 23.01600 23.46200
C  47.58800 26.49900 23.39200
C  46.08000 26.95400 23.21100
N  47.04600 26.74100 28.67400
C  47.73600 27.45300 27.75500
C  48.13700 28.72600 28.31600
C  47.65500 28.62400 29.63400
C  46.98400 27.40900 29.84300
C  49.04300 29.76700 27.72800
C  47.62900 29.34800 30.92700
O  48.02100 30.45500 31.17400
C  46.86300 28.42200 31.95900
C  47.93200 28.00000 32.86700
O  48.62300 26.94500 32.78100
O  47.94800 28.71600 34.06200
C  48.95400 28.31000 35.06600
H  44.68300 21.97100 31.72300
H  46.17400 21.85700 25.26800
H  48.56200 27.51200 25.72100
H  46.32500 25.69800 33.65400
H  44.29900 23.76200 33.27700
H  47.19100 23.75400 34.03200
H  46.62600 22.54700 32.93600
H  45.84900 22.72200 34.60600
H  43.48700 25.78400 33.88200
H  44.07300 27.20300 32.84800
H  43.84500 27.67400 35.17900
H  45.62400 27.67800 34.76400
H  44.60500 18.73500 29.69200
H  43.05800 19.71300 29.58300
H  44.33800 19.92900 30.81800
H  44.41100 17.91300 27.54600
H  43.59800 18.20200 25.89400
H  42.99000 18.92200 27.41200
H  46.33400 24.12600 23.82000
H  49.06300 25.28400 24.33300
H  49.00500 23.58500 22.99800
H  47.66200 22.36500 22.77300
H  48.78700 22.37500 24.12100
H  47.90000 25.98800 22.48100
H  48.20200 27.38700 23.54000
H  45.64600 26.50600 22.31700
H  46.03800 28.03100 23.04600
H  45.40500 26.64900 24.01000
H  49.95500 29.27000 27.39800
H  49.36400 30.42400 28.53600
H  48.54300 30.25500 26.89100
H  46.06700 28.87300 32.55300
H  48.38600 27.56900 35.62800
H  49.03900 29.24800 35.61500
H  49.88600 27.94200 34.63600
Mg -10.43600 39.73400 41.60900
C  -9.55600 36.54700 40.63700
C  -7.33900 40.89100 40.38100
C  -11.45500 42.88200 41.95600
C  -13.62900 38.63500 42.35000
N  -8.64800 38.81700 40.60700
C  -8.52300 37.43300 40.30800
C  -7.14100 37.10000 39.69200
C  -6.52200 38.48000 39.68000
C  -7.55900 39.44900 40.25800
C  -5.05200 38.64400 40.12900
C  -7.11500 36.36000 38.35100
C  -5.96500 35.48000 37.94600
H  -4.95600 36.01800 36.88500
N  -9.44400 41.63300 41.31300
C  -8.22000 41.91200 40.82900
C  -8.02900 43.32800 40.87300
C  -9.17300 43.93100 41.29400
C  -10.10500 42.77800 41.57400
C  -6.68000 43.91700 40.43800
C  -9.49400 45.37000 41.44100
O  -8.62800 46.21700 41.30300
C  -10.78100 46.06700 41.76600
N  -12.36700 40.59900 41.77000
C  -12.46800 41.94500 42.02400
C  -13.94100 42.37700 42.30200
C  -14.64600 40.98800 42.49900
C  -13.52200 39.99700 42.18500
C  -14.21800 43.43200 43.35800
C  -15.95900 40.66200 41.64000
C  -17.23800 40.54300 42.44100
N  -11.32900 37.96000 41.72300
C  -12.62400 37.65400 42.08400
C  -12.81100 36.16600 42.02500
C  -11.62300 35.74800 41.43100
C  -10.78100 36.83300 41.31700
C  -14.06300 35.35400 42.26500
C  -10.92000 34.54000 40.93800
O  -11.28000 33.41900 40.95200
C  -9.53800 35.06600 40.41500
C  -8.42600 34.28300 41.08900
O  -7.98600 34.42500 42.24500
O  -7.99800 33.33000 40.26000
C  -7.16300 32.21100 40.65800
H  -6.32500 41.08300 40.02400
H  -11.72200 43.86800 42.34300
H  -14.56000 38.22400 42.74600
H  -6.63300 36.48900 40.43800
H  -6.36300 38.82100 38.65700
H  -4.58600 39.31500 39.40700
H  -4.54200 37.68400 40.21100
H  -5.03000 39.06200 41.13600
H  -7.11500 37.17400 37.62500
H  -8.08000 35.88300 38.18000
H  -6.28500 34.50900 37.56900
H  -5.42600 35.16700 38.84100
H  -5.88100 43.22500 40.70400
H  -6.27400 44.82900 40.87600
H  -6.61900 44.08600 39.36300
H  -11.52500 45.66200 41.08000
H  -10.76100 47.14700 41.62000
H  -11.05500 45.89900 42.80700
H  -14.37500 42.80000 41.39600
H  -14.82900 40.91000 43.57000
H  -14.65400 42.96700 44.24200
H  -14.89700 44.20900 43.00700
H  -13.38400 43.93700 43.84500
H  -15.73200 39.71000 41.16000
H  -15.94800 41.45100 40.88700
H  -18.02300 41.09300 41.92300
H  -17.06600 40.92800 43.44600
H  -17.55000 39.50100 42.51100
H  -14.68200 35.43100 41.37100
H  -14.55000 35.72800 43.16600
H  -13.87900 34.29200 42.42600
H  -9.64700 34.75800 39.37500
H  -7.65100 31.27400 40.38800
H  -6.86300 32.27900 41.70300
H  -6.25500 32.28800 40.05900

