158

Mg 0.97500 7.79300 25.22600
C  1.51500 9.68400 28.24400
C  1.40400 4.98700 27.25500
C  0.89400 5.93400 22.41100
C  1.16200 10.73600 23.43400
N  1.51600 7.41400 27.50000
C  1.57400 8.29400 28.51000
C  1.74100 7.65400 29.92000
C  1.73800 6.11000 29.57300
C  1.59700 6.12900 28.02100
C  3.07700 5.41900 29.95000
C  0.53100 7.97100 30.94300
C  1.00200 8.27300 32.46500
H  2.15500 7.50100 32.97000
N  1.05300 5.72400 24.87700
C  1.13700 4.79500 25.88800
C  0.86500 3.50700 25.27900
C  0.63300 3.72700 23.87400
C  0.84300 5.12900 23.61600
C  0.60100 2.22600 26.10400
C  0.23300 2.82200 22.77000
O  -0.03500 3.21400 21.62300
C  0.03400 1.32300 22.92500
N  1.22200 8.24300 23.18900
C  1.07700 7.31000 22.18400
C  0.82100 8.02700 20.83100
C  1.09700 9.51000 21.13900
C  1.12300 9.55100 22.66300
C  1.44500 7.40800 19.54100
C  0.10000 10.44300 20.45800
C  -1.27800 10.66400 21.24200
N  1.33600 9.81800 25.63300
C  1.28300 10.90300 24.80300
C  1.44300 12.14200 25.54600
C  1.50600 11.67300 26.90800
C  1.34700 10.26900 26.91600
C  1.76200 13.49700 24.94300
C  1.82800 12.12400 28.25000
O  2.08100 13.20900 28.66200
C  1.67700 10.81000 29.15000
C  2.78200 10.81600 30.09100
O  3.88500 10.23400 29.92100
O  2.43300 11.44200 31.25800
C  3.49900 11.48600 32.25100
H  1.50000 4.09900 27.88300
H  0.75400 5.47500 21.43000
H  1.03200 11.67500 22.89100
H  2.74200 7.95900 30.22500
H  0.83400 5.67200 29.99600
H  3.14300 5.75900 30.98300
H  3.98900 5.67900 29.41200
H  3.09700 4.33000 29.90600
H  -0.28600 7.26200 30.80900
H  0.16800 8.90500 30.51500
H  0.13800 7.93000 33.03400
H  1.10500 9.35300 32.57500
H  -0.46600 2.00200 26.11000
H  0.71900 2.48500 27.15700
H  1.14400 1.35200 25.74600
H  0.80700 0.91200 23.57500
H  0.02800 0.82100 21.95700
H  -0.87400 1.16000 23.50600
H  -0.24400 7.95700 20.61100
H  2.07100 9.81600 20.75800
H  2.15400 6.62500 19.80800
H  1.94200 8.15800 18.92500
H  0.70100 6.90200 18.92500
H  -0.18500 10.25200 19.42400
H  0.52900 11.44300 20.52400
H  -2.06900 11.12600 20.65100
H  -1.23200 11.41400 22.03200
H  -1.60600 9.75000 21.73700
H  2.71700 13.33600 24.44300
H  2.04400 14.07300 25.82500
H  0.85700 13.79900 24.41700
H  0.83600 10.93900 29.83200
H  3.95400 10.51900 32.46600
H  3.08500 11.82000 33.20300
H  4.31900 12.10900 31.89300
Mg 6.78500 54.20500 41.25400
C  6.37100 50.85200 40.86700
C  10.05600 53.84800 40.29900
C  6.95000 57.59100 40.98700
C  3.23800 54.53100 42.03400
N  7.98400 52.57400 40.35100
C  7.57300 51.24100 40.33700
C  8.65300 50.32600 39.80200
C  9.95900 51.21800 40.00400
C  9.35500 52.66200 40.26000
C  11.03200 50.78500 41.02200
C  8.36500 49.97900 38.30100
C  7.70800 51.07400 37.42300
H  7.24000 50.74200 35.95900
N  8.22900 55.52500 40.79600
C  9.54400 55.20000 40.37900
C  10.30300 56.43300 40.18100
C  9.44300 57.47700 40.32900
C  8.09600 56.85000 40.74200
C  11.81300 56.37600 39.80400
C  9.85600 58.94300 40.21200
O  10.93900 59.29400 39.71700
C  8.94300 59.98800 40.72400
N  5.24100 55.81600 41.51700
C  5.66600 57.14000 41.39500
C  4.49900 58.05400 41.61400
C  3.28800 57.14100 41.90400
C  3.93700 55.74700 41.85600
C  4.95800 59.04100 42.76300
C  2.03600 57.39600 40.94400
C  0.87500 58.29100 41.43400
N  5.15500 52.98700 41.47700
C  3.80500 53.24000 41.82100
C  3.18100 51.99500 42.08700
C  4.12800 51.07000 41.75100
C  5.28100 51.69100 41.36000
C  1.76200 51.75600 42.45900
C  4.31800 49.64400 41.52100
O  3.56600 48.66200 41.70600
C  5.82400 49.51900 41.05800
C  5.62400 48.74200 39.87200
O  5.07100 49.11500 38.82000
O  6.19800 47.54900 39.97300
C  5.87400 46.53100 38.93400
H  11.08500 53.71200 39.95900
H  6.99500 58.67000 40.82500
H  2.20400 54.58000 42.38200
H  8.57200 49.40800 40.38500
H  10.41000 51.40900 39.03100
H  11.43900 51.66000 41.52900
H  11.82900 50.35500 40.41500
H  10.62200 50.05000 41.71500
H  7.77400 49.06300 38.31500
H  9.30300 49.70500 37.81900
H  8.41900 51.90000 37.39200
H  6.82600 51.37900 37.98600
H  12.45500 55.57400 40.16800
H  12.26400 57.35200 39.98000
H  11.81700 56.13600 38.74100
H  8.16000 60.27400 40.02100
H  9.40100 60.96800 40.59200
H  8.70600 59.84500 41.77800
H  4.28700 58.55200 40.66700
H  3.04100 57.30600 42.95300
H  4.92200 60.04200 42.33400
H  5.98700 58.83000 43.05500
H  4.32000 58.87200 43.63100
H  1.50400 56.47000 40.72500
H  2.28400 57.78400 39.95600
H  0.06100 57.61700 41.70200
H  0.63300 59.00000 40.64200
H  1.18800 58.79300 42.34900
H  1.42800 50.89900 41.87500
H  1.10900 52.62700 42.39400
H  1.84300 51.39000 43.48200
H  6.35700 48.87900 41.76100
H  5.82500 45.59400 39.48900
H  6.68900 46.60600 38.21500
H  4.99800 46.71700 38.31200

