158

Mg 9.41200 3.35200 27.83500
C  10.42200 1.57500 30.68600
C  7.45200 5.35600 29.89400
C  8.77100 5.26300 25.18200
C  11.23400 1.08100 25.82400
N  8.92800 3.39600 30.06000
C  9.58100 2.69100 31.05900
C  9.36800 3.21000 32.40800
C  8.28300 4.35100 32.13000
C  8.25300 4.43900 30.59500
C  6.80800 4.26800 32.75200
C  10.66300 3.75100 33.13900
C  10.35100 4.38700 34.49900
H  11.24300 4.10400 35.74700
N  8.26400 5.07400 27.56200
C  7.43400 5.68500 28.53600
C  6.75400 6.79700 27.90100
C  7.16500 6.81000 26.55400
C  7.99100 5.59000 26.33900
C  5.66000 7.60100 28.69300
C  6.83200 7.81500 25.42800
O  7.07700 7.62700 24.24200
C  6.18100 9.11100 25.82300
N  10.00400 3.22900 25.83600
C  9.59200 4.15300 24.86800
C  10.31100 3.88700 23.50500
C  10.85300 2.38400 23.73400
C  10.67100 2.20700 25.22100
C  9.42800 3.99100 22.22300
C  12.34600 2.15700 23.27600
C  12.50000 0.84300 22.50100
N  10.52800 1.68200 28.10000
C  11.19800 0.83700 27.25700
C  11.78000 -0.21700 27.95700
C  11.55900 0.07300 29.31600
C  10.68300 1.17600 29.36700
C  12.52900 -1.37300 27.38800
C  11.84400 -0.44800 30.61200
O  12.39200 -1.44700 30.99500
C  11.15300 0.65400 31.62500
C  10.26300 -0.02200 32.57100
O  9.27900 -0.71900 32.36800
O  10.66100 0.37500 33.82300
C  9.97300 -0.28200 34.95300
H  6.96100 6.16400 30.44200
H  8.66700 5.97200 24.35700
H  11.67900 0.28400 25.22500
H  8.87600 2.52800 33.10100
H  8.63500 5.27500 32.58800
H  6.45300 5.19200 33.20900
H  6.77100 3.43100 33.44900
H  6.09500 3.98100 31.97900
H  11.26400 4.40700 32.50900
H  11.25600 2.87300 33.39200
H  9.35700 4.21900 34.91500
H  10.43900 5.46400 34.35700
H  4.79000 7.66200 28.04000
H  6.00400 8.61000 28.92100
H  5.28000 7.18700 29.62700
H  6.11500 9.77700 24.96300
H  6.82100 9.68600 26.49200
H  5.18200 8.99100 26.24300
H  11.18300 4.53700 23.44000
H  10.17600 1.66500 23.27200
H  9.33800 4.97500 21.76400
H  8.44100 3.87600 22.67100
H  9.66900 3.13900 21.58700
H  13.03200 2.19000 24.12300
H  12.55300 2.96900 22.57800
H  13.26300 0.94600 21.73000
H  11.55400 0.52400 22.06200
H  12.81300 0.14400 23.27700
H  11.82600 -2.00100 26.84100
H  13.05000 -1.89500 28.19000
H  13.28000 -0.94000 26.72700
H  11.88300 1.24000 32.18400
H  9.49400 -1.17800 34.55800
H  9.36300 0.42400 35.51500
H  10.76500 -0.60900 35.62700
Mg 46.81200 24.49500 28.33700
C  47.74700 26.88500 30.83900
C  45.86000 22.38700 30.85900
C  46.22900 22.25800 26.07600
C  48.21600 26.69800 26.00400
N  46.79700 24.68300 30.54000
C  47.18900 25.70700 31.36400
C  46.91100 25.34100 32.88800
C  46.46400 23.85100 32.89900
C  46.40800 23.56800 31.33300
C  47.36800 22.79900 33.63900
C  45.82400 26.24700 33.67100
C  46.12700 26.67000 35.16400
H  44.97800 26.86700 36.13400
N  46.25200 22.55000 28.43300
C  45.79300 21.89600 29.52200
C  45.45700 20.52900 29.12400
C  45.38500 20.43700 27.75100
C  45.95500 21.73900 27.34900
C  45.09800 19.42300 30.13200
C  44.99600 19.33300 26.78700
O  45.07800 19.38900 25.59100
C  44.39600 18.12400 27.35700
N  47.29900 24.46500 26.36900
C  46.78700 23.46200 25.59200
C  47.03200 23.66300 24.09200
C  47.50500 25.17400 24.11200
C  47.59800 25.55100 25.59400
C  48.11400 22.75000 23.43300
C  46.58600 26.16800 23.34700
C  47.13700 26.94700 22.15500
N  47.70800 26.43700 28.39500
C  48.23400 27.20300 27.31900
C  48.58200 28.52700 27.82700
C  48.55000 28.39400 29.21900
C  47.93500 27.14100 29.50900
C  49.09900 29.72300 26.99200
C  48.74100 29.11500 30.45000
O  49.19500 30.22200 30.72000
C  48.20900 28.10400 31.53600
C  49.33000 27.84100 32.46700
O  50.33600 27.12500 32.34900
O  49.02100 28.53500 33.66000
C  49.97600 28.42800 34.76400
H  45.37300 21.83800 31.66700
H  46.15400 21.56400 25.23700
H  48.55800 27.26100 25.13300
H  47.83300 25.48000 33.45300
H  45.43000 23.66800 33.19100
H  47.31800 21.85700 33.09200
H  46.88700 22.61600 34.59900
H  48.41100 23.06900 33.80600
H  44.91400 25.64900 33.62400
H  45.62000 27.14600 33.08900
H  46.72200 27.58200 35.21000
H  46.77200 25.89900 35.58500
H  44.02600 19.27500 30.00800
H  45.24000 19.80600 31.14300
H  45.57300 18.45000 30.00300
H  45.08000 17.52700 27.95900
H  44.05700 17.46100 26.56000
H  43.50600 18.39300 27.92600
H  46.05100 23.57300 23.62400
H  48.51300 25.33700 23.72900
H  47.79800 22.60000 22.40100
H  48.10800 21.86700 24.07100
H  49.06300 23.28300 23.37500
H  46.22000 26.80800 24.14900
H  45.64700 25.70600 23.04000
H  46.69900 26.56200 21.23400
H  48.21100 26.77400 22.09900
H  47.02600 27.99000 22.45000
H  49.98500 30.08500 27.51300
H  48.36800 30.53100 27.02100
H  49.42500 29.43700 25.99200
H  47.35000 28.47100 32.09900
H  50.28100 29.42000 35.09600
H  50.92000 28.05800 34.36400
H  49.45100 27.82700 35.50600

