158

Mg 7.05200 52.79500 41.33000
C  6.61700 49.35700 41.15100
C  10.39900 52.39100 40.54400
C  7.26300 56.17900 41.13300
C  3.45200 53.10600 41.74000
N  8.34900 51.07900 40.88300
C  7.96000 49.72900 40.91900
C  9.27600 48.83100 40.96000
C  10.45500 49.84600 40.93000
C  9.65100 51.20400 40.77700
C  11.42900 49.85700 42.13700
C  9.39100 47.73500 39.81600
C  9.50500 48.21700 38.34700
H  8.25900 48.14100 37.38200
N  8.58300 54.17100 40.92100
C  9.89100 53.74400 40.69100
C  10.67700 54.93500 40.49300
C  9.90300 56.06200 40.67000
C  8.50700 55.53700 40.96200
C  12.13300 54.89800 40.10300
C  10.31400 57.45100 40.58400
O  11.43400 57.71400 40.18900
C  9.42100 58.62500 40.83000
N  5.48700 54.48700 41.33600
C  5.93100 55.74500 41.36700
C  4.70400 56.63200 41.62700
C  3.44800 55.69000 41.53400
C  4.15700 54.32700 41.53200
C  4.76400 57.47000 42.91600
C  2.66900 55.93900 40.26000
C  1.14400 56.07500 40.52900
N  5.31300 51.56400 41.35800
C  4.00000 51.76400 41.66000
C  3.36500 50.56100 41.80200
C  4.37300 49.59700 41.70000
C  5.50500 50.27400 41.35300
C  1.93100 50.28500 42.01600
C  4.50500 48.19000 41.87400
O  3.63900 47.30900 42.07800
C  6.00800 47.92900 41.46400
C  5.87300 47.05100 40.24500
O  5.41100 47.44800 39.20100
O  6.16100 45.69600 40.54000
C  5.65300 44.73500 39.55400
H  11.47300 52.30100 40.37200
H  7.27500 57.26600 41.23600
H  2.36900 53.21200 41.82900
H  9.37700 48.24500 41.87300
H  11.00700 50.03200 40.00900
H  11.17300 48.98300 42.73600
H  11.33200 50.72100 42.79400
H  12.44500 49.81100 41.74400
H  8.66300 46.92800 39.90100
H  10.25400 47.10900 40.04500
H  10.34100 47.64500 37.94700
H  9.76600 49.27000 38.45400
H  12.23700 55.48300 39.19000
H  12.62900 53.92900 40.04400
H  12.71100 55.38600 40.88800
H  8.55900 58.69100 40.16600
H  10.00200 59.53900 40.95100
H  9.00400 58.50200 41.83000
H  4.93700 57.34000 40.83200
H  2.79000 55.70500 42.40400
H  5.63900 57.27600 43.53600
H  3.86000 57.49000 43.52500
H  4.88900 58.54600 42.79400
H  2.70000 55.10800 39.55400
H  2.86200 56.93900 39.87100
H  0.71900 55.80200 41.49500
H  0.67700 55.26500 39.96800
H  0.83400 57.07100 40.21300
H  1.53700 50.31300 41.00000
H  1.32300 50.91600 42.66400
H  1.82200 49.27100 42.40200
H  6.52300 47.33900 42.22200
H  5.77400 43.74100 39.98500
H  6.45000 44.65500 38.81500
H  4.76900 45.02300 38.98700
Mg 1.09300 42.06500 26.10600
C  2.84800 41.92800 29.18500
C  -1.86700 41.10600 27.85100
C  -0.52900 41.80800 23.21000
C  4.04500 42.61600 24.49700
N  0.59500 41.57400 28.24200
C  1.45000 41.76500 29.32800
C  0.68800 41.62100 30.71300
C  -0.78300 41.32300 30.27800
C  -0.70900 41.32200 28.72100
C  -1.45200 40.06500 30.98300
C  0.81100 42.89000 31.61900
C  1.24000 42.74300 33.15200
H  0.85100 41.47700 33.83500
N  -0.84600 41.47700 25.56700
C  -1.88600 41.19200 26.42700
C  -3.07600 40.88900 25.66700
C  -2.69100 40.98800 24.26000
C  -1.30700 41.37800 24.26500
C  -4.53800 40.77600 26.21200
C  -3.51300 40.69500 23.00900
O  -3.11200 40.72900 21.89800
C  -4.94900 40.23600 23.14600
N  1.60100 42.29200 24.19600
C  0.81500 42.09400 23.08900
C  1.54500 42.25400 21.76600
C  2.95200 42.73400 22.22100
C  2.88600 42.51600 23.77000
C  1.54800 40.91400 21.01500
C  3.39000 44.13500 21.91900
C  3.59200 44.40200 20.40300
N  3.08800 42.20100 26.63700
C  4.19400 42.47600 25.87000
C  5.42000 42.51300 26.70200
C  4.91000 42.28100 27.95200
C  3.49300 42.06100 27.89000
C  6.72800 42.99200 26.24800
C  5.29800 42.30100 29.29600
O  6.40400 42.40400 29.74100
C  4.01500 42.12700 30.18400
C  4.24800 41.03000 31.27100
O  4.03400 39.87300 31.06200
O  4.65200 41.62700 32.41800
C  5.07300 40.74000 33.48900
H  -2.84900 41.02900 28.32200
H  -0.96100 41.81800 22.20700
H  4.99500 42.75000 23.97500
H  1.15800 40.76100 31.19000
H  -1.51500 42.11300 30.44300
H  -1.88500 39.37700 30.25600
H  -2.26200 40.39700 31.63200
H  -0.94300 39.38300 31.66400
H  -0.14000 43.42300 31.61400
H  1.49900 43.58600 31.13900
H  0.82800 43.60100 33.68300
H  2.31700 42.89800 33.21900
H  -5.21700 41.48200 25.73300
H  -4.53000 41.04100 27.27000
H  -4.96500 39.78000 26.09400
H  -5.37100 40.04100 22.16000
H  -5.65700 40.93000 23.59900
H  -4.96200 39.26500 23.64100
H  1.06200 43.05500 21.20600
H  3.80500 42.13200 21.90700
H  2.50900 40.43100 21.19600
H  1.39800 41.07000 19.94600
H  0.79100 40.24400 21.42100
H  4.40500 44.26500 22.29500
H  2.61500 44.84600 22.20500
H  2.82600 45.12400 20.11900
H  3.55300 43.45300 19.86800
H  4.59600 44.80100 20.25600
H  6.71000 43.22400 25.18300
H  7.57100 42.32700 26.43700
H  6.81500 43.98800 26.68400
H  3.87200 43.04900 30.74700
H  4.37000 39.95100 33.75900
H  5.25600 41.37100 34.35800
H  6.02400 40.25300 33.27400

