158

Mg 2.95200 -1.58900 45.41200
C  6.34800 -1.14700 44.96900
C  2.34200 0.82100 42.95300
C  -0.42600 -2.40500 45.26000
C  3.58700 -4.60700 47.20100
N  4.14000 -0.52600 44.03000
C  5.56300 -0.50800 44.02600
C  6.09400 0.38200 42.85800
C  4.81600 1.23700 42.53500
C  3.70000 0.52300 43.26100
C  4.94300 2.73900 42.92600
C  6.45000 -0.55100 41.53800
C  7.81000 -0.19400 41.00200
H  8.14200 0.04400 39.52600
N  1.18400 -0.84800 44.42600
C  1.18100 0.18700 43.53800
C  -0.17900 0.51600 43.10900
C  -1.02500 -0.43000 43.78400
C  -0.13400 -1.24500 44.58300
C  -0.52400 1.72400 42.27700
C  -2.55100 -0.58600 43.68600
O  -3.16100 0.11200 42.92100
C  -3.41500 -1.58400 44.44500
N  1.73800 -3.25500 46.20400
C  0.39900 -3.35400 46.01200
C  -0.15800 -4.54700 46.75900
C  1.16200 -5.40500 47.02000
C  2.26000 -4.34600 46.83800
C  -0.93300 -4.21900 48.06900
C  1.20600 -6.64300 45.98900
C  0.52000 -7.91400 46.44700
N  4.62600 -2.58900 46.18000
C  4.72800 -3.76700 46.85600
C  6.09800 -4.03600 47.05100
C  6.78600 -3.00100 46.40700
C  5.86400 -2.16800 45.78200
C  6.66300 -5.22400 47.77800
C  8.07200 -2.51100 46.11600
O  9.15600 -2.89800 46.55600
C  7.90000 -1.23300 45.18200
C  8.58200 -0.02800 45.87800
O  9.52400 -0.03400 46.72800
O  7.89400 1.04200 45.50800
C  8.04300 2.26000 46.35300
H  2.24500 1.53200 42.12900
H  -1.40500 -2.83200 45.03600
H  3.80200 -5.45000 47.86100
H  6.95500 0.93300 43.23400
H  4.61900 1.24300 41.46300
H  5.92900 3.00300 43.30800
H  4.20400 2.99400 43.68500
H  4.81600 3.28400 41.99000
H  5.63900 -0.48700 40.81200
H  6.59000 -1.58300 41.86200
H  8.44300 -1.03000 41.29900
H  8.17500 0.73200 41.44800
H  -0.52800 1.41200 41.23300
H  0.24300 2.47700 42.45900
H  -1.56300 1.98600 42.47700
H  -3.20200 -1.52000 45.51200
H  -3.31500 -2.62200 44.12800
H  -4.46300 -1.29200 44.38900
H  -0.77400 -5.19400 46.13400
H  1.17300 -5.80200 48.03500
H  -1.84500 -4.81500 48.01900
H  -1.15700 -3.18100 47.82000
H  -0.37400 -4.48800 48.96500
H  2.24800 -6.90300 45.80200
H  0.75200 -6.38000 45.03400
H  -0.16100 -8.26300 45.67000
H  0.04800 -7.82400 47.42500
H  1.29700 -8.66300 46.60200
H  7.65800 -5.11200 48.21000
H  6.67700 -6.02100 47.03500
H  5.98800 -5.51400 48.58300
H  8.35300 -1.55600 44.24500
H  8.40200 1.93700 47.33000
H  7.05600 2.67700 46.55700
H  8.78300 2.92900 45.91400
Mg 42.76400 41.37500 26.36300
C  41.83000 43.55600 29.10700
C  44.07000 39.22800 28.94000
C  43.71700 39.29400 24.07500
C  42.01600 43.78600 24.09800
N  42.90900 41.33400 28.80800
C  42.43800 42.38000 29.61900
C  42.50000 41.81800 31.12600
C  43.54000 40.62500 30.97700
C  43.54900 40.44000 29.52900
C  44.98900 40.86200 31.47000
C  41.03700 41.57800 31.76300
C  40.71800 41.41900 33.33500
H  41.82900 41.32000 34.31700
N  43.65200 39.46600 26.45900
C  44.15500 38.79300 27.56700
C  44.64000 37.53400 27.07700
C  44.44400 37.46000 25.63700
C  43.99100 38.76900 25.31300
C  45.18400 36.45800 28.01200
C  44.52800 36.33400 24.65000
O  44.37700 36.48600 23.43900
C  44.88200 34.91500 25.16300
N  42.81700 41.52300 24.37700
C  43.30900 40.57400 23.60900
C  43.31200 40.97400 22.10800
C  42.57200 42.30900 22.08500
C  42.40400 42.56200 23.64000
C  44.66900 41.12800 21.35900
C  41.27300 42.29900 21.40000
C  40.26600 41.17500 21.62500
N  41.99000 43.24000 26.47000
C  41.72900 44.18700 25.45700
C  41.30300 45.37900 26.04600
C  41.32000 45.19500 27.44500
C  41.70200 43.81900 27.65700
C  40.98900 46.64100 25.25800
C  41.11700 45.88900 28.71100
O  40.77500 47.05100 28.95700
C  41.23600 44.76400 29.87400
C  42.02400 45.34300 30.90300
O  43.05800 45.91700 30.68400
O  41.54000 44.92200 32.12700
C  42.58900 45.05500 33.13600
H  44.54700 38.62100 29.71100
H  43.97800 38.71600 23.18600
H  41.79300 44.58500 23.38700
H  42.93800 42.60100 31.74500
H  43.18600 39.63900 31.27700
H  45.26600 41.89500 31.68100
H  45.69500 40.47700 30.73500
H  45.08000 40.22900 32.35300
H  40.75500 40.64500 31.27500
H  40.44200 42.35300 31.27900
H  40.32300 40.42200 33.53000
H  39.93400 42.14500 33.55200
H  45.36600 36.81900 29.02500
H  46.15600 36.10900 27.66500
H  44.56800 35.56100 27.94000
H  44.01200 34.51600 25.68500
H  45.74300 34.89200 25.83100
H  45.14800 34.22700 24.36100
H  42.73100 40.22900 21.56400
H  43.14300 43.04800 21.52200
H  44.82600 42.08900 20.86900
H  44.59700 40.40000 20.55100
H  45.55000 40.96700 21.98000
H  41.52500 42.36700 20.34200
H  40.77000 43.24500 21.60000
H  40.67300 40.37500 22.24200
H  39.98400 40.63300 20.72300
H  39.41100 41.63100 22.12500
H  40.50400 46.43300 24.30400
H  41.95200 47.15100 25.29700
H  40.30700 47.22400 25.87700
H  40.23900 44.49300 30.22000
H  42.89800 46.10000 33.15600
H  43.43700 44.39600 32.94800
H  42.18000 44.88200 34.13100

