158

Mg 5.32100 54.78900 40.41000
C  4.76200 51.28300 40.30800
C  8.60500 54.08500 39.56200
C  5.74000 57.98700 40.16600
C  1.89900 55.16100 40.99200
N  6.54300 52.92100 39.94100
C  6.05300 51.61100 39.85500
C  7.17900 50.63500 39.42200
C  8.44300 51.51600 39.53000
C  7.84600 52.95200 39.72400
C  9.44900 50.99600 40.56600
C  7.04300 49.91400 38.01200
C  6.15900 50.66500 36.98900
H  6.87900 51.31900 35.85700
N  7.03700 55.90500 39.96300
C  8.27700 55.45500 39.65300
C  9.12400 56.61200 39.49000
C  8.32800 57.79000 39.74400
C  6.92700 57.24100 39.88800
C  10.65900 56.51300 39.25600
C  8.86700 59.17900 39.63200
O  10.06100 59.42000 39.45700
C  7.96600 60.32200 39.82800
N  4.01700 56.39200 40.52200
C  4.43300 57.65300 40.49200
C  3.29100 58.66700 40.80500
C  2.04700 57.72100 40.89400
C  2.69300 56.35100 40.80100
C  3.56300 59.48900 42.07800
C  0.93100 57.74700 39.78700
C  -0.52200 57.78500 40.17100
N  3.58700 53.52700 40.59300
C  2.35700 53.79400 40.96000
C  1.60600 52.57600 41.13600
C  2.51300 51.59600 41.02900
C  3.70700 52.16700 40.64500
C  0.09000 52.46300 41.22200
C  2.77000 50.14400 41.09900
O  2.01700 49.24000 41.37500
C  4.26800 49.96500 40.61800
C  4.08500 49.23500 39.35700
O  3.56500 49.73000 38.35400
O  4.55000 47.92500 39.53700
C  4.29600 46.94000 38.45800
H  9.66000 53.90800 39.34700
H  5.79100 59.07700 40.17100
H  0.84100 55.33000 41.20200
H  7.19800 49.88800 40.21600
H  8.98900 51.51800 38.58700
H  10.46300 50.86300 40.18800
H  9.21100 50.09700 41.13400
H  9.53600 51.74200 41.35600
H  6.61100 48.91900 38.11300
H  7.99700 49.85200 37.48800
H  5.55000 51.45700 37.42500
H  5.46400 49.99200 36.48800
H  11.07300 57.06600 38.41200
H  10.92400 55.46400 39.12700
H  11.04600 56.82900 40.22500
H  8.45100 61.29700 39.77700
H  7.45100 60.24500 40.78600
H  7.32800 60.33400 38.94500
H  3.11900 59.27900 39.92000
H  1.62600 57.61900 41.89400
H  2.72500 59.40100 42.77000
H  3.54900 60.54600 41.81400
H  4.45900 59.25100 42.65100
H  1.06900 56.95200 39.05300
H  1.06900 58.62000 39.15000
H  -0.61400 58.11700 41.20500
H  -1.17100 56.91700 40.05500
H  -0.96700 58.58500 39.57900
H  -0.41300 53.37500 40.90100
H  -0.11100 52.34300 42.28700
H  -0.36900 51.63200 40.68700
H  4.91500 49.54100 41.38600
H  4.51400 47.36900 37.48000
H  3.30600 46.49900 38.34200
H  4.94300 46.09500 38.69300
Mg -1.64100 34.97700 26.92700
C  -3.56100 33.14200 29.28200
C  -0.77200 36.97200 29.51700
C  -0.27100 36.87300 24.75500
C  -2.83200 32.76700 24.36300
N  -1.97200 34.93400 29.24800
C  -2.81600 34.11800 29.93200
C  -2.85600 34.44800 31.43500
C  -2.20800 35.93100 31.40100
C  -1.53600 35.93800 30.01300
C  -3.25800 37.06400 31.51500
C  -2.15000 33.48400 32.42600
C  -2.83700 33.20000 33.81500
H  -2.93200 34.41000 34.83300
N  -0.67600 36.65200 27.11900
C  -0.40100 37.36000 28.25800
C  0.38600 38.51800 27.90100
C  0.61400 38.51400 26.51200
C  -0.07000 37.32600 26.07900
C  0.83900 39.63500 28.91100
C  1.28700 39.47800 25.62700
O  1.40800 39.34200 24.44000
C  1.85800 40.63700 26.28600
N  -1.51500 34.86500 24.83800
C  -0.96400 35.80100 24.13600
C  -0.70400 35.33400 22.69300
C  -1.34100 33.91800 22.60200
C  -1.92700 33.83000 24.00200
C  -1.15500 36.40900 21.62900
C  -0.35600 32.81800 22.27500
C  0.14700 31.86200 23.30900
N  -2.90600 33.34100 26.82400
C  -3.31600 32.55000 25.69800
C  -4.21200 31.48100 26.14400
C  -4.31900 31.66900 27.53400
C  -3.55600 32.82800 27.90600
C  -4.81600 30.36700 25.32700
C  -4.90900 31.13600 28.73900
O  -5.65400 30.20000 28.95300
C  -4.38200 32.05800 29.96200
C  -5.52700 32.54500 30.64300
O  -6.25700 33.45500 30.30000
O  -5.88400 31.67500 31.64600
C  -6.85300 32.20300 32.62500
H  -0.37200 37.58000 30.33100
H  0.27300 37.55600 24.10000
H  -3.13000 32.17100 23.49800
H  -3.92400 34.49300 31.65000
H  -1.44000 35.98900 32.17200
H  -4.25300 36.70500 31.25100
H  -3.07300 37.85100 30.78300
H  -3.30400 37.59300 32.46700
H  -1.15200 33.87000 32.63200
H  -2.17300 32.52200 31.91400
H  -2.27100 32.38700 34.27100
H  -3.86800 32.85300 33.87800
H  1.92800 39.60800 28.87600
H  0.57700 39.38900 29.94000
H  0.40200 40.61700 28.72800
H  1.12100 41.30200 26.73600
H  2.29800 41.18100 25.45100
H  2.63400 40.26300 26.95500
H  0.37700 35.19400 22.71300
H  -2.19900 33.96300 21.93100
H  -1.69100 37.23300 22.10000
H  -1.88700 36.03100 20.91600
H  -0.25200 36.70100 21.09300
H  0.43700 33.28900 21.69400
H  -0.78000 32.07000 21.60500
H  0.25000 32.33200 24.28700
H  1.11800 31.50300 22.96800
H  -0.54500 31.02000 23.32000
H  -4.57400 30.42200 24.26600
H  -5.86700 30.51500 25.57600
H  -4.41200 29.41200 25.66200
H  -3.70000 31.41100 30.51300
H  -7.81500 32.47500 32.19100
H  -6.51000 33.14700 33.04800
H  -6.93400 31.49000 33.44600

