158

Mg 40.46900 9.06500 29.27800
C  42.14800 10.47500 32.10800
C  38.23800 7.62700 31.54500
C  38.86600 8.02900 26.63300
C  43.03000 10.45600 27.20700
N  40.28300 9.06500 31.67300
C  40.95600 9.82100 32.56200
C  40.38800 9.76700 33.98600
C  39.10600 8.87800 33.75800
C  39.21900 8.43100 32.27900
C  38.89200 7.61700 34.64600
C  40.17100 11.16300 34.60800
C  39.16400 11.31500 35.73100
H  39.52300 12.02700 37.03200
N  38.78000 8.04700 29.09900
C  38.03900 7.40700 30.18100
C  37.05600 6.55200 29.52500
C  37.18500 6.75500 28.13300
C  38.30800 7.63200 27.90200
C  36.12000 5.69700 30.27700
C  36.40300 6.06800 27.00300
O  36.49100 6.46300 25.88000
C  35.54700 4.93000 27.36200
N  40.86500 9.33100 27.21900
C  39.97600 8.76500 26.28800
C  40.38400 9.09000 24.85100
C  41.72900 9.92800 25.11900
C  41.88900 9.91000 26.58700
C  40.49600 7.81100 23.99000
C  41.70700 11.40700 24.50000
C  41.58200 12.68900 25.40700
N  42.30900 10.06500 29.58000
C  43.26200 10.51600 28.63300
C  44.29600 11.11000 29.34200
C  43.92900 11.11400 30.70100
C  42.69200 10.47200 30.78500
C  45.49800 11.74000 28.88900
C  44.38100 11.59900 32.07100
O  45.31100 12.28600 32.42500
C  43.14100 11.18400 32.96300
C  43.58600 10.28300 34.10200
O  43.98700 9.16600 33.99600
O  43.55700 10.98900 35.26500
C  43.90200 10.34300 36.51300
H  37.55600 7.08500 32.20200
H  38.24200 7.84200 25.75600
H  43.73000 10.88300 26.48700
H  41.15900 9.28600 34.59000
H  38.20800 9.49000 33.84300
H  37.94900 7.97000 35.06400
H  39.63300 7.56200 35.44300
H  38.80000 6.66200 34.12800
H  39.97800 11.92300 33.85100
H  41.12500 11.49100 35.02000
H  38.71200 10.35500 35.98100
H  38.25800 11.79100 35.35700
H  35.12600 5.97600 29.92900
H  36.19300 5.79600 31.36000
H  36.30100 4.63700 30.09800
H  35.21800 4.53300 26.40100
H  34.61200 5.11100 27.89200
H  36.17600 4.15900 27.80700
H  39.55000 9.70000 24.50300
H  42.52700 9.37700 24.62100
H  39.79700 7.86200 23.15500
H  40.30300 6.90300 24.56300
H  41.49100 7.85800 23.54900
H  40.97700 11.71900 23.75400
H  42.64700 11.57700 23.97500
H  41.36200 12.40200 26.43600
H  40.77000 13.35500 25.11500
H  42.54400 13.20000 25.46000
H  45.33400 12.27000 27.95100
H  46.11000 10.90400 28.54900
H  45.95800 12.35600 29.66100
H  42.74200 12.11800 33.36000
H  43.49100 9.35500 36.72300
H  43.52200 10.99400 37.30100
H  44.98200 10.21700 36.58200
Mg 0.87000 43.04100 26.03400
C  3.14500 43.38200 28.68800
C  -1.65600 42.46400 28.20400
C  -0.93800 42.06200 23.38700
C  3.65100 43.46900 23.78500
N  0.82000 42.78800 28.22200
C  1.84700 43.13000 29.10300
C  1.34000 43.00500 30.56300
C  -0.16500 42.58900 30.35100
C  -0.39000 42.69700 28.86500
C  -0.48100 41.24200 30.96000
C  1.48500 44.35100 31.33600
C  1.41000 44.28600 32.88900
H  1.32000 42.97400 33.72100
N  -1.05700 42.32800 25.82700
C  -2.02000 42.26300 26.86400
C  -3.28800 41.87600 26.29000
C  -3.08200 41.83300 24.86600
C  -1.65300 42.05400 24.63300
C  -4.51800 41.55900 27.15900
C  -4.12200 41.43400 23.77500
O  -3.83200 41.38900 22.58800
C  -5.56200 41.12600 24.12700
N  1.22700 42.88100 23.92400
C  0.38000 42.46500 23.04400
C  0.88900 42.45700 21.56100
C  2.24900 43.23900 21.79700
C  2.38300 43.27500 23.29100
C  0.94800 41.07600 20.81300
C  2.22500 44.65300 21.07000
C  1.74000 45.84700 22.02700
N  2.92800 43.52400 26.08700
C  3.90600 43.60900 25.10300
C  5.16900 43.84600 25.76000
C  4.92800 43.65800 27.13700
C  3.54000 43.51400 27.33400
C  6.48800 43.96800 25.04300
C  5.53200 43.57700 28.47600
O  6.70700 43.55800 28.70900
C  4.34800 43.50900 29.57400
C  4.55000 42.40300 30.53500
O  4.17800 41.29800 30.41100
O  5.14200 42.88500 31.62400
C  5.28900 41.97300 32.80300
H  -2.47300 42.38400 28.92400
H  -1.55500 41.89600 22.50100
H  4.47000 43.56700 23.06900
H  1.85800 42.19100 31.07100
H  -0.89600 43.22000 30.85700
H  -1.29100 40.79400 30.38500
H  -0.74100 41.30300 32.01700
H  0.39700 40.59700 30.94100
H  0.64700 44.97200 31.02100
H  2.35000 44.85300 30.90300
H  0.55200 44.91500 33.12900
H  2.33300 44.76200 33.21900
H  -4.72600 40.49400 27.25600
H  -5.42100 42.05400 26.80200
H  -4.34100 42.05700 28.11300
H  -6.18900 41.00300 23.24400
H  -5.97300 41.96400 24.69000
H  -5.65800 40.18000 24.66000
H  0.19500 42.98200 20.90500
H  3.02100 42.60100 21.36800
H  0.59200 40.30300 21.49300
H  2.00400 40.84500 20.67200
H  0.35100 40.99800 19.90500
H  1.71400 44.59700 20.10900
H  3.22800 45.05300 20.92000
H  2.57200 45.97500 22.72000
H  0.87900 45.62500 22.65700
H  1.46600 46.76300 21.50300
H  6.32700 44.08300 23.97100
H  7.10000 43.06800 25.10400
H  7.02800 44.88500 25.28100
H  4.43600 44.43300 30.14600
H  4.74100 41.03100 32.79800
H  4.94300 42.54600 33.66300
H  6.35300 41.74700 32.88100

