158

Mg 29.73800 57.55800 39.20900
C  26.88900 55.51500 38.69900
C  31.69000 55.08100 37.79300
C  32.39100 59.65500 39.31700
C  27.58900 60.18800 40.03800
N  29.31700 55.57400 38.31400
C  28.06900 54.87100 38.36800
C  28.23500 53.43700 37.93000
C  29.72800 53.44600 37.53700
C  30.29400 54.78500 37.86500
C  30.53800 52.24700 38.25000
C  27.29700 52.81300 36.73100
C  27.01600 53.83200 35.59900
H  27.79600 53.78000 34.30800
N  31.75400 57.39000 38.68500
C  32.35500 56.25200 38.14300
C  33.78100 56.53400 38.03700
C  34.08600 57.88400 38.47100
C  32.74300 58.37600 38.89900
C  34.64000 55.52200 37.50200
C  35.39800 58.53500 38.28600
O  36.38200 57.91800 37.83400
C  35.57500 59.92400 38.65900
N  29.91400 59.60600 39.46100
C  31.15800 60.23000 39.57300
C  31.06400 61.68600 40.05600
C  29.49700 61.84400 40.22300
C  28.92100 60.45700 39.88600
C  31.89200 62.08800 41.26500
C  28.88900 62.91500 39.26500
C  27.74000 63.62800 39.92800
N  27.71300 57.79300 39.51000
C  26.98000 58.91100 39.83900
C  25.55200 58.64800 39.84500
C  25.46000 57.30300 39.42900
C  26.80100 56.81300 39.24400
C  24.37800 59.55500 40.12500
C  24.50300 56.22400 39.16300
O  23.25300 56.19100 39.18800
C  25.40400 55.02700 38.56500
C  25.13700 53.84500 39.41700
O  25.61200 53.61300 40.50200
O  24.11500 53.14600 38.85500
C  23.82600 51.86200 39.55600
H  32.33600 54.30900 37.36900
H  33.15900 60.43200 39.31800
H  26.94900 61.03400 40.29900
H  28.03800 52.87900 38.84500
H  29.85700 53.25700 36.47100
H  31.27400 51.77400 37.60000
H  29.76400 51.50300 38.43600
H  31.05800 52.60200 39.14000
H  26.41500 52.31200 37.12900
H  27.94000 52.02100 36.34700
H  27.02900 54.83900 36.01500
H  25.96800 53.61000 35.39500
H  34.83500 55.63300 36.43600
H  34.26300 54.50100 37.56600
H  35.57900 55.48800 38.05400
H  35.39700 59.95500 39.73400
H  34.98100 60.68200 38.14700
H  36.61600 60.22600 38.54900
H  31.42000 62.31500 39.24000
H  29.33500 62.19500 41.24200
H  32.40300 63.04300 41.14200
H  32.58900 61.28500 41.50500
H  31.18300 62.18100 42.08800
H  28.71200 62.40100 38.32100
H  29.67700 63.65400 39.11900
H  26.89600 63.54300 39.24300
H  27.88000 64.70300 40.04300
H  27.37800 63.32400 40.91000
H  24.01300 59.52700 41.15100
H  23.64600 59.30500 39.35600
H  24.62300 60.59500 39.91000
H  25.06500 54.78000 37.55900
H  24.65300 51.31800 40.01300
H  23.29400 51.16600 38.90800
H  23.22500 52.16000 40.41500
Mg -11.97100 37.83800 42.13500
C  -10.07400 35.17900 41.04100
C  -9.60800 40.01200 40.60600
C  -14.12100 40.59300 42.51500
C  -14.27700 35.74000 43.37200
N  -10.14900 37.59300 40.82100
C  -9.53700 36.33300 40.61000
C  -8.22000 36.55000 39.86200
C  -8.01700 38.10000 40.04100
C  -9.31300 38.63700 40.59300
C  -6.81500 38.62600 40.85000
C  -8.33800 35.92700 38.39000
C  -7.23200 34.90300 37.89800
H  -6.46400 35.32400 36.61200
N  -11.82200 40.05400 41.74900
C  -10.71400 40.67300 41.16900
C  -11.07400 42.08700 41.00500
C  -12.39900 42.29800 41.69400
C  -12.88400 40.93000 42.00300
C  -10.08400 43.16400 40.36400
C  -13.00300 43.65600 41.89600
O  -12.50800 44.67100 41.37300
C  -14.24700 43.77100 42.65000
N  -13.91600 38.16500 42.74100
C  -14.57500 39.30200 42.96400
C  -16.01200 39.01500 43.52400
C  -15.85800 37.60200 44.10300
C  -14.63500 37.07000 43.32100
C  -16.52900 40.00000 44.48000
C  -17.07600 36.70300 44.01500
C  -17.40100 36.02600 45.40600
N  -12.23500 35.82400 42.26300
C  -13.17100 35.07700 42.82200
C  -12.86000 33.64100 42.81200
C  -11.65700 33.66500 42.04500
C  -11.36600 34.94600 41.76000
C  -13.67200 32.53500 43.30700
C  -10.67200 32.82000 41.45200
O  -10.51800 31.60300 41.42800
C  -9.65000 33.77800 40.75600
C  -8.29400 33.52400 41.36500
O  -7.33300 33.03600 40.82300
O  -8.40300 33.80600 42.76800
C  -7.14400 33.79500 43.50000
H  -8.84400 40.66800 40.18400
H  -14.87400 41.38100 42.58000
H  -14.86700 35.10200 44.03400
H  -7.47400 35.98500 40.42000
H  -7.80600 38.58800 39.09000
H  -6.10300 37.80000 40.86300
H  -7.18300 38.86400 41.84800
H  -6.33300 39.46800 40.35200
H  -8.46400 36.71000 37.64200
H  -9.26800 35.37400 38.26300
H  -7.74000 33.96700 37.66700
H  -6.49000 34.71800 38.67500
H  -9.37300 42.67400 39.69800
H  -9.67300 43.72500 41.20300
H  -10.71800 43.85900 39.81400
H  -15.00200 43.25400 42.05800
H  -14.58400 44.80500 42.71600
H  -14.17000 43.25000 43.60500
H  -16.71500 39.05500 42.69200
H  -15.66900 37.78300 45.16100
H  -17.41300 40.42700 44.00700
H  -15.78600 40.73200 44.79900
H  -16.86400 39.55200 45.41600
H  -16.99400 35.89200 43.29000
H  -17.99300 37.24100 43.77500
H  -18.45600 36.22000 45.60000
H  -16.76700 36.42600 46.19700
H  -17.13200 34.98000 45.25400
H  -13.05200 31.64800 43.43500
H  -14.45000 32.22500 42.60900
H  -14.07500 32.84600 44.27100
H  -9.53600 33.48000 39.71400
H  -6.61200 34.70500 43.22200
H  -6.58200 32.92100 43.16900
H  -7.46900 33.61700 44.52500

