158

Mg 47.78700 25.80100 29.18200
C  48.67000 28.06300 31.77400
C  46.53000 23.69700 31.37200
C  47.37100 23.50400 26.63000
C  49.24300 27.89700 26.89500
N  47.70700 25.81800 31.35500
C  47.95500 26.94900 32.24900
C  47.35300 26.69500 33.65000
C  46.85600 25.20300 33.51300
C  46.95900 24.88900 31.96000
C  47.84400 24.23000 34.24600
C  46.13800 27.70300 33.85500
C  46.41300 28.71300 34.93500
H  45.51400 28.82100 36.20400
N  46.94300 23.87700 29.02500
C  46.49500 23.21700 30.05400
C  45.88100 21.99600 29.61200
C  46.31000 21.81000 28.28000
C  46.84500 23.10200 27.86900
C  45.19400 20.98700 30.50600
C  46.23000 20.62100 27.29300
O  46.70000 20.68800 26.14800
C  45.62000 19.27600 27.65600
N  48.30400 25.65800 27.03700
C  48.01300 24.67500 26.23400
C  48.39600 25.02400 24.75100
C  48.95300 26.41100 24.92900
C  48.85600 26.67000 26.38300
C  49.33100 24.06500 23.98600
C  48.19200 27.61200 24.25000
C  48.95600 28.79800 23.62200
N  48.73300 27.61300 29.26000
C  49.35700 28.33300 28.20600
C  49.99600 29.53000 28.70100
C  49.67900 29.48200 30.08400
C  49.01000 28.26700 30.36800
C  50.69600 30.69300 27.96700
C  49.70500 30.20800 31.31700
O  50.15800 31.32500 31.53400
C  49.01300 29.36500 32.42100
C  50.02800 29.17800 33.54000
O  51.00600 28.47900 33.54500
O  49.69400 30.00600 34.59700
C  50.31600 29.75600 35.89700
H  46.14500 23.02700 32.14300
H  47.19200 22.89900 25.73800
H  49.71500 28.62800 26.23600
H  48.13900 26.76400 34.40100
H  45.83400 25.14200 33.88700
H  47.41100 23.88500 35.18500
H  48.80000 24.70800 34.46000
H  48.14100 23.33500 33.69900
H  45.18700 27.25700 34.14700
H  45.91400 28.24100 32.93400
H  46.42800 29.71700 34.51000
H  47.43000 28.57600 35.30300
H  45.95800 20.22400 30.65200
H  44.38400 20.52100 29.94400
H  44.89000 21.33400 31.49300
H  45.65900 19.07200 28.72600
H  46.19200 18.50200 27.14500
H  44.55200 19.32300 27.44100
H  47.44600 25.22700 24.25800
H  50.01000 26.55900 24.70900
H  49.76600 23.43100 24.75800
H  50.09300 24.55400 23.37900
H  48.81100 23.52200 23.19700
H  47.52000 28.07000 24.97500
H  47.55100 27.23000 23.45600
H  48.50000 29.74700 23.90400
H  48.90300 28.82800 22.53400
H  50.00100 28.80300 23.93300
H  51.14300 31.33700 28.72500
H  49.94700 31.25000 27.40400
H  51.44200 30.37000 27.24100
H  48.20400 29.92000 32.89600
H  49.50600 29.47100 36.56900
H  50.77600 30.62600 36.36300
H  50.97200 28.88700 35.94100
Mg 9.98500 47.83700 26.01500
C  7.84200 47.94100 28.87500
C  12.39200 49.42200 27.94700
C  11.80200 48.23500 23.19600
C  7.23900 46.77900 24.06700
N  10.06300 48.73800 28.19500
C  9.13700 48.41200 29.18400
C  9.62700 49.08000 30.49800
C  11.12600 49.56500 30.21400
C  11.25400 49.29100 28.72300
C  11.26500 51.04800 30.47300
C  9.44200 48.16700 31.83200
C  10.47000 48.19600 33.00200
H  10.05000 48.55500 34.40700
N  11.86000 48.54300 25.69300
C  12.72300 49.14500 26.57100
C  13.91500 49.39500 25.85600
C  13.83200 49.11800 24.52300
C  12.41800 48.63000 24.41300
C  15.11600 49.99000 26.58700
C  14.82500 49.35500 23.51700
O  14.55600 49.18100 22.34100
C  16.21100 49.80600 23.75500
N  9.52000 47.63200 23.91100
C  10.51300 47.67200 22.92200
C  10.03100 47.02900 21.59300
C  8.66700 46.38000 22.02100
C  8.47300 46.99300 23.36500
C  9.94500 47.99800 20.37800
C  8.64200 44.77100 22.12200
C  9.61100 44.16000 23.21100
N  7.92800 47.52900 26.34000
C  6.97400 47.05900 25.44800
C  5.71900 46.82600 26.21400
C  6.02300 47.10000 27.58700
C  7.37900 47.52400 27.61500
C  4.45800 46.22400 25.61700
C  5.57400 47.11500 28.96600
O  4.52700 46.79100 29.45900
C  6.80000 47.49700 29.85100
C  7.07100 46.25600 30.60900
O  7.63100 45.27600 30.16700
O  6.66500 46.40700 31.91400
C  7.05200 45.33100 32.84000
H  13.15700 49.86600 28.58800
H  12.37700 48.37200 22.27800
H  6.40600 46.39600 23.47500
H  8.90300 49.89400 30.54700
H  11.89700 49.00700 30.74500
H  12.14700 51.31100 31.05700
H  10.36100 51.33200 31.01200
H  11.30600 51.61900 29.54500
H  9.48300 47.09900 31.61900
H  8.39100 48.40200 32.00200
H  11.30000 48.87600 32.80900
H  10.88200 47.18700 33.01100
H  15.01900 50.09500 27.66700
H  15.35400 50.93400 26.09600
H  15.95000 49.30400 26.43900
H  16.70400 49.93900 22.79200
H  16.80500 49.10800 24.34400
H  16.32100 50.80000 24.18800
H  10.64300 46.21100 21.21300
H  7.81700 46.80000 21.48300
H  10.43500 48.93400 20.64300
H  8.96000 48.11500 19.92600
H  10.62700 47.56800 19.64400
H  8.86900 44.36400 21.13700
H  7.64000 44.39200 22.32400
H  10.20000 44.97100 23.63900
H  10.17100 43.32100 22.79800
H  8.95600 43.85500 24.02700
H  4.46800 45.57700 24.74000
H  3.69000 46.98500 25.47800
H  4.26600 45.63900 26.51700
H  6.53700 48.31800 30.51900
H  7.92900 45.74500 33.33900
H  7.19500 44.39200 32.30500
H  6.24700 45.30400 33.57500

