158

Mg -3.06400 17.16400 25.88600
C  -3.28000 14.78500 28.51600
C  -3.74300 19.56800 28.01800
C  -3.04600 19.20200 23.20100
C  -2.73000 14.33300 23.71300
N  -3.54700 17.08900 28.01900
C  -3.45500 16.10700 28.98600
C  -3.67200 16.68300 30.38300
C  -3.75900 18.26200 30.18200
C  -3.75600 18.33600 28.63500
C  -4.83900 18.95900 31.02700
C  -2.73000 16.10500 31.37100
C  -2.17200 16.92300 32.55800
H  -1.81800 16.16900 33.89400
N  -3.48000 19.15400 25.57000
C  -3.67300 19.96400 26.66300
C  -3.64100 21.34700 26.17000
C  -3.19200 21.31600 24.82400
C  -3.25200 19.83100 24.44200
C  -3.94900 22.53900 27.14500
C  -2.83300 22.49900 23.94300
O  -2.36000 22.35700 22.81500
C  -2.87300 23.95800 24.42000
N  -2.80700 16.83900 23.73200
C  -2.99900 17.88200 22.83400
C  -2.71200 17.33300 21.40900
C  -2.84900 15.80300 21.60400
C  -2.68700 15.63700 23.13200
C  -3.46700 17.96800 20.29600
C  -1.87500 14.97900 20.68700
C  -2.66600 14.05100 19.71500
N  -3.02600 15.03500 26.04900
C  -2.85500 14.05400 25.10200
C  -2.84600 12.70200 25.72100
C  -3.03400 12.98200 27.02300
C  -3.13000 14.36900 27.17700
C  -2.64400 11.43500 25.13100
C  -3.19200 12.36200 28.33200
O  -3.17900 11.18400 28.61900
C  -3.40700 13.50900 29.31900
C  -2.42100 13.34000 30.43700
O  -1.24000 13.57900 30.38100
O  -3.06900 12.67400 31.44700
C  -2.27500 12.18600 32.57800
H  -3.82900 20.42900 28.68400
H  -2.95400 19.84200 22.32100
H  -2.60000 13.47100 23.05500
H  -4.66600 16.27500 30.56900
H  -2.81900 18.60700 30.61200
H  -4.67000 19.98200 31.36100
H  -4.97900 18.44800 31.98000
H  -5.73000 18.75900 30.43200
H  -1.83200 15.92400 30.77900
H  -3.05700 15.15700 31.79800
H  -2.83600 17.75100 32.80400
H  -1.22100 17.37600 32.27600
H  -3.00700 22.94800 27.50900
H  -4.60300 22.36600 28.00000
H  -4.44600 23.25400 26.48900
H  -3.88000 24.35200 24.28500
H  -2.20000 24.50200 23.75800
H  -2.50300 24.13400 25.43000
H  -1.70000 17.66200 21.17500
H  -3.89200 15.55200 21.41100
H  -2.79900 18.37500 19.53600
H  -4.03700 18.84600 20.60100
H  -4.11800 17.22200 19.84000
H  -1.37400 14.26800 21.34400
H  -1.16400 15.65200 20.20800
H  -2.55000 12.98500 19.91100
H  -2.20900 14.41600 18.79500
H  -3.70700 14.36900 19.67900
H  -1.94900 11.44400 24.29100
H  -3.58200 11.06900 24.71400
H  -2.30600 10.64200 25.79900
H  -4.44900 13.33300 29.58500
H  -1.53700 12.86900 32.99800
H  -1.80000 11.31600 32.12500
H  -2.93200 11.98700 33.42500
Mg 25.45100 1.82600 29.44500
C  27.56500 1.90200 32.29400
C  22.74800 1.79400 31.66700
C  23.52500 1.86000 26.86300
C  28.23500 1.06800 27.50700
N  25.19800 1.94200 31.70600
C  26.19500 2.11900 32.65700
C  25.58600 2.49000 34.03100
C  24.03800 2.28700 33.80400
C  23.97900 2.01200 32.27500
C  23.36400 1.08700 34.61600
C  26.06000 3.79900 34.66300
C  26.48500 3.66500 36.20800
H  25.74000 4.61600 37.21700
N  23.41500 1.84800 29.28500
C  22.46800 1.79800 30.27000
C  21.13400 1.72200 29.69100
C  21.33900 1.79700 28.28100
C  22.79200 1.84100 28.08800
C  19.86900 1.60800 30.41300
C  20.27400 1.81900 27.19000
O  20.59700 1.86700 26.02900
C  18.77300 1.85600 27.50900
N  25.84600 1.42100 27.47600
C  24.82500 1.53800 26.53500
C  25.44800 1.59200 25.12600
C  26.98800 1.33400 25.31800
C  27.03300 1.29700 26.84300
C  24.70200 0.54400 24.16400
C  27.80800 2.53300 24.72000
C  29.18700 2.20600 24.21200
N  27.43700 1.50200 29.79200
C  28.48900 1.17900 28.90200
C  29.70000 1.12300 29.57600
C  29.39700 1.39900 30.88500
C  28.02400 1.57800 31.01000
C  31.07800 0.64500 29.04400
C  30.02000 1.54600 32.18300
O  31.19600 1.47500 32.51800
C  28.89700 2.01200 33.17300
C  28.88000 1.09900 34.34700
O  28.18300 0.15100 34.57400
O  29.69600 1.75500 35.23100
C  29.93000 1.16200 36.60500
H  21.94000 1.96400 32.38200
H  22.81300 2.07800 26.06500
H  29.16000 0.85500 26.96700
H  26.00000 1.73900 34.70400
H  23.57200 3.22700 34.09600
H  22.39300 0.84500 34.18400
H  23.25300 1.51000 35.61500
H  24.00300 0.20500 34.57300
H  25.18300 4.44400 34.71000
H  26.87700 4.19500 34.06100
H  27.56300 3.77200 36.09200
H  26.23700 2.65500 36.53700
H  19.06000 2.27800 30.12200
H  20.10500 1.93200 31.42600
H  19.55100 0.57400 30.27600
H  18.28200 1.67600 26.55300
H  18.49900 2.83400 27.90700
H  18.63600 0.98500 28.14900
H  25.40100 2.61600 24.75600
H  27.34500 0.37000 24.95400
H  23.95200 0.99100 23.51200
H  24.16200 -0.19800 24.75300
H  25.49700 0.11000 23.55700
H  27.80000 3.20500 25.57800
H  27.34600 3.01400 23.85800
H  29.81900 3.00900 24.59200
H  29.20600 2.10800 23.12700
H  29.61900 1.25400 24.52300
H  30.99900 -0.14600 28.29900
H  31.59500 0.17300 29.87900
H  31.64500 1.49400 28.66000
H  29.05900 3.03800 33.50300
H  29.01000 1.00600 37.16700
H  30.67200 1.76000 37.13400
H  30.30200 0.13800 36.59800

