158

Mg -10.57900 40.21100 42.18200
C  -9.02400 37.33300 40.99200
C  -8.13000 41.97800 40.42800
C  -12.29000 43.02200 42.64900
C  -13.31600 38.30700 43.12200
N  -8.74600 39.61900 40.84200
C  -8.33400 38.42800 40.51500
C  -7.05000 38.44200 39.66300
C  -6.70300 40.06000 39.57500
C  -7.98500 40.56300 40.29900
C  -5.40600 40.47600 40.23600
C  -7.30500 37.90600 38.19400
C  -6.61600 36.52900 37.84200
H  -5.62900 36.49200 36.75000
N  -10.13400 42.28600 41.83800
C  -9.09700 42.76300 41.05700
C  -9.03100 44.19400 41.36200
C  -10.34500 44.56600 41.81800
C  -10.99200 43.28100 42.11700
C  -7.92900 45.11900 40.95100
C  -10.90100 45.97700 42.12100
O  -10.24200 46.94100 41.88200
C  -12.27500 46.22200 42.86100
N  -12.53500 40.59800 42.79800
C  -13.02200 41.84400 42.94600
C  -14.54400 41.95000 43.29600
C  -14.86200 40.39700 43.47700
C  -13.51600 39.65700 43.06400
C  -14.83300 42.83600 44.59000
C  -16.17100 39.98900 42.63100
C  -17.10800 39.00200 43.32500
N  -11.05600 38.18600 42.22900
C  -12.18300 37.55900 42.64400
C  -11.89800 36.15700 42.68400
C  -10.68400 36.01600 41.99900
C  -10.25300 37.34100 41.77000
C  -12.83100 35.04900 43.16100
C  -9.69100 35.03600 41.56700
O  -9.62700 33.83900 41.63100
C  -8.62200 35.87200 40.82700
C  -7.39300 35.61600 41.54600
O  -6.97400 36.17300 42.55100
O  -6.68500 34.61500 40.86300
C  -5.77300 33.77700 41.67200
H  -7.33000 42.59900 40.01900
H  -12.86000 43.88800 42.99200
H  -14.14400 37.67800 43.45600
H  -6.30900 37.87300 40.22300
H  -6.62900 40.48400 38.57400
H  -4.98400 39.74600 40.92700
H  -5.48200 41.40100 40.80700
H  -4.64400 40.77900 39.51700
H  -7.01600 38.61000 37.41400
H  -8.38800 37.81800 38.11500
H  -7.45300 35.86700 37.62100
H  -6.06500 36.17200 38.71200
H  -6.88000 44.83100 40.89000
H  -7.95400 45.96100 41.64200
H  -8.22700 45.53500 39.98800
H  -13.04900 46.12100 42.10000
H  -12.21600 47.25300 43.21000
H  -12.47800 45.65600 43.77100
H  -14.92900 42.48800 42.42900
H  -15.01500 40.08500 44.51100
H  -15.25100 42.29300 45.43800
H  -15.43400 43.72600 44.40700
H  -13.93900 43.26600 45.04100
H  -15.76600 39.61600 41.69000
H  -16.73100 40.91000 42.47300
H  -16.53700 38.57900 44.15100
H  -17.32400 38.28100 42.53600
H  -17.97100 39.54000 43.71900
H  -12.31700 34.62500 44.02400
H  -13.00300 34.35200 42.34100
H  -13.73600 35.54800 43.50900
H  -8.52800 35.71600 39.75200
H  -6.29700 33.47100 42.57800
H  -4.95300 34.42900 41.97500
H  -5.42000 32.92200 41.09500
Mg -4.29600 24.69100 26.59200
C  -3.21000 26.77500 29.13900
C  -5.65200 22.59800 28.91300
C  -5.51000 22.80100 24.15200
C  -3.17200 27.03200 24.26300
N  -4.40900 24.75800 28.81100
C  -3.93300 25.66700 29.66600
C  -4.37400 25.25200 31.12500
C  -4.87200 23.78400 31.08300
C  -5.08100 23.69500 29.52300
C  -3.77300 22.76800 31.54800
C  -5.52100 26.22600 31.64100
C  -5.57400 26.58800 33.10500
H  -4.95200 25.54000 34.00700
N  -5.35600 22.89700 26.58000
C  -5.78200 22.19900 27.57400
C  -6.49600 20.95800 27.14300
C  -6.46700 21.01600 25.70800
C  -5.78300 22.27100 25.42900
C  -7.18000 20.03000 28.14000
C  -6.97600 20.02100 24.66900
O  -6.79200 20.06200 23.43400
C  -7.84600 18.88100 25.24600
N  -4.19200 24.89200 24.46300
C  -4.73400 23.90700 23.72200
C  -4.71400 24.25400 22.19400
C  -4.10700 25.72000 22.16200
C  -3.88600 25.94600 23.66000
C  -3.98800 23.21900 21.32500
C  -5.02800 26.78700 21.63000
C  -4.92700 26.95000 20.09500
N  -3.38400 26.51200 26.61500
C  -2.94200 27.36900 25.59500
C  -2.20700 28.47600 26.13600
C  -2.25000 28.28400 27.56000
C  -3.01900 27.12100 27.79000
C  -1.47400 29.44500 25.41300
C  -1.81000 28.73200 28.86600
O  -1.06400 29.65300 29.16200
C  -2.49600 27.81300 29.91800
C  -1.40200 27.42700 30.82000
O  -0.61700 26.50500 30.60900
O  -1.60600 27.90000 32.08800
C  -0.84100 27.24300 33.14300
H  -5.90100 21.87700 29.69400
H  -5.99100 22.28700 23.31700
H  -2.81200 27.83900 23.62200
H  -3.53600 25.37400 31.81100
H  -5.83400 23.59800 31.56100
H  -3.74400 21.95100 30.82600
H  -4.06000 22.30000 32.48900
H  -2.74500 23.12800 31.49600
H  -6.54500 25.92900 31.41300
H  -5.46700 27.14000 31.04900
H  -6.57700 26.63200 33.52900
H  -5.05100 27.54200 33.16400
H  -6.83500 20.11100 29.17100
H  -6.98400 18.99100 27.87500
H  -8.23600 20.27600 28.02700
H  -8.13300 18.29500 24.37300
H  -8.76600 19.38200 25.54900
H  -7.42100 18.27300 26.04500
H  -5.75000 24.33600 21.86500
H  -3.19400 25.63500 21.57300
H  -4.73100 22.73700 20.68900
H  -3.40700 22.57800 21.98800
H  -3.25000 23.66900 20.66100
H  -4.82200 27.71700 22.16000
H  -6.05800 26.55400 21.90000
H  -4.29100 26.18800 19.64500
H  -4.51400 27.92500 19.83500
H  -5.90100 26.87700 19.61300
H  -1.02700 29.10400 24.48000
H  -0.70600 29.87900 26.05300
H  -2.05900 30.32800 25.15200
H  -3.22500 28.30300 30.56400
H  0.19800 27.56700 33.19600
H  -0.86600 26.15400 33.18900
H  -1.34600 27.55300 34.05700

