158

Mg 47.64200 43.77800 42.32600
C  44.23900 42.72000 42.20400
C  48.56900 40.36600 42.24300
C  50.73700 44.76000 42.22200
C  46.48200 47.03100 41.94100
N  46.50800 41.80000 42.24300
C  45.15100 41.63300 42.24000
C  44.73200 40.11300 42.23100
C  46.19700 39.43500 42.40400
C  47.14500 40.56200 42.26500
C  46.33300 38.52600 43.63200
C  43.82600 39.57400 41.11200
C  43.98900 40.26300 39.72000
H  43.97500 39.32500 38.50700
N  49.43500 42.73100 42.24800
C  49.59600 41.36900 42.14400
C  51.01500 41.14000 42.07100
C  51.70700 42.35800 41.89700
C  50.64000 43.35000 42.14600
C  51.63300 39.78500 42.12200
C  53.17000 42.52600 41.73400
O  53.86900 41.51900 41.59000
C  53.88400 43.86400 41.61700
N  48.49400 45.64400 42.10400
C  49.76800 45.71600 42.36400
C  50.26800 47.22200 42.29700
C  48.88500 48.04200 42.18400
C  47.89300 46.87900 42.00400
C  51.06000 47.64600 43.61400
C  48.80500 49.17400 41.15900
C  48.10900 50.42500 41.66400
N  45.77700 44.75500 41.99500
C  45.48800 46.07000 41.91800
C  44.03200 46.32500 41.93900
C  43.52900 45.02300 42.09200
C  44.60800 44.08500 42.10300
C  43.40000 47.74200 41.88600
C  42.29900 44.22200 42.32200
O  41.12800 44.60900 42.48700
C  42.78300 42.71800 42.43400
C  42.26500 42.26800 43.77600
O  41.35000 41.46600 43.97100
O  42.98200 42.88200 44.83000
C  42.73700 42.36900 46.17900
H  48.71800 39.28800 42.14900
H  51.78400 45.06200 42.14000
H  46.15200 48.07200 41.96100
H  44.22800 40.07700 43.19700
H  46.37500 38.73300 41.59000
H  47.22300 38.82200 44.18800
H  46.47400 37.55700 43.15500
H  45.44000 38.53500 44.25800
H  42.77400 39.59100 41.39900
H  43.92400 38.49000 41.04000
H  44.88200 40.88900 39.71400
H  43.21100 41.02500 39.75500
H  52.40200 39.91000 42.88500
H  52.17900 39.51900 41.21800
H  50.90800 38.98100 42.24900
H  53.41900 44.55900 40.91800
H  54.86300 43.53800 41.26400
H  54.01400 44.35900 42.57900
H  50.86700 47.45700 41.41800
H  48.59200 48.53700 43.11000
H  51.94400 48.24300 43.39100
H  51.49500 46.73200 44.01700
H  50.52200 48.24000 44.35300
H  48.13200 48.79000 40.39300
H  49.82900 49.30900 40.81200
H  47.71400 50.84000 40.73600
H  48.81500 51.17600 42.01800
H  47.26700 50.24100 42.33200
H  42.31300 47.75200 41.96500
H  43.59000 48.14100 40.89000
H  43.84300 48.39700 42.63700
H  42.27500 42.23700 41.59900
H  43.22200 41.44100 46.48000
H  41.72700 42.32900 46.58700
H  43.26900 43.11600 46.76900
Mg 36.11400 48.94500 24.65700
C  36.34700 47.04700 27.78000
C  35.13100 51.51000 26.34700
C  35.26200 50.15500 21.65200
C  37.04200 45.91700 23.01400
N  35.77100 49.18000 26.83800
C  36.03500 48.42500 27.91500
C  35.80200 49.20200 29.24600
C  35.39300 50.64900 28.75600
C  35.42100 50.44900 27.19300
C  34.01500 51.20500 29.31900
C  36.83300 49.11200 30.40500
C  36.30000 48.49500 31.72800
H  34.88500 48.75600 32.20100
N  35.29100 50.58400 24.12000
C  34.97100 51.59600 24.93400
C  34.42900 52.62100 24.18500
C  34.46300 52.27500 22.77500
C  35.00700 50.94900 22.77300
C  33.96300 53.90400 24.78900
C  34.12400 53.11400 21.56200
O  34.07700 52.74300 20.35900
C  33.59100 54.47300 21.73800
N  36.03000 48.06700 22.63100
C  35.66900 48.83600 21.55700
C  36.03200 48.15000 20.17400
C  36.71900 46.87500 20.69300
C  36.65200 46.96100 22.23700
C  34.88700 47.92500 19.17700
C  38.18300 46.68900 20.18200
C  39.32900 47.45600 20.96200
N  36.54800 46.76500 25.21300
C  37.01200 45.79400 24.41900
C  37.26100 44.62000 25.19800
C  36.92800 45.03900 26.52900
C  36.61600 46.39400 26.48600
C  37.68400 43.22400 24.73200
C  36.70600 44.55900 27.89100
O  36.60300 43.44600 28.39300
C  36.53900 45.90600 28.80500
C  35.36600 45.67100 29.59700
O  34.18200 45.95900 29.31100
O  35.73300 45.10400 30.78900
C  34.69300 44.54300 31.61200
H  34.82800 52.40300 26.89700
H  35.21600 50.73000 20.72500
H  37.35700 45.07300 22.39800
H  34.92300 48.66800 29.60700
H  36.22200 51.33700 28.91500
H  34.23700 52.25700 29.49800
H  33.74800 50.69600 30.24500
H  33.21100 51.15400 28.58500
H  37.26400 50.09400 30.60100
H  37.62400 48.52300 29.94200
H  36.98300 48.83600 32.50600
H  36.45500 47.42600 31.57500
H  32.99900 54.28400 24.45100
H  34.64200 54.74600 24.65200
H  33.91000 53.83500 25.87600
H  34.35500 54.90300 22.38500
H  32.61500 54.44100 22.22200
H  33.48400 55.06500 20.82900
H  36.74900 48.83600 19.72400
H  36.12900 45.97700 20.51300
H  34.03700 48.54300 19.46800
H  34.59200 46.88200 19.06200
H  35.27900 48.23900 18.20900
H  38.23400 46.95600 19.12600
H  38.38900 45.62300 20.27800
H  38.89600 48.07200 21.75100
H  39.89300 48.14500 20.33300
H  40.09900 46.79800 21.36400
H  37.05800 42.87800 23.90900
H  37.60200 42.50100 25.54300
H  38.74600 43.27500 24.49100
H  37.47000 45.94600 29.37100
H  33.96400 43.94000 31.07100
H  34.03600 45.28400 32.06700
H  35.10200 43.82000 32.31700

