158

Mg 1.23300 -2.70500 44.18200
C  4.53800 -2.07300 43.54800
C  0.43200 -0.13500 41.97100
C  -1.89800 -3.34200 44.84100
C  2.18400 -5.69900 45.84200
N  2.35700 -1.37300 42.73200
C  3.74000 -1.22100 42.80600
C  4.25000 -0.04700 41.87500
C  2.88700 0.69700 41.62500
C  1.80300 -0.33300 42.11200
C  2.80500 2.02600 42.35500
C  4.96200 -0.59400 40.64400
C  6.09400 0.35500 40.15500
H  6.66800 0.00700 38.73500
N  -0.47600 -1.82100 43.50000
C  -0.60200 -0.83100 42.59800
C  -2.03900 -0.52800 42.46800
C  -2.79000 -1.45200 43.28000
C  -1.72500 -2.24000 43.93800
C  -2.56200 0.49200 41.56400
C  -4.30500 -1.60200 43.41900
O  -4.99100 -0.93000 42.73600
C  -4.96100 -2.40200 44.50200
N  0.29400 -4.43400 45.10900
C  -1.01300 -4.26800 45.41000
C  -1.51000 -5.52800 46.17600
C  -0.23100 -6.49700 46.28600
C  0.81700 -5.50200 45.73800
C  -2.13400 -5.37600 47.53800
C  -0.26900 -7.79000 45.40300
C  -0.37500 -9.05900 46.34500
N  3.06700 -3.69000 44.67500
C  3.30700 -4.79200 45.44400
C  4.67300 -4.88800 45.69900
C  5.26800 -3.74200 45.07700
C  4.18800 -3.08900 44.40200
C  5.47000 -5.94900 46.48100
C  6.45500 -2.96700 44.78200
O  7.56900 -3.14200 45.16500
C  5.99000 -1.91300 43.75800
C  6.41900 -0.61600 44.23300
O  7.44100 -0.06000 43.98800
O  5.57700 -0.07800 45.12700
C  5.82000 1.29300 45.60300
H  0.25300 0.74100 41.34500
H  -2.92300 -3.60200 45.11000
H  2.53000 -6.53200 46.45900
H  4.96100 0.43000 42.54900
H  2.63400 0.93900 40.59300
H  1.88600 2.24700 42.89600
H  3.08200 2.83600 41.68000
H  3.48500 2.01000 43.20700
H  4.23700 -0.74500 39.84400
H  5.40600 -1.58100 40.76900
H  6.87000 0.13600 40.88800
H  5.95300 1.43500 40.18600
H  -2.56600 0.12900 40.53600
H  -1.87500 1.33100 41.67300
H  -3.50500 0.91100 41.91300
H  -4.48000 -2.32400 45.47700
H  -5.10600 -3.44100 44.20300
H  -5.96100 -1.99900 44.65900
H  -2.25000 -6.00300 45.53300
H  0.07900 -6.83200 47.27600
H  -2.23600 -6.35400 48.00800
H  -3.12400 -4.96600 47.33600
H  -1.58900 -4.67000 48.16500
H  0.55500 -7.88100 44.69600
H  -1.19200 -7.75400 44.82400
H  0.60600 -9.53400 46.34800
H  -1.15900 -9.71500 45.96700
H  -0.80400 -8.93500 47.34000
H  5.99600 -5.53000 47.33900
H  6.06200 -6.46000 45.72200
H  4.71000 -6.61600 46.89000
H  6.60800 -2.16800 42.89700
H  5.77800 1.86600 44.67700
H  6.81800 1.56300 45.94700
H  4.98400 1.52900 46.26300
Mg 36.80400 49.82600 25.54000
C  36.98100 47.90200 28.44400
C  35.41500 52.46400 27.38200
C  36.20100 51.61000 22.67900
C  37.57000 47.03200 23.69200
N  36.27800 50.08000 27.63000
C  36.52100 49.22200 28.68400
C  36.22300 49.88000 30.03200
C  35.63000 51.30800 29.62200
C  35.78300 51.28200 28.07600
C  34.22000 51.71300 30.12200
C  37.43700 49.92900 31.03200
C  37.16000 49.67900 32.48600
H  35.81400 49.92600 33.20900
N  35.94300 51.74600 25.11600
C  35.46600 52.63400 26.01200
C  35.11100 53.89800 25.39400
C  35.41000 53.67100 23.99600
C  35.90500 52.30600 23.89400
C  34.61700 55.16300 26.05700
C  35.27300 54.76400 22.90700
O  35.63400 54.57000 21.79400
C  34.82500 56.12100 23.20000
N  36.68300 49.33900 23.49300
C  36.59600 50.24900 22.49100
C  37.02300 49.65100 21.15700
C  37.48100 48.21400 21.48700
C  37.15900 48.18700 22.94400
C  35.93200 49.87000 20.10000
C  39.00000 47.84500 21.15200
C  39.13000 47.23000 19.72100
N  37.20500 47.86700 25.90600
C  37.49200 46.82400 25.03900
C  37.86700 45.68400 25.80200
C  37.62000 46.02700 27.15200
C  37.20900 47.34600 27.12400
C  38.17100 44.28200 25.37500
C  37.65000 45.49400 28.58000
O  37.91600 44.37800 28.99600
C  37.29600 46.79700 29.44700
C  36.12300 46.44200 30.24300
O  34.97400 46.66900 29.88500
O  36.51100 45.80600 31.36500
C  35.47800 45.48600 32.33500
H  35.00800 53.23000 28.04600
H  36.21200 52.26100 21.80200
H  37.84600 46.11200 23.17200
H  35.39000 49.29800 30.42700
H  36.30700 52.12500 29.87100
H  34.09900 51.10200 31.01700
H  33.49200 51.37500 29.38400
H  34.09700 52.75600 30.41300
H  37.96200 50.88400 31.00500
H  38.17300 49.20700 30.67800
H  37.68200 50.40700 33.10800
H  37.59800 48.68600 32.59100
H  33.60100 55.32300 25.69800
H  35.10300 56.11100 25.82600
H  34.73000 55.19200 27.14000
H  34.01600 56.28500 23.91300
H  34.45100 56.63100 22.31200
H  35.75000 56.65400 23.41800
H  37.82300 50.24600 20.71500
H  36.78600 47.46900 21.09900
H  35.36700 48.94000 20.04900
H  36.39900 50.15500 19.15700
H  35.39400 50.71800 20.52500
H  39.43600 47.10100 21.81900
H  39.59400 48.73200 21.37100
H  39.47100 48.01400 19.04500
H  38.12400 46.91500 19.44600
H  39.83500 46.40200 19.65200
H  39.22400 44.03700 25.24100
H  37.58300 44.26500 24.45700
H  37.68400 43.51300 25.97400
H  38.08800 46.98900 30.17000
H  35.45300 44.40600 32.18800
H  34.49900 45.90600 32.10600
H  35.75800 45.88100 33.31100

