158

Mg 3.05300 -1.56000 44.70300
C  6.55200 -0.84500 44.51200
C  2.59600 1.16300 42.65600
C  -0.07500 -2.59600 44.69700
C  3.99200 -4.85300 46.06800
N  4.51800 0.07900 43.80000
C  5.84400 0.06500 43.69100
C  6.34800 1.23600 42.76300
C  4.96700 1.90200 42.27600
C  3.92900 1.01800 42.96400
C  4.76600 3.44500 42.64100
C  7.15500 0.74700 41.54000
C  8.54200 1.31300 41.30400
H  8.58100 2.30000 40.04600
N  1.51900 -0.82900 43.74400
C  1.44400 0.31900 43.06100
C  0.09800 0.57700 42.75500
C  -0.68900 -0.47000 43.25300
C  0.21100 -1.37800 43.98400
C  -0.32500 1.95400 42.11300
C  -2.18000 -0.52100 43.18300
O  -2.80300 0.36200 42.60000
C  -3.04100 -1.61700 43.85400
N  2.12100 -3.54200 45.37100
C  0.81700 -3.60000 45.17300
C  0.30300 -5.00700 45.73300
C  1.61200 -5.76300 45.94500
C  2.62400 -4.68600 45.83300
C  -0.58900 -4.78600 46.98400
C  1.86300 -6.93400 44.89400
C  2.84800 -8.06200 45.15800
N  4.84400 -2.62400 45.23600
C  5.00300 -3.85300 45.88800
C  6.44200 -3.90900 46.22200
C  7.04000 -2.73700 45.73400
C  5.99900 -2.05000 45.10800
C  7.07800 -4.97300 47.04500
C  8.26900 -2.02600 45.65600
O  9.37800 -2.32900 46.06500
C  8.02600 -0.75900 44.83000
C  8.22200 0.37400 45.70700
O  7.46800 0.73400 46.60200
O  9.21200 1.23600 45.28700
C  9.08900 2.69800 45.68500
H  2.45600 1.87200 41.83800
H  -1.09400 -2.98600 44.74400
H  4.21400 -5.77600 46.60700
H  6.90000 1.92800 43.39900
H  4.87700 1.78900 41.19600
H  4.45600 3.57800 43.67800
H  4.03600 3.95800 42.01600
H  5.70900 3.99000 42.67500
H  6.60500 0.82200 40.60200
H  7.20100 -0.33800 41.63000
H  9.08000 0.48900 40.83600
H  9.01300 1.63500 42.23300
H  0.51300 2.39300 41.57100
H  -0.60000 2.64200 42.91300
H  -1.15900 1.84300 41.42000
H  -4.11200 -1.41700 43.84100
H  -2.74200 -1.41900 44.88300
H  -2.79300 -2.66600 43.68900
H  -0.21300 -5.40100 44.85700
H  1.90200 -6.04400 46.95700
H  -1.06500 -3.84900 47.27400
H  -0.06000 -5.08000 47.89000
H  -1.35500 -5.55100 46.85500
H  2.26700 -6.45800 44.00100
H  0.87300 -7.32500 44.65500
H  3.44400 -7.91600 46.05900
H  3.45000 -8.19000 44.25900
H  2.41800 -9.06000 45.24900
H  7.20000 -5.79700 46.34100
H  6.33100 -5.07300 47.83200
H  8.03700 -4.58500 47.39000
H  8.71000 -0.77800 43.98100
H  8.14100 2.92600 46.17100
H  9.15400 3.31700 44.79100
H  9.97200 2.99900 46.24900
Mg -2.44500 35.24700 26.74100
C  -4.27000 33.62100 29.31100
C  -1.13100 37.38800 28.92500
C  -0.60700 36.53600 24.06800
C  -3.87000 32.91300 24.47300
N  -2.67500 35.42200 28.87000
C  -3.50300 34.66900 29.72600
C  -3.36700 35.22700 31.15700
C  -2.55900 36.55400 30.88200
C  -2.06300 36.42900 29.45400
C  -3.34600 37.81400 31.19700
C  -2.56000 34.32800 32.11700
C  -2.55100 34.80500 33.60800
H  -2.79900 33.79700 34.75700
N  -1.11200 36.83100 26.48100
C  -0.69100 37.63600 27.58300
C  0.21300 38.66500 27.09300
C  0.44400 38.31300 25.72000
C  -0.39400 37.14100 25.36100
C  0.87900 39.61800 28.05300
C  1.41400 38.95800 24.73500
O  1.57000 38.48600 23.63800
C  2.22800 40.25400 25.05600
N  -2.28500 34.86500 24.58900
C  -1.55200 35.60900 23.68800
C  -1.59400 35.05000 22.24500
C  -2.61300 33.85900 22.32900
C  -3.01400 33.87400 23.89800
C  -1.72900 36.18300 21.06500
C  -1.95300 32.48400 21.94300
C  -2.74300 31.39600 21.17300
N  -3.91100 33.70400 26.77600
C  -4.23800 32.73900 25.85200
C  -4.96200 31.63900 26.41100
C  -5.06900 32.01100 27.77900
C  -4.35500 33.21800 27.91300
C  -5.42700 30.34200 25.70100
C  -5.54500 31.58400 29.10700
O  -6.13100 30.53700 29.40100
C  -5.00300 32.57000 30.12700
C  -6.12900 33.01400 30.94500
O  -7.20400 33.40500 30.57000
O  -5.85100 32.76000 32.24600
C  -6.94900 32.89700 33.16100
H  -0.87900 38.12200 29.69300
H  -0.20900 37.13000 23.24100
H  -4.30300 32.22100 23.74700
H  -4.34600 35.49200 31.55700
H  -1.67900 36.56000 31.52500
H  -3.32800 38.40200 30.27900
H  -2.91700 38.25500 32.09700
H  -4.41100 37.75100 31.42300
H  -1.49200 34.27400 31.90300
H  -2.93000 33.30300 32.14700
H  -3.13900 35.71800 33.50800
H  -1.63600 35.34000 33.86300
H  1.94100 39.43500 27.88500
H  0.56700 39.43800 29.08200
H  0.76300 40.68700 27.87700
H  3.22000 39.94900 25.39000
H  1.74400 40.87300 25.81000
H  2.41800 40.84400 24.15900
H  -0.63100 34.59200 22.01800
H  -3.46100 34.09100 21.68500
H  -0.79700 36.29400 20.51000
H  -1.81800 37.16500 21.53000
H  -2.58000 36.09200 20.39100
H  -1.74300 32.10600 22.94400
H  -1.02100 32.60600 21.39200
H  -3.63800 31.79000 20.69200
H  -3.07000 30.66100 21.90800
H  -2.17000 30.75700 20.50100
H  -4.78800 30.14100 24.84100
H  -6.44600 30.55200 25.37400
H  -5.47700 29.54200 26.43900
H  -4.26000 31.99800 30.68300
H  -6.52200 33.40500 34.02500
H  -7.11500 31.85800 33.44500
H  -7.89900 33.30900 32.82100

