158

Mg 42.73700 41.39000 26.44800
C  41.60300 43.71300 28.92000
C  43.68800 39.29300 29.02800
C  43.81800 39.30500 24.09800
C  41.95500 43.77900 23.96300
N  42.69600 41.53200 28.76900
C  42.12600 42.53900 29.52900
C  42.13200 42.09500 30.98300
C  42.90200 40.74500 31.01900
C  43.14600 40.47600 29.50100
C  44.24800 40.70300 31.84100
C  40.81000 42.06000 31.77100
C  40.64200 43.08900 32.96500
H  40.23300 42.56400 34.35400
N  43.59000 39.56700 26.56400
C  43.93400 38.85000 27.69300
C  44.65600 37.71000 27.31800
C  44.62400 37.64500 25.94400
C  44.01000 38.89100 25.46300
C  45.30800 36.78600 28.27500
C  44.93100 36.43900 25.04300
O  44.87500 36.42700 23.80800
C  45.36800 35.20400 25.59000
N  42.85700 41.51000 24.38100
C  43.30100 40.49300 23.63000
C  43.07600 40.74600 22.06500
C  42.53500 42.22100 22.09700
C  42.47700 42.55100 23.57200
C  44.32100 40.52800 21.19500
C  41.09800 42.34900 21.46100
C  41.07400 42.71600 19.99000
N  42.00400 43.32900 26.36500
C  41.69000 44.13700 25.30800
C  41.19700 45.42200 25.85200
C  41.16400 45.20300 27.20100
C  41.63600 43.91200 27.52200
C  40.85200 46.71100 24.99500
C  40.76900 45.79400 28.46400
O  40.29300 46.91300 28.68000
C  41.02300 44.87300 29.54400
C  42.11700 45.45700 30.44500
O  43.27200 45.69600 30.16200
O  41.47800 45.81400 31.64500
C  42.42200 46.23800 32.75400
H  43.92800 38.58200 29.82100
H  44.19800 38.70700 23.26700
H  41.71600 44.52100 23.19800
H  42.77600 42.76200 31.55500
H  42.22500 39.99700 31.43000
H  45.10600 40.81400 31.17900
H  44.41600 39.85500 32.50400
H  44.44600 41.61400 32.40600
H  40.59100 41.07400 32.17900
H  39.98900 42.31600 31.10100
H  39.73600 43.63000 32.69200
H  41.51700 43.73900 32.99700
H  45.49400 37.32000 29.20700
H  46.24900 36.35700 27.93100
H  44.64400 35.96700 28.55100
H  45.55900 34.43300 24.84500
H  44.59300 34.90500 26.29600
H  46.34700 35.31000 26.05800
H  42.30800 40.07900 21.67300
H  43.25000 42.84400 21.56000
H  45.18700 40.86000 21.76800
H  44.13600 41.15300 20.32200
H  44.54600 39.51100 20.87200
H  40.50600 43.08700 22.00000
H  40.58700 41.40600 21.65400
H  40.21700 43.33800 19.73300
H  40.96300 41.80600 19.40000
H  41.96500 43.30200 19.76700
H  40.15600 46.43300 24.20400
H  41.74800 47.15400 24.56000
H  40.34600 47.44400 25.62300
H  40.12900 44.57400 30.09100
H  42.01500 45.97800 33.73100
H  42.40600 47.32800 32.77500
H  43.41800 45.80000 32.81700
Mg -2.49100 34.48100 27.16800
C  -3.89000 32.40100 29.63100
C  -0.97300 36.19400 29.77000
C  -1.31300 36.49300 24.89800
C  -4.03300 32.52400 24.70800
N  -2.61700 34.43600 29.42300
C  -3.35900 33.57100 30.17200
C  -3.20000 33.86400 31.69900
C  -2.39600 35.18900 31.68300
C  -1.94800 35.30100 30.21000
C  -3.22200 36.52700 31.94800
C  -2.48400 32.65800 32.41300
C  -3.22400 32.24300 33.67800
H  -2.27700 32.22900 34.91500
N  -1.17000 36.03700 27.29400
C  -0.58500 36.59800 28.47400
C  0.33200 37.59200 28.16500
C  0.22800 37.74700 26.76800
C  -0.78200 36.76400 26.25100
C  1.24100 38.34700 29.21000
C  1.03500 38.62700 25.77900
O  0.78100 38.68400 24.56100
C  2.18000 39.38800 26.38000
N  -2.87500 34.66900 25.10800
C  -2.22500 35.61400 24.38700
C  -2.52200 35.56600 22.83300
C  -3.27700 34.18600 22.74200
C  -3.39500 33.73000 24.25000
C  -3.22100 36.80800 22.31800
C  -2.60800 33.18000 21.77000
C  -1.33600 32.51500 22.25500
N  -3.70800 32.80900 27.07400
C  -4.12500 32.00800 26.03600
C  -4.71300 30.78500 26.54500
C  -4.67600 30.92200 27.91900
C  -4.03700 32.14000 28.23300
C  -5.32200 29.76800 25.60600
C  -5.05300 30.27800 29.04500
O  -5.60100 29.21000 29.24900
C  -4.55400 31.23400 30.27100
C  -5.76400 31.66700 30.97800
O  -6.60500 32.40900 30.47200
O  -5.84900 31.10100 32.27100
C  -6.93300 31.47900 33.17800
H  -0.52500 36.79800 30.56100
H  -1.01300 37.22300 24.14300
H  -4.30500 31.90300 23.85200
H  -4.20800 34.11600 32.02700
H  -1.60500 34.98900 32.40700
H  -2.93800 37.36500 31.31200
H  -3.12900 36.75700 33.01000
H  -4.26400 36.28400 31.74400
H  -1.48400 32.91000 32.76500
H  -2.35500 31.82800 31.71900
H  -3.61600 31.23000 33.58200
H  -4.01400 32.92800 33.98400
H  2.32300 38.23200 29.15100
H  1.04700 38.10900 30.25600
H  1.10800 39.40700 28.99500
H  1.74400 40.24600 26.89100
H  2.86200 39.85700 25.67000
H  2.70200 38.64500 26.98200
H  -1.53600 35.55000 22.36900
H  -4.27000 34.33500 22.31800
H  -2.43100 37.23000 21.69700
H  -3.42600 37.41800 23.19900
H  -4.15200 36.56300 21.80700
H  -2.49100 33.67800 20.80700
H  -3.37600 32.40900 21.70900
H  -1.24400 31.44100 22.09000
H  -1.12100 32.68700 23.31000
H  -0.63500 33.16100 21.72700
H  -4.74600 29.40200 24.75600
H  -6.26600 30.26600 25.38200
H  -5.61900 28.87600 26.15700
H  -3.88100 30.59900 30.84900
H  -6.42300 31.76500 34.09700
H  -7.55100 30.59500 33.33400
H  -7.64400 32.23900 32.85400

