158

Mg 41.70200 41.10300 26.56400
C  40.85800 43.26700 29.13100
C  42.75700 38.83900 28.85300
C  43.11600 39.48300 23.87400
C  40.87300 43.74300 24.28800
N  41.83200 41.07100 28.83000
C  41.40300 42.08200 29.67400
C  41.55900 41.70500 31.19200
C  42.30500 40.28200 31.08500
C  42.25900 39.95900 29.54000
C  43.78700 40.15700 31.63800
C  40.14900 41.64200 31.85800
C  40.02300 42.42800 33.25300
H  39.38700 41.77500 34.46600
N  42.63200 39.34200 26.38100
C  42.84400 38.56100 27.46900
C  43.57100 37.40300 26.91300
C  43.90400 37.61700 25.49700
C  43.24400 38.88700 25.19500
C  43.88600 36.18000 27.78900
C  44.77000 36.80500 24.56400
O  45.01700 37.18900 23.39900
C  45.50200 35.54800 24.98100
N  42.15100 41.65000 24.39100
C  42.57000 40.71400 23.54600
C  42.44100 41.16600 22.09200
C  41.40000 42.35800 22.21800
C  41.50200 42.70300 23.71700
C  43.83000 41.56700 21.48300
C  39.93600 42.01300 21.73200
C  39.04600 41.23700 22.70800
N  41.14600 43.10100 26.60200
C  40.71100 43.99400 25.69000
C  40.34900 45.24200 26.26500
C  40.23300 44.93100 27.61400
C  40.75900 43.60100 27.80300
C  39.94900 46.47200 25.63000
C  39.74300 45.43600 28.86500
O  39.12500 46.42900 29.17800
C  40.28700 44.43900 29.90500
C  41.32300 45.18200 30.75600
O  42.54300 45.11900 30.63900
O  40.67300 45.94900 31.71700
C  41.39200 46.22500 32.92900
H  43.30000 38.17600 29.53000
H  43.41600 38.80000 23.07600
H  40.47500 44.51900 23.63100
H  42.12000 42.53000 31.63000
H  41.81400 39.48300 31.64000
H  44.01200 39.15000 31.99100
H  43.93300 40.83600 32.47800
H  44.58200 40.49100 30.97200
H  39.96100 40.59300 32.08600
H  39.36900 42.01100 31.19200
H  39.51500 43.36800 33.03700
H  41.04900 42.69500 33.50900
H  43.63000 35.23900 27.30200
H  43.38600 36.15400 28.75700
H  44.96600 36.17800 27.94100
H  46.08300 35.80500 25.86700
H  46.22600 35.19900 24.24500
H  44.72700 34.80400 25.16400
H  42.14700 40.40000 21.37400
H  41.70500 43.23500 21.64800
H  44.48800 41.45300 22.34400
H  43.96500 42.61900 21.23000
H  44.11200 40.95200 20.62900
H  40.06500 41.37900 20.85400
H  39.36300 42.93300 21.62000
H  39.76100 40.69800 23.32900
H  38.41100 40.49500 22.22500
H  38.39300 41.88200 23.29700
H  40.56400 46.72300 24.76600
H  40.00100 47.15200 26.48000
H  38.89000 46.36800 25.39300
H  39.49800 44.25900 30.63600
H  42.24300 46.85000 32.66000
H  41.64700 45.27100 33.39100
H  40.71700 46.70900 33.63500
Mg 26.25400 49.85000 26.48800
C  24.27900 51.12500 29.00200
C  28.57800 48.87200 28.77100
C  28.34200 49.21700 23.95700
C  24.14700 51.55300 24.13800
N  26.35200 49.92500 28.63800
C  25.39000 50.36300 29.49200
C  25.65600 49.97100 30.97700
C  27.19200 49.46900 30.83700
C  27.38200 49.45200 29.32900
C  28.13400 50.45800 31.68200
C  24.63600 48.93400 31.53800
C  23.92400 49.31400 32.82700
H  24.74900 49.98300 34.04400
N  28.17800 49.07300 26.40600
C  28.99600 48.67600 27.44800
C  30.18000 48.11700 26.94200
C  30.04600 48.08900 25.51900
C  28.86900 48.84000 25.22000
C  31.26000 47.54500 27.84100
C  31.00800 47.53800 24.49200
O  30.86400 47.58100 23.25400
C  32.16500 46.79900 24.93200
N  26.28200 50.32300 24.45600
C  27.19400 49.81400 23.56300
C  26.88900 49.92800 21.98600
C  25.48800 50.68200 22.19300
C  25.25200 50.81500 23.68300
C  27.92300 50.66500 21.07300
C  24.30700 49.84800 21.41300
C  23.94600 50.21400 19.91900
N  24.49100 50.98600 26.47200
C  23.80100 51.69100 25.46800
C  22.63100 52.34000 26.05900
C  22.83500 52.13400 27.39500
C  23.97400 51.35400 27.63100
C  21.53800 53.23000 25.37800
C  22.30400 52.48600 28.70800
O  21.29600 53.04500 29.04000
C  23.14200 51.68900 29.84400
C  23.50400 52.65000 30.91000
O  24.53100 53.26300 30.95400
O  22.58800 52.71000 31.94700
C  22.80500 53.73000 33.00400
H  29.23000 48.49400 29.56100
H  28.96100 48.77000 23.17700
H  23.51600 51.89200 23.31400
H  25.54600 50.86400 31.59200
H  27.35300 48.45000 31.18900
H  27.87100 51.49300 31.46400
H  29.07500 50.18000 31.20600
H  28.06200 50.16200 32.72900
H  25.19200 48.01500 31.72200
H  23.92800 48.75000 30.72900
H  23.45600 48.37400 33.11800
H  23.09700 49.99700 32.63100
H  32.25900 47.78600 27.47700
H  31.25100 46.46300 27.96800
H  31.17100 47.98400 28.83500
H  32.97600 47.41900 25.31400
H  32.51600 46.27100 24.04600
H  31.86800 46.03700 25.65400
H  26.89300 48.89900 21.62400
H  25.53300 51.64000 21.67400
H  28.51400 51.30300 21.73100
H  27.50800 51.38100 20.36300
H  28.58300 50.01100 20.50300
H  23.43600 50.02800 22.04200
H  24.50700 48.78200 21.51900
H  24.52900 49.51200 19.32300
H  24.27700 51.22600 19.68900
H  22.86800 50.14200 19.77100
H  21.38400 52.82400 24.37800
H  21.58700 54.31300 25.49400
H  20.57200 52.92100 25.77900
H  22.68800 50.79900 30.28000
H  23.73300 53.63000 33.56700
H  22.03100 53.74800 33.77200
H  22.76900 54.72500 32.56200

