158

Mg 44.01700 4.00200 47.49500
C  41.77600 6.75700 47.14000
C  41.25400 1.89600 46.80400
C  46.09000 1.48600 47.21600
C  46.62800 6.37300 47.73600
N  41.81400 4.25400 47.04400
C  41.12000 5.46800 46.97600
C  39.61600 5.14100 46.73500
C  39.53600 3.65000 46.92300
C  40.95900 3.21800 46.84700
C  38.75900 3.19200 48.22500
C  39.23600 5.51800 45.26600
C  37.75000 5.99000 45.11100
H  37.22200 5.93900 43.68600
N  43.77200 1.96900 47.13700
C  42.52700 1.27600 46.91300
C  42.71700 -0.10400 46.70000
C  44.19300 -0.21800 46.78500
C  44.76900 1.08000 47.10900
C  41.63500 -1.11700 46.38700
C  44.84300 -1.54100 46.54500
O  44.16100 -2.56100 46.30400
C  46.22500 -1.65900 46.66900
N  46.08700 3.93600 47.28100
C  46.72200 2.76100 47.39200
C  48.25700 2.95200 47.32300
C  48.39700 4.55700 47.59300
C  46.93700 5.00100 47.52900
C  49.11000 2.12300 48.28800
C  49.41800 5.20700 46.64100
C  50.36000 6.20900 47.36500
N  44.25400 6.11700 47.44300
C  45.33000 6.89300 47.64900
C  44.95900 8.29000 47.66800
C  43.58200 8.23400 47.48700
C  43.19100 6.92000 47.44000
C  45.81900 9.45000 47.83700
C  42.38400 9.09000 47.39500
O  42.31700 10.31800 47.60900
C  41.14600 8.13200 47.07200
C  40.19100 8.18600 48.19900
O  40.39300 7.69100 49.32800
O  39.11100 8.89900 47.72000
C  37.96300 9.02800 48.62300
H  40.38300 1.23900 46.76300
H  46.76300 0.62900 47.28300
H  47.46300 7.07100 47.82300
H  39.08800 5.74200 47.47400
H  39.17300 3.06600 46.07700
H  38.55300 4.07500 48.82900
H  39.30700 2.46200 48.82200
H  37.73500 2.83800 48.10600
H  39.27000 4.62400 44.64400
H  39.86700 6.30900 44.86100
H  37.63500 7.05500 45.30900
H  37.03900 5.51400 45.78600
H  40.68100 -0.90000 46.86900
H  41.83600 -2.16500 46.60700
H  41.59700 -0.90500 45.31800
H  46.40000 -1.25500 47.66700
H  46.76200 -1.15700 45.86400
H  46.49700 -2.71400 46.68600
H  48.44700 2.70000 46.28000
H  48.65500 4.58300 48.65200
H  48.45700 1.40900 48.79200
H  49.68600 2.75200 48.96600
H  49.90400 1.56800 47.79000
H  48.88900 5.68300 45.81500
H  50.14500 4.50400 46.23500
H  50.07200 7.25600 47.27800
H  51.37200 6.18700 46.96000
H  50.50600 5.98600 48.42200
H  46.47000 9.57300 46.97200
H  46.32700 9.51300 48.79900
H  45.22400 10.36200 47.88100
H  40.70800 8.37600 46.10400
H  37.12800 8.58500 48.08200
H  37.72000 10.08400 48.73700
H  38.05300 8.54600 49.59700
Mg 8.92400 48.86300 26.68500
C  6.44700 48.45600 29.17900
C  11.20100 49.52600 29.07800
C  10.99600 49.11000 24.22000
C  6.29900 48.12400 24.29200
N  8.81000 48.98200 28.92200
C  7.75500 48.78100 29.70900
C  8.06500 49.04200 31.21800
C  9.47000 49.64600 31.15400
C  9.91700 49.32200 29.64300
C  9.60800 51.19000 31.42300
C  7.89500 47.87900 32.20000
C  8.82700 47.85900 33.46100
H  8.40600 47.25700 34.84000
N  10.81200 49.23600 26.63100
C  11.63800 49.52600 27.72300
C  12.97200 49.60700 27.28500
C  13.00000 49.41600 25.87700
C  11.56500 49.26900 25.50500
C  14.16200 49.81400 28.16300
C  14.16600 49.42400 24.87200
O  14.04000 49.36000 23.66400
C  15.52600 49.43400 25.36500
N  8.63000 48.86600 24.57800
C  9.71200 48.91000 23.79500
C  9.39700 48.54000 22.29900
C  7.94500 48.04300 22.38200
C  7.58200 48.36900 23.83100
C  9.74100 49.47300 21.12400
C  7.77400 46.49900 22.12200
C  7.14300 46.05200 20.79000
N  6.77900 48.52000 26.66000
C  5.91000 48.13100 25.62700
C  4.60900 47.97100 26.20600
C  4.73800 48.09800 27.53300
C  6.06700 48.37300 27.81700
C  3.39600 47.50700 25.53200
C  4.05600 48.06700 28.75700
O  2.85300 48.01400 29.01900
C  5.09200 48.35300 29.90000
C  5.09400 47.24400 30.87300
O  5.65600 46.14000 30.75700
O  4.37300 47.66700 32.00100
C  4.29300 46.67100 33.11000
H  11.97600 49.60000 29.84400
H  11.64100 49.11400 23.33900
H  5.68800 47.81800 23.44000
H  7.30300 49.76500 31.51000
H  10.20500 49.11200 31.75600
H  8.64300 51.61900 31.69400
H  9.97300 51.69100 30.52600
H  10.32900 51.26300 32.23800
H  8.15700 46.99300 31.62300
H  6.84600 47.91400 32.49500
H  9.06000 48.88800 33.73300
H  9.78700 47.39500 33.23200
H  13.97900 49.93800 29.23000
H  14.78000 50.64900 27.83400
H  14.81900 48.96700 27.96100
H  15.79500 50.16900 26.12400
H  16.12700 49.77200 24.52000
H  15.81200 48.44300 25.71600
H  10.07900 47.69600 22.20100
H  7.21100 48.65800 21.86100
H  10.49500 48.94900 20.53800
H  10.02100 50.43700 21.55000
H  8.82600 49.66600 20.56400
H  7.26000 46.09400 22.99500
H  8.78100 46.12300 21.94300
H  6.06400 45.95100 20.90200
H  7.50600 45.06800 20.49300
H  7.36400 46.62800 19.89200
H  3.07300 46.63000 26.09300
H  3.73700 47.37900 24.50500
H  2.67200 48.31500 25.63400
H  4.82600 49.25500 30.45200
H  4.62600 47.18500 34.01100
H  4.97700 45.82400 33.04800
H  3.32100 46.19600 33.24200

