158

Mg -2.51400 17.09100 26.11200
C  -2.96500 14.90800 28.84800
C  -2.96500 19.74200 28.05700
C  -2.17400 18.88400 23.26700
C  -2.72200 14.12100 23.91200
N  -3.00500 17.29000 28.27700
C  -3.02500 16.24800 29.18900
C  -3.30400 16.85100 30.60500
C  -3.28100 18.41400 30.32700
C  -3.05600 18.50300 28.77900
C  -4.49600 19.20100 30.78200
C  -2.42300 16.30100 31.77000
C  -2.20600 17.28000 32.94200
H  -2.27000 16.70500 34.36500
N  -2.55800 19.04300 25.78300
C  -2.74300 20.02900 26.69500
C  -2.81400 21.33300 26.10600
C  -2.50300 21.04900 24.67600
C  -2.32900 19.57400 24.52500
C  -3.08800 22.67000 26.73800
C  -2.53000 22.06100 23.49300
O  -2.09400 21.79300 22.39700
C  -2.78500 23.52900 23.73700
N  -2.53800 16.53800 23.80400
C  -2.23600 17.50500 22.94600
C  -2.08700 16.98200 21.56300
C  -2.01400 15.42100 21.76900
C  -2.49200 15.30800 23.28600
C  -3.18700 17.43500 20.55100
C  -0.58300 14.86900 21.33200
C  0.62000 15.25900 22.26100
N  -2.61100 15.00100 26.33000
C  -2.77100 13.98600 25.32800
C  -3.09800 12.68800 26.01500
C  -3.08500 13.08200 27.37000
C  -2.81000 14.43500 27.50400
C  -3.40000 11.34900 25.38200
C  -3.28500 12.56300 28.73700
O  -3.53900 11.37500 29.07100
C  -3.10300 13.70300 29.71300
C  -1.97300 13.39000 30.64000
O  -0.78400 13.50900 30.44800
O  -2.53400 12.82700 31.73300
C  -1.61600 12.43700 32.81500
H  -2.97000 20.58900 28.74500
H  -1.91100 19.47400 22.38700
H  -2.71400 13.24400 23.26100
H  -4.35000 16.57600 30.73800
H  -2.41500 18.95500 30.70800
H  -4.24800 20.18300 31.18400
H  -5.06500 18.54500 31.44000
H  -5.25100 19.22500 29.99600
H  -1.43500 16.16600 31.32800
H  -2.88600 15.35300 32.04600
H  -2.93500 18.09000 32.94600
H  -1.26800 17.82500 32.82900
H  -2.18100 23.18700 27.05000
H  -3.54400 22.59400 27.72500
H  -3.64700 23.31400 26.05900
H  -3.85200 23.46400 23.94800
H  -2.63200 23.93900 22.73800
H  -2.19200 24.00700 24.51700
H  -1.07000 17.26700 21.29100
H  -2.71200 14.78800 21.22000
H  -3.76100 18.24400 21.00400
H  -3.92400 16.66900 20.30800
H  -2.80700 17.81300 19.60200
H  -0.33900 15.39500 20.40900
H  -0.56800 13.77900 21.32000
H  1.06000 14.29500 22.51600
H  0.29600 15.80700 23.14600
H  1.39500 15.69400 21.63000
H  -4.22600 10.86700 25.90600
H  -2.52400 10.72900 25.57300
H  -3.75100 11.40500 24.35200
H  -4.01300 13.78600 30.30700
H  -0.93100 13.24800 33.05900
H  -1.05600 11.56900 32.46700
H  -2.26500 12.09200 33.62000
Mg 42.53000 41.33600 26.94500
C  41.51000 43.52400 29.40200
C  43.09900 39.05700 29.26300
C  43.87400 39.45500 24.50400
C  42.17100 44.06300 24.62000
N  42.39400 41.32000 29.15600
C  41.84800 42.30300 29.90900
C  42.02300 41.93300 31.47000
C  42.53600 40.52500 31.39800
C  42.71900 40.28000 29.86600
C  43.91700 40.25800 32.10800
C  40.64500 42.22000 32.22000
C  40.22900 41.41000 33.43800
H  39.56200 42.19200 34.57100
N  43.42700 39.45400 26.96500
C  43.48900 38.59800 27.99200
C  44.09900 37.38400 27.52200
C  44.34800 37.47400 26.11700
C  43.88300 38.80400 25.81300
C  44.55000 36.27300 28.51500
C  44.86700 36.42700 25.18300
O  45.15400 36.75100 24.04200
C  45.07100 34.99400 25.64100
N  42.97700 41.68400 24.89800
C  43.52000 40.74900 24.10800
C  43.76800 41.34000 22.69600
C  43.01200 42.66300 22.69200
C  42.68000 42.85100 24.12000
C  45.35500 41.41000 22.42500
C  41.90500 42.68500 21.66700
C  40.51900 42.06300 22.05800
N  42.09500 43.41800 26.95200
C  41.90600 44.38700 25.94100
C  41.46100 45.61400 26.54400
C  41.40300 45.32300 27.92100
C  41.61500 43.93300 28.03100
C  41.23200 46.85900 25.72600
C  41.02700 45.91400 29.17700
O  40.56700 46.97900 29.47700
C  41.07900 44.77700 30.17600
C  42.00600 45.19800 31.20100
O  43.26100 45.13700 31.06900
O  41.37900 45.77900 32.27900
C  42.25600 46.66400 33.06900
H  43.00200 38.27400 30.01900
H  44.35900 38.95600 23.66300
H  41.78800 44.84600 23.96200
H  42.78100 42.62500 31.83600
H  41.77300 39.85200 31.78900
H  44.73900 39.98200 31.44700
H  43.82500 39.41700 32.79500
H  44.20500 41.08900 32.75100
H  39.97100 42.04700 31.38100
H  40.45200 43.27200 32.42900
H  41.06300 40.82600 33.82800
H  39.45000 40.72500 33.10400
H  45.58100 36.02400 28.26300
H  43.99100 35.34400 28.40600
H  44.55500 36.65200 29.53700
H  45.86600 34.87600 26.37700
H  45.29200 34.46500 24.71400
H  44.10700 34.66800 26.03200
H  43.34600 40.63400 21.98200
H  43.74200 43.43200 22.44000
H  46.05900 41.07100 23.18500
H  45.61900 42.42200 22.11900
H  45.50800 40.71000 21.60200
H  42.18600 42.05900 20.82100
H  41.68700 43.70700 21.35600
H  39.71700 42.79400 21.95900
H  40.52800 41.61700 23.05300
H  40.24100 41.24500 21.39400
H  42.14900 47.33500 25.38000
H  40.66700 47.57900 26.31800
H  40.75500 46.40000 24.86000
H  40.10400 44.61600 30.63700
H  43.07900 47.19400 32.58900
H  42.52300 46.12100 33.97500
H  41.49900 47.41500 33.29700

