158

Mg 43.78100 4.03300 47.68900
C  41.52300 6.74000 47.05300
C  41.22300 1.90600 47.75900
C  45.99300 1.51200 47.15600
C  46.37200 6.46000 46.81300
N  41.64300 4.31300 47.15600
C  40.89000 5.44900 47.05600
C  39.38700 5.19500 47.00300
C  39.33000 3.76800 47.70100
C  40.85400 3.27900 47.68500
C  38.75600 3.79500 49.19200
C  38.88200 5.29300 45.47900
C  37.67600 6.28200 45.25000
H  37.08400 6.50900 43.90300
N  43.71000 2.04000 47.58100
C  42.48200 1.39100 47.57300
C  42.75400 -0.06300 47.54500
C  44.13400 -0.24500 47.21600
C  44.69800 1.08500 47.33000
C  41.77100 -1.21800 47.58500
C  44.74200 -1.58700 46.82100
O  44.15000 -2.65900 46.79600
C  46.18900 -1.61900 46.21300
N  45.84700 3.97300 47.15500
C  46.56500 2.79600 47.12300
C  48.02800 3.05200 46.77900
C  48.16400 4.61900 46.72600
C  46.72300 5.08300 46.87300
C  49.03500 2.34500 47.72700
C  48.83300 5.17700 45.55000
C  49.71900 6.40600 45.76400
N  43.96800 6.15900 47.34700
C  45.06900 6.96300 47.02000
C  44.65300 8.36100 46.99800
C  43.26200 8.28200 47.05000
C  42.87100 6.93900 47.16200
C  45.49600 9.49900 46.88500
C  42.04600 9.11600 47.04000
O  41.85700 10.27400 46.75100
C  40.90900 8.11800 47.02800
C  40.04500 8.32300 48.20000
O  40.13600 8.08700 49.40300
O  38.86900 8.83200 47.61700
C  37.61500 8.94600 48.47700
H  40.36100 1.23600 47.77700
H  46.77800 0.75400 47.13600
H  47.22000 7.10700 46.57600
H  38.90200 5.99800 47.55800
H  38.67600 3.25700 46.99500
H  38.62700 4.82700 49.52000
H  39.49600 3.39200 49.88300
H  37.79600 3.29200 49.07400
H  38.52500 4.36600 45.03000
H  39.68400 5.75200 44.90200
H  38.10600 7.23800 45.55100
H  37.01800 5.93200 46.04500
H  41.83400 -1.64500 46.58400
H  40.76700 -0.93800 47.90300
H  42.02800 -1.95300 48.34800
H  46.87800 -1.34300 47.01100
H  46.33100 -0.78900 45.52100
H  46.44000 -2.55600 45.71600
H  48.06400 2.68800 45.75200
H  48.60600 4.96700 47.66000
H  48.67600 1.83900 48.62300
H  49.67800 3.04600 48.25700
H  49.74200 1.70500 47.20000
H  48.08100 5.52200 44.84100
H  49.37600 4.34300 45.10500
H  50.69700 6.10300 45.38900
H  49.77000 6.70700 46.81000
H  49.39700 7.24400 45.14700
H  45.24200 10.12100 47.74300
H  45.33400 10.09400 45.98600
H  46.53700 9.17600 46.86900
H  40.27200 8.09900 46.14400
H  36.73100 8.77800 47.86200
H  37.54100 9.95700 48.87900
H  37.62600 8.19900 49.27100
Mg 26.77500 51.02400 26.49200
C  24.76400 51.93100 29.18500
C  29.19700 50.00500 28.72900
C  28.38800 49.88400 23.91400
C  24.15700 52.11600 24.27400
N  26.91800 50.97400 28.76400
C  25.97200 51.36100 29.68200
C  26.41400 51.24700 31.09500
C  27.86800 50.68600 30.90900
C  28.06600 50.54100 29.35800
C  28.89600 51.61200 31.51100
C  25.43800 50.25500 31.87300
C  26.01100 49.41500 32.96300
H  25.31000 49.37300 34.27600
N  28.61300 50.19100 26.36400
C  29.43700 49.78000 27.32800
C  30.64900 49.15000 26.70100
C  30.45200 49.13400 25.27800
C  29.09900 49.76600 25.13400
C  31.73900 48.50400 27.48100
C  31.41700 48.60800 24.23900
O  31.21500 48.83700 23.01800
C  32.81900 48.01900 24.58400
N  26.26600 51.07700 24.33100
C  27.16000 50.40800 23.51900
C  26.64500 50.40200 22.10000
C  25.30100 51.09700 22.23600
C  25.15000 51.43800 23.67500
C  27.66700 51.06500 21.16600
C  24.04900 50.25900 21.83200
C  23.29800 50.77200 20.51000
N  24.94300 51.98400 26.60100
C  24.04000 52.41600 25.67000
C  22.90800 53.05300 26.33300
C  23.18600 52.90600 27.67200
C  24.39100 52.19400 27.81300
C  21.82400 53.71800 25.70800
C  22.56600 53.15600 28.94500
O  21.48900 53.69300 29.20400
C  23.56500 52.43500 30.02500
C  23.89900 53.36900 31.18600
O  24.90300 54.12300 31.27400
O  23.00800 53.26700 32.17200
C  23.37500 54.02700 33.42000
H  29.98100 49.69900 29.42500
H  28.89400 49.40200 23.07500
H  23.46600 52.57500 23.56400
H  26.36400 52.27400 31.45600
H  28.00300 49.66900 31.27600
H  29.02800 52.53800 30.95200
H  29.80400 51.04900 31.29500
H  28.85800 51.64300 32.59900
H  24.93200 49.62100 31.14500
H  24.69200 50.92800 32.29600
H  26.90600 49.98000 33.22500
H  26.28600 48.45500 32.52700
H  31.54600 48.53200 28.55400
H  32.66300 48.96300 27.13000
H  31.70600 47.46200 27.16600
H  33.17300 47.66200 23.61700
H  32.87400 47.22500 25.32900
H  33.44200 48.88500 24.80700
H  26.60200 49.32500 21.93800
H  25.34200 52.07700 21.76100
H  28.30400 51.81700 21.63200
H  27.07700 51.58600 20.41200
H  28.27200 50.27400 20.72200
H  23.28700 50.19800 22.60800
H  24.46900 49.30100 21.52500
H  22.92500 49.94000 19.91200
H  24.03900 51.31600 19.92400
H  22.54400 51.49300 20.82800
H  21.47600 53.15700 24.84100
H  22.10500 54.64700 25.21100
H  21.00300 53.99100 26.37100
H  22.99100 51.61900 30.46400
H  23.53600 55.09400 33.26700
H  24.23000 53.56900 33.91700
H  22.45000 53.76400 33.93300

