158

Mg 45.34800 4.62500 47.57000
C  43.70100 7.69600 47.00100
C  42.54600 2.90600 46.65600
C  47.37400 1.93300 46.93600
C  48.29300 6.59500 48.03600
N  43.46700 5.19100 46.80800
C  43.00400 6.54800 46.72600
C  41.47600 6.46600 46.29000
C  41.10700 5.00900 46.62400
C  42.46400 4.33900 46.67000
C  40.28000 4.61200 47.84300
C  41.48100 6.84200 44.83500
C  40.63200 8.03600 44.41100
H  39.76800 7.89300 43.12600
N  44.98400 2.72900 47.07200
C  43.76400 2.18300 46.83500
C  43.91100 0.75500 46.60500
C  45.31100 0.54000 46.57300
C  45.98100 1.73600 46.97700
C  42.77100 -0.14500 46.21700
C  45.93100 -0.81600 46.25500
O  45.20000 -1.77500 46.14400
C  47.44700 -1.17000 46.17200
N  47.52000 4.24000 47.34900
C  48.11000 3.01800 47.19300
C  49.62100 3.06300 47.66900
C  49.86400 4.60000 47.76800
C  48.44700 5.21000 47.71800
C  50.03100 2.28300 48.93000
C  50.87900 5.18300 46.75600
C  52.34900 4.82800 47.18600
N  45.96400 6.70500 47.51100
C  47.13400 7.32900 47.85900
C  46.97100 8.80500 47.91600
C  45.56700 8.95800 47.68100
C  45.04600 7.72500 47.41200
C  48.16200 9.70200 48.26500
C  44.50000 9.94600 47.60300
O  44.56500 11.17000 47.77100
C  43.21300 9.18400 47.15600
C  42.22200 9.48800 48.28900
O  42.04300 8.81100 49.25800
O  41.38700 10.59300 47.93700
C  40.41400 10.92000 48.88500
H  41.63900 2.34600 46.41900
H  48.11200 1.13800 47.06400
H  49.24200 7.05900 48.31200
H  40.92500 7.17600 46.90700
H  40.53500 4.53900 45.82400
H  39.67800 5.45100 48.19200
H  40.94700 4.40700 48.68000
H  39.58200 3.83900 47.51800
H  41.09600 5.90000 44.44500
H  42.49100 6.95100 44.44200
H  41.28000 8.91200 44.43800
H  39.87600 8.07900 45.19500
H  41.80600 0.36200 46.19000
H  42.67900 -1.00900 46.87400
H  43.12600 -0.42000 45.22300
H  47.93900 -1.10900 47.14300
H  47.94500 -0.52700 45.44700
H  47.60000 -2.19600 45.83700
H  50.18100 2.63100 46.84000
H  50.16100 4.80400 48.79700
H  50.55500 1.40400 48.55500
H  49.18900 1.77800 49.40400
H  50.77200 2.73900 49.58600
H  50.75300 6.26400 46.82400
H  50.70300 4.78600 45.75600
H  52.45800 3.95200 47.82500
H  52.77800 5.62500 47.79300
H  52.92300 4.86300 46.26000
H  48.51100 9.59300 49.29200
H  47.75900 10.70800 48.38200
H  48.86600 9.61700 47.43700
H  42.93300 9.63000 46.20200
H  39.71200 11.64900 48.48100
H  41.02000 11.46200 49.61200
H  39.86800 10.09100 49.33500
Mg 41.34200 8.35600 29.83500
C  43.21200 9.67400 32.48500
C  38.87800 7.37800 32.04900
C  39.69800 6.93900 27.24400
C  43.95200 9.19000 27.65200
N  41.13900 8.54400 32.06000
C  41.98300 9.20200 32.95200
C  41.31400 9.21000 34.29000
C  40.06300 8.19200 34.15900
C  40.00600 7.97000 32.63700
C  40.12200 6.89500 35.08300
C  40.89000 10.61800 34.82600
C  40.70000 10.88200 36.30500
H  41.23800 12.25000 36.87000
N  39.55800 7.27500 29.71100
C  38.63000 7.01300 30.71900
C  37.46100 6.31200 30.18500
C  37.73700 6.16800 28.82200
C  39.06400 6.79900 28.51100
C  36.32300 5.86800 31.04700
C  36.73000 5.68500 27.69700
O  37.00100 5.74500 26.51400
C  35.43600 5.18700 28.18200
N  41.71000 8.22300 27.70300
C  40.90400 7.51000 26.84500
C  41.42800 7.63400 25.32900
C  42.67300 8.57800 25.57000
C  42.84100 8.62000 27.06100
C  41.71400 6.25900 24.60100
C  42.56500 9.99500 24.95300
C  43.77300 10.68000 24.31500
N  43.21600 9.32300 29.98700
C  44.17600 9.53700 29.01000
C  45.26900 10.22100 29.63100
C  45.05200 10.18300 30.97900
C  43.80000 9.63400 31.15800
C  46.41400 10.79300 28.94500
C  45.55600 10.49100 32.29700
O  46.63500 10.95700 32.62200
C  44.41200 10.15800 33.31900
C  44.94800 9.18600 34.18500
O  45.20200 7.98200 33.87200
O  45.31200 9.74000 35.35900
C  46.18200 8.92100 36.27900
H  38.05400 7.27900 32.75900
H  39.13900 6.47900 26.42700
H  44.67600 9.52500 26.90600
H  41.93800 8.82200 35.09600
H  39.14300 8.70200 34.44400
H  40.13200 5.94300 34.55200
H  39.41800 6.90700 35.91600
H  41.01400 6.87300 35.70800
H  39.92000 10.80500 34.36500
H  41.75600 11.22100 34.55200
H  41.24200 10.08000 36.80500
H  39.63400 10.74600 36.48800
H  36.48100 5.97300 32.12000
H  36.05000 4.81300 31.00500
H  35.45700 6.43100 30.69800
H  35.52500 4.21600 28.66700
H  34.77000 4.94800 27.35300
H  34.84100 5.87100 28.78900
H  40.65200 8.18700 24.80000
H  43.56000 8.14100 25.11100
H  42.72800 6.27000 24.20200
H  41.01000 5.91900 23.84100
H  41.73100 5.48600 25.36900
H  42.15200 10.68000 25.69400
H  41.74000 9.92300 24.24400
H  44.17300 11.52700 24.87200
H  43.41500 10.98300 23.33100
H  44.49800 9.87600 24.18700
H  46.54200 11.87200 29.03200
H  46.38800 10.65900 27.86300
H  47.32800 10.43800 29.42100
H  44.25800 11.03500 33.94800
H  46.60800 9.55700 37.05500
H  46.93700 8.30700 35.78800
H  45.46400 8.27500 36.78400

