158

Mg 46.92500 25.69900 28.59100
C  47.65000 27.95200 31.23800
C  45.79700 23.53600 30.97500
C  47.11600 23.39600 26.40700
C  48.48800 27.97400 26.45700
N  46.81500 25.72200 30.82100
C  47.04400 26.76400 31.63500
C  46.66300 26.36400 33.09000
C  46.29400 24.91000 33.01000
C  46.30400 24.73500 31.48700
C  47.31100 23.86000 33.57200
C  45.47300 27.27200 33.56700
C  45.63900 28.03300 34.86000
H  44.49400 28.01600 35.83800
N  46.36000 23.76200 28.67000
C  45.90400 23.00800 29.68900
C  45.60900 21.63400 29.29200
C  46.09200 21.51700 27.96600
C  46.62500 22.92900 27.60300
C  44.99200 20.62700 30.18800
C  46.16300 20.32300 26.96900
O  46.65300 20.47400 25.84800
C  45.86200 18.84800 27.35400
N  47.54200 25.80400 26.67300
C  47.56500 24.62300 25.93300
C  48.35300 24.80000 24.56000
C  48.45000 26.36400 24.51000
C  48.06100 26.75500 25.91500
C  49.66700 23.92600 24.50700
C  47.58200 27.00000 23.37800
C  46.05000 26.72500 23.48600
N  47.77600 27.64800 28.68100
C  48.37600 28.46200 27.74300
C  48.98900 29.63000 28.33500
C  48.62300 29.46300 29.71800
C  47.98400 28.25400 29.92300
C  49.64500 30.67400 27.53400
C  48.83400 30.09700 31.00800
O  49.41000 31.07700 31.39800
C  48.34000 28.99500 32.07000
C  49.50200 28.49900 32.90400
O  50.29500 27.61600 32.64200
O  49.55800 29.26400 34.06100
C  50.27800 28.69000 35.15700
H  45.44000 22.99800 31.85600
H  47.15800 22.61500 25.64500
H  49.15400 28.55100 25.81200
H  47.46300 26.34600 33.83000
H  45.33200 24.64800 33.45000
H  48.16600 24.35600 34.03100
H  47.52100 23.12200 32.79800
H  46.62700 23.43300 34.30600
H  44.49700 26.80500 33.69400
H  45.39900 28.09500 32.85600
H  45.80900 29.09000 34.65300
H  46.60700 27.70300 35.23700
H  44.37000 19.87900 29.69800
H  44.46000 21.03500 31.04800
H  45.79800 19.97100 30.51700
H  46.52200 18.13500 26.85900
H  44.82100 18.65000 27.09800
H  45.89100 18.80100 28.44200
H  47.62600 24.39600 23.85600
H  49.50400 26.56100 24.31600
H  49.96600 23.46500 23.56600
H  49.58000 23.11000 25.22400
H  50.54000 24.53000 24.75300
H  47.77600 26.57000 22.39500
H  47.70800 28.08200 23.35700
H  45.79000 26.04600 22.67400
H  45.43700 27.60100 23.26900
H  45.74400 26.12700 24.34400
H  49.74700 31.48800 28.25200
H  49.14500 30.94600 26.60400
H  50.67900 30.36900 27.37300
H  47.60500 29.43200 32.74600
H  49.83200 27.81000 35.62000
H  50.29800 29.46800 35.91900
H  51.28700 28.41200 34.85000
Mg 41.70500 42.28800 27.51100
C  40.67900 44.73500 29.87900
C  42.05500 39.96000 29.93700
C  42.90800 40.32500 25.27800
C  41.63800 45.00600 25.17400
N  41.52200 42.39900 29.66900
C  40.93800 43.44700 30.36400
C  40.70900 42.93100 31.80600
C  41.23700 41.49800 31.86400
C  41.69900 41.28000 30.39800
C  42.29800 41.18200 32.89300
C  39.19800 43.07700 32.39800
C  38.78200 42.29600 33.66800
H  38.20000 43.05100 34.81600
N  42.38000 40.36400 27.60300
C  42.50100 39.48200 28.74500
C  42.93400 38.21600 28.29400
C  43.18100 38.29700 26.88700
C  42.86500 39.68100 26.52600
C  43.15600 37.09300 29.18500
C  43.77800 37.31600 25.91400
O  44.30000 37.60300 24.81500
C  43.89900 35.91000 26.26200
N  42.39000 42.71200 25.65100
C  42.60600 41.56600 24.91400
C  42.84200 42.00500 23.44200
C  42.23200 43.35700 23.37900
C  41.99400 43.70300 24.80900
C  44.26700 41.84000 22.94800
C  40.90000 43.48200 22.45700
C  39.83100 42.45800 22.66400
N  41.25800 44.48600 27.46900
C  41.24400 45.36100 26.47900
C  40.68600 46.62500 26.93300
C  40.47200 46.42500 28.23300
C  40.86800 45.11200 28.53800
C  40.21700 47.67000 25.97900
C  40.02400 47.13700 29.41400
O  39.62000 48.30000 29.51100
C  40.08100 46.01600 30.59900
C  40.88500 46.51100 31.64400
O  41.96500 46.99100 31.40700
O  40.25400 46.47600 32.91800
C  40.97600 46.72800 34.10900
H  42.03200 39.34900 30.84100
H  43.43000 39.82600 24.45800
H  41.53500 45.78700 24.41800
H  41.19800 43.58900 32.52500
H  40.38200 40.83500 31.99800
H  43.20600 40.68900 32.54400
H  42.12500 40.43100 33.66400
H  42.66000 42.09100 33.37400
H  38.50400 42.86200 31.58600
H  39.11200 44.10400 32.75400
H  39.61500 41.72700 34.08100
H  38.03700 41.55400 33.37700
H  43.21000 37.37300 30.23700
H  44.17800 36.75200 29.01900
H  42.36700 36.38100 28.94100
H  42.84600 35.63100 26.27100
H  44.45600 35.89400 27.19900
H  44.42900 35.27800 25.55000
H  42.33100 41.30200 22.78400
H  43.00800 44.02400 23.00200
H  44.21800 41.41600 21.94500
H  44.95000 41.26000 23.56800
H  44.66200 42.82400 22.69400
H  41.10600 43.45500 21.38700
H  40.27800 44.36500 22.60600
H  39.12900 42.89800 23.37200
H  40.19000 41.50500 23.05200
H  39.27200 42.31000 21.74000
H  39.59800 48.38700 26.51900
H  39.61700 47.21000 25.19300
H  41.10800 48.12700 25.54900
H  39.08600 45.97800 31.04200
H  41.49500 45.80900 34.37900
H  40.29900 47.17200 34.83800
H  41.71500 47.49900 33.89000

