158

Mg 8.65900 3.01300 27.92500
C  10.08700 1.45600 30.85700
C  6.69800 4.85200 30.01900
C  7.02900 4.13000 25.14600
C  10.32300 0.49300 26.01900
N  8.40200 3.08600 30.15700
C  9.15700 2.51400 31.15100
C  8.78700 3.02400 32.61800
C  7.74900 4.14800 32.25100
C  7.59000 4.00400 30.71800
C  6.35400 4.06100 33.01400
C  10.08700 3.61800 33.29800
C  10.64100 2.99400 34.54600
H  10.98000 4.00000 35.65100
N  7.12700 4.37900 27.62600
C  6.40300 4.95300 28.63400
C  5.43300 5.79700 27.96300
C  5.71200 5.80200 26.56300
C  6.66600 4.70800 26.37600
C  4.39800 6.66700 28.72200
C  5.10800 6.75200 25.49400
O  5.47200 6.54000 24.37100
C  4.10500 7.83600 25.78400
N  8.70300 2.45500 25.96000
C  7.98100 3.07800 24.96000
C  8.40800 2.60900 23.58500
C  9.66400 1.70400 23.91700
C  9.56700 1.53300 25.38400
C  7.37400 1.82400 22.73700
C  11.10000 2.17300 23.35300
C  12.08000 3.03200 24.20200
N  10.05000 1.33800 28.29200
C  10.51000 0.40400 27.42300
C  11.20500 -0.53200 28.15000
C  11.07200 -0.12600 29.51500
C  10.38100 1.01800 29.54100
C  11.87600 -1.73600 27.54400
C  11.43400 -0.55000 30.84200
O  12.09100 -1.50000 31.20100
C  10.74500 0.45700 31.81300
C  9.81100 -0.29100 32.77700
O  8.84600 -0.99400 32.43400
O  10.06400 -0.05200 34.06200
C  9.24500 -0.68300 35.11400
H  6.20400 5.55500 30.69300
H  6.47200 4.38000 24.24100
H  10.87600 -0.13700 25.32000
H  8.18000 2.25900 33.10100
H  8.10700 5.15700 32.45900
H  6.60100 3.84700 34.05400
H  5.71900 3.24400 32.67300
H  5.79300 4.98700 32.89000
H  9.78400 4.63700 33.53700
H  10.89000 3.72600 32.56900
H  11.45500 2.34000 34.23400
H  9.93600 2.26700 34.95000
H  4.26900 6.36900 29.76200
H  3.47800 6.58900 28.14200
H  4.65600 7.72600 28.68700
H  3.19700 7.25500 25.94700
H  4.03900 8.57100 24.98200
H  4.28300 8.33100 26.73900
H  8.67100 3.50600 23.02500
H  9.58900 0.67800 23.55700
H  6.53700 1.59700 23.39700
H  7.66700 0.83100 22.39600
H  7.02400 2.42100 21.89400
H  10.92600 2.63600 22.38200
H  11.78100 1.33400 23.20500
H  11.72400 3.03400 25.23300
H  12.24600 4.04800 23.84400
H  13.07100 2.58100 24.16600
H  11.58600 -2.04500 26.54000
H  11.49600 -2.47900 28.24500
H  12.96000 -1.78400 27.64700
H  11.53700 1.02700 32.30000
H  9.22500 -1.77100 35.04900
H  8.18800 -0.43500 35.02100
H  9.51600 -0.39300 36.12900
Mg 1.19900 42.42300 25.70800
C  1.91200 42.74100 29.15600
C  -1.99300 41.26100 26.59100
C  0.66900 41.84500 22.49300
C  4.39500 43.77400 24.97900
N  -0.01000 42.15100 27.69600
C  0.57100 42.26200 28.99400
C  -0.49500 41.92900 30.05200
C  -1.65200 41.26100 29.15700
C  -1.22300 41.55900 27.74300
C  -1.92600 39.80300 29.50000
C  -1.02900 43.24600 30.76100
C  -1.09800 43.11900 32.32500
H  -1.42600 41.80800 33.06700
N  -0.43000 41.73100 24.69300
C  -1.68300 41.27400 25.17000
C  -2.49100 40.86800 24.07900
C  -1.74200 41.10300 22.88700
C  -0.51900 41.61000 23.28600
C  -3.94900 40.58800 24.19000
C  -2.21500 40.78700 21.47700
O  -1.56700 41.10100 20.53000
C  -3.39100 39.92500 21.20800
N  2.42100 42.83400 24.00600
C  1.93900 42.37500 22.83100
C  2.98100 42.61600 21.75500
C  3.98300 43.67500 22.38300
C  3.62700 43.43700 23.90000
C  3.75700 41.40700 21.34300
C  3.69700 45.15700 21.96700
C  4.16700 45.59800 20.59700
N  2.85700 42.94400 26.78700
C  4.13300 43.44200 26.36100
C  4.96500 43.66200 27.51700
C  4.11600 43.46200 28.61400
C  2.85600 42.96100 28.13200
C  6.42200 44.25200 27.44600
C  3.96900 43.58100 30.03400
O  4.64800 44.07900 30.89100
C  2.64100 42.87800 30.42200
C  2.82600 41.58100 30.97900
O  3.38800 40.63900 30.44000
O  2.13600 41.46800 32.12600
C  2.39100 40.24000 32.86800
H  -2.92900 40.76900 26.86300
H  0.60400 41.79400 21.40400
H  5.26900 44.40700 24.81500
H  -0.01000 41.32200 30.81600
H  -2.57400 41.77400 29.43000
H  -1.76500 39.14700 28.64400
H  -2.92300 39.58500 29.88100
H  -1.21200 39.45100 30.24500
H  -2.08500 43.41200 30.54500
H  -0.50300 44.14300 30.43400
H  -1.78600 43.83700 32.77200
H  -0.08000 43.38300 32.61000
H  -4.34600 40.75700 25.19100
H  -4.13800 39.55900 23.88500
H  -4.44300 41.27300 23.50100
H  -3.31600 39.55500 20.18600
H  -4.28300 40.50100 21.45300
H  -3.37400 39.05600 21.86600
H  2.44100 42.97800 20.88000
H  5.04100 43.43700 22.27600
H  3.73500 40.73500 22.20200
H  4.73400 41.63100 20.91600
H  3.21900 40.98500 20.49400
H  4.28500 45.82700 22.59300
H  2.63100 45.37500 22.04100
H  3.26600 45.66500 19.98700
H  4.93200 45.01000 20.09000
H  4.56400 46.60400 20.73600
H  7.11000 43.61400 27.99900
H  6.43800 45.29400 27.76600
H  6.77200 44.11800 26.42300
H  2.12200 43.55400 31.10100
H  1.69000 39.43400 32.65100
H  2.28500 40.45300 33.93200
H  3.42500 39.89900 32.82300

