158

Mg 48.03600 14.98000 28.58100
C  45.60500 14.83300 31.03400
C  50.03900 16.97600 30.42600
C  50.18300 15.30800 25.85700
C  45.92100 12.89500 26.57800
N  47.87200 15.86300 30.44300
C  46.79800 15.61900 31.39400
C  47.17100 16.20600 32.78800
C  48.51300 17.01900 32.49200
C  48.83400 16.67600 31.01900
C  48.27900 18.56100 32.56800
C  47.41000 15.13000 33.89400
C  46.73600 15.37100 35.25200
H  47.56000 15.67700 36.52000
N  49.91200 15.91600 28.14300
C  50.58500 16.66300 29.11400
C  51.84900 17.06000 28.55000
C  51.84500 16.70400 27.18000
C  50.60100 15.93900 27.05500
C  52.87500 17.78700 29.36200
C  52.95400 16.81500 26.15000
O  52.94500 16.33600 25.04300
C  54.22500 17.65900 26.43500
N  47.91100 14.36800 26.43700
C  48.99400 14.50600 25.59600
C  48.70500 13.78300 24.23800
C  47.30900 13.15400 24.48600
C  47.03000 13.43300 25.98100
C  48.61100 14.74100 23.00600
C  47.21100 11.64200 24.09600
C  48.05200 10.64800 24.97400
N  46.22400 13.97800 28.71500
C  45.40500 13.28100 27.79000
C  44.12000 13.00000 28.44300
C  44.21100 13.59200 29.69800
C  45.44300 14.22100 29.79000
C  42.99200 12.12300 27.93000
C  43.48400 13.80800 30.92700
O  42.36100 13.46000 31.18800
C  44.38700 14.66900 31.80400
C  43.75500 15.94900 32.08700
O  43.36900 16.76000 31.32300
O  43.87400 16.21700 33.40400
C  43.40300 17.53000 33.91200
H  50.62900 17.68700 31.00800
H  50.92900 15.46800 25.07600
H  45.27500 12.20700 26.02900
H  46.35400 16.87700 33.05400
H  49.34800 16.69400 33.11300
H  47.23500 18.87400 32.56000
H  48.82000 19.14300 31.82200
H  48.69200 18.76400 33.55600
H  48.48800 14.99800 33.98000
H  47.12300 14.13600 33.55100
H  46.14800 14.49300 35.52000
H  45.98300 16.15800 35.20300
H  52.46700 18.22900 30.27100
H  53.24900 18.65900 28.82600
H  53.73100 17.19300 29.68400
H  54.84800 17.29200 27.25100
H  53.92000 18.69100 26.60900
H  54.80400 17.67900 25.51200
H  49.45400 13.08700 23.85800
H  46.49300 13.63900 23.95000
H  49.42500 14.55300 22.30600
H  48.71100 15.81100 23.18800
H  47.68300 14.59500 22.45200
H  47.48600 11.61900 23.04200
H  46.15800 11.36400 24.08700
H  48.48100 11.16800 25.83100
H  48.81200 10.23700 24.31000
H  47.45100 9.86500 25.43800
H  43.36900 11.47300 27.14000
H  42.18100 12.71700 27.50800
H  42.73200 11.43900 28.73800
H  44.63300 14.05500 32.67000
H  43.15000 17.25000 34.93500
H  42.52400 17.86600 33.36200
H  44.19300 18.27700 33.99500
Mg 35.59600 49.01400 25.43100
C  35.73400 47.21200 28.37600
C  34.38800 51.66600 27.25300
C  35.22600 50.63800 22.55800
C  36.60200 46.11500 23.67400
N  35.16600 49.36700 27.60300
C  35.33200 48.50100 28.65400
C  35.11700 49.19400 30.00000
C  34.58500 50.62400 29.56300
C  34.87800 50.61400 28.07400
C  33.15600 51.02800 29.93200
C  36.26600 49.22200 31.05500
C  35.93700 48.76700 32.52300
H  35.43000 49.76600 33.44500
N  34.86000 50.94900 24.93600
C  34.38500 51.87000 25.86500
C  33.91500 53.04000 25.10100
C  34.10200 52.71400 23.72000
C  34.78300 51.39100 23.67700
C  33.36300 54.26100 25.85000
C  33.67600 53.55000 22.52300
O  33.92000 53.20000 21.32000
C  33.03000 54.85800 22.67400
N  35.81100 48.40600 23.41100
C  35.77600 49.33100 22.41800
C  36.32100 48.77500 21.09400
C  36.76900 47.33700 21.50900
C  36.41300 47.28000 22.95200
C  35.33100 48.62000 19.90700
C  38.27500 47.05400 21.27600
C  38.57800 45.79900 20.46100
N  36.10700 47.06300 25.83900
C  36.40200 45.97600 25.04100
C  36.65600 44.81000 25.83500
C  36.37100 45.22400 27.11000
C  36.04300 46.64000 27.12900
C  37.09300 43.40600 25.49100
C  36.31400 44.78900 28.46000
O  36.55600 43.72900 29.00200
C  36.09500 46.09500 29.29700
C  34.76800 45.82300 30.12100
O  33.63600 45.94300 29.68500
O  35.14300 45.42900 31.44400
C  34.04300 44.98800 32.24700
H  33.95600 52.46400 27.86000
H  35.31600 51.21800 21.63700
H  36.96300 45.19900 23.20100
H  34.23700 48.73500 30.44900
H  35.21600 51.44200 29.91300
H  32.54200 50.25700 30.39900
H  32.52600 51.19800 29.06000
H  33.15900 51.90000 30.58600
H  36.76900 50.18900 31.05600
H  36.91300 48.51600 30.53400
H  36.82500 48.44800 33.07000
H  35.20000 47.96800 32.44000
H  33.60700 55.17900 25.31700
H  33.84100 54.38500 26.82200
H  32.29600 54.18000 26.05600
H  33.65900 55.57200 23.20600
H  32.15300 54.69800 23.30100
H  32.76800 55.25700 21.69400
H  37.20800 49.34500 20.81900
H  36.23800 46.55100 20.97300
H  35.79300 49.17900 19.09400
H  34.41100 49.19000 20.03800
H  35.04400 47.61600 19.59200
H  38.75300 46.98400 22.25200
H  38.76300 47.93200 20.85200
H  39.25600 45.12500 20.98400
H  39.06400 46.00700 19.50800
H  37.71900 45.12800 20.44800
H  37.85600 43.49700 24.71800
H  36.25800 42.81900 25.10800
H  37.60700 43.06800 26.39100
H  36.86600 46.23100 30.05500
H  33.71900 43.94900 32.19200
H  33.19400 45.67200 32.21400
H  34.46700 45.05100 33.24900

