158

Mg 53.10300 23.41100 45.28300
C  50.56300 25.63300 44.19600
C  51.30300 20.81200 44.27200
C  55.93000 21.66000 45.69300
C  54.77800 26.37000 46.37700
N  51.28000 23.25300 44.07200
C  50.29800 24.23800 43.85700
C  49.00000 23.65800 43.26400
C  49.16100 22.23100 43.84600
C  50.67400 22.03400 44.08100
C  48.32600 21.97900 45.09600
C  49.06200 23.79800 41.68000
C  47.73600 24.34000 41.03100
H  47.10300 23.43200 39.88100
N  53.56000 21.49100 44.90000
C  52.66200 20.51900 44.53200
C  53.26600 19.23700 44.43100
C  54.58100 19.36000 44.94500
C  54.75700 20.89000 45.23000
C  52.63100 18.01900 43.89500
C  55.71100 18.31700 45.12600
O  55.46400 17.14400 44.87400
C  57.09400 18.52600 45.60600
N  55.04000 23.94600 45.85300
C  56.04000 23.02600 45.90400
C  57.36800 23.70500 46.32900
C  56.98200 25.13600 46.45100
C  55.46900 25.14300 46.24400
C  58.12100 23.02600 47.51100
C  57.72500 26.17100 45.53300
C  58.77200 26.99900 46.30100
N  52.78400 25.53200 45.40100
C  53.47500 26.56400 45.96200
C  52.67900 27.79000 46.00100
C  51.53200 27.49600 45.22800
C  51.63900 26.12400 44.90400
C  53.05600 29.06600 46.67200
C  50.41500 28.03900 44.59700
O  49.99500 29.17400 44.54600
C  49.73700 26.79400 43.86000
C  49.73600 27.15300 42.34700
O  50.74000 27.41300 41.70000
O  48.48200 27.52700 41.94500
C  48.48800 28.24500 40.63300
H  50.66300 19.94400 44.10100
H  56.88500 21.13800 45.78300
H  55.42400 27.17200 46.73900
H  48.07300 24.12000 43.60200
H  48.79900 21.61100 43.02600
H  48.99200 21.63500 45.88700
H  47.62500 21.19900 44.79900
H  47.81600 22.84600 45.51500
H  49.30800 22.85500 41.19000
H  49.92400 24.38800 41.37000
H  48.04300 25.25200 40.51900
H  46.93300 24.57300 41.73000
H  51.55600 17.99400 44.07500
H  52.97100 17.13700 44.43800
H  52.85600 17.80700 42.85000
H  57.60200 18.82400 44.68900
H  57.51300 17.58500 45.96400
H  57.33300 19.22600 46.40600
H  57.98800 23.49300 45.45800
H  57.19300 25.32200 47.50400
H  57.53600 22.28200 48.05200
H  58.45100 23.73000 48.27600
H  59.10000 22.61600 47.26200
H  57.01800 26.80400 44.99600
H  58.35200 25.75100 44.74600
H  58.34600 28.00100 46.24700
H  59.63300 26.99900 45.63300
H  59.04900 26.68800 47.30800
H  52.17000 29.51100 47.12500
H  53.34600 29.75200 45.87600
H  53.79600 29.00100 47.47000
H  48.68700 26.73700 44.14800
H  47.55400 28.78500 40.78500
H  48.43100 27.54800 39.79700
H  49.30400 28.92000 40.37700
Mg 42.02700 41.15600 26.46100
C  41.21800 43.54300 28.88800
C  42.78000 39.00400 29.06300
C  43.07000 39.04100 24.04500
C  41.34600 43.64300 24.02900
N  42.03100 41.25500 28.70100
C  41.63900 42.35500 29.46800
C  41.60100 42.01400 30.92500
C  42.39600 40.65900 31.03100
C  42.38100 40.22000 29.48400
C  43.81200 40.70600 31.65000
C  40.13700 42.07000 31.47700
C  39.97900 42.98600 32.78000
H  40.10700 42.33000 34.14900
N  42.80000 39.30900 26.54400
C  42.90800 38.52400 27.69700
C  43.23800 37.22300 27.33100
C  43.35100 37.14700 25.90200
C  42.97900 38.53200 25.43700
C  43.67400 36.20200 28.32700
C  43.79700 36.07900 25.01300
O  43.75600 36.16400 23.77200
C  44.32100 34.80600 25.54500
N  42.38600 41.39600 24.39300
C  42.71800 40.35600 23.60800
C  42.51000 40.69500 22.14500
C  41.89700 42.09100 22.20700
C  41.95700 42.42300 23.67400
C  43.64700 40.44900 21.13800
C  40.45600 42.14000 21.63400
C  39.26600 41.79000 22.53700
N  41.55100 43.20100 26.42300
C  41.13100 44.00100 25.37400
C  40.64300 45.26100 25.89000
C  40.70400 45.12700 27.24000
C  41.22800 43.85300 27.51500
C  40.21100 46.40500 25.03600
C  40.39600 45.82500 28.47700
O  39.94300 46.91500 28.63600
C  40.78200 44.83300 29.62900
C  41.94400 45.43100 30.32300
O  43.10500 45.22000 29.98900
O  41.51100 46.09400 31.44800
C  42.53400 46.61000 32.36200
H  42.96700 38.31900 29.89200
H  43.31900 38.29100 23.29200
H  41.02600 44.33200 23.24400
H  42.20100 42.74400 31.46700
H  41.80400 39.91600 31.56500
H  44.01600 41.63900 32.17400
H  44.53200 40.48500 30.86200
H  43.95000 39.91500 32.38700
H  39.82700 41.06400 31.76000
H  39.38500 42.40000 30.76100
H  39.08900 43.59200 32.61000
H  40.88300 43.58800 32.69100
H  42.88500 35.45900 28.43800
H  43.93300 36.65800 29.28300
H  44.53400 35.72700 27.85600
H  45.29700 34.88900 26.02300
H  44.50800 34.04800 24.78500
H  43.77400 34.35800 26.37500
H  41.73400 40.03600 21.75500
H  42.52500 42.80200 21.67100
H  43.78700 41.20900 20.36900
H  43.64800 39.44000 20.72500
H  44.58300 40.62500 21.66600
H  40.45000 41.50100 20.75100
H  40.40100 43.15200 21.23300
H  39.60000 41.17500 23.37300
H  38.64100 41.06500 22.01400
H  38.67400 42.68300 22.73600
H  39.98000 47.24300 25.69300
H  39.38300 46.22700 24.35000
H  41.10300 46.70700 24.48700
H  39.96200 44.63600 30.31900
H  43.47800 46.81600 31.85900
H  42.75600 45.83800 33.09900
H  42.12000 47.56200 32.69500

