158

Mg 26.43200 -0.10800 28.60700
C  27.88300 -0.61200 31.78900
C  23.44100 0.01200 30.30400
C  25.04500 0.26300 25.71500
C  29.50700 -1.11000 27.09700
N  25.69000 -0.47800 30.85700
C  26.53100 -0.42900 31.93700
C  25.78800 -0.21300 33.28200
C  24.32400 -0.19000 32.77800
C  24.42700 -0.29100 31.22600
C  23.41600 -1.33400 33.28300
C  26.33600 1.01600 34.11700
C  26.77300 0.75300 35.58000
H  26.57600 1.87500 36.62400
N  24.55400 0.13100 28.05900
C  23.43200 0.21900 28.90500
C  22.26100 0.59700 28.11000
C  22.70600 0.68100 26.78200
C  24.14200 0.41900 26.79800
C  20.84800 0.72700 28.65700
C  21.85900 0.93300 25.47200
O  22.44200 0.99900 24.39500
C  20.36100 1.03300 25.52100
N  27.16200 -0.23000 26.63900
C  26.36700 -0.05800 25.61400
C  27.17900 -0.04200 24.32000
C  28.45300 -0.80700 24.75400
C  28.41700 -0.72300 26.26300
C  26.40300 -0.76500 23.15900
C  29.71300 -0.09600 24.17000
C  30.93300 -1.00500 23.84800
N  28.31300 -0.66400 29.24600
C  29.41500 -1.05700 28.53200
C  30.48900 -1.21600 29.42600
C  29.99900 -1.00200 30.69400
C  28.60700 -0.78800 30.57400
C  31.99000 -1.55900 29.14200
C  30.35200 -1.01400 32.12800
O  31.40400 -1.29600 32.67800
C  29.00900 -0.72800 32.84600
C  28.81900 -1.84700 33.83100
O  28.14200 -2.88800 33.63900
O  29.45500 -1.48700 35.01500
C  29.11500 -2.25200 36.21000
H  22.53400 0.08800 30.90800
H  24.51100 0.32400 24.76400
H  30.41700 -1.45200 26.60100
H  26.16400 -1.10400 33.78400
H  23.90400 0.80100 32.95000
H  22.55100 -0.95800 33.82900
H  23.92000 -1.99600 33.98800
H  23.00200 -1.90900 32.45400
H  25.54600 1.76700 34.13300
H  27.20700 1.59500 33.80900
H  27.83600 0.52900 35.67100
H  26.26800 -0.09100 36.04900
H  20.10500 0.09700 28.16800
H  20.47500 1.73100 28.45500
H  20.69800 0.51200 29.71500
H  20.02300 1.87400 26.12600
H  20.10400 0.06300 25.94800
H  20.06400 1.22900 24.49100
H  27.40500 0.98600 24.03900
H  28.45100 -1.85700 24.45800
H  26.95900 -1.67400 22.93200
H  26.34900 -0.07700 22.31500
H  25.39500 -1.07600 23.43500
H  30.11800 0.61800 24.88700
H  29.51800 0.40500 23.22200
H  31.04600 -1.71900 24.66400
H  31.87900 -0.48900 23.68500
H  30.78700 -1.56500 22.92500
H  32.06300 -1.77900 28.07700
H  32.26000 -2.41700 29.75800
H  32.58700 -0.73500 29.53300
H  29.06700 0.19100 33.42900
H  28.91700 -3.29400 35.95700
H  28.24600 -1.74900 36.63500
H  29.94200 -2.14900 36.91200
Mg 30.39400 59.15800 40.57600
C  27.46100 57.57700 39.61700
C  32.10900 56.38300 39.51700
C  33.35300 60.92400 40.47800
C  28.58900 62.07500 41.06000
N  29.82000 57.23600 39.63200
C  28.57400 56.79200 39.32100
C  28.66200 55.43900 38.57200
C  30.05500 54.91700 38.89800
C  30.73500 56.23500 39.45500
C  29.95900 53.79700 39.95100
C  28.45100 55.69300 37.04900
C  27.40100 54.81700 36.39100
H  26.91100 55.16100 34.99700
N  32.43700 58.71200 40.14800
C  32.88300 57.47500 39.80100
C  34.33300 57.49400 39.54800
C  34.70600 58.84000 39.79200
C  33.46300 59.56000 40.11000
C  35.13500 56.28000 39.14600
C  36.12200 59.33800 39.66000
O  37.02600 58.53100 39.49700
C  36.46500 60.82300 39.86700
N  30.85400 61.17000 40.79000
C  32.12600 61.61000 40.72400
C  32.18800 63.09300 41.06700
C  30.71300 63.55100 41.63500
C  29.98700 62.24500 41.13000
C  33.36000 63.68200 41.97300
C  30.34300 64.98600 41.12500
C  29.98600 66.04800 42.25900
N  28.46200 59.70800 40.51100
C  27.80100 60.93900 40.72300
C  26.35800 60.86100 40.56400
C  26.16700 59.53800 40.07800
C  27.49900 58.91300 40.05300
C  25.34800 62.03300 40.60700
C  25.20500 58.49900 39.65200
O  24.00400 58.52400 39.43100
C  26.00900 57.19100 39.29000
C  25.46400 56.13300 40.15600
O  25.77100 55.82400 41.32500
O  24.47500 55.44400 39.49600
C  23.49900 54.57700 40.24900
H  32.50700 55.41800 39.19700
H  34.15400 61.65300 40.34100
H  27.98700 62.95000 41.31400
H  27.85000 54.80300 38.92400
H  30.48400 54.65400 37.93200
H  30.39300 54.12600 40.89600
H  30.45000 52.89100 39.59800
H  28.91800 53.59300 40.20000
H  29.42000 55.70800 36.55100
H  28.17800 56.73300 36.86600
H  26.53000 54.61800 37.01600
H  27.77000 53.79300 36.34700
H  34.59500 55.38700 39.45800
H  36.01900 56.22500 39.78100
H  35.26000 56.40100 38.07000
H  35.82700 61.46400 39.25900
H  37.49200 60.87500 39.50500
H  36.49200 61.18200 40.89600
H  32.43900 63.59400 40.13300
H  30.76800 63.51800 42.72400
H  32.86600 64.21400 42.78700
H  33.94500 64.40000 41.39900
H  34.10200 62.93500 42.25200
H  29.51000 64.90300 40.42600
H  31.21100 65.39700 40.61000
H  28.92800 66.30000 42.19100
H  30.58300 66.95600 42.16900
H  30.23100 65.67000 43.25100
H  24.31200 61.70200 40.68700
H  25.48300 62.71600 39.76900
H  25.57900 62.56900 41.52800
H  25.97000 56.86700 38.25000
H  22.56900 55.03400 40.58600
H  23.92700 54.13700 41.14900
H  23.27300 53.68200 39.66900

