158

Mg 8.69300 46.86600 26.34900
C  6.72200 46.92100 29.20200
C  11.35700 47.80300 28.33200
C  10.51700 47.07800 23.59200
C  5.75300 46.80600 24.34100
N  8.96600 47.24400 28.54100
C  8.01700 47.18700 29.48800
C  8.49200 47.61500 30.90900
C  9.96400 48.17000 30.52800
C  10.16200 47.73400 29.02800
C  10.03000 49.65800 30.69400
C  8.32100 46.41800 31.87900
C  9.34800 46.24700 33.03100
H  9.14400 45.32900 34.24300
N  10.77600 47.17700 26.01000
C  11.68500 47.54800 26.93600
C  12.99600 47.59600 26.30400
C  12.75000 47.27800 24.94900
C  11.30000 47.21300 24.80900
C  14.29100 47.90400 27.07700
C  13.83400 46.98500 23.82800
O  13.42800 46.78900 22.71200
C  15.34500 46.93800 24.10900
N  8.15600 47.06500 24.23800
C  9.15600 47.13900 23.29200
C  8.56300 47.17900 21.83400
C  7.09100 46.83700 22.08600
C  6.97500 46.89500 23.63100
C  8.85100 48.58800 21.20200
C  6.67800 45.53100 21.42400
C  5.31900 45.37300 20.69800
N  6.67600 46.79800 26.63300
C  5.59800 46.69700 25.77900
C  4.44700 46.47700 26.61500
C  4.83100 46.62400 27.90500
C  6.20600 46.80200 27.92300
C  3.06400 46.15200 26.24100
C  4.36200 46.60400 29.26400
O  3.23900 46.45800 29.78800
C  5.56100 46.81600 30.12700
C  5.57100 45.52200 30.89700
O  5.95300 44.43800 30.45600
O  4.99200 45.68600 32.17200
C  4.93100 44.40700 32.93900
H  12.22800 48.10700 28.91700
H  11.10900 47.02100 22.67700
H  4.85100 46.67500 23.74100
H  7.90800 48.45200 31.29100
H  10.74700 47.77700 31.17600
H  9.76500 49.81800 31.73900
H  9.34000 50.15500 30.01200
H  11.07400 49.96500 30.63200
H  8.28300 45.56700 31.19900
H  7.41800 46.53700 32.47900
H  9.62800 47.27300 33.27300
H  10.20700 45.92600 32.44200
H  14.04300 48.14200 28.11100
H  14.72800 48.84700 26.74900
H  14.96100 47.04500 27.03600
H  15.67500 47.94900 24.35000
H  15.92200 46.65500 23.22900
H  15.55300 46.29900 24.96700
H  9.23400 46.51300 21.29100
H  6.38900 47.60900 21.77000
H  7.97300 49.11700 20.83300
H  9.47300 48.47900 20.31300
H  9.21700 49.33900 21.90200
H  6.49900 44.82000 22.23000
H  7.51000 45.11000 20.86000
H  4.60700 46.07200 21.13600
H  4.87400 44.38700 20.83100
H  5.42800 45.60400 19.63900
H  2.26400 46.70400 26.73200
H  2.94900 45.09000 26.46000
H  2.85700 46.29100 25.18000
H  5.42700 47.60700 30.86400
H  4.76200 43.50900 32.34500
H  4.20700 44.52000 33.74500
H  5.90400 44.39400 33.43000
Mg -2.43000 33.93900 26.74700
C  -3.83100 32.22200 29.59700
C  -0.60100 35.72100 29.01000
C  -1.38100 35.73800 24.26800
C  -4.24500 31.99500 24.67300
N  -2.41200 34.12100 29.11000
C  -2.94300 33.26000 30.02500
C  -2.33500 33.46100 31.45400
C  -1.32700 34.59100 31.18900
C  -1.42200 34.75000 29.63500
C  -1.66800 35.85700 31.94400
C  -1.57800 32.22100 32.05000
C  -2.14600 31.66600 33.32600
H  -1.19600 31.67200 34.56800
N  -1.18000 35.51400 26.67400
C  -0.47600 36.08100 27.72100
C  0.34500 37.11600 27.16900
C  0.15300 37.17400 25.74400
C  -0.86200 36.15200 25.48800
C  1.20500 38.08000 28.06500
C  0.76000 38.04100 24.71700
O  0.36600 38.04600 23.58500
C  1.95500 38.95900 25.07300
N  -2.95900 34.01200 24.74600
C  -2.26200 34.75900 23.90700
C  -2.64100 34.42500 22.40900
C  -3.34000 33.00900 22.55900
C  -3.42100 32.95200 24.05800
C  -3.57300 35.48800 21.68400
C  -2.52200 31.78400 21.93900
C  -1.05100 31.62500 22.31600
N  -3.91500 32.57800 26.99500
C  -4.57100 31.79600 26.07200
C  -5.38300 30.73000 26.70500
C  -5.13600 30.87200 28.10400
C  -4.23200 32.00100 28.18700
C  -6.14400 29.64000 26.06300
C  -5.41800 30.34300 29.40400
O  -6.14300 29.40400 29.76400
C  -4.60300 31.19200 30.35400
C  -5.51000 31.76600 31.40800
O  -6.18300 32.72900 31.22200
O  -5.31000 31.15600 32.65400
C  -6.01100 31.65000 33.83700
H  0.13400 36.15500 29.69200
H  -0.86300 36.27200 23.46800
H  -4.64900 31.21900 24.01800
H  -3.16700 33.70200 32.11600
H  -0.28700 34.31500 31.35800
H  -2.16500 36.52100 31.23700
H  -0.81300 36.46400 32.24200
H  -2.34300 35.77100 32.79600
H  -0.53700 32.48100 32.24100
H  -1.55900 31.38800 31.34700
H  -2.46200 30.65400 33.07300
H  -3.03200 32.23200 33.61400
H  0.76700 39.01900 28.40100
H  2.17200 38.14400 27.56400
H  1.50300 37.51900 28.95100
H  2.79400 38.33000 25.36900
H  1.73500 39.59500 25.93100
H  2.35200 39.53500 24.23700
H  -1.74200 34.35600 21.79700
H  -4.36700 33.00700 22.19300
H  -3.98500 35.03300 20.78300
H  -2.98400 36.31400 21.28400
H  -4.34400 35.87800 22.34800
H  -2.53300 31.97400 20.86600
H  -3.08000 30.85700 22.06900
H  -0.51100 31.60800 21.36900
H  -0.73900 30.76200 22.90400
H  -0.73200 32.51700 22.85400
H  -5.97300 28.76800 26.69500
H  -5.69200 29.52200 25.07800
H  -7.18500 29.96200 26.04200
H  -3.82000 30.54900 30.75800
H  -6.58000 32.56100 33.65100
H  -5.22900 31.87400 34.56200
H  -6.61900 30.82700 34.21400

