158

Mg -2.34800 16.60300 25.91700
C  -2.90400 14.60600 28.81800
C  -3.34900 19.38100 27.84500
C  -2.53300 18.50300 23.14700
C  -2.08400 13.77400 24.04900
N  -3.01800 16.92500 28.12800
C  -3.16400 15.97900 29.09200
C  -3.60000 16.62600 30.41200
C  -4.11800 18.04500 29.92000
C  -3.48900 18.13600 28.49100
C  -5.64600 18.10900 29.90600
C  -2.43700 16.74400 31.45400
C  -2.89800 17.17800 32.82600
H  -2.77300 16.00400 33.86700
N  -2.67100 18.64800 25.56300
C  -2.79100 19.66200 26.53600
C  -2.56000 20.93000 25.93400
C  -2.41400 20.69700 24.49800
C  -2.57000 19.22500 24.30400
C  -2.52800 22.24300 26.80000
C  -2.08400 21.66600 23.38500
O  -2.08400 21.44000 22.21400
C  -1.96100 23.10100 23.77700
N  -2.50200 16.17300 23.91300
C  -2.48800 17.12500 22.90000
C  -2.35500 16.50200 21.47800
C  -1.90800 14.98800 21.84500
C  -2.19900 14.93700 23.36100
C  -3.64300 16.65700 20.60400
C  -0.51300 14.55700 21.56000
C  0.57000 15.12200 22.45300
N  -2.38900 14.61600 26.34300
C  -2.24000 13.51200 25.43000
C  -2.35400 12.33900 26.06500
C  -2.54000 12.67000 27.43200
C  -2.55800 14.08600 27.51600
C  -2.14500 10.99400 25.45200
C  -2.69700 12.07500 28.74200
O  -2.53100 10.93200 29.14800
C  -3.05300 13.35800 29.68200
C  -2.11400 13.38600 30.82900
O  -0.96400 13.83700 30.87100
O  -2.61000 12.56900 31.83000
C  -1.91900 12.21400 33.08400
H  -3.74700 20.23200 28.40100
H  -2.34300 18.99500 22.19000
H  -1.98400 12.87400 23.44000
H  -4.38200 16.01600 30.86600
H  -3.69700 18.90300 30.44500
H  -5.90100 18.44800 28.90200
H  -6.04200 18.81800 30.63300
H  -6.12500 17.14100 30.05400
H  -1.71300 17.46000 31.06700
H  -1.96700 15.76200 31.50700
H  -3.94300 17.48200 32.77000
H  -2.31700 18.04900 33.13100
H  -2.59500 22.09700 27.87800
H  -3.43400 22.75700 26.47700
H  -1.66200 22.82200 26.47800
H  -1.90400 23.70300 22.87000
H  -0.99800 23.20700 24.27800
H  -2.75400 23.50600 24.40500
H  -1.55600 16.93300 20.87600
H  -2.61700 14.30700 21.37500
H  -4.27700 15.78500 20.76200
H  -3.39600 16.73800 19.54600
H  -4.14100 17.61500 20.75600
H  -0.41000 14.84600 20.51400
H  -0.54800 13.49500 21.31700
H  0.15600 15.63500 23.32100
H  1.12600 15.85600 21.87000
H  1.21500 14.32600 22.82700
H  -2.06600 10.21800 26.21300
H  -1.21700 10.96200 24.88100
H  -2.94700 10.72500 24.76400
H  -4.03000 13.37200 30.16300
H  -1.13500 12.97000 33.11000
H  -1.41900 11.24800 33.01100
H  -2.67800 12.36800 33.85200
Mg 2.34700 -1.46900 43.29700
C  5.63700 -0.51000 43.11800
C  1.54600 1.51200 41.71800
C  -0.86500 -2.63200 42.65500
C  3.29900 -4.46700 44.80000
N  3.49800 0.24900 42.36900
C  4.80400 0.50400 42.58300
C  5.18500 1.83000 41.99700
C  3.78100 2.57500 41.90200
C  2.89200 1.39300 42.02300
C  3.61300 3.86600 42.77500
C  6.22300 1.83800 40.77300
C  5.97400 0.71900 39.82300
H  5.15600 1.19300 38.56800
N  0.60200 -0.71700 42.24700
C  0.53900 0.57000 41.78600
C  -0.76600 0.80400 41.22100
C  -1.51200 -0.44200 41.46800
C  -0.58400 -1.34700 42.17100
C  -1.21500 2.03300 40.52900
C  -2.82100 -0.64200 40.78800
O  -3.29100 0.21200 40.03200
C  -3.57300 -1.96000 41.03900
N  1.42600 -3.31200 43.51700
C  0.05900 -3.50400 43.32000
C  -0.41100 -4.87400 43.87200
C  0.91200 -5.37500 44.60300
C  2.00700 -4.39300 44.25000
C  -1.60900 -4.88300 44.85800
C  1.24700 -6.84900 44.18900
C  1.24200 -7.77500 45.38800
N  4.02100 -2.42800 43.80600
C  4.32700 -3.64600 44.38900
C  5.72900 -3.83300 44.61600
C  6.34300 -2.58800 44.12900
C  5.21600 -1.81300 43.60600
C  6.31400 -4.96200 45.45300
C  7.57400 -1.83500 44.04300
O  8.71900 -2.14000 44.33400
C  7.18100 -0.55000 43.31200
C  7.60400 0.55900 44.28600
O  7.22100 0.64400 45.46700
O  8.45600 1.50300 43.68400
C  8.79000 2.61200 44.50400
H  1.31500 2.54000 41.43000
H  -1.85200 -3.07000 42.49300
H  3.50200 -5.39500 45.33800
H  5.84000 2.32600 42.71400
H  3.64700 2.83100 40.85100
H  3.45500 3.68100 43.83800
H  2.66300 4.29300 42.45400
H  4.43800 4.54900 42.57300
H  7.22700 1.94700 41.18300
H  6.16100 2.75200 40.18200
H  5.22900 0.00800 40.18000
H  6.90400 0.18700 39.62300
H  -2.15800 2.35100 40.97300
H  -1.45200 1.80700 39.48900
H  -0.52500 2.86600 40.66200
H  -3.16600 -2.77800 40.44600
H  -4.58600 -1.76800 40.68500
H  -3.62600 -2.16700 42.10800
H  -0.68900 -5.36100 42.93800
H  0.84500 -5.35500 45.69100
H  -1.43900 -5.40700 45.79900
H  -2.44700 -5.36000 44.35000
H  -1.84200 -3.85200 45.12600
H  2.19000 -6.82200 43.64400
H  0.50100 -7.22800 43.49000
H  0.85300 -8.78600 45.26700
H  0.62500 -7.46000 46.22900
H  2.16800 -7.83200 45.95900
H  7.27800 -4.57600 45.78600
H  6.52600 -5.81900 44.81400
H  5.63400 -5.29800 46.23600
H  7.64800 -0.25100 42.37400
H  8.00100 2.86800 45.21000
H  8.87400 3.29300 43.65700
H  9.73700 2.44100 45.01700

