158

Mg 30.04400 59.85200 40.05800
C  27.14000 58.25800 39.17300
C  31.84400 56.93500 39.79500
C  32.81600 61.73200 40.32500
C  28.17800 62.79600 40.61900
N  29.53500 57.80700 39.50900
C  28.28600 57.39200 39.07800
C  28.42600 55.95500 38.52400
C  29.76900 55.48200 39.13200
C  30.45800 56.81700 39.58700
C  29.74300 54.52100 40.44700
C  28.35900 56.06100 36.87900
C  27.25300 55.29900 36.19600
H  26.58300 55.99400 35.03800
N  32.08600 59.37800 39.98600
C  32.60700 58.09200 39.98400
C  34.03400 58.19600 40.02600
C  34.39200 59.56600 40.29200
C  33.08000 60.30300 40.22300
C  34.93000 57.04700 39.71200
C  35.79000 60.09500 40.47700
O  36.75400 59.32400 40.60800
C  36.09500 61.51200 40.57500
N  30.46300 62.04600 40.16300
C  31.71200 62.53700 40.31600
C  31.69600 64.05400 40.66900
C  30.21000 64.37000 40.95400
C  29.53700 62.98200 40.53100
C  32.68700 64.60400 41.68500
C  29.72700 65.64300 40.17000
C  28.84300 66.58200 40.97600
N  28.09700 60.44300 39.98700
C  27.47600 61.63100 40.28200
C  26.06000 61.41200 40.22400
C  25.88100 60.08300 39.75600
C  27.15500 59.57500 39.65800
C  24.97400 62.40600 40.50600
C  24.89700 59.10300 39.21600
O  23.69200 59.03800 39.11500
C  25.73100 57.77300 38.82600
C  25.10700 56.62200 39.59700
O  25.34300 56.28500 40.74800
O  24.29000 55.99600 38.71600
C  23.37900 54.99400 39.30600
H  32.26700 55.93400 39.69000
H  33.75100 62.26500 40.51000
H  27.69400 63.72700 40.92200
H  27.53700 55.37200 38.76600
H  30.42700 55.06400 38.37100
H  30.57800 53.98200 40.89400
H  28.97300 53.75500 40.36100
H  29.37300 55.08400 41.30400
H  29.29600 55.66100 36.49300
H  28.25600 57.10700 36.59000
H  26.43200 55.18600 36.90400
H  27.51300 54.28700 35.88400
H  34.41500 56.12600 39.43900
H  35.56100 56.75500 40.55100
H  35.63500 57.31100 38.92300
H  37.14200 61.63300 40.85500
H  35.56900 62.03500 41.37300
H  35.93900 61.99300 39.60900
H  32.02700 64.59100 39.78100
H  29.97100 64.48800 42.01000
H  32.14000 65.12800 42.46900
H  33.38100 65.29700 41.20900
H  33.14800 63.74400 42.17100
H  29.26300 65.28300 39.25200
H  30.59700 66.14200 39.74300
H  28.58800 66.27600 41.99100
H  27.86100 66.66600 40.51100
H  29.26700 67.57900 40.85200
H  25.21500 62.82700 41.48200
H  23.99400 61.92900 40.51500
H  24.94600 63.12500 39.68800
H  25.62400 57.51200 37.77300
H  22.71000 55.36800 40.08100
H  23.95000 54.22200 39.82100
H  22.87700 54.64800 38.40200
Mg -8.36600 39.70800 42.20800
C  -7.40100 36.44100 41.15600
C  -5.90300 40.95400 40.36900
C  -9.87000 42.67300 42.42900
C  -11.42100 38.20700 43.61400
N  -6.94000 38.80900 40.88300
C  -6.61600 37.46500 40.67500
C  -5.29000 37.26500 39.92800
C  -4.79300 38.76100 39.71700
C  -5.93900 39.56200 40.31400
C  -3.30300 39.03900 40.15000
C  -5.49100 36.48300 38.62900
C  -4.51600 35.33400 38.45900
H  -3.66400 35.39000 37.20900
N  -7.73800 41.60400 41.80700
C  -6.72800 41.88600 41.06800
C  -6.58500 43.31700 41.01800
C  -7.65400 43.82600 41.73800
C  -8.48200 42.70700 42.09100
C  -5.35600 43.97000 40.36900
C  -7.93900 45.38400 42.07300
O  -7.14800 46.25400 41.75700
C  -9.02600 45.80300 42.98100
N  -10.30300 40.29900 43.00400
C  -10.64500 41.61600 42.90800
C  -12.15600 41.76600 43.19100
C  -12.56300 40.39500 43.82800
C  -11.28600 39.54400 43.54400
C  -12.47600 43.00400 43.99600
C  -13.98200 39.64100 43.45900
C  -15.23400 40.62800 43.55600
N  -9.26700 37.70400 42.39700
C  -10.46500 37.30400 43.01000
C  -10.51300 35.91600 42.83100
C  -9.33700 35.52100 42.23400
C  -8.63800 36.62900 41.89600
C  -11.58100 34.98800 43.37000
C  -8.52400 34.36800 41.65100
O  -8.77600 33.15100 41.61100
C  -7.23700 34.93700 41.09000
C  -6.05200 34.54600 41.97400
O  -5.64700 34.99300 43.03300
O  -5.30300 33.63700 41.20100
C  -3.96800 33.29400 41.70500
H  -5.09100 41.38600 39.78100
H  -10.45000 43.59300 42.33700
H  -12.40900 37.82300 43.87800
H  -4.61100 36.66000 40.52900
H  -4.75200 38.90800 38.63800
H  -2.56200 38.98100 39.35200
H  -3.00000 38.22900 40.81300
H  -3.25700 39.99600 40.66800
H  -5.23900 37.09200 37.76100
H  -6.49200 36.06200 38.52600
H  -5.01700 34.36600 38.47400
H  -3.79500 35.29100 39.27500
H  -5.05100 44.89200 40.86200
H  -5.60800 44.34400 39.37600
H  -4.58900 43.20000 40.44500
H  -8.86500 46.60000 43.70700
H  -9.21500 45.04300 43.73900
H  -9.91700 46.08000 42.41800
H  -12.72900 41.88200 42.27100
H  -12.72200 40.55700 44.89400
H  -12.97000 43.61200 43.23800
H  -11.60100 43.52300 44.38800
H  -13.28200 42.74900 44.68300
H  -14.12200 38.80800 44.14700
H  -13.91300 39.27100 42.43600
H  -15.38500 41.06700 42.57000
H  -15.05200 41.51700 44.16000
H  -16.12600 40.08900 43.87400
H  -12.54100 35.09700 42.86500
H  -11.69600 35.10200 44.44800
H  -11.19400 33.96900 43.39300
H  -7.03300 34.51200 40.10700
H  -3.42600 34.23900 41.67200
H  -3.48600 32.60200 41.01400
H  -4.01900 32.84100 42.69500

