158

Mg 45.06700 4.38600 47.03300
C  43.35800 7.50400 46.73100
C  41.97600 2.91200 46.37300
C  46.78700 1.57800 46.59500
C  48.15500 6.21500 46.87100
N  42.80500 5.24800 46.48700
C  42.39900 6.51000 46.50900
C  40.86600 6.51800 46.25500
C  40.52100 4.97800 46.23000
C  41.81700 4.32700 46.37700
C  39.46900 4.59000 47.30000
C  40.34300 7.35500 44.97700
C  41.25900 7.37300 43.69600
H  40.72000 6.42600 42.63200
N  44.48600 2.47500 46.58400
C  43.16500 2.07700 46.36100
C  43.24900 0.64800 46.10800
C  44.62100 0.21600 46.33300
C  45.36300 1.45200 46.54000
C  42.10700 -0.15800 45.74900
C  45.16100 -1.15300 46.14700
O  44.35300 -2.00100 45.79200
C  46.57400 -1.51300 46.36300
N  47.20800 3.94400 46.59600
C  47.58800 2.67400 46.66000
C  49.18500 2.53200 46.66500
C  49.61500 4.03800 46.65500
C  48.22600 4.81700 46.71500
C  49.57800 1.74100 47.94700
C  50.45700 4.47200 45.45300
C  51.70100 3.62900 45.05200
N  45.70800 6.36800 46.94800
C  46.93600 6.94700 46.86000
C  46.84500 8.38600 46.85000
C  45.43000 8.61400 46.86500
C  44.78400 7.40800 46.97800
C  47.94000 9.37500 46.97000
C  44.35200 9.66900 46.88400
O  44.37800 10.89600 46.80000
C  42.94900 8.89900 46.74400
C  42.20200 9.28900 47.97800
O  42.11300 8.59700 49.00300
O  41.42400 10.41300 47.75800
C  40.49800 10.57200 48.85700
H  40.99200 2.43800 46.37200
H  47.49100 0.74400 46.60000
H  49.11700 6.73200 46.86500
H  40.55200 7.03800 47.16000
H  40.06100 4.69200 45.28400
H  39.85900 3.84600 47.99500
H  38.63200 4.18000 46.73500
H  39.25800 5.42400 47.97000
H  40.00400 8.34000 45.29600
H  39.40000 6.87100 44.72100
H  42.28100 7.03100 43.86000
H  41.25900 8.39000 43.30500
H  41.84700 -0.96500 46.43300
H  42.15700 -0.66500 44.78500
H  41.20400 0.44700 45.66900
H  46.83000 -2.57000 46.29100
H  46.93900 -1.16200 47.32800
H  47.09800 -1.13300 45.48600
H  49.56200 2.14700 45.71800
H  50.07800 4.35600 47.58900
H  49.73000 0.70300 47.65000
H  48.80900 1.71700 48.71900
H  50.49500 2.04600 48.45000
H  50.71800 5.48600 45.75600
H  49.86500 4.52900 44.54000
H  51.70500 3.16000 44.06900
H  51.85400 2.83400 45.78300
H  52.61700 4.21900 45.08600
H  48.68800 9.09200 47.71100
H  47.46300 10.32600 47.20900
H  48.59900 9.47000 46.10700
H  42.60500 9.37700 45.82700
H  39.81000 9.73000 48.92600
H  39.90600 11.45700 48.62400
H  41.09000 10.71300 49.76200
Mg -12.63200 16.30500 42.79600
C  -9.38300 15.08100 42.18100
C  -11.88500 19.17200 41.23300
C  -16.06100 17.08000 42.44900
C  -13.65500 13.13100 43.95700
N  -10.82000 17.04300 41.88100
C  -9.54600 16.41900 41.85400
C  -8.45600 17.43700 41.34400
C  -9.29000 18.78100 41.31900
C  -10.74400 18.29900 41.51200
C  -9.01100 19.84300 42.32300
C  -7.88600 17.00600 39.97200
C  -6.33000 16.89800 39.77400
H  -5.79400 15.66400 39.11400
N  -13.86200 17.98500 41.99300
C  -13.23100 19.05700 41.48900
C  -14.24100 20.05000 41.19700
C  -15.48200 19.40800 41.40100
C  -15.16500 18.04800 41.89700
C  -14.02200 21.38400 40.59800
C  -16.83500 20.05200 41.15600
O  -16.91800 21.15100 40.61300
C  -18.12600 19.34600 41.49200
N  -14.64600 15.20100 43.13700
C  -15.82600 15.79000 42.96400
C  -16.95700 14.85500 43.36900
C  -16.21100 13.51000 43.90300
C  -14.79400 13.96100 43.70000
C  -18.04200 15.32900 44.30400
C  -16.65500 12.25800 43.12800
C  -15.74200 11.81400 41.98700
N  -11.77900 14.48300 43.08400
C  -12.26100 13.23800 43.53300
C  -11.18100 12.25600 43.65700
C  -10.10700 12.93400 43.03900
C  -10.46100 14.29800 42.76000
C  -11.28600 10.84900 44.29700
C  -8.68400 12.80800 42.67200
O  -7.95400 11.80100 42.84300
C  -8.17700 14.18800 42.08700
C  -7.14200 14.72900 43.09000
O  -7.30500 15.50900 43.99600
O  -5.95300 14.08600 42.81700
C  -4.78200 14.49300 43.58600
H  -11.53200 20.09700 40.77300
H  -17.12600 17.29700 42.34600
H  -13.73800 12.13300 44.39200
H  -7.56800 17.54400 41.96700
H  -8.96400 19.29900 40.41700
H  -8.06500 19.57000 42.79000
H  -9.76800 19.93400 43.10200
H  -9.06600 20.79300 41.79200
H  -8.20700 17.66900 39.16800
H  -8.36000 16.10700 39.57700
H  -5.84800 16.95100 40.75000
H  -5.88800 17.76100 39.27600
H  -14.34700 21.34900 39.55800
H  -12.95600 21.57000 40.72700
H  -14.59100 22.12100 41.16400
H  -19.04500 19.91500 41.35800
H  -17.99400 19.18700 42.56200
H  -18.07400 18.41900 40.92000
H  -17.50900 14.79300 42.43100
H  -16.41100 13.30800 44.95600
H  -17.66500 16.24400 44.76300
H  -18.38500 14.64300 45.07900
H  -18.94800 15.52800 43.73200
H  -17.63700 12.34500 42.66400
H  -16.67300 11.43200 43.83900
H  -15.15100 10.94500 42.27700
H  -15.01700 12.55900 41.66100
H  -16.38800 11.68900 41.11800
H  -11.63600 10.88900 45.32800
H  -10.29800 10.40300 44.18100
H  -12.07800 10.25600 43.84100
H  -7.75600 14.16100 41.08200
H  -4.34300 15.45000 43.30500
H  -3.98100 13.78800 43.35900
H  -5.05900 14.49800 44.64000

