158

Mg 49.65400 45.95200 42.73200
C  46.20500 46.68400 41.99100
C  49.24200 42.94700 41.31400
C  52.98900 45.56700 43.10300
C  49.77000 49.24000 44.04700
N  47.86400 44.99500 41.81400
C  46.65200 45.38200 41.54700
C  45.77600 44.34000 40.90200
C  46.70300 43.17200 40.61800
C  48.03800 43.75600 41.28200
C  46.37800 41.79900 41.20800
C  44.94100 44.77200 39.66100
C  43.81900 43.81100 39.10900
H  43.98000 43.03500 37.81000
N  50.94000 44.49500 42.18700
C  50.59500 43.22600 41.74000
C  51.76600 42.45100 41.78300
C  52.83700 43.16300 42.40000
C  52.28800 44.48900 42.54500
C  51.71600 40.93400 41.38200
C  54.23000 42.64800 42.73900
O  54.39400 41.47500 42.56600
C  55.42100 43.53800 43.08600
N  51.25600 47.25600 43.31200
C  52.56600 46.88900 43.39500
C  53.46900 48.10800 43.85400
C  52.39700 49.15300 44.33900
C  50.99900 48.52300 43.91000
C  54.61500 47.75500 44.86400
C  52.67900 50.65300 43.85700
C  52.72500 51.87000 44.85500
N  48.36400 47.63100 42.97800
C  48.55000 48.78700 43.64300
C  47.33700 49.51900 43.77000
C  46.35600 48.66300 43.16900
C  47.05800 47.54600 42.66900
C  47.01600 50.96700 44.25000
C  44.95900 48.59400 42.82400
O  44.03800 49.33800 42.92100
C  44.85700 47.27600 41.97900
C  43.76000 46.50400 42.64900
O  43.85300 45.87000 43.66600
O  42.63500 46.57900 41.81200
C  41.33600 46.21000 42.40600
H  49.10600 41.90700 41.00800
H  54.06000 45.54000 43.31400
H  49.71100 50.20700 44.55000
H  45.09800 43.99500 41.68300
H  47.01800 43.16000 39.57400
H  46.76700 41.67500 42.21800
H  46.97300 41.06400 40.66600
H  45.36500 41.40500 41.11700
H  45.61600 44.77500 38.80400
H  44.52000 45.76600 39.81400
H  42.96700 44.45100 38.87800
H  43.45000 43.13400 39.87900
H  52.60800 40.64800 40.82300
H  50.84600 40.97900 40.72700
H  51.51900 40.33000 42.26700
H  55.36700 43.91600 44.10700
H  55.60000 44.22100 42.25500
H  56.36300 42.99100 43.08600
H  53.84400 48.51100 42.91400
H  52.20900 49.15200 45.41300
H  55.48400 47.95900 44.23700
H  54.66400 46.73100 45.23300
H  54.70300 48.42400 45.72000
H  51.95600 50.86600 43.06900
H  53.67900 50.69500 43.42700
H  52.27100 52.75600 44.41000
H  53.75400 52.13100 45.10400
H  52.10500 51.57800 45.70200
H  47.68100 51.07400 45.10600
H  45.99600 51.26800 44.49000
H  47.41600 51.58500 43.44600
H  44.51100 47.67700 41.02600
H  41.25200 46.75100 43.34900
H  41.23900 45.14300 42.60600
H  40.53800 46.47700 41.71300
Mg 42.30600 41.69100 27.39600
C  41.51500 44.07300 29.87400
C  43.29400 39.55000 29.93600
C  42.92100 39.39100 25.13800
C  41.52900 43.98300 24.98800
N  42.47400 41.82900 29.64200
C  41.97000 42.86100 30.43800
C  42.03500 42.47600 31.93900
C  42.76200 41.05400 31.89700
C  42.93800 40.82500 30.41700
C  44.07200 40.95000 32.73600
C  40.56400 42.51000 32.55700
C  40.34100 43.03500 34.00200
H  39.59000 42.15600 35.01600
N  43.07800 39.70200 27.52500
C  43.41500 38.99600 28.66400
C  43.74800 37.70600 28.28200
C  43.58900 37.65400 26.82900
C  43.13300 39.01200 26.40700
C  44.25600 36.75400 29.34000
C  43.88100 36.47800 25.94300
O  43.70600 36.53500 24.70100
C  44.29200 35.11500 26.62100
N  42.45200 41.75000 25.34500
C  42.75800 40.62400 24.58200
C  42.76500 40.97200 23.09000
C  42.08200 42.38000 23.05500
C  42.05300 42.74400 24.61300
C  44.17000 40.95600 22.43600
C  40.74800 42.37700 22.23600
C  39.54500 41.83500 23.00000
N  41.82700 43.75900 27.34500
C  41.45700 44.52500 26.27900
C  40.92000 45.78200 26.79700
C  40.92500 45.63000 28.21700
C  41.47800 44.41100 28.54400
C  40.46700 46.93800 25.94400
C  40.56500 46.28600 29.46600
O  39.96200 47.35300 29.63900
C  40.80500 45.22400 30.59200
C  41.72600 45.86300 31.59100
O  42.94200 46.09800 31.40200
O  41.06600 46.13400 32.71700
C  41.85600 46.65900 33.85700
H  43.34300 38.86600 30.78700
H  43.02800 38.69100 24.30600
H  41.35300 44.58300 24.09200
H  42.63700 43.19300 32.49800
H  42.07200 40.31600 32.30800
H  44.85900 40.59200 32.07100
H  43.89400 40.29500 33.58900
H  44.34100 41.93300 33.12300
H  40.21900 41.47800 32.62600
H  39.88200 42.98200 31.85000
H  39.78400 43.97100 34.02800
H  41.27000 43.30800 34.50100
H  43.94700 37.01200 30.35300
H  45.33900 36.71100 29.45900
H  43.81100 35.75900 29.34100
H  43.50800 34.89200 27.34500
H  45.29300 35.30900 27.00400
H  44.41800 34.33200 25.87300
H  42.10000 40.36900 22.47200
H  42.73400 42.96700 22.40800
H  44.11800 41.39400 21.44000
H  44.53700 39.94000 22.28700
H  44.83400 41.58800 23.02600
H  40.98100 41.84200 21.31500
H  40.64900 43.38900 21.84400
H  38.70200 42.52000 22.90500
H  39.54500 41.75200 24.08700
H  39.35900 40.91000 22.45500
H  39.63700 47.48600 26.39100
H  40.06900 46.62300 24.98000
H  41.23700 47.70900 25.89600
H  39.85900 44.97900 31.07500
H  42.35600 45.84200 34.37700
H  41.23800 47.24900 34.53500
H  42.56700 47.42600 33.55200

