158

Mg 0.54100 7.97700 25.08200
C  1.04500 10.01500 27.80400
C  0.74900 5.26400 27.10800
C  0.14700 6.00000 22.38900
C  0.69200 10.78400 22.93200
N  0.85500 7.71300 27.22900
C  0.99500 8.65600 28.17400
C  1.10500 8.10100 29.55600
C  1.23100 6.51600 29.29300
C  0.95900 6.46600 27.77400
C  2.58600 5.82900 29.69000
C  -0.11000 8.48500 30.40400
C  0.00100 8.63300 31.93600
H  1.20200 8.04900 32.61700
N  0.42600 5.86900 24.78400
C  0.45600 4.98100 25.79000
C  0.18200 3.66500 25.20800
C  0.19200 3.80900 23.79500
C  0.21200 5.23200 23.58400
C  0.12600 2.35900 26.08800
C  -0.02700 2.67200 22.66300
O  0.03600 2.84900 21.47800
C  -0.19600 1.21000 23.03600
N  0.43300 8.37300 23.00500
C  0.18600 7.33600 22.14000
C  -0.17000 7.90600 20.83000
C  -0.11500 9.45500 20.96200
C  0.32900 9.58000 22.36800
C  0.71300 7.21200 19.77300
C  -1.54000 10.13400 20.75900
C  -1.61500 11.61200 20.22700
N  0.88100 10.02600 25.25800
C  0.81900 11.03900 24.34500
C  1.06100 12.33700 25.06300
C  1.15900 11.95200 26.43200
C  0.98600 10.53500 26.48300
C  1.05700 13.70700 24.47100
C  1.36700 12.46600 27.80500
O  1.74800 13.56300 28.16800
C  1.21300 11.26300 28.66900
C  2.39900 11.19700 29.47600
O  3.47700 10.68200 29.18900
O  2.06300 11.57200 30.74700
C  3.11100 11.54900 31.80000
H  0.69100 4.37700 27.74200
H  -0.04200 5.50000 21.43700
H  0.72000 11.68700 22.31900
H  2.02500 8.54900 29.93100
H  0.43500 5.99500 29.82500
H  3.05700 5.59200 28.73600
H  2.48400 4.87300 30.20300
H  3.14600 6.45800 30.38200
H  -0.88500 7.73100 30.27000
H  -0.53600 9.46300 30.18000
H  -0.86200 8.24400 32.47700
H  0.15300 9.67000 32.23700
H  1.02100 1.74100 26.01200
H  -0.74600 1.87300 25.65100
H  0.08100 2.53900 27.16300
H  0.72500 0.87900 23.51500
H  -0.16500 0.65400 22.09900
H  -1.03900 1.02400 23.70100
H  -1.19700 7.58700 20.65300
H  0.50300 9.98100 20.23400
H  1.61000 6.80300 20.23800
H  0.96600 7.81000 18.89800
H  0.21600 6.37500 19.28300
H  -2.07400 10.12500 21.70900
H  -2.13800 9.49600 20.10800
H  -1.96800 11.54700 19.19800
H  -0.60300 12.01800 20.21200
H  -2.18300 12.21100 20.94000
H  1.08100 13.69400 23.38200
H  1.97700 14.13800 24.86600
H  0.18900 14.32600 24.69800
H  0.29000 11.38800 29.23500
H  3.92100 10.84700 31.60000
H  2.70400 11.08600 32.69900
H  3.33100 12.60000 31.98500
Mg 30.18900 57.23800 40.50300
C  27.36500 55.30500 39.50300
C  32.15000 54.45700 39.85800
C  32.91300 59.27200 40.46400
C  28.03800 60.07700 40.40300
N  29.78600 55.14800 39.70500
C  28.57000 54.55300 39.41100
C  28.79600 53.20500 38.70600
C  30.12800 52.82700 39.41100
C  30.77200 54.22700 39.62900
C  30.10100 52.08300 40.82800
C  28.88500 53.35800 37.12100
C  27.91500 52.41700 36.31500
H  27.14300 52.89300 35.07600
N  32.28100 56.93200 40.25900
C  32.82800 55.69400 40.00000
C  34.30100 56.00800 40.02500
C  34.58100 57.38600 40.22400
C  33.24700 57.94600 40.32800
C  35.24100 54.93800 39.53700
C  36.00800 58.03100 40.29200
O  37.01400 57.37100 40.09300
C  36.29400 59.45200 40.79400
N  30.42600 59.30600 40.46400
C  31.64100 59.92200 40.54300
C  31.55300 61.43800 40.67900
C  29.97800 61.64800 40.74900
C  29.43800 60.24300 40.54800
C  32.22900 62.20000 41.90400
C  29.42700 62.62200 39.74400
C  28.22800 63.41900 40.26900
N  28.09800 57.64700 40.25600
C  27.37700 58.82200 40.25500
C  25.92200 58.52800 40.01100
C  25.87100 57.19800 39.75300
C  27.20000 56.70300 39.84600
C  24.76100 59.58300 39.93200
C  25.06100 56.03900 39.30000
O  23.91300 55.97700 39.09200
C  25.94600 54.77600 39.17700
C  25.55000 53.76400 40.15700
O  26.25700 53.44100 41.07900
O  24.36500 53.16400 39.77800
C  24.02800 51.81200 40.14000
H  32.81000 53.59700 39.72100
H  33.70100 60.02500 40.40700
H  27.31100 60.88600 40.49500
H  28.03700 52.49000 39.02400
H  30.80700 52.30700 38.73600
H  29.09700 51.66000 40.83800
H  30.17900 52.80900 41.63700
H  30.78400 51.24000 40.93800
H  29.93800 53.25300 36.86400
H  28.51600 54.34000 36.82300
H  27.32300 51.83700 37.02300
H  28.49000 51.58900 35.90100
H  34.80800 54.31700 38.75300
H  35.61700 54.22500 40.27000
H  36.07500 55.49500 39.10800
H  36.28700 60.23200 40.03300
H  37.22000 59.40300 41.36700
H  35.57800 59.68000 41.58400
H  31.95100 61.91300 39.78300
H  29.68800 62.02900 41.72900
H  33.00600 62.88800 41.56800
H  32.77600 61.47600 42.50800
H  31.50700 62.78200 42.47700
H  29.14900 62.23400 38.76400
H  30.09800 63.45400 39.53200
H  28.45200 64.48100 40.37400
H  27.83000 63.16100 41.25000
H  27.50400 63.25200 39.47200
H  24.96000 60.24000 39.08600
H  24.70800 60.14500 40.86500
H  23.88700 59.00000 39.64300
H  25.72100 54.28200 38.23200
H  23.09600 51.72400 40.69900
H  24.83300 51.31600 40.68200
H  23.86200 51.31600 39.18400

