158

Mg 46.13100 25.27100 28.16400
C  47.09600 27.35000 30.78500
C  45.40100 22.74500 30.50700
C  46.03300 22.88100 25.64900
C  47.54900 27.53100 25.89700
N  46.33500 25.12700 30.37400
C  46.56500 26.15900 31.23000
C  46.24500 25.78000 32.73800
C  45.74100 24.30300 32.64600
C  45.78500 24.06100 31.07000
C  46.53500 23.36800 33.55800
C  45.14500 26.71700 33.43000
C  45.53200 27.51300 34.70800
H  44.51200 27.53100 35.82100
N  45.62400 23.11400 28.02900
C  45.35300 22.32300 29.16900
C  44.90800 21.02800 28.66000
C  45.19400 20.99300 27.27300
C  45.65200 22.34500 26.93600
C  44.24100 19.96900 29.64500
C  45.13500 19.80200 26.30400
O  45.17200 20.01700 25.05900
C  45.06500 18.42500 26.76400
N  46.58400 25.27900 26.11300
C  46.46100 24.16800 25.28600
C  46.76800 24.61100 23.80100
C  47.14200 26.11300 23.91000
C  47.01400 26.31700 25.38700
C  47.77900 23.71100 23.09900
C  46.33700 27.09600 23.05300
C  47.24700 27.85600 22.06200
N  47.17400 27.10200 28.26600
C  47.58600 27.96200 27.23800
C  48.25600 29.14900 27.89500
C  47.95800 29.01000 29.27800
C  47.36400 27.69800 29.40700
C  48.84400 30.19600 27.18900
C  48.12800 29.66000 30.53500
O  48.51300 30.79300 30.82700
C  47.51800 28.61100 31.51400
C  48.59800 28.18400 32.38100
O  49.60000 27.57600 31.98600
O  48.34200 28.69900 33.64600
C  49.35700 28.30100 34.64400
H  45.08800 22.16900 31.38000
H  45.97700 22.12400 24.86400
H  48.02300 28.23000 25.20500
H  47.17900 25.74900 33.29800
H  44.66100 24.30900 32.79700
H  46.98200 23.98500 34.33700
H  47.38600 22.87100 33.09100
H  45.91500 22.64500 34.08900
H  44.28100 26.06600 33.56200
H  44.84000 27.41000 32.64500
H  45.56200 28.55000 34.37200
H  46.45600 27.22900 35.21200
H  43.49700 19.41300 29.07600
H  43.68600 20.47500 30.43500
H  44.90800 19.19400 30.02400
H  45.47200 17.72900 26.03100
H  43.99100 18.24400 26.80500
H  45.61100 18.29600 27.69800
H  45.81400 24.53600 23.28000
H  48.20400 26.13000 23.66600
H  48.06800 22.81500 23.64900
H  48.68300 24.22200 22.76900
H  47.31600 23.29000 22.20600
H  45.86700 27.90700 23.61000
H  45.46900 26.57900 22.64400
H  48.18800 27.32800 21.90600
H  47.48400 28.82500 22.50300
H  46.79700 28.05800 21.09100
H  49.23600 31.03200 27.76800
H  48.06500 30.58600 26.53400
H  49.62600 29.70300 26.61200
H  46.66200 29.10300 31.97700
H  50.22700 27.72800 34.32300
H  48.93100 27.57800 35.34000
H  49.76600 29.15300 35.18700
Mg -8.96800 39.87900 42.39900
C  -7.71400 36.77000 41.12900
C  -6.15500 41.39900 41.07000
C  -10.35300 42.78200 42.83600
C  -11.80100 38.12000 43.37600
N  -7.30500 39.19200 40.96100
C  -6.99300 37.87500 40.70400
C  -5.57400 37.78300 40.10300
C  -5.00500 39.15500 40.46800
C  -6.22000 40.03100 40.87100
C  -3.91900 38.92200 41.62100
C  -5.65300 37.41600 38.57700
C  -4.79500 36.20600 38.02100
H  -3.69600 36.53700 37.00500
N  -8.35700 41.86300 41.99400
C  -7.15500 42.25300 41.42900
C  -7.09200 43.64600 41.37700
C  -8.30100 44.18200 41.89300
C  -9.05300 42.90900 42.32100
C  -5.91400 44.41500 40.66000
C  -8.63800 45.57300 42.03800
O  -7.87200 46.49200 41.60100
C  -9.95900 45.96100 42.61300
N  -10.84400 40.36100 42.81400
C  -11.15900 41.67200 43.15800
C  -12.61000 41.75400 43.71800
C  -13.06300 40.32800 43.71000
C  -11.80900 39.51200 43.32700
C  -12.88800 42.42500 45.13000
C  -14.10300 39.98900 42.60900
C  -15.28700 39.04600 42.97500
N  -9.60800 37.84300 42.50500
C  -10.78300 37.30600 42.87500
C  -10.77700 35.91000 42.75400
C  -9.57600 35.65700 42.07400
C  -8.89400 36.86500 41.94100
C  -11.82700 34.93600 43.17000
C  -8.73400 34.63800 41.47500
O  -8.94000 33.40100 41.49000
C  -7.44500 35.31700 40.83200
C  -6.29000 34.72300 41.56900
O  -6.01100 35.02100 42.74500
O  -5.45700 33.96300 40.73300
C  -4.14200 33.51500 41.42700
H  -5.16100 41.78400 40.83200
H  -10.83200 43.73400 43.07300
H  -12.74900 37.70700 43.72600
H  -4.92000 36.98900 40.46300
H  -4.55400 39.48100 39.53100
H  -4.18700 39.42300 42.55100
H  -3.03000 39.40000 41.20800
H  -3.54100 37.90600 41.73500
H  -5.28400 38.22500 37.94700
H  -6.67900 37.18900 38.28700
H  -5.40200 35.44800 37.52600
H  -4.26900 35.76900 38.87000
H  -5.36000 43.68700 40.06800
H  -5.41000 45.00600 41.42600
H  -6.44700 45.06100 39.96300
H  -10.02400 47.04700 42.68800
H  -10.03300 45.46900 43.58300
H  -10.78400 45.69900 41.95100
H  -13.10200 42.20400 42.85500
H  -13.43900 40.06800 44.70000
H  -13.69500 42.00000 45.72600
H  -13.27300 43.42900 44.95400
H  -11.96300 42.47000 45.70400
H  -13.71500 39.56700 41.68200
H  -14.58500 40.94300 42.39400
H  -16.28100 39.45600 42.79900
H  -15.40200 38.83200 44.03700
H  -15.25600 38.05900 42.51200
H  -11.91500 34.94200 44.25600
H  -11.57100 33.92700 42.84700
H  -12.81500 35.16800 42.77300
H  -7.44200 35.21300 39.74700
H  -4.42600 32.89600 42.27700
H  -3.54900 34.32700 41.84900
H  -3.44600 32.96100 40.79700

