158

Mg 35.29900 48.32400 25.82200
C  35.83400 46.45600 28.70600
C  34.06900 50.81000 27.76000
C  34.67800 49.99300 23.00800
C  36.25100 45.39800 23.90800
N  34.87400 48.50900 27.99200
C  35.38000 47.74800 29.01200
C  35.15400 48.38800 30.42000
C  34.29900 49.59000 30.05800
C  34.45300 49.65100 28.48400
C  32.85800 49.54100 30.62200
C  36.47800 48.63100 31.10200
C  36.41100 48.46700 32.69400
H  35.06200 48.59100 33.37000
N  34.62100 50.24500 25.44500
C  34.15100 51.13000 26.32400
C  33.94700 52.37000 25.68900
C  34.07300 52.13900 24.28200
C  34.38100 50.70800 24.19400
C  33.72100 53.62200 26.45000
C  33.90200 53.14900 23.09400
O  33.97000 52.82700 21.90400
C  33.59600 54.57000 23.40400
N  35.39200 47.75100 23.85700
C  35.16400 48.68300 22.82700
C  35.16000 48.01500 21.44600
C  35.99200 46.71900 21.77600
C  35.81300 46.57000 23.26500
C  33.75800 47.70700 20.84500
C  37.52000 46.89300 21.42700
C  38.08700 45.72400 20.62400
N  35.88200 46.33000 26.20900
C  36.30300 45.30400 25.33300
C  36.79200 44.23400 26.13800
C  36.62300 44.56300 27.47200
C  36.02300 45.87600 27.47200
C  37.40300 42.93800 25.69700
C  36.84100 44.14000 28.83500
O  37.20100 43.05800 29.28800
C  36.28500 45.30300 29.72200
C  35.26600 44.75700 30.60000
O  34.06800 44.75300 30.31100
O  35.72200 44.57100 31.84400
C  34.80200 44.42500 32.95500
H  33.67700 51.62200 28.37700
H  34.35100 50.49400 22.09400
H  36.80000 44.60600 23.39500
H  34.59800 47.67800 31.03100
H  34.67500 50.53100 30.46000
H  32.04800 49.45600 29.89800
H  32.57500 50.43500 31.17800
H  32.74800 48.73300 31.34600
H  36.89200 49.53500 30.65400
H  37.13200 47.84600 30.72400
H  36.96400 49.29000 33.14700
H  36.84600 47.51400 32.99200
H  34.48600 54.31400 26.09800
H  33.81300 53.42700 27.51800
H  32.76200 54.05600 26.17000
H  33.62900 55.21400 22.52600
H  34.32500 54.88200 24.15200
H  32.57900 54.45000 23.78000
H  35.64400 48.68000 20.73000
H  35.53700 45.81800 21.36500
H  33.72000 46.61900 20.80500
H  33.53400 48.15600 19.87700
H  32.93600 48.02000 21.48800
H  38.09100 46.85900 22.35500
H  37.64600 47.90100 21.03200
H  37.59100 45.71800 19.65300
H  37.81800 44.75800 21.05000
H  39.14400 45.97400 20.52800
H  36.71100 42.09600 25.69300
H  38.30500 42.67600 26.25000
H  37.73800 43.03800 24.66500
H  37.13300 45.55000 30.36100
H  35.24800 45.08000 33.70400
H  34.91700 43.39000 33.27500
H  33.73800 44.63200 32.83900
Mg 17.11900 51.44100 26.21300
C  18.91500 49.92400 28.66700
C  14.73800 52.46000 28.66400
C  15.23100 52.88400 23.76200
C  19.32100 50.37100 23.81900
N  16.86100 51.08600 28.32800
C  17.80300 50.61500 29.18600
C  17.43900 50.78000 30.68700
C  15.98600 51.30700 30.59800
C  15.82000 51.61600 29.10100
C  15.04200 50.14900 31.20200
C  18.33800 51.78500 31.36000
C  18.70000 51.51200 32.86200
H  17.64200 50.76200 33.66200
N  15.26700 52.55000 26.22000
C  14.47300 52.85900 27.33300
C  13.45400 53.69500 26.86900
C  13.52900 53.81200 25.43500
C  14.67700 53.03700 25.06600
C  12.39500 54.34300 27.84500
C  12.64000 54.61200 24.48200
O  12.79700 54.71200 23.29900
C  11.55900 55.41000 25.01600
N  17.15600 51.49200 24.13200
C  16.37800 52.27400 23.33100
C  16.91400 52.28900 21.93000
C  18.30200 51.85200 22.09200
C  18.31300 51.20900 23.50400
C  16.04100 51.32200 21.04900
C  19.42000 52.99800 21.98900
C  20.62000 52.55600 21.19000
N  18.73400 50.22200 26.20200
C  19.58800 49.97400 25.17800
C  20.73200 49.13900 25.68600
C  20.51100 49.12300 27.05800
C  19.31900 49.78700 27.29700
C  21.76400 48.37900 24.87400
C  21.03500 48.64500 28.35500
O  22.07400 48.06800 28.60200
C  20.03400 49.19200 29.44400
C  19.57500 48.07300 30.27200
O  18.93200 47.09200 29.89100
O  20.03500 48.24500 31.56700
C  19.98900 47.19400 32.58900
H  14.08500 52.65100 29.51800
H  14.71700 53.35300 22.92100
H  20.18300 50.23300 23.16400
H  17.54500 49.81700 31.18700
H  15.80100 52.18300 31.21900
H  15.50200 49.20400 31.48900
H  14.30300 50.00400 30.41300
H  14.49300 50.33800 32.12500
H  17.81000 52.73400 31.45800
H  19.25500 51.85000 30.77500
H  18.87000 52.51000 33.26700
H  19.60400 50.90600 32.78900
H  12.61600 53.99200 28.85300
H  11.38900 54.10400 27.50000
H  12.74600 55.37400 27.83300
H  11.79800 56.25000 25.66700
H  10.87700 54.62900 25.35200
H  11.13000 55.98000 24.19200
H  16.87100 53.26700 21.45100
H  18.44900 51.12500 21.29500
H  16.55800 50.37200 20.91400
H  15.93600 51.78400 20.06800
H  15.11100 51.09100 21.56800
H  19.80100 53.16300 22.99600
H  19.10200 53.95800 21.58400
H  20.38800 51.63300 20.65700
H  21.43900 52.37200 21.88500
H  21.08900 53.18700 20.43600
H  21.93700 48.77900 23.87400
H  21.45300 47.34200 24.75100
H  22.60300 48.34900 25.56900
H  20.59800 49.83000 30.12400
H  18.93100 47.08300 32.83000
H  20.54600 47.55100 33.45500
H  20.34400 46.22100 32.25000

