158

Mg 47.00100 25.47300 27.99200
C  47.76200 27.66800 30.46900
C  46.42700 23.01600 30.31400
C  46.10600 23.41800 25.51600
C  47.74600 27.87400 25.66500
N  47.03400 25.39200 30.17900
C  47.27900 26.40800 31.02800
C  47.24000 25.95600 32.47800
C  46.73800 24.50600 32.46300
C  46.73400 24.26000 30.86600
C  47.58300 23.53700 33.32500
C  46.53300 27.04500 33.40500
C  45.72700 26.57700 34.60000
H  45.51600 27.53800 35.83800
N  46.45100 23.48200 27.92800
C  46.27900 22.60800 29.00200
C  45.80400 21.32900 28.54000
C  45.54800 21.48400 27.17200
C  46.12500 22.82200 26.78300
C  45.49400 20.19300 29.57300
C  44.85500 20.61600 26.21200
O  44.46700 20.99100 25.10900
C  44.43300 19.33200 26.64700
N  47.03300 25.61900 25.85000
C  46.51500 24.65500 25.06600
C  46.53400 25.01500 23.58700
C  47.02300 26.49200 23.64500
C  47.24400 26.74100 25.14800
C  47.47200 24.18500 22.67800
C  45.95300 27.52800 23.05300
C  46.38800 28.43300 21.91200
N  47.75200 27.30900 28.00700
C  48.07600 28.18700 26.97900
C  48.45500 29.43800 27.50200
C  48.45100 29.21000 28.88300
C  48.00600 27.96100 29.13600
C  48.76700 30.66800 26.76200
C  48.75800 29.88500 30.15200
O  49.20900 31.00700 30.27500
C  48.19500 28.91900 31.24100
C  49.26300 28.64100 32.15100
O  50.24700 27.90500 31.93000
O  49.12400 29.35100 33.29200
C  50.34500 29.39800 34.16400
H  46.23800 22.30900 31.12500
H  45.88200 22.77300 24.66400
H  47.95800 28.59500 24.87300
H  48.28300 26.04000 32.78400
H  45.69600 24.45400 32.77800
H  48.13900 24.04100 34.11500
H  48.28400 23.07400 32.63100
H  47.01600 22.74700 33.81900
H  45.78100 27.49500 32.75800
H  47.33400 27.71300 33.72300
H  46.16000 25.63100 34.92400
H  44.75900 26.20700 34.26200
H  44.89200 19.35000 29.23500
H  45.13600 20.68500 30.47700
H  46.39800 19.66300 29.87500
H  44.03400 18.75800 25.81100
H  43.69500 19.38400 27.44600
H  45.38200 18.82600 26.82000
H  45.53700 25.02000 23.14700
H  47.94700 26.62000 23.08100
H  48.18300 23.60700 23.26900
H  47.95700 24.79600 21.91700
H  46.92900 23.48400 22.04300
H  45.42700 28.19600 23.73500
H  45.14700 26.95000 22.60000
H  45.70000 28.23800 21.08900
H  47.43100 28.26600 21.64400
H  46.25700 29.48300 22.17400
H  49.16200 31.42200 27.44300
H  47.86900 31.13800 26.36200
H  49.52300 30.40200 26.02300
H  47.27800 29.37700 31.61200
H  49.99700 29.05800 35.13900
H  50.66000 30.43500 34.27900
H  51.21800 28.79200 33.92100
Mg -11.39500 38.89600 42.09200
C  -9.55300 36.16500 40.91900
C  -9.46400 40.93200 40.07200
C  -13.72000 41.28700 42.41300
C  -13.73500 36.53400 43.38700
N  -9.74200 38.56400 40.50300
C  -9.12200 37.35500 40.29300
C  -7.99200 37.56800 39.33000
C  -7.89600 39.13800 39.21300
C  -9.05200 39.56700 40.01900
C  -6.55600 39.71300 39.63800
C  -8.38100 36.94400 37.91600
C  -7.37100 36.00700 37.27700
H  -6.52400 36.70300 36.19100
N  -11.47100 40.86000 41.46600
C  -10.54400 41.55300 40.73200
C  -11.01900 42.95900 40.67400
C  -12.23800 43.09600 41.44500
C  -12.52400 41.68800 41.83100
C  -10.10700 43.97700 40.06500
C  -13.04600 44.34600 41.66400
O  -12.57000 45.38100 41.16700
C  -14.22800 44.49500 42.57900
N  -13.42800 38.95800 42.99100
C  -14.20900 40.08900 42.94400
C  -15.62300 39.80400 43.34700
C  -15.64000 38.23600 43.71700
C  -14.17600 37.88000 43.38100
C  -15.91400 40.71300 44.56000
C  -16.73100 37.43900 42.91400
C  -17.65700 36.62200 43.84200
N  -11.53600 36.84400 42.28000
C  -12.52500 36.04200 42.87500
C  -11.98400 34.69800 43.03600
C  -10.77500 34.71600 42.28700
C  -10.63900 35.98000 41.77700
C  -12.72300 33.57400 43.78800
C  -9.72100 33.90500 41.78600
O  -9.39800 32.76000 41.98300
C  -8.81600 34.80700 40.88500
C  -7.47300 34.82700 41.41800
O  -6.55800 34.03800 41.15000
O  -7.18400 35.91900 42.15700
C  -5.85900 35.82300 42.79800
H  -8.94800 41.65800 39.44100
H  -14.55200 41.99500 42.42900
H  -14.41700 35.78700 43.79800
H  -7.04300 37.12900 39.63800
H  -8.07000 39.51700 38.20500
H  -6.37100 40.56700 38.98700
H  -5.72600 39.05000 39.39700
H  -6.52300 39.89900 40.71200
H  -8.74300 37.70600 37.22700
H  -9.29700 36.37600 38.07900
H  -7.93600 35.23100 36.76200
H  -6.81700 35.48300 38.05600
H  -10.65700 44.62100 39.38000
H  -9.27300 43.55600 39.50500
H  -9.75700 44.46900 40.97300
H  -14.14800 45.51200 42.96400
H  -14.14100 43.94400 43.51500
H  -15.16800 44.31000 42.05900
H  -16.25900 40.12000 42.52100
H  -15.71100 38.12700 44.79900
H  -15.01600 40.79500 45.17100
H  -16.67000 40.25900 45.20100
H  -16.40400 41.65000 44.29500
H  -16.23500 36.85200 42.14100
H  -17.40800 38.13200 42.41600
H  -17.47300 35.58800 43.54900
H  -18.67500 36.91200 43.58600
H  -17.68400 36.70200 44.92900
H  -12.26500 32.58800 43.72300
H  -13.72600 33.51200 43.36600
H  -12.77300 33.87200 44.83500
H  -8.82800 34.48600 39.84400
H  -5.86300 36.37900 43.73500
H  -5.13700 36.36100 42.18300
H  -5.40200 34.86900 43.06200

