158

Mg 46.98100 24.86100 28.44500
C  47.68500 27.17000 30.98900
C  45.59500 22.87400 30.75100
C  46.79800 22.57000 25.94900
C  48.91400 26.85400 26.23800
N  46.72400 25.07600 30.67800
C  46.95400 26.13100 31.46300
C  46.47700 25.93100 32.88200
C  45.92400 24.44300 32.79800
C  46.07800 24.09200 31.31400
C  46.56200 23.48100 33.72300
C  45.44600 27.08500 33.30400
C  45.67800 27.74000 34.69700
H  46.32700 26.86200 35.86800
N  46.24500 23.04800 28.35400
C  45.66200 22.39600 29.39500
C  45.20900 21.09300 28.89400
C  45.46900 20.99400 27.45000
C  46.21900 22.29000 27.20400
C  44.64500 20.19400 29.82200
C  45.22000 19.86400 26.54300
O  45.65300 19.83800 25.33000
C  44.19400 18.87000 26.95300
N  47.87000 24.66800 26.44900
C  47.54900 23.63400 25.57700
C  47.97100 23.93800 24.15100
C  48.54200 25.42500 24.17400
C  48.52800 25.63000 25.70800
C  49.07000 22.95900 23.73300
C  47.78000 26.48100 23.26600
C  48.67100 27.33300 22.35700
N  47.91700 26.68800 28.50500
C  48.71000 27.33400 27.50500
C  49.14300 28.58100 28.09600
C  48.79800 28.47800 29.43600
C  48.07200 27.34800 29.67700
C  49.89500 29.73700 27.33100
C  48.90800 29.25200 30.65500
O  49.29800 30.37600 30.90000
C  48.25000 28.36900 31.69600
C  49.26900 28.13600 32.76800
O  50.16800 27.30900 32.73500
O  49.05400 28.99500 33.79100
C  49.96300 28.91600 34.92500
H  44.97900 22.28900 31.43700
H  46.78200 21.84400 25.13400
H  49.58500 27.36800 25.54700
H  47.35800 25.95500 33.52300
H  44.84600 24.47600 32.95500
H  47.43000 23.78600 34.30800
H  46.79300 22.55500 33.19700
H  45.76100 23.23000 34.41800
H  44.43400 26.68000 33.29900
H  45.36600 27.76000 32.45200
H  44.74300 28.08400 35.14000
H  46.37000 28.58100 34.64200
H  45.31100 19.98300 30.65800
H  44.47800 19.20200 29.40200
H  43.67800 20.44000 30.26000
H  43.93900 18.26400 26.08400
H  43.39000 19.38000 27.48400
H  44.87300 18.30000 27.58700
H  47.23900 23.82600 23.35100
H  49.55900 25.32100 23.79600
H  48.68800 21.94800 23.59200
H  50.03600 22.88900 24.23300
H  49.30800 23.38600 22.75900
H  47.26900 27.22600 23.87600
H  47.03100 25.91000 22.71800
H  48.42700 27.29900 21.29500
H  49.73100 27.15800 22.54000
H  48.37700 28.34100 22.65200
H  49.42400 29.98600 26.38100
H  50.91300 29.38900 27.15300
H  49.76100 30.61800 27.95800
H  47.44200 28.98800 32.08500
H  50.52100 27.98200 34.99200
H  49.35100 29.05500 35.81600
H  50.61400 29.78300 34.81300
Mg 36.61300 49.62900 25.13600
C  36.76800 47.62600 28.04300
C  35.66900 52.26000 27.05000
C  36.32300 51.37100 22.37600
C  37.67100 46.78300 23.28600
N  36.34300 49.86300 27.32200
C  36.47900 48.94500 28.34300
C  36.20800 49.50900 29.70400
C  35.74300 50.99900 29.33500
C  35.90700 51.04600 27.80400
C  34.36800 51.42600 29.90100
C  37.41000 49.43500 30.68200
C  37.11200 48.78700 32.09600
H  35.73400 48.90100 32.67100
N  36.16300 51.63600 24.74300
C  35.79000 52.56100 25.67500
C  35.54500 53.82300 25.00400
C  35.69100 53.52800 23.64300
C  36.06800 52.11600 23.51400
C  35.08600 55.09700 25.73100
C  35.59400 54.57400 22.50300
O  35.81000 54.33000 21.28000
C  35.13800 56.02600 22.78500
N  36.98700 49.13800 23.22600
C  36.72500 50.06700 22.23000
C  36.76600 49.46000 20.85000
C  37.64500 48.09800 21.14000
C  37.45700 47.96300 22.67100
C  35.43400 49.13100 20.18300
C  39.10500 48.16000 20.60000
C  39.83000 46.78300 20.52000
N  37.10800 47.57600 25.51500
C  37.47800 46.59500 24.69800
C  37.61400 45.43300 25.41300
C  37.27900 45.77100 26.66400
C  36.99900 47.12000 26.72500
C  37.85700 44.17000 24.89800
C  37.22300 45.21000 28.00800
O  37.43700 44.08200 28.32900
C  36.88300 46.42600 28.97500
C  35.61400 46.19200 29.83600
O  34.47700 46.41700 29.49400
O  36.00600 45.61600 31.01600
C  34.97400 45.15100 32.00000
H  35.42400 53.14700 27.63800
H  35.91700 51.79000 21.45300
H  37.93100 45.91100 22.68200
H  35.43500 48.89100 30.16100
H  36.44400 51.76000 29.67700
H  33.70000 51.66400 29.07300
H  34.53200 52.31000 30.51800
H  34.01200 50.59800 30.51400
H  38.02300 50.33400 30.75600
H  38.04500 48.79500 30.07000
H  37.65400 49.33600 32.86600
H  37.61900 47.82200 32.08800
H  35.62700 55.97400 25.37700
H  35.28600 54.99800 26.79800
H  34.02700 55.23500 25.51400
H  34.92600 56.44000 21.79900
H  36.01100 56.52100 23.21100
H  34.21000 55.96700 23.35400
H  37.33600 50.24000 20.34500
H  37.19300 47.21300 20.69300
H  34.57600 49.38200 20.80700
H  35.28900 48.12700 19.78500
H  35.33800 49.84100 19.36100
H  39.72300 48.72700 21.29500
H  39.12700 48.67700 19.64000
H  40.51000 46.74600 21.37100
H  40.32300 46.54000 19.57900
H  39.19500 45.91000 20.66800
H  38.92300 43.95700 24.82200
H  37.50200 44.11400 23.86900
H  37.36100 43.36300 25.43700
H  37.77100 46.47000 29.60600
H  34.81700 44.10000 31.76000
H  34.09300 45.78400 31.89500
H  35.37000 45.19800 33.01400

