158

Mg 47.26800 25.43700 27.93700
C  48.75500 27.37100 30.46000
C  45.84700 23.53600 30.26000
C  46.68500 23.24800 25.49600
C  49.36200 27.29100 25.63800
N  47.37700 25.53500 30.17900
C  47.81800 26.44900 30.98000
C  47.25400 26.40100 32.37900
C  46.44000 25.07500 32.36900
C  46.53700 24.69700 30.84000
C  46.93700 24.03800 33.43000
C  46.41800 27.65700 32.89700
C  46.94100 28.30300 34.21200
H  45.90200 28.49300 35.30600
N  46.25900 23.73600 27.88500
C  45.78200 23.04500 29.00900
C  45.12700 21.86800 28.57800
C  45.39900 21.74000 27.20600
C  46.21900 22.91900 26.81800
C  44.53600 20.92300 29.55700
C  45.03200 20.54000 26.30100
O  45.43300 20.47000 25.07900
C  44.15100 19.52100 26.80800
N  48.16200 25.13600 25.88700
C  47.56200 24.25000 25.05300
C  47.86200 24.53400 23.58100
C  48.26500 26.02000 23.69400
C  48.64900 26.19000 25.11400
C  48.97500 23.63300 22.98700
C  47.16500 27.01500 23.30700
C  47.37900 28.57200 23.30200
N  48.68800 26.99000 27.93200
C  49.37200 27.67500 26.96300
C  50.17100 28.77500 27.54700
C  49.91900 28.64300 28.93600
C  49.02200 27.59000 29.13700
C  51.03900 29.73700 26.83100
C  50.12100 29.34600 30.10800
O  50.74000 30.39200 30.31400
C  49.42900 28.49000 31.23100
C  50.42300 28.13400 32.24700
O  51.48600 27.60100 32.10500
O  49.93900 28.55300 33.45900
C  50.88500 28.54700 34.65100
H  45.29900 23.04500 31.06600
H  46.51600 22.57300 24.65400
H  49.88200 27.95400 24.94300
H  48.13500 26.18600 32.98300
H  45.41400 25.30800 32.65400
H  47.30700 24.49900 34.34600
H  47.59400 23.32100 32.93600
H  46.01700 23.52400 33.70800
H  45.38200 27.33900 33.01300
H  46.44700 28.43000 32.12800
H  47.27300 29.30300 33.93300
H  47.78100 27.72200 34.59200
H  43.69200 20.34000 29.18700
H  44.21700 21.33500 30.51500
H  45.42400 20.31200 29.71800
H  44.63000 18.97300 27.61900
H  43.96700 18.79400 26.01700
H  43.15600 19.90300 27.03500
H  46.90600 24.57800 23.05900
H  49.09300 26.17000 23.00200
H  49.00000 22.85400 23.74900
H  49.95000 24.12000 22.98800
H  48.76500 23.24800 21.98900
H  46.27300 26.91700 23.92600
H  46.74500 26.72700 22.34300
H  48.45100 28.67100 23.46900
H  47.03000 28.97000 24.25500
H  47.04300 29.10000 22.41000
H  51.77400 29.12400 26.31000
H  51.62000 30.39100 27.48200
H  50.53200 30.35000 26.08500
H  48.61500 29.04500 31.69800
H  51.48900 27.64000 34.63900
H  50.48200 28.47900 35.66200
H  51.53900 29.37600 34.38000
Mg 43.28400 42.24800 27.24900
C  42.02800 44.23500 29.64800
C  44.07800 39.84400 29.72300
C  45.26500 40.61400 24.93300
C  42.84700 44.82900 24.87900
N  43.00400 41.99200 29.49800
C  42.36400 42.97500 30.20000
C  42.27300 42.52200 31.74900
C  42.89000 41.04900 31.73900
C  43.42200 40.94400 30.27200
C  44.03500 40.85800 32.77300
C  40.90800 42.61200 32.44500
C  40.58300 43.66700 33.46300
H  39.91400 43.21900 34.76300
N  44.41000 40.42800 27.27500
C  44.60700 39.55100 28.40100
C  45.58200 38.48700 28.03900
C  46.00500 38.78700 26.68500
C  45.28400 39.98300 26.22100
C  46.11200 37.44400 28.98000
C  47.00100 38.07600 25.82900
O  47.37200 38.41700 24.71600
C  47.66600 36.88400 26.34300
N  43.94400 42.72200 25.13800
C  44.67900 41.79200 24.43800
C  45.02500 42.39200 23.06400
C  44.18300 43.73400 23.00300
C  43.56700 43.74800 24.42900
C  46.57600 42.59100 22.91000
C  43.11000 43.70400 21.94100
C  41.64800 43.22200 22.29300
N  42.38700 44.04100 27.20200
C  42.25300 44.95600 26.17900
C  41.53900 46.09400 26.69600
C  41.38000 45.93000 28.12600
C  41.98900 44.65500 28.31700
C  41.03700 47.32200 25.93600
C  40.91400 46.44200 29.39500
O  40.35200 47.48800 29.63200
C  41.42400 45.36600 30.38600
C  42.38300 46.06300 31.28400
O  43.54000 46.24900 31.07400
O  41.77100 46.61300 32.42700
C  42.70800 47.25700 33.31100
H  44.41000 39.09600 30.44600
H  45.65400 39.96800 24.14300
H  42.76800 45.67800 24.19800
H  42.98500 43.12900 32.30700
H  42.17900 40.25100 31.95500
H  43.72800 40.03800 33.42200
H  44.35700 41.71500 33.36600
H  44.82200 40.30300 32.26400
H  40.76900 41.67700 32.98800
H  40.26600 42.54400 31.56700
H  40.05300 44.59200 33.23400
H  41.55500 44.02900 33.80000
H  45.72500 36.49300 28.61400
H  45.84000 37.55000 30.03000
H  47.20200 37.42000 28.97000
H  46.85400 36.23300 26.66900
H  48.37000 37.00500 27.16600
H  48.17600 36.50500 25.45800
H  44.72300 41.73700 22.24700
H  44.79000 44.63300 22.89800
H  47.12900 42.47400 23.84200
H  46.68500 43.63300 22.61000
H  47.00400 41.85400 22.23100
H  43.44600 43.09800 21.09900
H  43.01800 44.68800 21.48000
H  41.13800 44.03900 22.80200
H  41.56600 42.34200 22.93100
H  41.12000 42.89800 21.39600
H  40.63100 47.07400 24.95600
H  41.76900 48.11500 25.78900
H  40.06700 47.56200 26.37300
H  40.51500 44.89700 30.76200
H  43.01200 48.19000 32.83700
H  43.63400 46.73100 33.54400
H  42.17000 47.55900 34.21000

