158

Mg 47.32400 15.87000 28.06200
C  45.27900 15.26400 30.95100
C  49.34500 17.66600 29.95100
C  48.92300 16.92200 25.26600
C  44.72900 14.62100 26.09900
N  47.27100 16.46600 30.18800
C  46.46600 16.06000 31.15400
C  46.81900 16.65900 32.51400
C  48.13100 17.42400 32.27000
C  48.21400 17.25000 30.68200
C  48.27700 18.84400 32.77000
C  47.09600 15.49100 33.58700
C  47.68100 15.99900 34.91400
H  47.08400 17.34000 35.49600
N  49.07700 16.86600 27.69200
C  49.73300 17.54200 28.62900
C  50.96100 17.99300 28.10700
C  50.96400 17.66800 26.74300
C  49.60300 17.11900 26.47200
C  52.02000 18.55400 29.00800
C  52.09600 17.77300 25.76400
O  51.86400 17.81100 24.54400
C  53.49800 18.00000 26.35100
N  47.07800 15.54200 25.87900
C  47.74600 16.22800 24.96200
C  46.97300 16.32200 23.59200
C  45.72500 15.43000 23.95600
C  45.82500 15.18600 25.43800
C  46.51600 17.83000 23.22400
C  45.60900 14.12600 23.02200
C  44.51500 14.05600 21.93600
N  45.42400 14.97500 28.41500
C  44.48300 14.57300 27.49000
C  43.32600 14.06600 28.12200
C  43.55500 14.25000 29.49100
C  44.83600 14.85600 29.63800
C  42.03600 13.57700 27.47400
C  43.03600 14.09200 30.79800
O  41.91300 13.72200 31.18200
C  44.14200 14.72100 31.83900
C  43.41500 15.73100 32.58600
O  42.94300 16.81100 32.08800
O  43.24800 15.28100 33.84500
C  42.21300 15.95700 34.64800
H  50.01500 18.27500 30.56100
H  49.40300 17.29400 24.35800
H  43.79000 14.55000 25.54700
H  46.03200 17.34200 32.83300
H  48.95700 16.82000 32.64500
H  48.04100 19.54400 31.96900
H  49.31200 18.93300 33.10100
H  47.63200 19.12800 33.60200
H  47.89000 14.87300 33.16700
H  46.14900 14.95300 33.60400
H  48.76000 16.14900 34.88000
H  47.43400 15.25600 35.67200
H  52.36100 19.43800 28.46900
H  52.78300 17.79400 29.17900
H  51.70100 19.00800 29.94600
H  54.15900 18.07600 25.48700
H  53.81800 17.20400 27.02400
H  53.42900 18.92600 26.92200
H  47.57500 15.95000 22.76300
H  44.76300 15.89700 23.74100
H  45.44300 17.96600 23.35600
H  46.73000 18.04100 22.17600
H  47.00900 18.52600 23.90300
H  45.58600 13.24300 23.66100
H  46.55300 14.18600 22.47900
H  43.72500 14.80600 21.95900
H  43.85100 13.20700 22.09700
H  45.05700 13.89800 21.00300
H  41.96800 12.53000 27.17900
H  41.95200 14.27600 26.64100
H  41.14300 13.71400 28.08400
H  44.41400 13.94400 32.55300
H  42.85100 16.67600 35.16200
H  41.96600 15.05400 35.20700
H  41.39500 16.31100 34.02100
Mg 9.79400 47.81000 26.50500
C  7.69900 48.18700 29.42800
C  12.31400 49.22200 28.34500
C  11.62500 47.35800 23.89600
C  6.86600 47.53900 24.69600
N  9.97200 48.51000 28.70800
C  9.02500 48.46700 29.68700
C  9.72000 48.91600 31.00400
C  10.97700 49.69000 30.53100
C  11.15900 49.04800 29.15400
C  10.73700 51.21100 30.34800
C  10.19800 47.71600 31.93300
C  10.05900 47.87600 33.41800
H  9.75200 46.66000 34.33500
N  11.77500 48.25700 26.12400
C  12.64400 48.73800 27.03700
C  14.00000 48.62600 26.46600
C  13.82800 47.99100 25.21700
C  12.38600 47.86200 25.01400
C  15.24600 48.96100 27.29800
C  14.82600 47.55000 24.14800
O  14.45000 47.09000 23.09400
C  16.25900 47.61300 24.36500
N  9.30000 47.70200 24.47700
C  10.28700 47.35300 23.58200
C  9.70000 46.81600 22.31300
C  8.15600 46.95000 22.58000
C  8.06600 47.46700 23.98900
C  10.18400 47.60500 21.08600
C  7.38700 45.61800 22.30500
C  6.19900 45.71000 21.41000
N  7.69400 47.75700 26.92900
C  6.61700 47.65300 26.10200
C  5.40600 47.61300 26.77500
C  5.80200 47.79700 28.08500
C  7.17100 47.95100 28.13500
C  4.03500 47.33800 26.37400
C  5.32100 47.79500 29.47300
O  4.22500 47.65500 29.94400
C  6.56900 48.03300 30.41700
C  6.69800 46.92900 31.34700
O  7.27500 45.85800 31.13500
O  6.01300 47.22200 32.50000
C  5.64100 46.04600 33.36800
H  13.10100 49.72300 28.91100
H  12.20900 46.98100 23.05300
H  5.96500 47.31300 24.12200
H  8.99500 49.54400 31.52300
H  11.85700 49.50500 31.14700
H  11.39300 51.79300 30.99500
H  9.73100 51.52200 30.62800
H  10.88100 51.51500 29.31100
H  11.26200 47.52300 31.80100
H  9.72000 46.75400 31.74500
H  9.33300 48.64100 33.69400
H  11.02200 48.24200 33.77400
H  15.07400 48.89000 28.37200
H  15.70700 49.93400 27.13300
H  15.91500 48.15600 26.99500
H  16.51700 46.88200 25.13100
H  16.48600 48.58900 24.79300
H  16.77500 47.45400 23.41800
H  9.98400 45.76500 22.25400
H  7.80300 47.72000 21.89400
H  10.61500 48.51000 21.51600
H  9.45000 47.81100 20.30700
H  10.95600 46.97600 20.64100
H  6.98000 45.23200 23.23900
H  8.00000 44.81700 21.89300
H  5.97700 46.74200 21.13800
H  5.27600 45.40800 21.90400
H  6.31500 45.22200 20.44200
H  3.48400 48.27300 26.47100
H  3.54200 46.62900 27.03900
H  3.93500 46.93500 25.36600
H  6.44400 48.95400 30.98600
H  6.10500 46.14500 34.34900
H  5.92500 45.05700 33.00900
H  4.57200 46.07200 33.58100

