158

Mg 10.01800 48.94900 26.04800
C  7.90000 49.02700 28.81500
C  12.54200 49.97000 28.04900
C  11.97800 49.02700 23.24600
C  7.23400 48.47800 24.00500
N  10.12600 49.52600 28.13800
C  9.24300 49.24200 29.16700
C  9.77900 49.51800 30.59900
C  11.27200 49.98700 30.30500
C  11.30700 49.82900 28.75900
C  11.61500 51.43000 30.81300
C  9.83400 48.25600 31.56600
C  9.17100 48.44100 32.97600
H  9.44000 47.43900 34.08000
N  11.98300 49.46400 25.68700
C  12.87700 49.87400 26.66100
C  14.24700 49.99700 26.10800
C  14.04300 49.67800 24.75200
C  12.62700 49.32900 24.49200
C  15.43000 50.34000 26.99000
C  15.10900 49.67700 23.64000
O  14.90300 49.45600 22.46500
C  16.50600 50.17200 24.00300
N  9.60700 48.90200 23.87800
C  10.61500 48.79500 22.96700
C  10.09200 48.59400 21.59800
C  8.62800 48.12200 21.90700
C  8.46500 48.50800 23.36700
C  10.25500 49.78400 20.60000
C  8.24300 46.64300 21.50300
C  8.62000 45.53600 22.58400
N  7.96900 48.72500 26.30100
C  6.98700 48.62100 25.37600
C  5.71800 48.49100 26.05700
C  5.99200 48.68600 27.39500
C  7.39600 48.87700 27.47700
C  4.32600 48.12200 25.41000
C  5.40800 48.70000 28.64300
O  4.24000 48.61700 29.08600
C  6.64200 48.75900 29.62800
C  6.65400 47.44200 30.29000
O  7.24600 46.47800 29.95100
O  6.00600 47.53900 31.50500
C  6.04200 46.39700 32.41200
H  13.37500 50.14400 28.73300
H  12.52200 49.09000 22.30100
H  6.37300 48.13000 23.43000
H  9.12900 50.21900 31.12200
H  12.14000 49.48100 30.72900
H  12.39100 51.30100 31.56700
H  10.84600 51.87700 31.44400
H  11.94400 52.09800 30.01800
H  10.87700 48.01900 31.77700
H  9.40600 47.34700 31.14200
H  8.09300 48.56300 32.87600
H  9.51200 49.41000 33.34000
H  16.19100 49.56900 26.86200
H  15.31700 50.60800 28.04100
H  15.84800 51.31100 26.72500
H  17.16800 50.27700 23.14300
H  16.98700 49.33400 24.50800
H  16.54700 51.11800 24.54200
H  10.64000 47.68200 21.36200
H  7.93000 48.78600 21.39700
H  9.21500 50.11100 20.61700
H  10.46000 49.32000 19.63500
H  11.03500 50.48900 20.88400
H  8.85400 46.37500 20.64100
H  7.19700 46.48500 21.24500
H  8.53100 45.83200 23.62900
H  9.63800 45.18000 22.42600
H  7.96400 44.70400 22.33000
H  3.45400 47.99100 26.05000
H  4.50300 47.09200 25.09800
H  4.25000 48.72100 24.50300
H  6.64000 49.61200 30.30600
H  6.04200 46.84200 33.40700
H  6.87500 45.69300 32.43100
H  5.17400 45.75100 32.28100
Mg -1.45000 35.11100 26.48800
C  -3.16500 33.32700 28.98800
C  -0.21700 37.31100 28.82600
C  0.19400 36.57100 23.95100
C  -2.65400 32.70100 24.22400
N  -1.81100 35.37300 28.67900
C  -2.46000 34.47300 29.49600
C  -2.38300 34.91600 30.96300
C  -1.66000 36.31000 30.80100
C  -1.18500 36.39300 29.36500
C  -2.45400 37.50300 31.22400
C  -1.68200 33.86900 31.87100
C  -2.53800 33.35600 33.06800
H  -1.85100 33.20800 34.41300
N  -0.31300 36.78700 26.36200
C  0.15900 37.50700 27.41900
C  0.92800 38.61800 26.86300
C  1.07500 38.46400 25.43600
C  0.28100 37.24400 25.21700
C  1.46500 39.75000 27.69000
C  1.79500 39.34300 24.43700
O  1.98900 38.96600 23.31200
C  2.37700 40.70400 24.86500
N  -1.33300 34.76400 24.33900
C  -0.56900 35.47000 23.52300
C  -0.43800 34.91900 22.13800
C  -1.23200 33.60600 22.22000
C  -1.83900 33.73400 23.66100
C  -0.93700 35.84900 20.99000
C  -0.55100 32.23500 21.90500
C  0.70400 31.96100 22.80300
N  -2.81000 33.46200 26.45100
C  -3.19000 32.64300 25.51000
C  -4.09100 31.63800 26.00700
C  -4.10600 31.88000 27.39300
C  -3.35300 33.01600 27.61500
C  -4.75100 30.52700 25.17800
C  -4.65400 31.43100 28.67400
O  -5.35000 30.49600 29.01300
C  -3.91000 32.31800 29.77200
C  -5.02100 32.92800 30.57800
O  -5.71000 33.82100 30.21800
O  -5.29700 32.14100 31.70400
C  -6.27100 32.59600 32.70400
H  0.16900 37.97000 29.60700
H  0.77200 37.00000 23.13000
H  -3.16300 32.13000 23.44400
H  -3.43200 35.01400 31.24200
H  -0.79800 36.31300 31.46800
H  -3.51800 37.33100 31.38300
H  -2.44100 38.21900 30.40200
H  -2.03900 37.91200 32.14500
H  -0.78700 34.32700 32.29200
H  -1.44600 32.98200 31.28300
H  -2.95400 32.39800 32.75600
H  -3.36600 33.99800 33.36800
H  2.54500 39.79300 27.55000
H  1.40300 39.48600 28.74500
H  0.98300 40.71800 27.55500
H  2.56500 41.25400 23.94200
H  3.28500 40.48100 25.42400
H  1.52800 41.24400 25.28600
H  0.63700 34.74100 22.10800
H  -2.00100 33.60100 21.44700
H  -1.30100 36.75500 21.47500
H  -1.68500 35.28800 20.43000
H  -0.17700 36.11900 20.25700
H  -0.13100 32.30100 20.90100
H  -1.34000 31.48500 21.86000
H  0.69800 32.46500 23.77000
H  1.65700 32.18100 22.32200
H  0.73600 30.90200 23.05600
H  -5.53100 30.96100 24.55200
H  -5.11000 29.80500 25.91200
H  -3.93300 30.07600 24.61600
H  -3.28400 31.66200 30.37500
H  -6.38800 31.87000 33.50900
H  -7.18400 32.88000 32.18000
H  -5.87000 33.52900 33.10000

