158

Mg 1.66600 -2.00500 44.15900
C  5.02700 -1.69500 43.67300
C  1.30900 1.02700 42.35600
C  -1.62900 -2.53600 43.92800
C  2.11600 -5.16400 45.45400
N  3.01500 -0.55300 43.02700
C  4.38500 -0.63700 43.16100
C  5.03100 0.58300 42.45200
C  3.78200 1.62700 42.42700
C  2.57900 0.67600 42.65800
C  3.85400 2.66600 43.52300
C  5.73200 0.23600 41.07700
C  4.80700 0.15200 39.82900
H  4.82700 1.22700 38.76600
N  0.03900 -0.93300 43.34700
C  0.14500 0.29500 42.70400
C  -1.19900 0.73900 42.32400
C  -2.11000 -0.19100 42.74700
C  -1.27500 -1.28900 43.43100
C  -1.45900 2.15100 41.76700
C  -3.59100 -0.03800 42.69300
O  -4.09800 0.97300 42.21000
C  -4.50400 -1.07200 43.28900
N  0.43400 -3.79700 44.38000
C  -0.90800 -3.64200 44.40700
C  -1.56900 -4.94900 44.77100
C  -0.33000 -5.85600 45.20500
C  0.81500 -4.92800 44.91500
C  -2.70400 -4.94300 45.90900
C  -0.12000 -7.16600 44.37700
C  -1.38500 -8.03300 44.41400
N  3.24500 -3.20000 44.63200
C  3.34100 -4.40200 45.28900
C  4.74000 -4.65500 45.68100
C  5.45100 -3.59400 45.01500
C  4.52500 -2.78000 44.38700
C  5.22600 -5.89500 46.41400
C  6.76100 -3.07700 44.74000
O  7.91300 -3.42000 45.03200
C  6.49300 -1.83700 43.76800
C  7.14200 -0.70200 44.40800
O  6.76000 -0.03400 45.38200
O  8.20800 -0.30300 43.63300
C  8.63700 1.12700 43.73000
H  1.18800 1.95400 41.79100
H  -2.68100 -2.82200 43.97700
H  2.27400 -6.11200 45.97300
H  5.82800 1.03500 43.04300
H  3.64900 2.08700 41.44700
H  4.87500 2.76600 43.89000
H  3.16800 2.28800 44.28200
H  3.56700 3.65200 43.15800
H  6.09600 -0.78000 41.23200
H  6.59100 0.90700 41.06800
H  3.78800 0.17800 40.21600
H  5.08700 -0.78700 39.35100
H  -2.49600 2.47200 41.66600
H  -0.91300 2.30900 40.83700
H  -0.89200 2.72200 42.50200
H  -4.23100 -1.97400 42.74100
H  -5.58100 -0.98500 43.14800
H  -4.36900 -1.15900 44.36700
H  -2.00500 -5.43100 43.89600
H  -0.33800 -6.13000 46.26000
H  -3.67900 -5.19300 45.49200
H  -2.76500 -3.90300 46.22900
H  -2.64500 -5.52300 46.83000
H  0.70700 -7.70100 44.84300
H  0.24800 -6.93100 43.37900
H  -2.13400 -7.62800 45.09400
H  -1.13800 -9.00200 44.84800
H  -1.75500 -8.31300 43.42800
H  5.60700 -6.48400 45.58000
H  4.35600 -6.34700 46.88900
H  5.94800 -5.61500 47.18100
H  6.99700 -2.02800 42.82100
H  9.53400 1.24800 44.33800
H  7.87700 1.76100 44.18700
H  8.81600 1.48200 42.71600
Mg 30.07100 58.97800 38.64400
C  27.28200 56.92100 38.07200
C  32.03100 56.26200 37.76100
C  32.69200 61.01300 38.30000
C  27.93900 61.69600 38.81900
N  29.64900 56.74600 38.23600
C  28.45200 56.20800 37.87600
C  28.67500 54.88400 37.24700
C  30.18500 54.52800 37.60000
C  30.67300 55.91400 37.90500
C  30.42500 53.52500 38.83700
C  28.36800 54.82900 35.65100
C  27.16000 53.93600 35.19400
H  26.14400 54.55700 34.27600
N  32.13400 58.68900 38.28100
C  32.71600 57.46200 37.95700
C  34.11700 57.56400 37.96600
C  34.42600 58.97100 38.10600
C  33.11700 59.66000 38.26600
C  35.09400 56.43700 37.79800
C  35.84600 59.57500 38.20000
O  36.91500 58.95500 38.20100
C  35.89000 61.10400 38.28200
N  30.28600 61.04800 38.53600
C  31.50900 61.63800 38.55400
C  31.37700 63.23900 38.78500
C  29.80600 63.37400 38.79300
C  29.26100 61.96000 38.58500
C  32.17500 63.77700 40.01900
C  29.10700 64.42600 37.89000
C  28.38500 65.54800 38.61400
N  28.08000 59.30700 38.55300
C  27.34000 60.40100 38.79900
C  25.92800 60.06000 38.78600
C  25.87000 58.72000 38.51200
C  27.19800 58.27300 38.38900
C  24.76100 60.95300 38.87600
C  24.96800 57.62400 38.29900
O  23.74300 57.48600 38.37300
C  25.84100 56.43100 37.93800
C  25.63500 55.25000 38.78900
O  26.20100 55.01200 39.81300
O  24.63900 54.54300 38.25800
C  24.47400 53.27200 39.00000
H  32.71100 55.45300 37.48200
H  33.56700 61.65900 38.19900
H  27.27300 62.54900 38.96800
H  28.05800 54.21000 37.84200
H  30.69400 54.12300 36.72500
H  29.48600 53.06600 39.14600
H  30.84100 54.08600 39.67500
H  31.17100 52.78000 38.56000
H  29.24600 54.56800 35.06000
H  28.10500 55.84000 35.33900
H  26.64000 53.55800 36.07400
H  27.51600 53.06400 34.64500
H  34.75600 55.46100 38.14500
H  36.04800 56.67800 38.26800
H  35.34100 56.39400 36.73700
H  36.93300 61.42000 38.25700
H  35.40800 61.38500 39.21900
H  35.46100 61.54700 37.38300
H  31.65900 63.80700 37.89800
H  29.59400 63.68300 39.81600
H  32.58700 62.93000 40.56700
H  31.57300 64.44500 40.63400
H  33.05100 64.27700 39.60800
H  28.43400 63.85500 37.25100
H  29.90000 64.88300 37.29700
H  27.33000 65.65400 38.36200
H  28.85200 66.49800 38.35500
H  28.49400 65.41900 39.69100
H  25.01900 61.99000 38.65900
H  24.30900 60.91300 39.86700
H  24.04200 60.74000 38.08500
H  25.60200 56.04900 36.94600
H  24.26200 53.51400 40.04100
H  25.41300 52.71900 39.01700
H  23.64700 52.63100 38.69500

