158

Mg 24.96600 0.97000 29.33500
C  27.15800 0.78200 32.18400
C  22.28000 0.81400 31.62100
C  22.99600 0.62900 26.81400
C  27.77100 0.15900 27.45000
N  24.75600 0.85900 31.66700
C  25.78500 0.96500 32.54300
C  25.31700 1.45100 33.92500
C  23.72200 1.17900 33.85600
C  23.53800 1.04200 32.26300
C  23.12000 -0.06200 34.64000
C  25.61300 2.92800 34.29400
C  26.24800 3.00100 35.73700
H  25.53600 3.87900 36.77700
N  22.99900 0.90200 29.21800
C  22.04000 0.89200 30.21300
C  20.67600 0.82600 29.65500
C  20.87000 0.83000 28.25000
C  22.34900 0.75200 28.01600
C  19.42000 0.94300 30.54500
C  19.96500 0.80100 27.13200
O  20.24100 0.93500 25.97000
C  18.52800 0.65300 27.44000
N  25.40300 0.57500 27.39800
C  24.40100 0.58300 26.50400
C  24.87800 0.63000 25.04400
C  26.41800 0.52800 25.27100
C  26.58300 0.31700 26.76500
C  24.20000 -0.35000 24.05700
C  27.18300 1.78300 24.71300
C  27.25500 3.04900 25.59800
N  27.10800 0.47700 29.68400
C  28.12000 0.25700 28.80200
C  29.37600 0.20300 29.53100
C  29.03500 0.36600 30.85000
C  27.65100 0.51900 30.89700
C  30.70400 -0.04400 28.87400
C  29.60700 0.58100 32.14100
O  30.81900 0.52300 32.52700
C  28.39300 0.89400 33.10100
C  28.39200 -0.03900 34.30000
O  28.13300 -1.20800 34.27400
O  28.83800 0.64000 35.42400
C  29.06400 -0.14800 36.63700
H  21.43800 0.73700 32.31100
H  22.51500 0.67700 25.83500
H  28.54100 0.00700 26.69100
H  25.78300 0.71500 34.58100
H  23.09800 2.02900 34.13200
H  22.35300 -0.53800 34.02900
H  22.59500 0.30500 35.52200
H  23.96200 -0.69800 34.91400
H  24.69500 3.51200 34.23000
H  26.31600 3.30000 33.54900
H  27.27700 3.31400 35.56000
H  26.27600 1.98400 36.12900
H  19.05800 1.97100 30.56700
H  19.52900 0.46600 31.51900
H  18.60900 0.34900 30.12600
H  18.55700 -0.37100 27.81200
H  17.89300 0.75200 26.56000
H  18.22000 1.45500 28.11200
H  24.50800 1.62600 24.80400
H  26.78100 -0.40800 24.84700
H  23.36700 0.12100 23.53600
H  23.81800 -1.27500 24.48800
H  24.92700 -0.67000 23.31000
H  26.66900 2.09700 23.80400
H  28.14800 1.48100 24.30600
H  26.99900 2.76700 26.61900
H  26.63500 3.87400 25.24700
H  28.24700 3.47500 25.74900
H  31.01200 0.84400 28.32300
H  30.60300 -0.91700 28.22900
H  31.46400 -0.08100 29.65500
H  28.45900 1.90200 33.51100
H  28.08300 -0.33400 37.07400
H  29.71200 0.26900 37.40800
H  29.50000 -1.11800 36.39500
Mg 53.93800 25.07600 44.34500
C  50.96000 26.99500 43.82200
C  52.02500 22.38500 43.41300
C  56.78400 23.33800 44.14400
C  55.77900 27.96900 44.81100
N  51.68300 24.69300 43.71500
C  50.67400 25.63900 43.65900
C  49.45900 25.03600 43.10100
C  49.72300 23.57300 43.52600
C  51.22000 23.48300 43.44600
C  49.23500 23.13800 44.95100
C  49.20800 25.18100 41.59600
C  47.77800 25.23000 41.08100
H  47.54600 25.08200 39.61300
N  54.33200 23.09900 43.94500
C  53.37600 22.19600 43.51100
C  54.07000 20.96100 43.21300
C  55.49000 21.17400 43.35200
C  55.61300 22.53400 43.88800
C  53.36500 19.67600 42.90000
C  56.67100 20.32600 43.02400
O  56.51600 19.30200 42.35800
C  58.01600 20.70200 43.25600
N  56.00600 25.60600 44.43400
C  56.95900 24.69200 44.40100
C  58.36000 25.27200 44.56200
C  58.00500 26.78900 44.91100
C  56.52100 26.83400 44.77300
C  59.30900 24.50500 45.62000
C  58.79800 27.82400 44.10100
C  59.64700 28.82100 44.83500
N  53.52900 27.09400 44.33300
C  54.32800 28.18100 44.58100
C  53.53900 29.35800 44.52200
C  52.22000 28.96000 44.33100
C  52.28300 27.57500 44.14900
C  54.04500 30.75200 44.78400
C  50.82000 29.35100 44.22300
O  50.31700 30.44200 44.40900
C  50.02400 28.18100 43.65400
C  49.71100 28.54000 42.23600
O  50.51400 28.92300 41.36700
O  48.37900 28.52800 42.13700
C  47.81400 29.13500 40.86600
H  51.43800 21.47200 43.29100
H  57.77400 22.88000 44.09900
H  56.28400 28.89800 45.08300
H  48.63300 25.41000 43.70600
H  49.24400 22.93300 42.78500
H  48.34700 22.51200 44.87100
H  48.86700 23.95400 45.57200
H  50.02800 22.68300 45.54400
H  49.77200 24.45300 41.01200
H  49.66600 26.12900 41.31700
H  47.31600 26.18100 41.34800
H  47.23200 24.47300 41.64400
H  54.05600 18.89800 42.57500
H  52.62800 19.76500 42.10200
H  52.84400 19.37500 43.80800
H  58.37800 21.57000 42.70500
H  58.58200 19.79000 43.06400
H  58.07300 20.92700 44.32100
H  58.82600 25.19000 43.58000
H  58.09400 27.02500 45.97100
H  58.95700 23.51400 45.90700
H  59.37000 25.14700 46.49900
H  60.28900 24.32300 45.17900
H  58.07800 28.35100 43.47600
H  59.48700 27.21700 43.51400
H  60.68700 28.50100 44.89800
H  59.23300 28.87200 45.84200
H  59.50700 29.85600 44.52300
H  54.07200 30.91200 45.86200
H  53.48400 31.46600 44.18200
H  55.04200 30.85400 44.35600
H  49.15300 28.06200 44.29800
H  46.81800 29.45800 41.17000
H  47.76400 28.48200 39.99500
H  48.22900 30.12500 40.67500

