158

Mg 35.36700 48.79700 25.97500
C  35.61100 47.07800 29.04600
C  33.93700 51.48600 27.69800
C  34.44300 50.14300 23.00500
C  36.36400 45.81500 24.36400
N  34.67200 49.15700 28.14700
C  35.07400 48.43000 29.22300
C  34.74100 49.06200 30.60000
C  34.03200 50.41500 30.09100
C  34.24200 50.38900 28.55200
C  32.51900 50.51500 30.35400
C  36.03100 49.35100 31.39200
C  36.02700 49.32000 32.93600
H  34.62300 49.39200 33.69600
N  34.46700 50.63800 25.46000
C  34.04000 51.57500 26.29300
C  33.79800 52.77400 25.49700
C  33.75700 52.34900 24.15300
C  34.18900 50.96800 24.16200
C  33.62400 54.18800 26.14500
C  33.43100 53.18000 22.84600
O  33.31500 52.67200 21.74100
C  33.17100 54.64600 22.94900
N  35.43200 48.23200 24.03500
C  35.00100 48.90900 22.96100
C  35.31100 48.12400 21.60600
C  36.09300 46.87600 22.12800
C  35.97900 46.96500 23.62200
C  34.02300 47.80900 20.68400
C  37.56500 46.73000 21.59000
C  38.76900 47.37000 22.37400
N  35.99500 46.81300 26.55600
C  36.37700 45.71800 25.79500
C  36.65400 44.60400 26.65400
C  36.41100 45.11100 27.96900
C  35.95700 46.41000 27.81400
C  37.06300 43.18500 26.27900
C  36.43100 44.76400 29.42000
O  36.68100 43.73600 29.97300
C  35.81500 46.02300 30.15200
C  34.52100 45.66900 30.69100
O  33.41100 45.76900 30.11200
O  34.76400 45.14100 31.96200
C  33.64700 44.44000 32.56200
H  33.55100 52.34000 28.25800
H  34.05500 50.54600 22.06700
H  36.74000 44.90700 23.88800
H  34.05800 48.40600 31.13900
H  34.47500 51.31500 30.51700
H  31.86400 50.49200 29.48300
H  32.34000 51.35900 31.01900
H  32.28200 49.65700 30.98400
H  36.56300 50.27700 31.17600
H  36.70500 48.55100 31.08700
H  36.64100 50.17900 33.20700
H  36.51100 48.42300 33.32300
H  34.56600 54.68100 25.90500
H  33.50900 54.31800 27.22100
H  32.84500 54.67700 25.55900
H  32.17000 54.81900 23.34300
H  33.19300 55.19400 22.00700
H  33.86900 55.19200 23.58200
H  35.95000 48.59800 20.86200
H  35.64500 45.94800 21.77000
H  33.27800 47.08500 21.01300
H  34.40500 47.50400 19.70900
H  33.41000 48.70900 20.63800
H  37.58900 47.03800 20.54400
H  37.71400 45.65800 21.72000
H  39.43000 47.67400 21.56200
H  39.28500 46.64600 23.00500
H  38.40500 48.18100 23.00400
H  36.55200 42.72300 25.43400
H  36.88700 42.57600 27.16500
H  38.12700 43.10700 26.05600
H  36.46700 46.36100 30.95800
H  33.29200 43.77200 31.77700
H  32.93200 45.15600 32.96700
H  34.03700 43.93900 33.44800
Mg 6.50400 55.00700 41.67800
C  5.71300 51.53100 41.27200
C  9.70800 54.29600 40.80100
C  6.92600 58.18400 41.60500
C  3.04100 55.40800 42.21400
N  7.55400 53.10400 40.91100
C  7.03500 51.85600 40.80100
C  8.18900 50.85200 40.27200
C  9.47900 51.75600 40.42300
C  8.90600 53.14900 40.73100
C  10.49600 51.27900 41.57400
C  7.93100 50.24800 38.80900
C  7.47500 51.19600 37.69000
H  6.52700 50.68400 36.60000
N  8.13600 56.14100 41.26100
C  9.37200 55.68800 40.92800
C  10.16400 56.80500 40.54500
C  9.34900 57.96300 40.77800
C  8.08400 57.46800 41.23800
C  11.65700 56.76900 40.18200
C  9.84700 59.45200 40.71200
O  10.99300 59.67700 40.40200
C  9.02000 60.59100 40.84900
N  5.20600 56.53800 41.93100
C  5.59800 57.84000 41.88600
C  4.51800 58.83900 42.20600
C  3.30000 57.96700 42.17300
C  3.86800 56.52100 42.13400
C  4.85300 59.41300 43.57600
C  2.35900 58.19400 40.91400
C  0.79900 58.30100 41.01600
N  4.72400 53.77900 41.87600
C  3.41500 54.09100 42.10300
C  2.62600 52.91700 42.21100
C  3.50100 51.85500 42.02300
C  4.69500 52.47200 41.65000
C  1.13800 52.87200 42.58200
C  3.62900 50.46200 41.90700
O  2.71500 49.63200 42.04800
C  5.10500 50.20600 41.37600
C  4.76000 49.52400 40.11000
O  4.28900 50.01700 39.06700
O  4.99200 48.19800 40.25000
C  4.63600 47.26800 39.13200
H  10.79300 54.25300 40.91900
H  7.00700 59.25700 41.41600
H  1.98100 55.65000 42.30700
H  8.30600 50.04300 40.99300
H  9.99400 51.81500 39.46400
H  10.14500 50.42100 42.14700
H  10.70700 52.12000 42.23600
H  11.42300 51.14400 41.01900
H  7.23200 49.41300 38.85900
H  8.90200 49.93600 38.42200
H  8.47300 51.51800 37.39200
H  6.96900 52.02700 38.18200
H  11.87800 57.57100 39.47700
H  11.95400 55.83500 39.70600
H  12.23600 56.91700 41.09400
H  8.32100 60.47500 40.02100
H  9.49000 61.55900 40.67600
H  8.42800 60.67000 41.76200
H  4.39200 59.61200 41.44900
H  2.76700 58.06800 43.11800
H  5.12200 58.61000 44.26300
H  3.92000 59.85900 43.92000
H  5.70400 60.09400 43.58600
H  2.48500 57.37200 40.20900
H  2.60700 59.06900 40.31300
H  0.43100 58.73400 41.94600
H  0.50900 57.26900 40.82000
H  0.40200 58.97400 40.25600
H  0.42800 52.72600 41.76700
H  0.84500 53.77200 43.12100
H  1.06800 52.01900 43.25800
H  5.71700 49.66200 42.09500
H  3.61900 47.05200 38.80700
H  5.14900 46.37000 39.47600
H  5.26000 47.62800 38.31300

