158

Mg 44.72400 3.75300 47.97600
C  42.44800 6.53600 47.81900
C  41.86400 1.79100 47.35800
C  46.76300 1.10200 47.21300
C  47.35700 5.90900 47.50400
N  42.35900 4.16300 47.57100
C  41.69300 5.33300 47.72100
C  40.19300 5.17600 47.57600
C  40.02100 3.63500 47.63600
C  41.50600 3.16600 47.46800
C  39.33700 3.13600 48.86500
C  39.56200 5.94300 46.34300
C  39.58600 5.17800 45.00000
H  39.82800 6.07900 43.80500
N  44.38000 1.69100 47.44900
C  43.12600 1.06300 47.29100
C  43.31800 -0.27800 47.00300
C  44.75500 -0.57800 47.05700
C  45.37100 0.77900 47.24900
C  42.23200 -1.27300 47.08700
C  45.38500 -1.90500 46.86200
O  44.73400 -2.94700 46.64800
C  46.90400 -2.12000 46.86100
N  46.76700 3.55400 47.36500
C  47.37500 2.32200 47.26100
C  48.82800 2.50200 46.69400
C  49.05400 4.00300 47.21300
C  47.62700 4.52400 47.34700
C  49.98400 1.62800 47.26000
C  50.06600 4.76000 46.23100
C  51.50800 4.99700 46.69600
N  44.96700 5.80800 47.90900
C  46.09900 6.52600 47.70800
C  45.78500 8.00600 47.82300
C  44.36900 8.02600 47.79100
C  43.87900 6.64000 47.88100
C  46.70100 9.17300 47.88000
C  43.22400 8.87500 47.79500
O  43.17600 10.08800 47.89800
C  41.97500 7.94000 47.68800
C  41.01600 8.40000 48.75800
O  41.16900 8.24100 49.94300
O  39.86300 8.71900 48.15100
C  38.62600 8.85000 48.87400
H  41.02900 1.09600 47.24400
H  47.45400 0.30100 46.94200
H  48.21500 6.57800 47.41200
H  39.92900 5.54500 48.56700
H  39.59400 3.19900 46.73300
H  38.92500 2.17000 48.57400
H  38.47900 3.73300 49.17500
H  40.01600 2.91500 49.68900
H  40.22800 6.76400 46.07600
H  38.67200 6.52400 46.58800
H  38.59100 4.73600 44.95100
H  40.43000 4.49000 45.04800
H  41.27800 -0.81500 47.35000
H  42.50800 -2.03900 47.81200
H  42.12500 -1.89000 46.19600
H  47.32400 -1.50200 47.65400
H  47.35300 -1.70900 45.95600
H  47.12600 -3.16800 47.05900
H  48.80200 2.28800 45.62600
H  49.51800 3.91500 48.19500
H  50.79400 2.22700 47.67700
H  50.35700 0.87700 46.56400
H  49.79900 0.98200 48.11800
H  49.74500 5.70900 45.80300
H  50.17400 4.16900 45.32200
H  52.11200 4.59600 45.88300
H  51.81400 4.56600 47.64900
H  51.78300 6.05100 46.65200
H  47.65100 8.96900 47.38700
H  46.79600 9.48600 48.92000
H  46.10200 9.97300 47.44500
H  41.58900 8.20600 46.70300
H  37.76100 8.65100 48.24300
H  38.49500 9.88100 49.20400
H  38.52200 8.12200 49.67800
Mg 30.03600 58.04200 40.58000
C  27.10300 56.04100 39.75000
C  31.88100 55.51600 39.50900
C  32.51800 60.12600 40.43000
C  27.85100 60.52200 41.49600
N  29.47400 55.97800 39.66500
C  28.29900 55.40900 39.33100
C  28.50400 54.26700 38.32500
C  29.97000 53.95800 38.59400
C  30.51200 55.22500 39.30400
C  30.32700 52.64500 39.39300
C  28.18000 54.76500 36.88500
C  27.64300 53.65900 35.96400
H  27.96200 53.62400 34.45800
N  32.00100 57.81700 40.08400
C  32.63200 56.70900 39.74600
C  34.01400 56.89400 39.67200
C  34.18200 58.25400 39.90600
C  32.87200 58.80000 40.18300
C  34.98500 55.83100 39.36700
C  35.57900 58.96200 39.94100
O  36.64600 58.32700 39.82900
C  35.75800 60.44400 40.11400
N  30.11600 60.02100 40.84300
C  31.27400 60.68800 40.69500
C  31.11700 62.21200 40.78500
C  29.71700 62.22500 41.54200
C  29.20100 60.84000 41.34900
C  32.17900 62.86000 41.73800
C  28.73400 63.41100 41.21500
C  28.19400 64.21100 42.37400
N  27.81800 58.31900 40.63800
C  27.16600 59.39600 41.12400
C  25.73600 59.05400 41.05200
C  25.67000 57.75800 40.44700
C  26.99800 57.33300 40.29500
C  24.62800 59.91300 41.40300
C  24.73300 56.69100 40.03600
O  23.49200 56.66100 40.10900
C  25.66100 55.56700 39.53000
C  25.32600 54.35700 40.29500
O  25.95100 53.88200 41.24800
O  24.19500 53.75200 39.69900
C  23.77600 52.41300 40.12600
H  32.48100 54.76300 38.99300
H  33.29700 60.89100 40.45100
H  27.23500 61.37500 41.78800
H  27.85400 53.45100 38.64100
H  30.41800 53.78800 37.61500
H  29.45800 52.20000 39.87800
H  31.14500 52.84300 40.08400
H  30.70400 51.91700 38.67400
H  29.10100 55.11200 36.41700
H  27.27100 55.36700 36.85000
H  26.56300 53.80200 35.98400
H  27.73500 52.66500 36.40300
H  35.96500 56.21100 39.07900
H  34.54600 55.05800 38.73600
H  35.07100 55.32100 40.32600
H  35.24200 60.98900 39.32300
H  36.81400 60.66300 39.96100
H  35.46700 60.72000 41.12800
H  30.97800 62.74000 39.84100
H  29.87900 62.25000 42.62000
H  31.66200 63.56100 42.39400
H  32.86100 63.41700 41.09500
H  32.70500 62.23500 42.45900
H  27.90700 63.06800 40.59300
H  29.35900 64.07900 40.62200
H  28.68300 63.84300 43.27600
H  27.11500 64.21400 42.53200
H  28.56200 65.23500 42.31800
H  23.93100 60.19600 40.61300
H  25.06200 60.84200 41.77200
H  24.06500 59.42600 42.19900
H  25.35300 55.44000 38.49200
H  22.88500 52.59200 40.72800
H  24.53000 51.81400 40.63800
H  23.47300 51.75700 39.31000

