158

Mg 0.39000 7.25800 25.93800
C  1.16600 9.35800 28.73200
C  0.67500 4.55900 28.11500
C  -0.27500 5.38900 23.35200
C  0.92000 10.11900 23.85900
N  0.73300 7.04200 28.24800
C  1.06700 8.04700 29.14000
C  1.27600 7.42300 30.50500
C  1.35100 5.88900 30.25700
C  0.86100 5.75500 28.76300
C  2.76100 5.28100 30.35000
C  0.14100 7.81000 31.40200
C  0.42500 7.91800 32.88000
H  1.65500 7.08200 33.44700
N  0.09600 5.22900 25.78400
C  0.36500 4.31600 26.81800
C  0.23500 3.02700 26.23500
C  -0.10600 3.18400 24.82000
C  -0.08100 4.63000 24.55600
C  0.58900 1.85700 27.12800
C  -0.36700 2.20100 23.81900
O  -0.69700 2.47300 22.64600
C  -0.47900 0.77200 24.30500
N  0.60600 7.65300 23.86000
C  0.07900 6.73400 23.00400
C  -0.11000 7.36900 21.62500
C  0.08200 8.92900 21.81600
C  0.55700 8.91700 23.26600
C  0.85300 6.85300 20.50700
C  -1.15100 9.85300 21.63400
C  -1.41400 10.54100 20.21500
N  0.93000 9.35800 26.22500
C  1.05900 10.35800 25.25900
C  1.47900 11.55800 25.93500
C  1.50100 11.26600 27.29100
C  1.10100 9.88100 27.37400
C  1.71500 12.89000 25.21600
C  1.68800 11.83400 28.64000
O  2.13400 12.91600 28.96500
C  1.44600 10.50100 29.63700
C  2.67800 10.56600 30.44600
O  3.82700 10.27500 30.07500
O  2.30500 10.74500 31.74200
C  3.37200 10.69900 32.70000
H  1.00400 3.68400 28.67900
H  -0.74500 4.77500 22.58100
H  0.97100 11.09500 23.37300
H  2.19500 7.89000 30.86000
H  0.72100 5.27700 30.90300
H  2.73000 4.62900 31.22300
H  3.35900 6.13900 30.65400
H  3.03200 4.88800 29.37000
H  -0.58300 7.00500 31.27300
H  -0.36700 8.66900 30.96400
H  -0.47600 7.62100 33.41700
H  0.51700 8.99000 33.05200
H  0.53100 0.95700 26.51600
H  -0.12600 1.78000 27.94600
H  1.60800 1.86500 27.51600
H  0.43700 0.25000 24.58000
H  -0.89100 0.10600 23.54700
H  -1.13700 0.74100 25.17300
H  -1.16600 7.22600 21.39500
H  0.88000 9.34900 21.20400
H  1.46300 6.05000 20.92000
H  1.44800 7.67300 20.10600
H  0.30900 6.35800 19.70300
H  -1.04200 10.74000 22.25900
H  -1.98500 9.20500 21.90400
H  -2.47700 10.47500 19.98500
H  -0.84000 10.11800 19.39100
H  -1.05500 11.56500 20.32100
H  0.79700 13.47300 25.28100
H  2.05600 12.86900 24.18000
H  2.53200 13.41200 25.71500
H  0.55100 10.66500 30.23700
H  3.61600 11.75700 32.80300
H  4.28800 10.14200 32.50600
H  3.12600 10.37500 33.71100
Mg 53.15400 24.19500 44.25200
C  50.66000 26.46500 43.44200
C  51.07400 21.59000 43.16400
C  55.78700 22.09400 43.96400
C  55.16300 26.73600 45.26200
N  51.13700 24.04400 43.35100
C  50.31300 25.12200 43.07400
C  48.94800 24.57900 42.48400
C  48.87500 23.12700 43.07700
C  50.37400 22.87800 43.17400
C  48.08100 23.01000 44.42800
C  48.95400 24.51400 40.90300
C  50.21200 24.93500 40.13000
H  50.10800 25.18200 38.61100
N  53.41400 22.08600 43.77400
C  52.39300 21.19800 43.37100
C  52.88700 19.88200 43.09600
C  54.34400 19.96300 43.37300
C  54.55000 21.43700 43.71500
C  52.00500 18.77800 42.65200
C  55.36800 18.78900 43.22000
O  54.86200 17.73500 42.84800
C  56.82200 18.85500 43.58800
N  55.21300 24.35800 44.59300
C  56.18600 23.37400 44.34900
C  57.58800 23.85500 44.83700
C  57.32300 25.33600 45.25100
C  55.77200 25.53500 45.12200
C  58.08800 22.95300 45.99200
C  58.08900 26.24000 44.32000
C  57.54100 26.31000 42.86300
N  53.01000 26.20200 44.30700
C  53.88100 27.17800 44.86800
C  53.31000 28.51900 44.85400
C  51.97700 28.26700 44.33600
C  51.86500 26.88800 44.05600
C  53.93600 29.91100 45.39300
C  50.71900 28.86500 43.87300
O  50.36300 29.99000 43.84900
C  49.85000 27.72200 43.38300
C  49.46200 28.01600 41.99700
O  50.09200 28.36400 41.08500
O  48.09100 27.90900 41.99800
C  47.46100 28.10900 40.61800
H  50.32300 20.88900 42.79400
H  56.61900 21.40700 43.79500
H  55.81700 27.60500 45.35700
H  48.11500 25.19700 42.81900
H  48.43100 22.46100 42.33700
H  48.66000 22.57100 45.23900
H  47.27000 22.36300 44.09400
H  47.62400 23.96800 44.67900
H  48.25800 25.24600 40.49200
H  48.57200 23.55400 40.55700
H  51.03000 24.21500 40.17200
H  50.50600 25.90400 40.53200
H  51.22600 19.22100 42.03200
H  51.42900 18.35100 43.47300
H  52.54100 18.03200 42.06500
H  56.96200 19.44200 44.49600
H  57.40500 19.32500 42.79700
H  57.04700 17.78800 43.60300
H  58.23500 23.64800 43.98500
H  57.80700 25.37200 46.22600
H  57.38700 22.13200 46.14200
H  58.01000 23.37100 46.99600
H  59.12400 22.64300 45.86000
H  59.16400 26.06500 44.29200
H  57.95900 27.22300 44.77100
H  56.91200 25.42700 42.75300
H  58.31500 26.18700 42.10500
H  56.96000 27.21600 42.68900
H  54.70100 30.10600 44.64100
H  54.44700 29.64600 46.31800
H  53.19100 30.70000 45.49900
H  49.03700 27.86500 44.09500
H  48.20700 28.26900 39.84000
H  46.81700 28.98800 40.63200
H  46.93200 27.22100 40.27200

