158

Mg 26.54400 49.82100 26.85400
C  24.47300 51.04900 29.36100
C  28.84400 49.01600 29.20700
C  28.53100 48.86300 24.29800
C  24.04500 50.91600 24.57300
N  26.62500 50.08700 29.04400
C  25.68000 50.53500 29.94500
C  26.06700 50.17800 31.39100
C  27.59500 49.82200 31.27300
C  27.71700 49.66300 29.72700
C  28.57100 50.83900 31.93500
C  25.19800 49.09600 32.01200
C  24.56500 49.14600 33.46800
H  25.25600 49.95600 34.50900
N  28.42100 48.95500 26.78800
C  29.20900 48.71700 27.86500
C  30.47900 48.26600 27.41800
C  30.44300 48.21800 25.99600
C  29.10000 48.73500 25.60700
C  31.57800 47.98200 28.40500
C  31.48100 47.80000 24.97400
O  31.31100 47.85000 23.79500
C  32.80900 47.39000 25.48500
N  26.31200 49.92900 24.74900
C  27.23800 49.37700 23.94800
C  26.76700 49.43300 22.51600
C  25.32800 50.01000 22.53400
C  25.17300 50.26800 24.03200
C  27.75900 50.17000 21.65900
C  24.21600 49.12900 21.97400
C  24.17800 47.74000 22.62100
N  24.75300 50.94400 26.88000
C  23.79600 51.18600 25.88900
C  22.65900 51.94800 26.39700
C  22.83200 51.91400 27.77200
C  24.11800 51.24600 28.02100
C  21.53700 52.53100 25.56400
C  22.24400 52.12800 29.08300
O  21.13500 52.69600 29.38300
C  23.23600 51.53000 30.21700
C  23.40500 52.51600 31.30300
O  24.40800 53.07100 31.63600
O  22.23200 52.53200 32.04700
C  22.28800 53.41500 33.28800
H  29.57900 48.75500 29.97100
H  29.09400 48.43900 23.46400
H  23.29500 51.14900 23.81400
H  26.13000 51.07500 32.00800
H  27.69700 48.82900 31.71000
H  28.11100 51.80900 32.12000
H  29.54400 50.95600 31.45800
H  28.95500 50.34100 32.82500
H  25.73100 48.14600 32.05700
H  24.28900 49.13800 31.41100
H  24.49900 48.10700 33.79200
H  23.62900 49.68800 33.33400
H  31.67600 46.90500 28.53900
H  31.51900 48.54800 29.33400
H  32.42700 48.39600 27.86100
H  33.46800 46.93500 24.74500
H  32.59700 46.74500 26.33900
H  33.25300 48.32800 25.81600
H  26.87900 48.36600 22.32200
H  25.28800 50.89500 21.90000
H  28.36900 49.47900 21.07700
H  28.48800 50.70200 22.27000
H  27.26300 50.83600 20.95200
H  24.52300 49.20400 20.93100
H  23.28300 49.69200 21.95300
H  24.58600 47.77000 23.63100
H  24.81200 47.10400 22.00400
H  23.17700 47.31500 22.69500
H  20.64500 52.53600 26.18900
H  21.34100 51.75600 24.82200
H  21.70200 53.42300 24.95900
H  22.83700 50.61100 30.64600
H  21.35900 53.41800 33.85700
H  22.57200 54.45800 33.14400
H  22.89700 52.92900 34.05000
Mg -3.58800 35.59400 26.74200
C  -4.87500 33.45900 29.31700
C  -2.40900 37.58700 29.30100
C  -2.50100 37.61700 24.38900
C  -5.39600 33.83400 24.42600
N  -3.50000 35.33300 29.09400
C  -4.09900 34.39700 29.89600
C  -3.78100 34.65900 31.37000
C  -3.10700 36.08500 31.37700
C  -2.96200 36.40600 29.83400
C  -3.82900 37.23400 32.16300
C  -3.04900 33.48500 32.11600
C  -3.61400 32.86100 33.40600
H  -2.63700 32.64000 34.62200
N  -2.44000 37.23200 26.84500
C  -2.08500 37.95500 27.94200
C  -1.24300 39.10800 27.55200
C  -1.07800 39.06200 26.11500
C  -1.94500 37.91200 25.72400
C  -0.64300 40.13500 28.59000
C  -0.34500 39.87300 25.15200
O  -0.24900 39.68700 23.97600
C  0.15500 41.12200 25.70900
N  -3.94300 35.73300 24.68900
C  -3.38100 36.65000 23.91800
C  -3.62200 36.33300 22.42600
C  -4.66000 35.18900 22.46000
C  -4.71100 34.93500 23.97300
C  -4.11200 37.59900 21.68500
C  -4.37300 33.92100 21.56700
C  -3.42900 32.78500 22.14400
N  -4.90200 34.00800 26.77100
C  -5.52100 33.31000 25.73300
C  -6.14000 32.04600 26.24200
C  -5.92300 32.09700 27.65600
C  -5.20100 33.31800 27.93300
C  -6.76800 31.02400 25.39500
C  -6.20300 31.37300 28.92700
O  -6.76300 30.29900 29.12300
C  -5.53200 32.24300 30.05700
C  -6.70200 32.69500 30.91000
O  -7.54800 33.45400 30.51600
O  -6.61900 32.21000 32.23600
C  -7.74300 32.43700 33.11700
H  -2.06400 38.31600 30.03700
H  -2.16600 38.42200 23.73100
H  -6.00400 33.34600 23.66200
H  -4.78200 34.64600 31.80200
H  -2.07800 36.01800 31.73100
H  -3.34200 37.38200 33.12700
H  -4.83200 36.89200 32.41800
H  -3.96400 38.19100 31.65900
H  -2.07600 33.86700 32.42300
H  -2.98100 32.62300 31.45300
H  -3.78000 31.82900 33.09800
H  -4.56900 33.36200 33.56500
H  -0.76500 39.98000 29.66200
H  -0.87400 41.17300 28.34900
H  0.44300 40.07400 28.52300
H  -0.63300 41.75600 26.11500
H  0.78600 41.59200 24.95500
H  0.94700 40.93200 26.43400
H  -2.65900 36.20400 21.93200
H  -5.67100 35.49900 22.19500
H  -4.94800 37.35800 21.02900
H  -3.46300 38.17500 21.02500
H  -4.31500 38.35000 22.44900
H  -3.99500 34.27100 20.60600
H  -5.35400 33.54000 21.28300
H  -2.93400 33.19700 23.02500
H  -2.71100 32.66500 21.33200
H  -4.04600 31.89700 22.27900
H  -5.90600 30.70700 24.80900
H  -7.52900 31.44600 24.73800
H  -6.90400 30.10400 25.96400
H  -4.89800 31.63600 30.70300
H  -8.09100 31.45500 33.43800
H  -8.54500 32.94300 32.58100
H  -7.34700 33.05900 33.92000

