158

Mg 34.68700 3.35600 29.38000
C  32.49200 4.30100 32.04700
C  37.11400 3.02000 31.90600
C  37.04400 2.75100 27.08700
C  32.29600 3.72200 27.14400
N  34.79200 3.84300 31.73900
C  33.78200 3.95800 32.52700
C  34.14800 3.74300 33.97800
C  35.65300 3.47400 33.88400
C  35.86400 3.41300 32.41900
C  36.47200 4.64000 34.52200
C  33.45500 2.62100 34.78600
C  32.78000 2.99400 36.18800
H  33.54400 4.04800 37.08700
N  36.76900 2.84500 29.46900
C  37.54100 2.74100 30.58200
C  38.87100 2.34000 30.24000
C  38.88900 2.11900 28.82900
C  37.55200 2.64400 28.35500
C  39.87000 2.16400 31.32300
C  40.00400 1.62500 27.97200
O  39.90300 1.61200 26.69600
C  41.23600 1.17300 28.58200
N  34.70300 3.48200 27.33200
C  35.74500 3.07500 26.61400
C  35.37400 2.99000 25.05200
C  33.84400 3.02800 25.11200
C  33.52300 3.38500 26.60700
C  36.00100 4.12500 24.16800
C  33.22900 1.67100 24.80000
C  31.76600 1.56100 24.49100
N  32.83400 4.00500 29.48900
C  31.91400 4.04800 28.44000
C  30.58900 4.49100 28.99700
C  30.84000 4.64300 30.36000
C  32.20600 4.33900 30.65100
C  29.28600 4.62300 28.17800
C  30.22300 5.05600 31.59000
O  29.04300 5.40700 31.84100
C  31.24400 4.68600 32.74100
C  31.38100 5.90500 33.66100
O  31.92700 6.92300 33.36200
O  30.72600 5.67400 34.87500
C  30.94300 6.76300 35.81900
H  37.79000 2.76800 32.72500
H  37.79000 2.43900 26.35300
H  31.41000 3.67800 26.50700
H  33.96100 4.71900 34.42700
H  35.95000 2.51100 34.29900
H  37.37000 4.29400 35.03200
H  35.83400 5.10400 35.27400
H  36.72100 5.35500 33.73700
H  34.05400 1.72800 34.95900
H  32.60000 2.19900 34.25800
H  32.64200 2.17100 36.88900
H  31.80400 3.39400 35.91100
H  39.60100 1.13800 31.57600
H  39.59300 2.87200 32.10300
H  40.93300 2.25600 31.09900
H  40.94200 0.51000 29.39500
H  41.81900 1.96100 29.05900
H  41.86200 0.75700 27.79300
H  35.74800 2.01100 24.75400
H  33.26700 3.70600 24.48300
H  36.62600 4.80800 24.74200
H  35.20300 4.69000 23.68500
H  36.59000 3.67000 23.37100
H  33.60900 1.02000 25.58800
H  33.71600 1.23500 23.92800
H  31.22300 2.45800 24.19400
H  31.40200 1.24600 25.46800
H  31.61400 0.86500 23.66600
H  29.23400 4.20300 27.17400
H  29.07200 5.69200 28.18500
H  28.48800 4.14600 28.74600
H  30.77000 3.91400 33.34600
H  30.50600 6.48500 36.77800
H  30.48400 7.66500 35.41500
H  32.02500 6.88600 35.88000
Mg 53.58400 25.51300 44.03800
C  50.74800 27.46500 43.93800
C  51.72200 22.87000 42.80200
C  56.42700 23.76100 43.84000
C  55.44800 28.42000 45.08300
N  51.56300 25.25700 43.43600
C  50.59800 26.21800 43.35100
C  49.23200 25.72100 42.78500
C  49.43600 24.19800 42.94600
C  51.02000 24.05000 43.14200
C  48.51500 23.44700 43.99700
C  48.97200 26.22700 41.26200
C  50.15600 26.29600 40.30000
H  50.10100 25.51500 38.93600
N  53.99500 23.58400 43.40500
C  53.13700 22.67400 42.86900
C  53.84400 21.49600 42.47900
C  55.21700 21.74900 42.86600
C  55.29900 23.07700 43.37000
C  53.16400 20.31300 41.96700
C  56.16000 20.62600 42.81700
O  55.81400 19.47500 42.52500
C  57.52600 20.74900 43.48800
N  55.70600 26.09900 44.13700
C  56.65600 25.12500 44.24300
C  57.97100 25.67000 44.87000
C  57.68000 27.20300 45.08200
C  56.20100 27.25200 44.73500
C  58.35800 25.00200 46.25000
C  58.45100 28.15300 44.15700
C  58.33100 27.89800 42.61200
N  53.18800 27.48400 44.50500
C  54.00800 28.56400 45.00000
C  53.20400 29.62300 45.42800
C  51.95900 29.28400 44.92200
C  51.95000 27.98300 44.42000
C  53.59700 30.90100 46.17900
C  50.58800 29.78400 44.82300
O  50.07300 30.81800 45.18900
C  49.77300 28.66200 44.08500
C  49.50700 29.12800 42.69200
O  50.33400 29.32500 41.79800
O  48.21700 29.39900 42.56400
C  47.67800 29.95300 41.36000
H  51.14700 22.02000 42.42800
H  57.34100 23.18200 43.98800
H  55.98800 29.26200 45.52200
H  48.35400 26.06800 43.33000
H  49.17800 23.70300 42.01000
H  49.03300 22.76000 44.66600
H  47.79100 22.89600 43.39700
H  48.01600 24.26000 44.52400
H  48.51900 27.21900 41.27900
H  48.19700 25.64100 40.76900
H  51.04100 25.84700 40.75100
H  50.46700 27.30800 40.03900
H  53.61700 19.89900 41.06700
H  52.10400 20.47400 41.77600
H  53.25700 19.49500 42.68100
H  57.91100 19.73500 43.38400
H  57.55800 21.02800 44.54100
H  58.10300 21.42900 42.86100
H  58.82500 25.62300 44.19400
H  57.68300 27.56300 46.11000
H  59.01900 24.16600 46.02300
H  57.44500 24.56300 46.65400
H  58.81200 25.65000 46.99900
H  59.49800 28.04800 44.44300
H  58.00300 29.14100 44.26900
H  59.28400 27.58700 42.18300
H  58.05500 28.84800 42.15400
H  57.59700 27.17200 42.26100
H  54.46500 30.86100 46.83600
H  52.79300 31.34400 46.76800
H  53.90500 31.66800 45.46800
H  48.80800 28.40700 44.52500
H  46.59800 30.05900 41.46900
H  47.85200 29.44500 40.41100
H  47.99900 30.99100 41.27900

