158

Mg 0.41500 7.45700 26.17200
C  1.18500 9.51800 28.85300
C  0.55400 4.71000 28.21200
C  0.04600 5.34700 23.56800
C  1.12100 10.12100 24.10000
N  1.21100 7.16700 28.16500
C  1.16600 8.16400 29.17800
C  1.13900 7.53600 30.58400
C  1.24900 6.02500 30.28900
C  1.02500 5.91800 28.79500
C  2.57700 5.37800 30.76400
C  -0.27800 7.88700 31.32900
C  -0.13700 8.19800 32.81200
H  0.99400 7.40800 33.54000
N  0.08800 5.27700 25.92200
C  0.13100 4.34600 26.93800
C  -0.30900 3.08600 26.38300
C  -0.61400 3.30100 25.00200
C  -0.21400 4.69800 24.78200
C  -0.54700 1.92600 27.16200
C  -1.15900 2.46900 23.94700
O  -1.55600 2.86400 22.88300
C  -1.37500 1.01600 24.22100
N  0.68900 7.69900 24.06800
C  0.39300 6.69600 23.21600
C  0.49400 7.24400 21.73000
C  0.35400 8.80500 21.98400
C  0.73400 8.90400 23.48100
C  1.80300 6.73600 20.97200
C  -1.00900 9.35500 21.59500
C  -1.16900 9.80100 20.15000
N  0.93500 9.42600 26.33000
C  1.18100 10.44900 25.43400
C  1.28700 11.79200 26.08500
C  1.26900 11.44000 27.42800
C  1.07900 10.02000 27.51300
C  1.45900 13.05700 25.30900
C  1.31300 12.00300 28.80500
O  1.38200 13.13400 29.19700
C  1.14900 10.79200 29.75300
C  2.29200 10.79800 30.75300
O  3.32200 10.15000 30.76100
O  1.89600 11.62200 31.80700
C  2.54900 11.45300 33.10400
H  0.52400 3.97200 29.01700
H  -0.13600 4.74300 22.67700
H  1.07600 10.99900 23.45300
H  1.94600 7.97300 31.17200
H  0.51400 5.48800 30.88800
H  3.33500 6.08600 31.09900
H  3.02900 4.81600 29.94700
H  2.38500 4.73800 31.62500
H  -0.83700 6.95200 31.29100
H  -0.81000 8.66700 30.78400
H  -1.07600 7.74200 33.12600
H  -0.08100 9.26600 33.02000
H  -0.49100 2.18900 28.21900
H  0.17700 1.14900 26.91800
H  -1.58000 1.57800 27.15500
H  -0.38900 0.64400 24.50000
H  -1.74100 0.57800 23.29300
H  -2.06600 0.86400 25.05000
H  -0.29000 6.82900 21.09800
H  1.16500 9.34300 21.49300
H  2.49200 7.54600 20.73400
H  1.53700 6.06000 20.15900
H  2.27300 6.15000 21.76100
H  -1.30800 10.23400 22.16700
H  -1.75400 8.56900 21.71800
H  -1.86100 9.17600 19.58700
H  -0.23100 9.90100 19.60300
H  -1.59400 10.80500 20.16800
H  2.01800 12.81300 24.40600
H  2.04700 13.76100 25.89800
H  0.42600 13.39900 25.24800
H  0.21800 11.00200 30.28100
H  1.76200 11.71800 33.81000
H  3.41700 12.10900 33.03000
H  2.88800 10.44500 33.34200
Mg -10.80800 17.24300 42.68100
C  -7.41600 16.53000 42.84900
C  -9.94800 20.53900 42.15900
C  -13.99000 17.74500 41.81900
C  -11.42400 13.62300 42.62900
N  -8.82800 18.38800 42.63700
C  -7.63000 17.90700 42.65200
C  -6.56000 19.00300 42.32700
C  -7.42700 20.29000 42.37000
C  -8.84800 19.71800 42.41800
C  -7.06200 21.34000 43.49300
C  -5.68000 18.77700 41.00300
C  -6.42300 18.24500 39.69500
H  -5.65300 18.07000 38.40700
N  -11.85300 18.89700 42.01800
C  -11.32300 20.17000 41.93400
C  -12.42200 21.07500 41.48300
C  -13.51400 20.22900 41.29300
C  -13.14200 18.84600 41.73000
C  -12.14300 22.58300 41.18600
C  -14.86400 20.75100 40.77400
O  -15.10000 21.95200 40.73900
C  -16.01100 19.75200 40.28500
N  -12.44800 15.88100 42.17100
C  -13.70300 16.40000 42.03300
C  -14.74700 15.29000 41.96700
C  -13.89200 13.99300 42.14700
C  -12.50100 14.50800 42.38700
C  -16.04400 15.49600 42.84800
C  -14.01800 12.91700 41.06100
C  -14.54000 11.45500 41.38200
N  -9.69100 15.41000 42.98800
C  -10.06700 14.05600 42.87900
C  -8.82600 13.22100 42.96800
C  -7.77400 14.13600 42.98100
C  -8.34300 15.45500 42.95500
C  -8.86800 11.71500 42.96300
C  -6.38100 14.27200 43.01500
O  -5.53300 13.38400 43.06500
C  -6.05100 15.80800 42.94900
C  -5.31800 16.33300 44.09700
O  -4.23400 16.91400 44.00300
O  -5.92500 15.87700 45.23600
C  -5.20600 16.07500 46.51800
H  -9.73700 21.61000 42.20100
H  -15.07200 17.89200 41.81500
H  -11.66100 12.56400 42.51200
H  -5.82000 19.05200 43.12600
H  -7.38300 20.75600 41.38500
H  -6.77500 22.31500 43.09900
H  -6.26600 20.91300 44.10400
H  -7.88000 21.50100 44.19500
H  -4.92300 18.01800 41.19900
H  -5.22900 19.74900 40.80100
H  -7.16700 19.01000 39.47000
H  -6.82100 17.24500 39.86800
H  -12.79600 23.00000 40.41900
H  -11.13400 22.64500 40.77900
H  -12.12200 23.17000 42.10400
H  -16.66600 19.57600 41.13900
H  -15.64900 18.77100 39.97900
H  -16.46000 20.18000 39.38800
H  -15.15700 15.35500 40.95900
H  -14.16800 13.58600 43.11900
H  -16.78300 16.01000 42.23400
H  -15.68500 16.06500 43.70600
H  -16.45000 14.52100 43.11800
H  -13.08900 12.59500 40.59300
H  -14.62600 13.28900 40.23600
H  -15.26000 11.17300 40.61300
H  -15.19000 11.39600 42.25500
H  -13.78400 10.67100 41.36000
H  -8.00600 11.26700 42.46900
H  -9.69300 11.31700 42.37100
H  -8.87500 11.42300 44.01400
H  -5.34700 15.93400 42.12600
H  -4.47100 15.27100 46.49500
H  -5.97000 15.75400 47.22700
H  -4.63400 16.96700 46.77100

