158

Mg 54.75200 23.56200 45.09700
C  52.12000 25.78200 43.87500
C  52.50900 21.11900 44.31200
C  57.31700 21.44800 45.35000
C  56.69200 26.20000 45.71600
N  52.52100 23.52200 44.08200
C  51.68600 24.51500 43.73300
C  50.34700 23.99500 43.31800
C  50.36300 22.51100 43.86800
C  51.89800 22.32700 44.05100
C  49.59300 22.27200 45.09600
C  50.18300 24.01400 41.81900
C  48.84000 24.41900 41.31100
H  48.48500 24.10800 39.85800
N  54.90500 21.52900 44.97600
C  53.86200 20.71700 44.62700
C  54.30200 19.36800 44.63500
C  55.69300 19.32100 44.94200
C  56.04900 20.80500 45.09300
C  53.41600 18.21100 44.19100
C  56.56700 18.06500 44.95700
O  56.10300 16.93800 44.81400
C  58.05200 18.14300 45.33200
N  56.72000 23.78500 45.41900
C  57.58000 22.77800 45.58500
C  58.89100 23.29700 46.13200
C  58.63800 24.81600 46.39800
C  57.24800 24.96300 45.86000
C  59.36600 22.45500 47.37300
C  59.67600 25.73200 45.67900
C  60.45100 26.67700 46.62700
N  54.58000 25.63700 44.78600
C  55.41500 26.58400 45.20800
C  54.72300 27.86800 45.16100
C  53.54500 27.57300 44.51000
C  53.41000 26.21000 44.36500
C  55.34600 29.13500 45.63200
C  52.31400 28.23300 44.08000
O  51.94100 29.38900 44.15400
C  51.32800 27.07700 43.58200
C  51.27300 27.28300 42.06500
O  52.16300 27.12400 41.27200
O  50.00100 27.74700 41.78100
C  49.83300 28.23000 40.39900
H  51.83800 20.26900 44.17800
H  58.13700 20.78500 45.63300
H  57.40600 26.99400 45.94400
H  49.59800 24.54500 43.88800
H  50.23900 21.68600 43.16700
H  49.13000 21.28500 45.07000
H  48.79700 23.00900 45.20000
H  50.24900 22.37200 45.96100
H  50.46300 23.01900 41.47300
H  50.88400 24.76000 41.44600
H  48.68700 25.49200 41.42800
H  48.17700 23.83000 41.94500
H  53.57000 18.06600 43.12200
H  52.34900 18.36100 44.35400
H  53.73100 17.24600 44.58700
H  58.77300 18.55600 44.62800
H  58.37400 17.13900 45.61100
H  58.15200 18.67800 46.27700
H  59.60000 23.17600 45.31300
H  58.55700 24.95500 47.47600
H  58.66200 21.62500 47.44400
H  59.47200 23.15000 48.20600
H  60.30200 21.97500 47.08700
H  59.22600 26.22700 44.81800
H  60.47800 25.04500 45.41000
H  60.20600 27.65900 46.22200
H  61.53800 26.59500 46.64500
H  60.18500 26.55800 47.67700
H  54.60300 29.88600 45.89700
H  56.11200 29.52500 44.96100
H  55.79400 28.93400 46.60500
H  50.38000 27.10200 44.12000
H  48.97800 28.90500 40.44100
H  49.63300 27.40000 39.72300
H  50.60600 28.83000 39.92000
Mg -12.28800 38.48800 42.19100
C  -10.00500 35.89000 41.22100
C  -10.70100 40.56500 39.95200
C  -14.65400 40.49800 42.80900
C  -14.32300 35.72400 43.67300
N  -10.55300 38.14700 40.74600
C  -9.73300 37.05300 40.56100
C  -8.58800 37.34100 39.52700
C  -8.75300 38.92200 39.25600
C  -10.08100 39.26400 40.01700
C  -7.54000 39.86800 39.78800
C  -8.72900 36.37900 38.25200
C  -7.75800 35.16900 38.23700
H  -7.03200 34.97000 36.93700
N  -12.66900 40.33700 41.52500
C  -11.84600 41.08500 40.65500
C  -12.40400 42.42400 40.68500
C  -13.55800 42.42800 41.45800
C  -13.66500 41.04900 41.97000
C  -11.71400 43.63100 39.95900
C  -14.36900 43.66300 41.78500
O  -14.20600 44.68600 41.19200
C  -15.37100 43.79400 43.02300
N  -14.32500 38.04100 43.01100
C  -14.98100 39.16000 43.21800
C  -16.40800 38.82300 43.62400
C  -16.41200 37.25600 43.86800
C  -14.93300 36.98900 43.50100
C  -16.90200 39.70600 44.79400
C  -17.42200 36.39800 43.09200
C  -18.12400 35.23000 43.97200
N  -12.14700 36.33200 42.54000
C  -13.01900 35.39300 43.19400
C  -12.32500 34.10900 43.32000
C  -11.13900 34.30000 42.59600
C  -11.09000 35.63100 42.07700
C  -12.84200 32.89200 43.98200
C  -9.90300 33.64400 42.26500
O  -9.42100 32.55900 42.62000
C  -9.20800 34.65200 41.25800
C  -7.78700 34.75300 41.71400
O  -6.92800 34.01500 41.23500
O  -7.71100 35.68200 42.75200
C  -6.45000 35.89200 43.42000
H  -10.14600 41.31700 39.38800
H  -15.43400 41.24600 42.95800
H  -14.88900 35.00800 44.27200
H  -7.69300 37.01600 40.05600
H  -8.88400 39.06500 38.18300
H  -6.74600 39.20500 40.13200
H  -7.82400 40.41100 40.69000
H  -7.14600 40.45300 38.95700
H  -8.79500 37.01600 37.37000
H  -9.73800 35.97800 38.34900
H  -8.36300 34.27700 38.40400
H  -7.03900 35.20400 39.05500
H  -11.93600 44.65100 40.27400
H  -11.89500 43.60500 38.88500
H  -10.64300 43.50800 40.12400
H  -15.03800 43.24200 43.90200
H  -16.38700 43.46800 42.80200
H  -15.35300 44.84700 43.30200
H  -16.92500 39.07600 42.69800
H  -16.53900 37.08900 44.93800
H  -17.74000 40.40200 44.75200
H  -16.08100 40.30700 45.18600
H  -17.09300 39.02000 45.62000
H  -17.00500 35.97400 42.17900
H  -18.23500 37.05600 42.78600
H  -17.40300 34.62400 44.52000
H  -18.56000 34.40600 43.40800
H  -18.94000 35.60100 44.59100
H  -13.86300 32.78000 43.61700
H  -13.01500 32.99600 45.05300
H  -12.20000 32.01400 43.91000
H  -9.17400 34.12200 40.30700
H  -5.65100 36.13000 42.71900
H  -6.21800 35.06400 44.09000
H  -6.69800 36.76300 44.02700

