158

Mg 47.81200 25.03000 28.06600
C  48.96700 27.27500 30.64800
C  47.35600 22.79600 30.66200
C  46.92100 22.98500 25.67300
C  49.30100 27.17000 25.67400
N  48.23100 25.11600 30.41200
C  48.42600 26.20100 31.20400
C  48.09600 25.94100 32.68100
C  47.58200 24.48100 32.63700
C  47.76300 24.02200 31.11700
C  48.26900 23.57300 33.68700
C  47.07200 26.95300 33.14900
C  46.50400 26.59600 34.55600
H  46.87300 27.43400 35.77200
N  47.23700 23.19200 28.13000
C  46.99200 22.42800 29.25800
C  46.41300 21.15500 28.83100
C  46.19400 21.24000 27.44200
C  46.75200 22.51200 27.01700
C  45.93600 20.06700 29.85900
C  45.43100 20.31100 26.45600
O  45.44600 20.44200 25.22300
C  44.86300 19.06400 27.02700
N  47.90500 25.12300 25.98100
C  47.46600 24.12900 25.12500
C  47.94300 24.35800 23.65700
C  48.47800 25.82300 23.72400
C  48.55300 26.05400 25.19200
C  49.08100 23.46700 23.13100
C  47.61300 26.90600 22.97100
C  48.27800 27.85100 21.87900
N  48.83300 26.81500 28.04900
C  49.49700 27.53700 27.06100
C  50.09200 28.67200 27.55200
C  49.89700 28.64200 28.96000
C  49.13800 27.52100 29.22600
C  50.90900 29.59800 26.73400
C  50.23900 29.35800 30.15900
O  50.84400 30.46500 30.19800
C  49.56300 28.56600 31.31300
C  50.58000 28.25600 32.29100
O  51.45100 27.46100 32.20000
O  50.32300 28.92300 33.42700
C  51.05200 28.48100 34.64500
H  46.96700 22.11600 31.42300
H  46.70600 22.33400 24.82300
H  49.72400 27.74900 24.85000
H  49.04800 26.13300 33.17700
H  46.52000 24.56400 32.87100
H  48.99100 22.87100 33.27000
H  47.59600 22.92500 34.24800
H  48.76800 24.24500 34.38600
H  46.24100 26.83100 32.45400
H  47.46400 27.96900 33.18100
H  46.82200 25.58400 34.80500
H  45.42300 26.47300 34.48500
H  44.88000 19.80700 29.79500
H  45.97100 20.41300 30.89200
H  46.66200 19.26800 29.70700
H  45.57000 18.50100 27.63600
H  44.72600 18.42400 26.15600
H  43.95400 19.31400 27.57400
H  47.12400 24.28700 22.94200
H  49.50600 25.97500 23.39500
H  48.78300 22.53600 22.65000
H  49.74500 23.29000 23.97800
H  49.71100 23.95100 22.38500
H  47.20900 27.55500 23.74900
H  46.84900 26.33300 22.44600
H  47.71700 27.87300 20.94500
H  49.28900 27.47700 21.71200
H  48.51600 28.82700 22.30200
H  50.32900 29.75000 25.82300
H  51.93500 29.29000 26.53100
H  50.98100 30.54800 27.26300
H  48.84500 29.23300 31.78800
H  51.04200 29.30700 35.35600
H  52.06300 28.08400 34.54800
H  50.38700 27.73300 35.07600
Mg 49.76200 46.05400 43.36400
C  46.59600 46.87600 42.12900
C  49.65500 43.05500 41.51200
C  53.12100 45.67900 43.77300
C  50.02400 49.42500 44.44100
N  48.31000 45.20000 41.85600
C  47.05200 45.63500 41.58600
C  46.33300 44.72400 40.67000
C  47.14000 43.38300 40.88800
C  48.48700 43.87000 41.47300
C  46.47600 42.22300 41.71400
C  46.15300 45.14200 39.14300
C  44.69800 44.86900 38.59200
H  44.68800 43.77000 37.52000
N  51.18300 44.60500 42.79700
C  50.88400 43.42600 42.09400
C  52.14300 42.65300 41.87700
C  53.18400 43.52900 42.38200
C  52.52800 44.68300 43.03100
C  52.33700 41.37500 41.16200
C  54.66800 43.20100 42.32900
O  55.02800 42.15300 41.82000
C  55.83200 44.05200 42.84700
N  51.39400 47.41800 43.92400
C  52.66300 46.95300 44.15900
C  53.46900 48.08500 44.82600
C  52.51000 49.30700 44.91600
C  51.19800 48.66000 44.51800
C  54.11100 47.65100 46.17000
C  52.81200 50.58300 44.00100
C  52.43700 51.90500 44.74500
N  48.54600 47.76000 43.38800
C  48.74400 49.02300 43.92000
C  47.52600 49.82700 43.76300
C  46.66600 48.99200 43.10400
C  47.35900 47.79200 42.88500
C  47.29400 51.27000 44.25400
C  45.27500 48.85400 42.59400
O  44.30200 49.64000 42.58800
C  45.22500 47.44100 41.90900
C  44.12500 46.75400 42.66100
O  44.01500 46.55200 43.85700
O  43.26100 46.17500 41.75400
C  42.32300 45.16300 42.31900
H  49.57600 42.02900 41.14500
H  54.18700 45.54400 43.97000
H  49.98500 50.40300 44.92600
H  45.31400 44.55400 41.01900
H  47.45600 42.90100 39.96400
H  47.13700 41.94000 42.53300
H  46.39400 41.30500 41.13200
H  45.56500 42.56300 42.20600
H  46.88800 44.63700 38.51700
H  46.33300 46.21700 39.12500
H  44.15300 45.77600 38.33100
H  44.11100 44.39500 39.37900
H  51.32800 41.08500 40.87100
H  52.60000 40.58600 41.86600
H  52.98700 41.44400 40.28900
H  56.81700 43.61400 42.68400
H  55.62000 44.19600 43.90700
H  55.76600 44.97900 42.27800
H  54.25100 48.28900 44.09500
H  52.46500 49.60100 45.96400
H  53.56800 48.04600 47.02800
H  55.16400 47.93000 46.12500
H  54.15500 46.56300 46.20900
H  52.38900 50.60100 42.99600
H  53.89600 50.68600 43.96200
H  53.34600 52.48800 44.89500
H  51.99300 51.67500 45.71400
H  51.55000 52.38700 44.33700
H  47.92800 51.96200 43.69900
H  47.62100 51.23900 45.29300
H  46.23200 51.47900 44.12100
H  45.03600 47.46600 40.83600
H  41.65000 45.75000 42.94300
H  42.84500 44.44700 42.95500
H  41.85000 44.74200 41.43200

