158

Mg 9.28200 4.38700 28.03400
C  10.81600 2.88100 30.90300
C  7.25000 6.17700 30.20000
C  7.73900 5.55000 25.43400
C  11.10700 2.06700 26.11100
N  9.02800 4.39900 30.30300
C  9.90500 3.94700 31.30900
C  9.52900 4.58300 32.65400
C  8.24100 5.41400 32.31800
C  8.06200 5.25000 30.83400
C  7.06200 5.02300 33.18600
C  10.76600 5.52200 33.08500
C  10.82200 5.94700 34.58800
H  11.79300 5.20700 35.58100
N  7.81600 5.88300 27.82600
C  7.07000 6.41400 28.80600
C  6.21200 7.38700 28.16500
C  6.44400 7.36200 26.81800
C  7.34500 6.23000 26.62400
C  5.17800 8.17400 28.89500
C  5.82900 8.20500 25.69000
O  6.05600 7.97100 24.55200
C  5.00600 9.25700 25.93900
N  9.27600 3.71700 26.05000
C  8.57000 4.47100 25.13600
C  9.06200 4.14800 23.76800
C  10.01000 2.92700 23.92900
C  10.20200 2.89500 25.47800
C  7.92900 3.89800 22.75700
C  11.40400 2.90900 23.12400
C  11.55700 1.81900 22.07000
N  10.71300 2.80500 28.39800
C  11.35000 1.91600 27.50700
C  12.11400 0.86600 28.16600
C  11.98300 1.26100 29.53900
C  11.10200 2.42900 29.60200
C  12.79300 -0.35600 27.58400
C  12.39600 0.92700 30.94800
O  13.01000 -0.02700 31.39000
C  11.68900 2.01300 31.86900
C  10.87100 1.26300 32.90200
O  9.74600 0.79300 32.83100
O  11.60700 1.21700 34.03000
C  11.12300 0.69200 35.26200
H  6.63200 6.85600 30.79200
H  7.40700 6.01000 24.50100
H  11.73500 1.51700 25.40700
H  9.25700 3.83400 33.39900
H  8.42800 6.48100 32.43500
H  6.38700 4.37600 32.62600
H  6.53800 5.87600 33.61800
H  7.38200 4.55100 34.11500
H  10.90200 6.38400 32.43200
H  11.63900 4.91000 32.85600
H  9.76300 5.79000 34.79300
H  10.98800 7.02000 34.69300
H  5.54800 9.16100 29.17200
H  4.88300 7.67300 29.81700
H  4.21900 8.07200 28.38800
H  4.01200 8.95400 26.26700
H  4.75900 9.80200 25.02800
H  5.58100 9.92900 26.57600
H  9.57200 5.08500 23.54100
H  9.40700 2.04100 23.73400
H  6.96900 3.88900 23.27300
H  8.12300 2.97400 22.21100
H  8.00800 4.74000 22.06900
H  12.18800 2.82200 23.87700
H  11.43800 3.90000 22.67200
H  10.67200 1.76300 21.43500
H  11.69500 0.82200 22.48700
H  12.41200 2.02600 21.42600
H  13.55700 -0.58300 28.32800
H  13.24900 -0.12500 26.62200
H  12.02000 -1.11900 27.68500
H  12.38700 2.66600 32.39300
H  10.52600 -0.20200 35.08100
H  10.46800 1.34100 35.84400
H  11.91800 0.44800 35.96700
Mg 47.33200 35.68600 27.08600
C  45.65300 33.76400 29.61100
C  47.25400 38.28800 29.38000
C  48.27300 37.66400 24.69700
C  46.77100 32.89400 24.86700
N  46.72200 35.87100 29.21000
C  46.14800 34.97000 29.99200
C  46.32000 35.51500 31.44500
C  46.43600 37.02900 31.39700
C  46.89700 37.10200 29.90000
C  45.16000 37.82700 31.73000
C  47.61000 34.78400 32.05700
C  47.53900 34.61000 33.56800
H  46.90700 35.67300 34.41600
N  47.96100 37.68200 27.10500
C  47.80700 38.64600 28.11200
C  48.33600 39.87500 27.67400
C  48.59400 39.73100 26.30200
C  48.29800 38.32000 25.96100
C  48.45200 41.12000 28.54900
C  49.18000 40.71800 25.29500
O  49.50200 40.43500 24.13000
C  49.55200 42.17100 25.65700
N  47.55100 35.30500 25.05400
C  47.99400 36.31800 24.29000
C  48.13900 35.77500 22.85100
C  47.96300 34.19900 22.94400
C  47.41400 34.15000 24.34500
C  47.20600 36.47400 21.78000
C  49.22100 33.35500 22.77400
C  49.11600 31.95800 22.11700
N  46.38700 33.71700 27.16800
C  46.25600 32.73900 26.20000
C  45.49400 31.63400 26.77100
C  45.24300 32.00400 28.06500
C  45.73900 33.29700 28.30100
C  45.26800 30.34900 26.09100
C  44.69200 31.54800 29.28700
O  44.23800 30.45500 29.61900
C  44.76900 32.73400 30.25700
C  45.14800 32.22300 31.60500
O  46.13200 31.48300 31.89400
O  44.22800 32.62700 32.55600
C  44.39800 32.06300 33.94800
H  47.08300 39.14800 30.03000
H  48.49000 38.29200 23.83000
H  46.59300 32.08400 24.15700
H  45.56200 35.19900 32.16200
H  47.18700 37.40900 32.08900
H  44.38200 37.06300 31.71300
H  45.05500 38.58200 30.95100
H  45.22700 38.33900 32.68900
H  48.54000 35.29800 31.81300
H  47.67700 33.78500 31.62700
H  48.60100 34.52600 33.79900
H  47.02500 33.65800 33.69700
H  49.47900 41.47900 28.49900
H  48.16400 40.87500 29.57200
H  47.73800 41.90700 28.30900
H  48.69700 42.44900 26.27300
H  49.61100 42.76700 24.74600
H  50.45700 42.16300 26.26400
H  49.11800 36.06800 22.47200
H  47.21400 33.84000 22.23900
H  46.37600 35.83200 21.48500
H  47.77300 36.78200 20.90200
H  46.77600 37.35800 22.25100
H  49.73000 33.17700 23.72100
H  50.01700 33.86500 22.23100
H  48.04600 31.90300 21.91600
H  49.36800 31.22400 22.88200
H  49.71500 31.86400 21.21100
H  46.09000 29.95100 25.49500
H  44.62800 30.55700 25.23300
H  44.87600 29.55200 26.72200
H  43.80100 33.22300 30.36200
H  44.96400 31.14800 34.12500
H  43.35900 31.94500 34.25500
H  44.76600 32.94000 34.48000

