158

Mg 15.64400 51.10300 26.48500
C  17.91300 50.47500 29.14100
C  13.38200 52.09000 28.74200
C  13.55200 51.24200 23.96000
C  18.19400 50.04200 24.19900
N  15.77400 51.41000 28.67600
C  16.74700 51.01000 29.60000
C  16.35400 51.27100 31.02500
C  14.79100 51.57700 30.87500
C  14.59900 51.66300 29.34600
C  13.96700 50.34200 31.41100
C  17.15200 52.43900 31.62700
C  17.88000 52.13600 32.94700
H  17.00700 51.53900 34.00500
N  13.77500 51.65000 26.35400
C  12.99800 52.09400 27.38500
C  11.60700 52.27600 26.86000
C  11.64600 52.00300 25.48400
C  13.05400 51.61700 25.21800
C  10.51000 52.65500 27.82900
C  10.48900 52.15300 24.42500
O  10.61700 51.83400 23.22700
C  9.10200 52.43900 24.94400
N  15.88500 50.78200 24.30200
C  14.81900 50.84400 23.49200
C  15.14400 50.39400 22.05200
C  16.65800 50.00700 22.20300
C  16.98100 50.32300 23.66500
C  14.24800 49.33800 21.35000
C  17.58100 50.89000 21.26700
C  18.61800 50.10500 20.53300
N  17.49100 50.27600 26.58000
C  18.42900 49.96800 25.63100
C  19.68900 49.52600 26.20500
C  19.51700 49.64100 27.59500
C  18.17200 50.15100 27.78100
C  20.97300 49.01400 25.44100
C  20.12600 49.49300 28.87500
O  21.23900 49.19100 29.25000
C  19.06200 49.92000 29.94000
C  18.63500 48.73000 30.70400
O  17.98000 47.84500 30.22100
O  19.10900 48.83300 32.01200
C  18.58800 47.83200 32.94600
H  12.66000 52.31400 29.52900
H  12.88100 51.08300 23.11200
H  19.00500 49.69700 23.55500
H  16.47800 50.42800 31.70500
H  14.40800 52.49900 31.31300
H  13.57400 49.79400 30.55500
H  13.18400 50.73100 32.06100
H  14.59000 49.63200 31.95600
H  16.43300 53.23200 31.83300
H  17.86200 53.01400 31.03200
H  18.43500 52.98600 33.34300
H  18.58600 51.35400 32.66400
H  10.14200 51.76600 28.34200
H  9.70700 53.25900 27.40700
H  10.94200 53.22300 28.65400
H  8.96100 53.50500 25.12100
H  8.76900 51.87100 25.81300
H  8.37000 52.13400 24.19600
H  15.01100 51.24900 21.39000
H  16.72000 48.94100 21.98300
H  13.85600 48.63000 22.08000
H  14.80800 48.85300 20.55100
H  13.38500 49.86600 20.94600
H  17.98700 51.73000 21.83000
H  16.98100 51.42500 20.53100
H  18.60000 50.49500 19.51500
H  18.42700 49.03500 20.62400
H  19.52900 50.34800 21.07900
H  21.13900 49.81400 24.72000
H  20.78000 48.08400 24.90600
H  21.78800 48.85200 26.14600
H  19.33500 50.68700 30.66500
H  17.50200 47.90300 32.89000
H  18.92000 47.83200 33.98400
H  18.75000 46.80200 32.62800
Mg -11.45900 17.16700 42.83400
C  -8.10600 17.46700 43.15800
C  -11.72900 20.52600 42.09400
C  -14.83800 16.75600 42.13800
C  -11.03200 13.70100 42.90600
N  -10.09300 18.68800 42.54600
C  -8.74500 18.61100 42.76500
C  -8.03300 19.89200 42.24300
C  -9.18600 20.88900 42.03000
C  -10.43800 20.04900 42.27800
C  -9.16100 22.21600 42.91600
C  -7.10800 19.62000 41.03600
C  -5.63000 20.15700 41.10000
H  -5.15700 21.01000 39.96900
N  -13.04700 18.51200 42.47000
C  -12.96500 19.88400 42.23400
C  -14.25400 20.45600 42.03500
C  -15.15900 19.38700 42.07700
C  -14.34700 18.10900 42.15000
C  -14.46300 21.87500 41.57300
C  -16.69800 19.54100 41.96900
O  -17.28200 20.60500 41.77100
C  -17.70500 18.35700 42.13400
N  -12.79800 15.52100 42.56400
C  -14.13300 15.59900 42.46400
C  -14.77400 14.20500 42.67600
C  -13.50700 13.31600 42.31200
C  -12.34400 14.22200 42.49500
C  -15.27500 14.01100 44.17500
C  -13.38500 12.72400 40.85400
C  -13.58100 11.23200 40.83000
N  -9.86100 15.76200 42.84300
C  -9.86900 14.41700 42.97300
C  -8.55100 13.91100 43.18900
C  -7.80700 15.08300 43.34100
C  -8.65700 16.17400 43.09400
C  -8.01200 12.53600 43.21500
C  -6.46000 15.59200 43.49600
O  -5.42300 14.99100 43.56900
C  -6.59700 17.15400 43.44600
C  -6.21500 17.76100 44.75300
O  -6.66300 17.39400 45.82800
O  -5.30500 18.72000 44.59400
C  -4.92600 19.51400 45.71700
H  -11.78900 21.61100 41.98800
H  -15.89200 16.58000 41.91300
H  -10.83600 12.63100 43.00000
H  -7.42200 20.35000 43.02100
H  -9.29400 21.16800 40.98200
H  -9.64400 22.93200 42.25100
H  -8.16000 22.60000 43.11200
H  -9.71100 22.15200 43.85500
H  -7.62500 19.96000 40.13800
H  -7.00100 18.53900 40.94400
H  -5.04600 19.23700 41.13700
H  -5.59500 20.75100 42.01300
H  -13.57900 22.50100 41.45300
H  -15.16700 22.41700 42.20500
H  -14.92900 21.79600 40.59100
H  -17.77400 17.80000 41.20000
H  -18.69900 18.74200 42.36100
H  -17.27500 17.79600 42.96400
H  -15.52800 14.02700 41.90900
H  -13.48500 12.47600 43.00600
H  -15.37000 15.01400 44.59000
H  -14.65800 13.29900 44.72300
H  -16.24800 13.51900 44.17200
H  -12.42600 12.80400 40.34300
H  -14.17700 13.25700 40.32800
H  -14.01000 10.74200 41.70400
H  -12.62900 10.76500 40.58000
H  -14.33700 11.15700 40.04800
H  -6.92600 12.53700 43.11500
H  -8.44300 12.07400 42.32700
H  -8.30100 12.21500 44.21600
H  -5.85400 17.41800 42.69300
H  -5.63800 20.33800 45.76900
H  -4.05500 20.09200 45.40900
H  -4.74400 19.12500 46.71800

