158

Mg 26.80100 49.26300 26.68600
C  24.70800 50.34300 29.27700
C  29.19800 48.64700 29.16500
C  28.92200 48.16500 24.25800
C  24.42500 50.30700 24.41900
N  26.76500 49.17800 28.98300
C  25.74300 49.60800 29.80100
C  26.09000 49.28900 31.28300
C  27.62800 48.96900 31.18600
C  27.93000 48.86500 29.65400
C  28.47700 49.89800 32.11000
C  25.10200 48.21900 32.01300
C  24.29900 48.77500 33.19400
H  25.10500 49.34500 34.35200
N  28.73900 48.54200 26.66400
C  29.55600 48.44200 27.76000
C  30.89900 48.06000 27.39500
C  30.92200 47.89500 26.01200
C  29.48000 48.13400 25.58300
C  31.99900 47.72500 28.30500
C  32.04700 47.64100 25.10200
O  31.88700 47.61500 23.88300
C  33.38100 47.41500 25.66600
N  26.66600 49.25600 24.63700
C  27.61800 48.62800 23.83700
C  27.13000 48.59100 22.37400
C  25.61700 49.10300 22.46700
C  25.56400 49.59100 23.93200
C  27.98000 49.37200 21.31800
C  24.63600 47.97700 22.15100
C  23.58100 48.28000 21.06100
N  24.99200 50.15600 26.72600
C  24.11600 50.60200 25.75400
C  23.01800 51.37000 26.29700
C  23.25400 51.24600 27.64000
C  24.45600 50.54000 27.88100
C  21.84300 51.99000 25.46200
C  22.69000 51.65700 28.89100
O  21.64900 52.35800 29.15000
C  23.62000 51.11800 30.03200
C  24.20300 52.24000 30.81700
O  25.02400 53.09000 30.52800
O  23.59400 52.28400 32.10000
C  23.79300 53.51000 32.93600
H  29.92800 48.36300 29.92700
H  29.65900 47.93400 23.48600
H  23.68700 50.40300 23.62000
H  26.03700 50.27100 31.75400
H  27.72700 47.99300 31.66000
H  29.53100 49.78900 31.85200
H  28.45800 49.52000 33.13300
H  28.17800 50.94500 32.06200
H  25.80600 47.40500 32.18800
H  24.32700 47.87500 31.32800
H  23.58700 48.03100 33.55300
H  23.77400 49.63900 32.78800
H  32.83500 48.42500 28.31200
H  32.42500 46.78800 27.94600
H  31.79400 47.63600 29.37100
H  34.17100 47.29300 24.92500
H  33.30200 46.43900 26.14500
H  33.71600 48.19000 26.35500
H  27.19400 47.54800 22.06300
H  25.58300 49.94800 21.78000
H  28.67300 50.03800 21.83200
H  27.44500 50.07700 20.68000
H  28.64000 48.74300 20.72100
H  24.08100 47.53400 22.97700
H  25.15800 47.06800 21.85200
H  23.71300 47.55800 20.25500
H  23.72400 49.32900 20.80100
H  22.56500 48.15300 21.43500
H  20.95000 51.66800 25.99700
H  22.09400 51.57700 24.48500
H  21.86000 53.07500 25.35100
H  23.07900 50.48100 30.73200
H  23.71800 54.42200 32.34500
H  24.55300 53.48900 33.71700
H  22.95200 53.53200 33.62900
Mg -6.52900 24.48200 25.88700
C  -4.91800 26.02300 28.53700
C  -8.59900 22.77400 28.16500
C  -7.82800 22.52100 23.45400
C  -4.40000 26.00500 23.72900
N  -6.71300 24.33300 28.02300
C  -5.97100 25.13000 28.91000
C  -6.38400 24.85800 30.38400
C  -7.24300 23.57800 30.22200
C  -7.59500 23.57100 28.72900
C  -6.52200 22.28000 30.70600
C  -7.21500 26.12900 30.80900
C  -7.03600 26.47400 32.33100
H  -6.39600 25.41200 33.21000
N  -8.13900 23.03900 25.84400
C  -8.89100 22.54400 26.86300
C  -9.84500 21.60400 26.32100
C  -9.58300 21.45900 24.93300
C  -8.49200 22.39600 24.66100
C  -10.87900 20.97100 27.20800
C  -10.31000 20.63700 23.94100
O  -10.02600 20.57100 22.79600
C  -11.53400 19.81700 24.39800
N  -5.94300 24.07900 23.99200
C  -6.72800 23.29700 23.11200
C  -6.43800 23.55200 21.64500
C  -5.36500 24.70400 21.68500
C  -5.21100 24.95400 23.23900
C  -5.88900 22.20400 21.05700
C  -5.79300 25.95100 20.89800
C  -4.91400 26.64800 19.94200
N  -4.96800 25.73800 26.02300
C  -4.20400 26.34500 25.04600
C  -3.24700 27.21300 25.68300
C  -3.38100 26.99000 27.05900
C  -4.52200 26.18300 27.20200
C  -2.29400 28.19400 25.02300
C  -2.89700 27.33900 28.41200
O  -1.97800 28.04200 28.75400
C  -3.89700 26.70800 29.43600
C  -3.02400 25.70400 30.08100
O  -2.81100 24.56500 29.67600
O  -2.42000 26.31700 31.13300
C  -1.41500 25.48100 31.78700
H  -9.22000 22.40100 28.98200
H  -8.31900 22.10000 22.57500
H  -3.71500 26.50800 23.04300
H  -5.48000 24.74800 30.98200
H  -8.17400 23.66900 30.78200
H  -6.86100 22.01800 31.70900
H  -5.44500 22.41900 30.61100
H  -6.81700 21.49900 30.00500
H  -8.25600 25.92300 30.55900
H  -6.95200 27.00800 30.22000
H  -8.02000 26.65100 32.76600
H  -6.31700 27.28900 32.41800
H  -11.80500 21.54700 27.21400
H  -10.53500 20.93500 28.24200
H  -10.99900 19.91900 26.94700
H  -11.22400 18.92500 24.94200
H  -12.14800 19.37700 23.61200
H  -12.22100 20.40300 25.00800
H  -7.35300 23.86800 21.14400
H  -4.32800 24.43300 21.49100
H  -5.02000 22.53300 20.48700
H  -6.59100 21.96100 20.26000
H  -5.65300 21.38300 21.73400
H  -6.09500 26.73400 21.59400
H  -6.70800 25.67500 20.37300
H  -3.92800 26.19300 20.03600
H  -4.95900 27.73200 20.04800
H  -5.42700 26.48700 18.99400
H  -2.11100 27.97000 23.97200
H  -1.28100 28.08000 25.41000
H  -2.64100 29.22700 24.99900
H  -4.33900 27.46500 30.08400
H  -1.63400 25.25000 32.83000
H  -0.62100 26.22300 31.86500
H  -1.18900 24.48700 31.40200

