158

Mg 17.39600 -0.64200 27.58800
C  16.39500 1.01300 30.41900
C  19.61800 -2.50000 29.54800
C  19.08000 -1.85800 24.86400
C  15.69000 1.54700 25.61100
N  17.94900 -0.70800 29.77700
C  17.42600 0.08900 30.75700
C  18.11400 -0.19300 32.12400
C  19.18900 -1.32900 31.68700
C  18.94700 -1.51900 30.21800
C  20.63700 -0.95600 31.98100
C  17.18900 -0.69800 33.16100
C  16.96800 0.17200 34.41900
H  18.18100 0.66700 35.17100
N  19.01600 -2.06500 27.22500
C  19.73300 -2.80600 28.16400
C  20.48000 -3.89100 27.50400
C  20.18500 -3.80400 26.08900
C  19.37600 -2.57800 26.00600
C  21.26900 -4.96100 28.23400
C  20.57000 -4.69300 24.99900
O  20.18300 -4.58600 23.84500
C  21.49000 -5.89800 25.30500
N  17.38100 -0.20200 25.48900
C  18.15400 -0.86100 24.60200
C  17.90300 -0.23800 23.18200
C  16.65200 0.60500 23.50800
C  16.61000 0.78000 24.93500
C  19.14900 0.53600 22.58100
C  15.31500 0.01200 22.91000
C  14.35400 -0.95500 23.78200
N  16.11700 0.85000 27.88700
C  15.43200 1.66300 27.01300
C  14.63500 2.66100 27.72800
C  14.95900 2.35900 29.07400
C  15.88900 1.27200 29.14900
C  13.72600 3.66900 27.18400
C  14.71400 2.79700 30.43000
O  13.92300 3.67200 30.83200
C  15.72600 2.01200 31.32500
C  16.65800 2.89900 32.04700
O  17.83800 3.06600 31.74800
O  16.09000 3.50600 33.13000
C  16.85400 4.44600 33.92800
H  20.24500 -3.14300 30.17000
H  19.43600 -2.26100 23.91400
H  15.08200 2.08600 24.88200
H  18.63600 0.69500 32.48000
H  18.94400 -2.30400 32.10900
H  21.02700 -1.68400 32.69200
H  20.62000 -0.00200 32.50900
H  21.23100 -0.88600 31.07100
H  17.53300 -1.67000 33.51300
H  16.20600 -0.71000 32.68900
H  16.34700 -0.34500 35.15000
H  16.39600 1.04500 34.10400
H  22.16800 -5.14300 27.64400
H  20.78100 -5.91100 28.44900
H  21.60000 -4.52500 29.17700
H  21.20400 -6.55100 26.12900
H  22.47900 -5.47100 25.46800
H  21.55200 -6.48000 24.38500
H  17.55900 -1.02500 22.51100
H  16.79000 1.58700 23.05600
H  19.98500 0.63700 23.27200
H  18.96800 1.49200 22.08900
H  19.46800 -0.13700 21.78500
H  15.40800 -0.55200 21.98300
H  14.62900 0.81300 22.63500
H  13.64700 -0.39600 24.39500
H  14.90500 -1.53000 24.52600
H  13.70900 -1.58600 23.17200
H  13.76900 3.51900 26.10600
H  14.10100 4.66800 27.41000
H  12.79300 3.39800 27.67900
H  15.21100 1.41200 32.07600
H  16.76400 5.44600 33.50200
H  17.86700 4.06800 34.07000
H  16.44400 4.35700 34.93400
Mg 47.63400 35.12100 26.14300
C  45.85300 33.74300 28.76700
C  48.09300 38.03900 27.99000
C  48.97600 36.49500 23.50700
C  46.56300 32.30400 24.16500
N  47.07200 35.70900 28.07700
C  46.53000 34.94100 29.07100
C  46.64900 35.71000 30.40200
C  46.81600 37.14500 29.98700
C  47.36800 36.97700 28.56400
C  45.53800 38.00100 30.10200
C  47.85400 35.10500 31.17000
C  47.70000 35.11800 32.68200
H  46.68500 36.02600 33.31700
N  48.54800 36.97200 25.82200
C  48.55500 38.07100 26.64900
C  49.11000 39.17800 25.93700
C  49.55300 38.67100 24.70100
C  49.05200 37.33200 24.65300
C  49.11000 40.64200 26.40000
C  50.38100 39.40700 23.59800
O  50.73600 38.81600 22.53600
C  50.68600 40.90100 23.72400
N  47.72900 34.49900 24.08500
C  48.29400 35.29200 23.20500
C  48.30000 34.71700 21.84400
C  47.88700 33.20800 22.03800
C  47.37900 33.32500 23.49700
C  47.35100 35.56000 20.85100
C  49.02900 32.28300 21.67200
C  50.31200 32.32000 22.52400
N  46.45000 33.33600 26.36700
C  46.14700 32.31800 25.46700
C  45.32900 31.30900 26.13000
C  45.11500 31.85200 27.42900
C  45.88800 33.06400 27.49900
C  44.83300 29.98600 25.46700
C  44.43200 31.70200 28.66100
O  43.63500 30.84700 29.06900
C  44.85900 32.87100 29.55000
C  45.35200 32.42500 30.89400
O  46.51800 31.97600 31.14100
O  44.32800 32.32000 31.84200
C  44.61300 32.33200 33.28900
H  48.38300 38.87300 28.63200
H  49.53500 36.88700 22.65500
H  46.16800 31.43600 23.63300
H  45.73000 35.61000 30.97900
H  47.46200 37.71400 30.65500
H  44.65800 37.54200 30.55400
H  45.30400 38.23700 29.06400
H  45.78500 38.84400 30.74900
H  48.72100 35.68400 30.85400
H  48.13200 34.09600 30.86500
H  48.72400 35.35900 32.96800
H  47.65300 34.08500 33.02900
H  48.61400 41.23100 25.62800
H  50.10700 41.01300 26.64100
H  48.60400 40.74200 27.36000
H  51.10200 41.22600 24.67800
H  49.65600 41.24900 23.79400
H  51.24800 41.33600 22.89700
H  49.30100 34.77500 21.41700
H  47.01500 32.98500 21.42200
H  46.76000 34.87100 20.24800
H  48.06300 36.18100 20.30700
H  46.61200 36.16000 21.38200
H  49.41300 32.65000 20.72000
H  48.58900 31.29000 21.57200
H  50.61000 31.28700 22.70400
H  50.09900 32.72800 23.51200
H  51.11400 32.87700 22.04000
H  45.58200 29.45100 24.88400
H  44.08400 30.31000 24.74400
H  44.42000 29.29700 26.20400
H  43.99400 33.49600 29.77100
H  45.69400 32.26200 33.40200
H  44.16500 31.45600 33.75900
H  44.29600 33.31000 33.65000

