158

Mg 35.65800 1.20800 30.25700
C  33.44900 2.42700 32.71100
C  38.07200 1.31300 32.72800
C  37.78700 0.12200 27.98300
C  33.15600 1.59000 27.79000
N  35.68500 1.77500 32.43500
C  34.71200 2.20800 33.21500
C  35.11000 2.28000 34.68500
C  36.63300 1.98400 34.63200
C  36.84000 1.70900 33.15100
C  37.55700 3.16600 35.21300
C  34.39500 1.18000 35.51100
C  34.02700 1.48600 36.96900
H  34.80600 2.60300 37.62900
N  37.55200 0.68500 30.37400
C  38.39300 0.79000 31.47400
C  39.73200 0.41300 31.11900
C  39.68200 0.10000 29.68500
C  38.28200 0.24800 29.26400
C  40.89600 0.35200 32.09200
C  40.89500 -0.22000 28.76100
O  40.80800 -0.56500 27.60700
C  42.34600 -0.07700 29.27500
N  35.58100 1.05500 28.09100
C  36.55000 0.47700 27.42000
C  36.17900 0.34400 25.88900
C  34.71000 0.83400 25.86800
C  34.40100 1.24100 27.26700
C  37.09700 1.18000 24.96700
C  33.64200 -0.21500 25.23600
C  33.10800 0.24700 23.86800
N  33.69900 1.92800 30.13100
C  32.77600 1.98600 29.10600
C  31.46300 2.48500 29.61500
C  31.79100 2.71300 31.01100
C  33.09000 2.31500 31.29600
C  30.23000 2.71700 28.92600
C  31.18100 3.20300 32.21300
O  30.12300 3.74100 32.38300
C  32.14100 2.94700 33.39000
C  32.22900 4.24400 34.10500
O  32.52600 5.32000 33.66400
O  31.66800 4.01600 35.35300
C  31.26000 5.19000 36.11200
H  38.75000 1.24500 33.58100
H  38.51400 -0.08900 27.19500
H  32.30100 1.48900 27.11800
H  35.02700 3.24900 35.17600
H  36.89800 1.04000 35.10800
H  36.99500 3.79700 35.90300
H  37.87200 3.94000 34.51300
H  38.51700 2.88500 35.64500
H  34.92000 0.22600 35.47700
H  33.41700 0.96300 35.08200
H  34.26700 0.65200 37.62900
H  32.94800 1.62200 37.03500
H  41.37200 1.32300 31.95100
H  41.57500 -0.45400 31.81400
H  40.60700 0.26300 33.13900
H  43.04200 -0.01500 28.43800
H  42.60300 -0.89800 29.94500
H  42.45100 0.79400 29.92200
H  36.24800 -0.71900 25.65600
H  34.72600 1.74100 25.26400
H  37.77500 0.58100 24.36000
H  37.63100 1.89100 25.59900
H  36.60200 1.68100 24.13500
H  32.74100 -0.29700 25.84500
H  34.09400 -1.20600 25.18800
H  33.65600 1.09700 23.46100
H  32.06200 0.53900 23.96900
H  33.04800 -0.51900 23.09500
H  30.39000 3.13300 27.93100
H  29.65600 3.48200 29.44800
H  29.69800 1.79300 28.69800
H  31.70400 2.19500 34.04700
H  32.08100 5.48800 36.76400
H  30.44500 4.74800 36.68400
H  30.95300 6.05500 35.52400
Mg 47.82500 15.07800 28.75900
C  45.67200 15.08700 31.48000
C  49.86700 17.21100 30.62200
C  49.78600 15.20600 26.08400
C  45.47700 13.23600 26.95900
N  47.64600 16.15000 30.86000
C  46.79000 15.83700 31.75600
C  47.15600 16.52800 33.08900
C  48.42800 17.34900 32.78900
C  48.62000 16.97800 31.30600
C  48.23300 18.96100 33.01000
C  47.42400 15.30800 34.05600
C  46.65100 15.46400 35.39000
H  47.53800 16.21700 36.42900
N  49.55800 15.95900 28.43300
C  50.29200 16.73900 29.32300
C  51.65300 16.85800 28.78100
C  51.63000 16.43700 27.48800
C  50.31300 15.83700 27.27400
C  52.71400 17.39300 29.60400
C  52.67900 16.46800 26.44500
O  52.54400 15.89700 25.38100
C  53.93500 17.25100 26.78200
N  47.55800 14.48000 26.68500
C  48.56200 14.62900 25.76900
C  48.22400 13.95200 24.46900
C  46.91000 13.19500 24.85600
C  46.59900 13.64600 26.28000
C  48.20700 14.84500 23.22400
C  47.05000 11.69500 24.52400
C  47.64000 10.79700 25.69900
N  45.92800 14.32700 29.07100
C  45.11200 13.54600 28.31300
C  43.86800 13.21300 29.03200
C  44.02800 13.86200 30.27000
C  45.29800 14.45900 30.27200
C  42.77000 12.33500 28.55800
C  43.44000 14.09400 31.59900
O  42.40300 13.67600 32.07200
C  44.50700 14.85600 32.36100
C  43.91900 16.12800 32.87800
O  43.91200 17.21000 32.36600
O  43.36900 15.75800 34.09900
C  42.75500 16.78600 34.97100
H  50.50800 17.92800 31.13900
H  50.47800 15.12700 25.24300
H  44.79100 12.64300 26.35100
H  46.37500 17.23500 33.36800
H  49.26200 17.05400 33.42600
H  47.22200 19.25900 33.29000
H  48.60900 19.48200 32.12900
H  48.90000 19.16100 33.84800
H  48.48600 15.25000 34.29100
H  47.34600 14.34000 33.56000
H  46.43300 14.45000 35.72300
H  45.73900 16.03200 35.20600
H  53.08200 18.33900 29.20600
H  53.55400 16.69900 29.63400
H  52.41400 17.59200 30.63300
H  54.39900 16.71100 27.60700
H  53.72600 18.29200 27.02800
H  54.67600 17.21700 25.98300
H  49.06300 13.25600 24.44700
H  46.06600 13.51900 24.24700
H  48.69400 14.36400 22.37600
H  48.57400 15.86000 23.38000
H  47.16800 15.01600 22.94300
H  47.63700 11.56500 23.61400
H  46.01900 11.42700 24.29200
H  47.88000 11.41400 26.56500
H  48.63800 10.49700 25.38000
H  47.06000 9.92200 25.99100
H  42.37400 12.58400 27.57400
H  42.00700 12.38700 29.33500
H  43.10500 11.29800 28.57800
H  44.90400 14.35700 33.24400
H  43.40000 17.05500 35.80700
H  41.82700 16.29200 35.26100
H  42.48300 17.66600 34.38700

