158

Mg 6.06200 54.43700 41.10900
C  5.22700 51.11500 40.77700
C  9.10400 53.88800 39.47200
C  6.45800 57.79600 40.46700
C  2.77800 55.14400 42.00800
N  6.96700 52.73500 40.01200
C  6.48600 51.44400 40.13600
C  7.58300 50.40200 39.57200
C  8.80500 51.34100 39.54400
C  8.29800 52.75100 39.62600
C  9.87200 51.21300 40.63200
C  7.26400 49.82500 38.09000
C  6.57400 50.80500 37.07000
H  7.14100 50.89600 35.67100
N  7.73400 55.68300 40.24300
C  8.85100 55.25300 39.63600
C  9.66800 56.34200 39.27700
C  8.98300 57.58400 39.62800
C  7.67500 57.08400 40.15200
C  11.13200 56.11000 38.81200
C  9.44600 59.00700 39.54400
O  10.55200 59.32800 39.01200
C  8.64800 60.16000 40.06700
N  4.79600 56.20900 41.13600
C  5.17700 57.46100 40.88400
C  4.04400 58.44800 40.93500
C  2.86600 57.60300 41.40000
C  3.48700 56.24800 41.52300
C  4.31500 59.79900 41.57800
C  1.61800 57.60900 40.49200
C  0.34200 58.09900 41.16500
N  4.42700 53.38700 41.62100
C  3.15400 53.77300 42.00600
C  2.34600 52.57100 42.30400
C  3.17600 51.52800 41.83300
C  4.37600 52.04300 41.38700
C  0.92300 52.45100 42.83400
C  3.15900 50.10700 41.64000
O  2.31700 49.22200 41.88000
C  4.64100 49.76600 41.16800
C  4.53800 48.88600 40.02100
O  4.03000 49.16400 38.94100
O  5.09400 47.66500 40.34000
C  4.93500 46.68100 39.26600
H  10.14600 53.69900 39.20500
H  6.46800 58.86300 40.23200
H  1.80100 55.42300 42.40700
H  7.75600 49.53700 40.21300
H  9.32100 51.22700 38.59100
H  9.76500 50.31400 41.23900
H  9.76900 52.04200 41.33200
H  10.86300 51.28300 40.18200
H  6.62700 48.94000 38.08800
H  8.17200 49.49800 37.58400
H  6.62800 51.78900 37.53800
H  5.53400 50.58400 36.83200
H  11.78900 56.97800 38.86900
H  11.20600 55.77000 37.77900
H  11.57800 55.34400 39.44600
H  7.84400 60.50800 39.41800
H  9.34200 60.96900 40.29300
H  8.31400 59.78200 41.03300
H  3.92900 58.51000 39.85300
H  2.51100 57.81400 42.40900
H  3.72700 60.50700 40.99400
H  5.33500 60.18000 41.62700
H  4.03700 59.79100 42.63200
H  1.49600 56.61500 40.06000
H  1.78200 58.31700 39.67900
H  -0.50000 57.51400 40.79500
H  0.24600 59.15700 40.92200
H  0.31100 57.96700 42.24700
H  0.99400 51.91600 43.78100
H  0.35000 51.90200 42.08700
H  0.36700 53.38600 42.90000
H  5.23500 49.21400 41.89600
H  5.53600 45.78800 39.43600
H  5.09400 47.07700 38.26300
H  3.89000 46.37800 39.19200
Mg -9.66000 40.27400 39.30300
C  -8.87900 36.99900 38.43500
C  -6.44100 41.15400 38.27200
C  -10.68400 43.54600 39.07100
C  -13.04600 39.36700 39.67200
N  -7.93200 39.20500 38.33700
C  -7.82700 37.84100 38.16700
C  -6.39000 37.50800 37.65500
C  -5.60200 38.80500 37.90200
C  -6.70800 39.80700 38.22100
C  -4.48200 38.63500 38.93800
C  -6.36700 36.93000 36.17800
C  -7.14900 37.75600 35.18900
H  -8.29400 37.00700 34.46200
N  -8.65800 42.04000 38.82500
C  -7.34100 42.23700 38.49600
C  -7.02000 43.64000 38.32900
C  -8.23300 44.35900 38.59700
C  -9.30000 43.30000 38.83200
C  -5.60300 44.03100 38.20300
C  -8.28900 45.85600 38.68900
O  -7.36800 46.58200 38.39100
C  -9.50600 46.61000 39.27600
N  -11.61500 41.31300 39.36100
C  -11.77900 42.67100 39.30800
C  -13.31200 43.11400 39.46800
C  -13.99300 41.73000 39.57700
C  -12.84500 40.71800 39.48300
C  -13.60100 44.18800 40.57200
C  -15.19100 41.34900 38.65900
C  -16.65100 41.28100 39.35600
N  -10.79300 38.58000 39.29100
C  -12.13900 38.36400 39.46600
C  -12.35100 36.94600 39.47100
C  -11.10800 36.39400 39.16700
C  -10.14600 37.42200 38.97300
C  -13.61900 36.26400 39.37400
C  -10.38300 35.15100 38.84500
O  -10.85500 33.97000 38.90200
C  -8.93100 35.46700 38.32500
C  -7.87900 34.74700 39.11300
O  -8.02100 34.32500 40.25500
O  -6.82800 34.45400 38.23900
C  -5.73600 33.81600 38.91300
H  -5.40100 41.39300 38.03900
H  -11.04200 44.57100 38.95500
H  -14.07600 39.03300 39.81300
H  -6.17800 36.73800 38.39600
H  -5.12900 39.25700 37.03000
H  -4.26900 37.58300 39.12700
H  -4.78400 39.12600 39.86300
H  -3.50500 38.99000 38.61000
H  -6.72200 35.90500 36.28200
H  -5.38000 36.80900 35.73000
H  -6.33400 38.01100 34.51100
H  -7.63600 38.67600 35.51200
H  -5.36300 45.08100 38.03500
H  -5.08500 43.42800 37.45800
H  -5.12900 43.83400 39.16400
H  -9.77600 45.97000 40.11500
H  -10.31200 46.70600 38.54800
H  -9.15700 47.54300 39.71900
H  -13.61100 43.49100 38.49000
H  -14.37500 41.60400 40.58900
H  -12.71500 44.77500 40.81700
H  -13.98500 43.69800 41.46700
H  -14.35700 44.91100 40.26400
H  -15.04000 40.37100 38.20100
H  -15.27700 42.04100 37.82200
H  -17.12300 40.37700 38.97000
H  -17.29700 42.02500 38.88900
H  -16.56500 41.22300 40.44100
H  -14.46100 36.94900 39.27600
H  -13.78700 35.66400 40.26900
H  -13.67900 35.67900 38.45600
H  -8.95000 35.09000 37.30300
H  -5.92800 32.77100 39.15600
H  -5.35300 34.38300 39.76200
H  -4.91400 33.93300 38.20700

