158

Mg 24.52000 -6.94000 46.63200
C  27.06200 -4.82300 45.46500
C  22.31500 -5.25100 44.54500
C  22.31000 -9.41600 47.15300
C  26.95700 -8.72000 48.41700
N  24.71300 -5.32600 45.12000
C  25.85900 -4.60100 44.79500
C  25.51200 -3.45900 43.88700
C  23.94400 -3.53400 43.61800
C  23.58900 -4.70600 44.50200
C  23.00600 -2.23400 43.83900
C  26.37200 -3.48900 42.54300
C  27.04400 -2.09700 42.28400
H  26.66800 -1.48900 40.95100
N  22.59300 -7.32200 45.95000
C  21.83800 -6.47800 45.11600
C  20.53400 -7.08600 44.86100
C  20.54900 -8.39000 45.54900
C  21.92200 -8.48700 46.29200
C  19.49200 -6.41000 43.99700
C  19.39700 -9.36000 45.55400
O  18.42100 -9.11600 44.80200
C  19.35400 -10.62600 46.33800
N  24.66200 -8.89700 47.53300
C  23.52400 -9.54400 47.86900
C  23.72500 -10.61700 48.93900
C  25.25600 -10.51600 49.21200
C  25.67400 -9.27400 48.42100
C  22.85200 -10.47900 50.17800
C  26.07700 -11.79800 48.94000
C  25.67700 -13.06600 49.66300
N  26.61000 -6.84700 46.97200
C  27.42700 -7.57700 47.75800
C  28.72300 -7.06000 47.74900
C  28.62900 -5.96900 46.88000
C  27.33800 -5.91400 46.38900
C  29.93000 -7.59600 48.59000
C  29.37900 -4.95000 46.23900
O  30.54400 -4.65800 46.37800
C  28.44600 -4.19600 45.24700
C  28.51800 -2.75500 45.43400
O  29.24700 -1.98800 44.88200
O  27.88000 -2.46600 46.52900
C  28.04300 -1.04600 46.94500
H  21.60600 -4.71000 43.91500
H  21.56500 -10.17200 47.40900
H  27.59600 -9.17600 49.17700
H  25.68600 -2.54900 44.46100
H  23.71800 -3.90300 42.61800
H  23.58600 -1.31900 43.71900
H  22.56600 -2.33100 44.83200
H  22.12200 -2.26500 43.20200
H  25.74200 -3.86000 41.73400
H  27.18500 -4.21500 42.54600
H  28.09600 -2.37500 42.21500
H  26.81200 -1.40100 43.09100
H  19.80200 -5.41600 43.67500
H  18.55600 -6.52200 44.54300
H  19.37500 -6.84600 43.00500
H  20.29100 -11.17900 46.28400
H  18.57800 -11.30200 45.98000
H  19.15200 -10.48600 47.40000
H  23.42700 -11.51600 48.39800
H  25.46000 -10.24600 50.24900
H  21.82600 -10.14600 50.02400
H  23.26700 -9.92400 51.01900
H  22.68100 -11.51900 50.45500
H  27.10900 -11.59800 49.22900
H  26.10700 -11.94500 47.86000
H  25.28000 -13.71800 48.88400
H  24.93300 -12.85800 50.43300
H  26.55500 -13.38500 50.22500
H  30.45700 -6.74200 49.01700
H  30.62600 -8.10600 47.92400
H  29.58500 -8.30700 49.34000
H  28.79600 -4.31100 44.22100
H  28.09900 -0.33300 46.12200
H  28.98300 -1.11800 47.49200
H  27.32700 -0.82400 47.73600
Mg 39.89400 8.99800 29.16100
C  41.88900 10.30000 31.84000
C  37.88800 7.57900 31.52100
C  38.47800 7.44100 26.62800
C  42.56700 9.96700 26.96800
N  39.93400 9.00900 31.41800
C  40.73900 9.64500 32.30000
C  40.24400 9.47400 33.74100
C  39.02800 8.52400 33.62700
C  38.97400 8.27000 32.08700
C  38.87800 7.21000 34.42900
C  39.87800 10.86000 34.34600
C  38.74200 11.01200 35.39800
H  39.14300 11.79600 36.60700
N  38.34000 7.79900 29.02400
C  37.57100 7.43800 30.11100
C  36.48300 6.62000 29.61100
C  36.53400 6.69000 28.17200
C  37.86900 7.22500 27.87200
C  35.49100 5.85700 30.47300
C  35.56500 6.11000 27.15300
O  35.93200 5.98700 26.01900
C  34.17000 5.63100 27.46400
N  40.44200 8.67900 27.17700
C  39.63900 8.06000 26.26900
C  40.05300 8.27900 24.80500
C  41.39400 9.10500 24.89600
C  41.54200 9.25300 26.42900
C  40.20900 6.96100 24.03200
C  41.27000 10.50100 24.13000
C  40.09300 11.42500 24.50200
N  41.84800 9.97800 29.31900
C  42.82700 10.22500 28.36300
C  43.95500 10.97700 28.94900
C  43.61300 11.00600 30.31500
C  42.36300 10.41100 30.47100
C  45.22000 11.43400 28.31200
C  44.00000 11.47500 31.66400
O  44.93300 12.14800 32.07400
C  42.95700 11.04400 32.59600
C  43.50400 10.25800 33.70100
O  43.55600 9.03300 33.79500
O  43.64800 11.07400 34.81100
C  43.99100 10.56400 36.17100
H  37.10300 7.21900 32.19000
H  37.83800 7.13500 25.79800
H  43.33500 10.39000 26.31700
H  41.05600 9.01000 34.30100
H  38.13800 9.12100 33.82200
H  39.39900 6.42300 33.88300
H  37.82200 7.00300 34.60000
H  39.39000 7.29900 35.38700
H  39.96000 11.58700 33.53700
H  40.77400 11.00100 34.95000
H  38.39800 10.07100 35.82800
H  37.91000 11.50400 34.89300
H  35.58500 4.90100 29.95800
H  34.47700 6.24900 30.39000
H  35.68000 5.68200 31.53200
H  33.80900 6.45700 28.07700
H  34.26800 4.62800 27.87900
H  33.59800 5.57800 26.53700
H  39.23500 8.84000 24.35300
H  42.31600 8.70300 24.47500
H  39.61300 7.02100 23.12200
H  39.84500 6.17000 24.68800
H  41.22000 6.66600 23.75100
H  41.15000 10.35200 23.05700
H  42.15000 11.08700 24.39600
H  40.37700 12.44400 24.76600
H  39.69100 11.20500 25.49100
H  39.33100 11.34600 23.72700
H  45.25400 11.32000 27.22800
H  46.09200 11.02900 28.82600
H  45.23900 12.49400 28.56400
H  42.43000 11.91600 32.98200
H  43.06600 10.60000 36.74500
H  44.73000 11.16200 36.70500
H  44.23600 9.50300 36.12100

