158

Mg 2.34500 -1.94200 44.07200
C  5.83300 -0.98300 43.90400
C  1.77600 0.91500 42.00600
C  -0.73500 -2.92300 43.70300
C  3.47100 -5.08500 45.30300
N  3.71600 -0.27200 42.96400
C  5.10000 -0.04900 43.16200
C  5.53300 1.19600 42.34200
C  4.20100 1.89700 41.90100
C  3.17200 0.76700 42.23600
C  3.83100 3.22800 42.67400
C  6.50400 0.97200 41.13600
C  6.04900 -0.03400 40.10700
H  5.46800 0.44400 38.72000
N  0.69300 -1.17500 42.95000
C  0.64300 0.01100 42.27900
C  -0.69900 0.16000 41.81500
C  -1.52200 -0.90400 42.32100
C  -0.52400 -1.77300 43.05200
C  -1.07000 1.42400 41.14600
C  -2.97200 -1.10300 42.26600
O  -3.62200 -0.30900 41.60600
C  -3.73000 -2.16300 43.03900
N  1.51800 -3.83800 44.43500
C  0.12300 -3.89800 44.32500
C  -0.28600 -5.35300 44.76200
C  1.00700 -6.00100 45.34900
C  2.04500 -4.94000 45.01900
C  -1.49100 -5.57300 45.65200
C  1.31700 -7.32500 44.66700
C  0.79400 -8.56400 45.16900
N  4.20700 -2.88300 44.60200
C  4.44500 -4.12000 45.11100
C  5.89400 -4.28000 45.39900
C  6.46900 -3.00200 45.03500
C  5.43100 -2.25700 44.48700
C  6.53600 -5.52800 45.93800
C  7.67400 -2.30600 44.88300
O  8.81800 -2.66300 45.09600
C  7.34700 -0.96600 44.10200
C  7.76800 0.24100 44.86000
O  7.34500 0.49600 45.97800
O  8.69500 0.89200 44.17400
C  9.06000 2.19800 44.72600
H  1.73100 1.82900 41.41000
H  -1.72900 -3.34300 43.53300
H  3.88800 -5.94800 45.82400
H  6.08500 1.85800 43.00900
H  4.26100 2.12900 40.83800
H  2.84800 3.19300 43.14400
H  3.86300 4.11100 42.03600
H  4.63700 3.32200 43.40200
H  7.45100 0.67100 41.58400
H  6.58700 1.94600 40.65400
H  5.31900 -0.76500 40.45500
H  6.89900 -0.64500 39.80400
H  -2.12600 1.33300 40.88900
H  -0.66600 1.39000 40.13400
H  -0.81000 2.27900 41.76900
H  -4.78500 -1.91400 43.14500
H  -3.31700 -2.01000 44.03600
H  -3.53600 -3.13300 42.58000
H  -0.45400 -5.77500 43.77100
H  0.90300 -6.06100 46.43200
H  -1.48400 -6.54200 46.15000
H  -2.38000 -5.53500 45.02300
H  -1.61800 -4.70100 46.29300
H  2.36200 -7.62700 44.74800
H  1.06900 -7.33300 43.60600
H  1.60900 -9.11600 45.63700
H  0.29100 -9.09600 44.36200
H  0.05800 -8.53900 45.97300
H  6.22300 -6.44000 45.42900
H  6.10400 -5.74100 46.91600
H  7.62400 -5.57500 46.00200
H  7.94500 -0.98100 43.19100
H  8.33100 2.77100 45.29800
H  9.40400 2.83000 43.90800
H  9.89300 2.03900 45.41200
Mg 26.51800 50.71000 25.91700
C  24.68700 51.92900 28.64200
C  28.59300 49.06400 28.14000
C  28.65700 50.10900 23.36500
C  24.44700 52.54800 23.79600
N  26.53800 50.36700 28.13600
C  25.71800 51.06700 29.04800
C  26.16700 50.75600 30.44700
C  27.52900 50.02000 30.24600
C  27.56400 49.76100 28.78100
C  28.89900 50.65200 30.86100
C  24.98100 49.86300 31.10900
C  24.40000 50.38300 32.44100
H  24.62700 49.46000 33.70500
N  28.31600 49.64600 25.70200
C  28.91700 49.01200 26.74300
C  30.15200 48.45600 26.25800
C  30.25500 48.83700 24.86500
C  29.08500 49.63000 24.54500
C  31.18100 47.68900 27.00000
C  31.34200 48.41400 23.77000
O  31.29800 48.75200 22.58900
C  32.34000 47.42200 24.13200
N  26.52800 51.19200 23.91200
C  27.53400 50.84700 23.04900
C  27.34100 51.36700 21.67400
C  25.91400 52.03500 21.65300
C  25.51800 51.89200 23.21200
C  28.41300 52.32000 21.21100
C  24.84700 51.39900 20.73900
C  23.75600 52.30300 20.08200
N  24.89400 51.91900 26.15700
C  24.09500 52.64600 25.20300
C  22.98000 53.39900 25.83800
C  23.21200 53.08400 27.18000
C  24.29600 52.18000 27.31400
C  21.98600 54.14100 25.07700
C  22.75100 53.38400 28.51300
O  21.81100 54.05500 28.92100
C  23.70800 52.76400 29.54600
C  24.36700 53.77400 30.37100
O  25.46000 54.26000 30.12800
O  23.61500 54.05100 31.45500
C  24.21500 54.99200 32.37400
H  29.23900 48.57000 28.86900
H  29.28900 49.97300 22.48400
H  23.75600 53.01900 23.09400
H  26.34400 51.64800 31.04700
H  27.42800 49.09900 30.81900
H  29.41900 49.93000 31.49100
H  28.57900 51.47400 31.50200
H  29.44900 51.04700 30.00700
H  25.30800 48.85600 31.36600
H  24.18500 49.71100 30.38000
H  23.31900 50.49300 32.35000
H  24.78600 51.34700 32.77200
H  30.82000 47.37300 27.97900
H  32.03800 48.34500 27.15400
H  31.41500 46.86400 26.32700
H  32.99700 47.35000 23.26600
H  31.92100 46.42900 24.29900
H  32.83000 47.79600 25.03100
H  27.33400 50.50400 21.00900
H  25.98000 53.09000 21.38800
H  28.20700 53.35500 20.93900
H  28.84400 51.90800 20.29800
H  29.24900 52.42400 21.90200
H  24.35700 50.54000 21.19700
H  25.44300 50.90200 19.97300
H  23.85800 53.31300 20.47900
H  22.77000 51.91600 20.33900
H  23.92400 52.26300 19.00600
H  21.64700 53.47900 24.28000
H  22.65700 54.88000 24.64000
H  21.18700 54.65800 25.61000
H  23.19300 52.00800 30.13800
H  25.17000 54.55000 32.65900
H  23.45600 54.99500 33.15500
H  24.31800 55.99200 31.95400

