158

Mg 54.35800 23.99700 44.08300
C  51.37700 25.99300 43.81200
C  52.32200 21.22100 43.80400
C  57.07400 22.03200 44.12800
C  56.10300 26.76000 44.81500
N  52.13200 23.68700 43.78800
C  51.07200 24.60400 43.69400
C  49.73600 23.94900 43.73800
C  50.08600 22.49100 44.15200
C  51.63200 22.43900 43.90200
C  49.75100 22.07700 45.61000
C  48.94100 24.05400 42.38500
C  49.62300 23.77700 41.06700
H  49.49500 24.58200 39.78100
N  54.66500 21.85900 43.73900
C  53.69400 20.88300 43.73400
C  54.32100 19.56500 43.63800
C  55.73600 19.79800 43.87300
C  55.93600 21.24600 43.90800
C  53.58900 18.23600 43.50900
C  56.83000 18.68700 44.10100
O  56.49900 17.52900 44.00900
C  58.26300 19.00900 44.42400
N  56.32300 24.39400 44.16300
C  57.23300 23.41800 44.34400
C  58.62400 23.93500 44.72500
C  58.32500 25.45100 45.01400
C  56.81400 25.54300 44.69800
C  59.44100 23.24500 45.84200
C  59.18900 26.39700 44.10800
C  59.44900 27.77900 44.73400
N  53.94400 26.03800 44.24800
C  54.77400 27.03300 44.49800
C  53.96700 28.25400 44.65400
C  52.68600 27.96600 44.37300
C  52.72400 26.57200 44.08100
C  54.50900 29.55800 45.09300
C  51.36700 28.44200 44.23200
O  50.94900 29.53500 44.46100
C  50.43400 27.23000 43.81900
C  49.95700 27.47300 42.41800
O  50.45700 27.04500 41.39900
O  48.81700 28.21500 42.60700
C  48.07900 28.51300 41.38700
H  51.64100 20.36800 43.78400
H  57.92000 21.34700 44.03100
H  56.54200 27.69400 45.17300
H  49.17200 24.50100 44.49000
H  49.59400 21.76900 43.50000
H  50.63900 22.27500 46.21000
H  49.52000 21.01100 45.61900
H  48.92800 22.64800 46.03900
H  48.47500 25.03900 42.36300
H  48.22000 23.24800 42.52600
H  49.38500 22.72700 40.89700
H  50.67500 23.62600 41.31000
H  52.53300 18.46400 43.36900
H  53.77200 17.67900 44.42800
H  54.03700 17.70900 42.66600
H  58.83400 18.16300 44.80700
H  58.19200 19.79500 45.17500
H  58.73200 19.35700 43.50400
H  59.14000 23.75200 43.78200
H  58.49700 25.70900 46.05900
H  59.23100 23.90600 46.68300
H  60.47400 23.34800 45.51100
H  59.07600 22.21800 45.86700
H  58.50000 26.53100 43.27400
H  60.05300 25.87300 43.70000
H  59.16000 28.57700 44.05100
H  60.48700 27.85700 45.05800
H  58.87400 27.96300 45.64100
H  53.68700 30.17400 45.45800
H  55.01500 30.00100 44.23500
H  55.23000 29.38400 45.89200
H  49.63100 27.12800 44.55000
H  47.16700 29.04100 41.66300
H  47.73500 27.60600 40.89000
H  48.65600 29.22600 40.79900
Mg 6.48800 54.23700 41.94000
C  5.75300 50.89700 41.31500
C  9.14800 54.04400 39.93200
C  6.55800 57.67300 41.90200
C  3.05600 54.59600 43.27700
N  7.10400 52.81400 40.39600
C  6.83200 51.45300 40.53600
C  7.74000 50.58600 39.66600
C  9.00600 51.46100 39.81500
C  8.41000 52.83900 39.93100
C  9.93600 51.00400 40.95900
C  7.33500 50.49900 38.20000
C  8.10500 49.33200 37.43500
H  7.35500 48.44700 36.44700
N  7.71800 55.66800 41.10400
C  8.78300 55.37900 40.26900
C  9.56800 56.54400 40.05800
C  8.88200 57.59500 40.63900
C  7.63800 57.06900 41.21900
C  10.97200 56.51600 39.56000
C  9.38100 59.10000 40.79500
O  10.42700 59.42000 40.31500
C  8.61400 60.07300 41.60600
N  4.94600 55.91000 42.36600
C  5.37300 57.18500 42.49600
C  4.33300 58.10200 43.16900
C  3.17400 57.11900 43.33500
C  3.69700 55.77600 42.94400
C  4.84400 58.77000 44.45200
C  1.94900 57.46300 42.50800
C  1.26300 58.87300 42.73900
N  4.76900 53.03100 42.34800
C  3.54300 53.30800 42.99900
C  2.93000 52.01200 43.28700
C  3.73800 51.03100 42.72800
C  4.89200 51.65400 42.12800
C  1.58800 51.80900 43.97300
C  3.91200 49.61100 42.48300
O  3.26900 48.64300 42.84800
C  5.24000 49.49800 41.41400
C  4.67300 48.99800 40.16300
O  3.91300 49.64400 39.40900
O  5.08000 47.71800 39.96500
C  4.55800 46.98900 38.83000
H  10.13000 53.85900 39.49100
H  6.44400 58.74700 42.06300
H  2.11800 54.73900 43.81600
H  7.74400 49.64700 40.21900
H  9.59300 51.43200 38.89700
H  9.65800 50.00700 41.30000
H  9.92000 51.69400 41.80300
H  10.98100 50.98400 40.65200
H  7.59100 51.45300 37.73900
H  6.24700 50.54600 38.16700
H  8.57000 48.65500 38.15200
H  8.89800 49.83400 36.88100
H  11.11800 55.71100 38.83900
H  11.67200 56.24800 40.35100
H  11.33400 57.45800 39.14600
H  9.05800 61.05300 41.43600
H  8.70100 59.73000 42.63700
H  7.56700 60.25400 41.36300
H  4.06300 58.90100 42.47800
H  2.90300 57.05000 44.38900
H  4.62700 58.20100 45.35600
H  4.37300 59.72700 44.67200
H  5.92500 58.87500 44.54400
H  1.21900 56.68400 42.72800
H  2.22800 57.39300 41.45700
H  1.38200 59.48000 41.84200
H  1.67000 59.38600 43.61100
H  0.22500 58.68200 43.01300
H  0.95400 52.64700 43.68300
H  1.82500 51.73400 45.03400
H  1.07100 50.90100 43.66200
H  5.99600 48.78200 41.73900
H  4.95600 47.25600 37.85100
H  3.47000 46.94900 38.78800
H  4.76800 45.92700 38.95900

