158

Mg 26.63800 49.91400 26.62300
C  24.66100 50.90900 29.33400
C  28.97900 48.83900 28.66400
C  28.41100 48.80000 23.90500
C  24.16800 51.32400 24.43300
N  26.75900 49.92900 28.75600
C  25.83700 50.33200 29.73700
C  26.45000 50.16400 31.12300
C  27.82600 49.52500 30.90200
C  27.87300 49.45300 29.32800
C  29.09400 50.26000 31.49600
C  25.50300 49.24900 31.98600
C  24.90700 49.83500 33.29900
H  25.88400 50.02000 34.51100
N  28.52500 48.92500 26.36100
C  29.34300 48.59300 27.37200
C  30.57600 48.05300 26.81100
C  30.40400 48.17700 25.40100
C  29.04700 48.62500 25.13000
C  31.73500 47.62900 27.68900
C  31.47900 47.96100 24.35400
O  31.32600 48.23900 23.15100
C  32.81600 47.68000 24.80800
N  26.40300 50.14200 24.42800
C  27.21400 49.51000 23.57000
C  26.80600 49.75600 22.10500
C  25.50900 50.60300 22.26000
C  25.34700 50.72100 23.82000
C  27.81400 50.63600 21.30200
C  24.20900 50.01300 21.58000
C  23.24200 51.15200 21.18800
N  24.86300 50.89400 26.77600
C  23.96800 51.40900 25.80600
C  22.87500 52.07600 26.44600
C  23.04500 51.80300 27.80500
C  24.23800 51.09700 27.99900
C  21.81200 52.97900 25.80900
C  22.44300 52.13600 29.05400
O  21.44000 52.76300 29.29800
C  23.53500 51.52300 30.13800
C  23.91600 52.64000 31.04900
O  24.86000 53.35300 30.93500
O  22.97100 52.81000 32.00700
C  23.32700 53.64700 33.14700
H  29.68500 48.42400 29.38700
H  28.85600 48.42400 22.98100
H  23.41400 51.88200 23.87500
H  26.43400 51.16100 31.56300
H  27.71600 48.48500 31.21100
H  28.82800 51.30200 31.67300
H  29.93000 50.24200 30.79700
H  29.47300 49.84200 32.42800
H  26.07000 48.35600 32.24700
H  24.71200 48.93100 31.30600
H  24.09200 49.20400 33.65300
H  24.55000 50.82200 33.00300
H  32.63200 48.22100 27.50400
H  31.98200 46.63000 27.33000
H  31.52200 47.55800 28.75500
H  33.07000 48.45700 25.52900
H  33.51900 47.72200 23.97600
H  32.85000 46.63600 25.12100
H  26.73400 48.80300 21.58100
H  25.68200 51.65300 22.02400
H  28.51400 51.22000 21.89900
H  27.34500 51.39700 20.67800
H  28.25700 49.95600 20.57500
H  23.70000 49.42800 22.34600
H  24.41000 49.44400 20.67300
H  22.34800 51.22400 21.80900
H  23.04900 51.06200 20.11900
H  23.85000 52.05500 21.23700
H  21.19900 52.34900 25.16400
H  22.21700 53.82800 25.25900
H  21.25000 53.48100 26.59600
H  23.09600 50.75500 30.77600
H  24.16100 53.12900 33.62000
H  22.47300 53.67500 33.82300
H  23.56700 54.65600 32.81100
Mg -1.79800 34.00700 27.50200
C  -3.43600 32.22500 29.90400
C  -0.57100 36.11100 30.01400
C  -0.11600 35.82300 25.21400
C  -3.57100 32.30900 25.02800
N  -2.27100 34.35900 29.74400
C  -2.74100 33.29600 30.45900
C  -2.42400 33.54900 31.94400
C  -1.62300 34.87100 31.93100
C  -1.42000 35.07900 30.42600
C  -2.31600 36.12400 32.65000
C  -1.69300 32.31000 32.59100
C  -2.31000 31.81800 33.93900
H  -1.50900 31.73600 35.28300
N  -0.48700 35.71400 27.65200
C  -0.12800 36.37600 28.72600
C  0.84200 37.39800 28.31500
C  0.86300 37.44700 26.89100
C  0.04900 36.26900 26.55700
C  1.56800 38.26700 29.37600
C  1.48800 38.36500 25.85900
O  1.53400 38.19500 24.66900
C  2.28900 39.51200 26.35200
N  -1.97100 34.08300 25.37500
C  -1.06400 34.88600 24.66600
C  -1.27500 34.70800 23.12300
C  -2.43900 33.66200 23.03100
C  -2.72500 33.32100 24.54700
C  -1.53600 35.96700 22.25300
C  -1.93500 32.43400 22.17300
C  -1.12200 31.33000 22.85700
N  -3.14200 32.52900 27.45000
C  -3.74400 31.87100 26.37800
C  -4.43600 30.71800 26.81100
C  -4.33000 30.78700 28.19800
C  -3.61100 31.92700 28.56400
C  -5.18600 29.82100 25.85200
C  -4.72100 30.13900 29.40400
O  -5.39200 29.15000 29.65500
C  -4.19900 31.11200 30.58200
C  -5.43000 31.54300 31.26400
O  -6.38600 32.13700 30.78200
O  -5.40400 31.13000 32.56800
C  -6.35900 31.77600 33.53000
H  -0.09000 36.59700 30.86500
H  0.39600 36.29400 24.37200
H  -4.06900 31.70400 24.26700
H  -3.39400 33.74300 32.40200
H  -0.63200 34.71800 32.36000
H  -2.93800 35.71000 33.44400
H  -2.91400 36.68200 31.93000
H  -1.51200 36.69600 33.11300
H  -0.64200 32.49700 32.81200
H  -1.61200 31.47200 31.90000
H  -2.68900 30.84400 33.62800
H  -3.22000 32.38600 34.13200
H  2.57800 38.60300 29.13700
H  1.64700 37.80700 30.36000
H  0.88300 39.10300 29.51500
H  1.66800 40.08000 27.04500
H  2.59100 40.04800 25.45300
H  3.14700 39.09300 26.87900
H  -0.29500 34.33800 22.82200
H  -3.31700 34.08100 22.53900
H  -2.59100 36.21600 22.13500
H  -1.22800 35.93000 21.20800
H  -0.96700 36.82000 22.62300
H  -1.33400 32.73800 21.31500
H  -2.88200 32.12900 21.72700
H  -0.74700 31.68400 23.81800
H  -0.24900 31.09600 22.24800
H  -1.76600 30.45700 22.96000
H  -5.09800 28.78200 26.16900
H  -4.70900 29.92200 24.87800
H  -6.27200 29.91300 25.80900
H  -3.59700 30.41000 31.15900
H  -7.06600 32.40700 32.99200
H  -5.72700 32.38500 34.17600
H  -6.89200 31.05100 34.14500

