158

Mg 35.52200 48.00000 26.22000
C  35.79900 46.34500 29.30900
C  34.11900 50.68600 27.83100
C  34.93000 49.25500 23.18300
C  36.41000 44.83600 24.73100
N  35.00800 48.48400 28.30900
C  35.33600 47.70100 29.40000
C  35.07900 48.46700 30.71000
C  34.11100 49.60500 30.23000
C  34.50600 49.69200 28.72700
C  32.53100 49.37900 30.31300
C  36.48300 48.94400 31.26800
C  36.61600 48.85400 32.81700
H  35.75200 49.87600 33.74700
N  34.72600 49.80300 25.59100
C  34.16400 50.78200 26.40100
C  33.69300 51.89100 25.63700
C  34.00100 51.51000 24.24000
C  34.59100 50.15400 24.29200
C  33.13000 53.19800 26.18400
C  33.70300 52.22000 22.99000
O  34.07000 51.72200 21.94600
C  32.82400 53.50100 22.98300
N  35.57300 47.12200 24.25500
C  35.42700 47.90000 23.14100
C  35.72200 47.17500 21.82800
C  36.22100 45.78600 22.34400
C  36.05700 45.85900 23.84600
C  34.41200 47.16200 20.86000
C  37.71400 45.49500 22.00900
C  38.07900 45.39300 20.47500
N  36.03100 45.98000 26.89000
C  36.44600 44.90900 26.12600
C  36.83000 43.83600 26.99600
C  36.58200 44.37600 28.31300
C  36.02700 45.64400 28.19300
C  37.41000 42.49200 26.54300
C  36.77400 44.13000 29.77400
O  37.28100 43.29000 30.51500
C  36.24600 45.45000 30.40000
C  35.19000 44.97900 31.32300
O  34.25800 44.29600 30.97700
O  35.60900 45.24800 32.65300
C  34.52200 44.84200 33.62600
H  33.62300 51.49300 28.37500
H  34.94800 49.59900 22.14600
H  36.71500 43.91800 24.22500
H  34.46600 48.05900 31.51300
H  34.31300 50.57100 30.69100
H  32.26700 48.59600 31.02400
H  31.99600 49.15500 29.39000
H  32.00300 50.25600 30.68600
H  36.64900 49.99500 31.03000
H  37.26600 48.33100 30.82200
H  37.66300 49.07100 33.02900
H  36.28200 47.88500 33.18800
H  34.00600 53.80300 25.95200
H  32.96400 53.22200 27.26200
H  32.30600 53.65600 25.63700
H  31.80600 53.17100 23.19100
H  32.65600 53.87400 21.97300
H  33.17400 54.33100 23.59600
H  36.54400 47.68700 21.32600
H  35.60400 44.99000 21.92800
H  34.24800 46.12300 20.57400
H  34.58800 47.79200 19.98800
H  33.51300 47.41100 21.42500
H  38.09800 44.63200 22.55400
H  38.23000 46.35600 22.43400
H  37.14600 45.56900 19.94000
H  38.69700 44.51300 20.29600
H  38.61500 46.34000 20.41700
H  37.85300 42.54100 25.54900
H  36.61700 41.75900 26.68600
H  38.18500 42.27200 27.27800
H  37.09500 45.81700 30.97600
H  34.57700 43.76700 33.79900
H  33.48900 44.96300 33.29800
H  34.57400 45.56000 34.44400
Mg 9.70000 48.40200 25.05700
C  7.30900 49.03900 27.74600
C  12.18600 49.43300 27.03900
C  11.58800 48.29100 22.33600
C  6.81200 48.13200 22.96100
N  9.70000 49.27300 27.14800
C  8.68300 49.34300 28.07100
C  9.32300 49.55800 29.48700
C  10.70100 50.26000 29.00400
C  10.91100 49.57500 27.65100
C  10.79400 51.78000 28.97700
C  9.50400 48.14200 30.24100
C  9.38100 48.25400 31.79900
H  9.23800 47.06500 32.80800
N  11.66400 48.62800 24.72200
C  12.51000 49.02700 25.67800
C  13.83100 48.97900 25.07800
C  13.76100 48.59500 23.66400
C  12.29900 48.55100 23.48400
C  15.06700 49.24600 25.87200
C  14.79200 48.37200 22.60500
O  14.50000 48.20200 21.45500
C  16.23100 48.31500 22.94600
N  9.24600 48.26100 23.01900
C  10.27600 48.10100 22.12400
C  9.78100 47.59400 20.75400
C  8.16100 47.66900 20.91000
C  8.06600 48.04500 22.37000
C  10.27600 48.40000 19.47200
C  7.44100 46.37500 20.63300
C  8.15300 45.07700 21.10200
N  7.53900 48.43600 25.22700
C  6.53300 48.33100 24.29400
C  5.25400 48.37600 24.90000
C  5.53800 48.55800 26.25200
C  6.93000 48.67000 26.41900
C  3.82900 48.26600 24.36100
C  4.90200 48.83900 27.55000
O  3.73600 48.95100 27.86200
C  6.10100 49.06700 28.59900
C  6.00900 48.02600 29.64700
O  6.39800 46.85800 29.41700
O  5.55700 48.44100 30.85400
C  5.61700 47.35800 31.86800
H  12.96800 49.93500 27.61400
H  12.13600 48.25300 21.39200
H  5.88900 47.91300 22.42000
H  8.63900 50.23800 29.99600
H  11.49900 49.96400 29.68500
H  9.82500 52.26600 28.86700
H  11.49500 52.01800 28.17600
H  11.30600 52.12700 29.87500
H  10.47300 47.69800 30.00900
H  8.71200 47.48400 29.88500
H  8.47200 48.80400 32.04100
H  10.25600 48.82500 32.11100
H  14.90200 49.83100 26.77700
H  15.79400 49.79500 25.27200
H  15.53900 48.27900 26.04400
H  16.65100 47.53500 22.31100
H  16.21400 48.05000 24.00300
H  16.74100 49.27800 22.93600
H  10.20000 46.58800 20.75600
H  7.73400 48.46100 20.29500
H  9.45800 49.00500 19.08000
H  10.63100 47.85900 18.59600
H  11.01100 49.14900 19.76600
H  7.23100 46.25800 19.56900
H  6.45000 46.36100 21.08800
H  7.30500 44.47200 21.42200
H  8.90200 45.19800 21.88500
H  8.55500 44.55800 20.23200
H  3.73200 48.59700 23.32700
H  3.12600 48.81900 24.98400
H  3.46000 47.24400 24.43800
H  5.93000 50.08000 28.96000
H  4.76400 46.68700 31.76900
H  5.62800 47.76300 32.88000
H  6.48900 46.71100 31.76800

