158

Mg 26.21100 0.76000 29.05200
C  28.20400 0.44100 31.74900
C  23.49600 1.26900 31.17700
C  24.22000 0.64100 26.34200
C  28.91600 -0.33800 26.95900
N  25.92600 0.70100 31.30000
C  26.92800 0.81300 32.08800
C  26.50600 1.02300 33.53800
C  24.91300 1.20100 33.39500
C  24.75500 1.13500 31.86300
C  24.05200 0.25900 34.26800
C  27.23800 2.20700 34.19200
C  26.67100 2.92500 35.45000
H  27.46500 2.78400 36.72900
N  24.13800 0.95300 28.77200
C  23.20100 1.01000 29.82600
C  21.95200 0.81100 29.23600
C  22.06200 0.73000 27.82300
C  23.50500 0.87200 27.57100
C  20.64000 0.98000 29.96000
C  21.00600 0.60800 26.80200
O  21.27400 0.67100 25.62000
C  19.62700 0.29000 27.16300
N  26.51700 0.12900 26.90600
C  25.55700 0.39300 26.02200
C  25.99500 0.13500 24.58400
C  27.53200 -0.07200 24.73000
C  27.69800 -0.12800 26.29700
C  25.35300 -1.10300 23.91100
C  28.42100 1.02700 23.92200
C  28.33300 0.84700 22.43800
N  28.10000 0.21100 29.28300
C  29.09500 -0.22500 28.38200
C  30.32400 -0.49600 29.09700
C  30.03200 -0.21500 30.40200
C  28.66600 0.16200 30.50300
C  31.64900 -1.04200 28.49200
C  30.59700 -0.10300 31.74100
O  31.71700 -0.46800 32.19600
C  29.44200 0.33700 32.68500
C  29.25900 -0.64200 33.80300
O  28.82300 -1.76800 33.64700
O  29.70300 -0.23800 35.02700
C  29.76700 -1.25300 36.08600
H  22.61600 1.45300 31.79700
H  23.55900 0.51200 25.48200
H  29.72700 -0.69600 26.32200
H  26.74800 0.13900 34.12700
H  24.48400 2.19000 33.55200
H  23.70600 -0.64600 33.76700
H  23.17100 0.87100 34.46100
H  24.53300 0.07100 35.22800
H  27.58700 2.92900 33.45400
H  28.10200 1.71000 34.63500
H  25.62300 2.66500 35.60300
H  26.67000 3.96800 35.13200
H  20.07500 1.76200 29.45300
H  20.74200 1.20400 31.02200
H  19.98500 0.11400 29.87200
H  19.07300 1.19100 27.42800
H  19.71600 -0.43300 27.97400
H  19.12000 -0.17400 26.31700
H  25.76100 1.08900 24.11100
H  27.77800 -1.08700 24.41800
H  24.66700 -1.61400 24.58700
H  26.01500 -1.81900 23.42400
H  24.71000 -0.72200 23.11800
H  29.45000 0.78900 24.19200
H  28.18100 2.04600 24.22300
H  28.35500 1.74600 21.82200
H  27.48500 0.24900 22.10300
H  29.23400 0.32200 22.12300
H  31.55100 -2.12600 28.42100
H  32.45600 -0.87100 29.20500
H  31.85800 -0.72600 27.47000
H  29.62200 1.27400 33.21300
H  30.80400 -1.27600 36.42100
H  29.39900 -2.23200 35.77900
H  29.02100 -0.99300 36.83600
Mg 26.34900 50.70500 26.94500
C  24.04200 51.92300 29.32100
C  28.32300 49.72400 29.61400
C  28.65500 49.88200 24.76400
C  24.29500 52.01200 24.43600
N  26.20000 50.83100 29.17100
C  25.12500 51.22200 29.90500
C  25.18100 50.71100 31.35100
C  26.72200 50.28500 31.46100
C  27.10200 50.20200 29.99500
C  27.64800 51.13100 32.35000
C  24.20800 49.61800 31.76000
C  23.98300 49.21100 33.22300
H  24.39700 50.20800 34.40400
N  28.19800 49.92900 27.17500
C  28.87000 49.58000 28.32900
C  30.19000 49.06000 27.90000
C  30.29200 49.06600 26.47200
C  29.00600 49.68900 26.06900
C  31.20800 48.75200 28.95500
C  31.49100 48.68100 25.61000
O  31.58400 48.95600 24.43000
C  32.56200 48.01500 26.26300
N  26.49000 50.97700 24.90200
C  27.51700 50.45400 24.17600
C  27.19000 50.34400 22.67600
C  25.82100 50.98800 22.58700
C  25.51300 51.42000 24.02800
C  28.27300 50.89500 21.73200
C  24.69900 50.06300 21.95600
C  23.66100 50.67700 20.98400
N  24.60900 51.91500 26.80000
C  23.91500 52.42600 25.71400
C  22.81000 53.16400 26.18800
C  22.76900 52.97500 27.57300
C  23.87600 52.20900 27.89600
C  21.86400 53.84300 25.34800
C  22.05100 53.27900 28.83000
O  21.05500 53.94200 28.98100
C  22.84500 52.54700 30.02100
C  23.30700 53.61600 30.94200
O  24.34800 54.26300 30.84500
O  22.43100 53.76400 32.10900
C  22.87000 54.77500 33.06300
H  28.86100 49.46100 30.52800
H  29.34600 49.47600 24.02200
H  23.59200 52.31500 23.65700
H  24.90700 51.54100 32.00100
H  26.85300 49.27700 31.85600
H  27.02600 51.41800 33.19800
H  28.14500 51.97100 31.86400
H  28.45900 50.49100 32.69600
H  24.29600 48.66400 31.24100
H  23.22900 50.04300 31.53700
H  24.61200 48.32400 33.29900
H  22.91300 49.15500 33.42600
H  31.00100 49.46600 29.75200
H  32.22700 49.00200 28.66000
H  31.15800 47.74500 29.37100
H  32.18100 47.20700 26.88700
H  33.22400 48.69700 26.79700
H  33.28600 47.59600 25.56400
H  27.12100 49.27200 22.49100
H  25.87400 51.92500 22.03200
H  28.91700 51.58300 22.28000
H  27.76300 51.38400 20.90200
H  28.85200 50.02900 21.41100
H  24.18900 49.40200 22.65700
H  25.23800 49.37300 21.30700
H  23.55700 49.85300 20.27800
H  24.22400 51.47800 20.50500
H  22.71300 50.98500 21.42500
H  21.98400 54.83600 25.78000
H  20.82500 53.53900 25.47300
H  22.14900 53.84600 24.29600
H  22.22400 51.82000 30.54400
H  23.63200 55.46900 32.70700
H  23.20400 54.19700 33.92500
H  21.99500 55.32000 33.41800

