158

Mg 47.89500 15.28900 27.79800
C  46.10600 15.19600 30.67800
C  50.11500 17.61600 29.28200
C  49.52300 15.56100 24.89000
C  45.15400 13.95200 26.18800
N  48.16700 16.21500 29.75100
C  47.33500 15.92600 30.78800
C  47.97400 16.34500 32.10500
C  49.24600 17.24400 31.70900
C  49.08800 17.07900 30.18100
C  49.21600 18.76500 32.15100
C  48.32400 15.18300 33.08000
C  48.25100 15.50600 34.58400
H  48.54800 16.90300 35.07100
N  49.71800 16.31300 27.18800
C  50.47100 17.21300 27.92600
C  51.59600 17.66200 27.09200
C  51.49200 17.01500 25.87600
C  50.24000 16.24400 25.94900
C  52.63100 18.75900 27.49100
C  52.44700 17.08700 24.70100
O  52.21500 16.44300 23.68200
C  53.88300 17.70500 24.81700
N  47.45500 14.76400 25.80500
C  48.27000 14.96900 24.76100
C  47.45500 14.83900 23.39100
C  46.12800 14.18000 23.81900
C  46.22600 14.27900 25.34900
C  47.28900 16.15500 22.54800
C  45.89200 12.67300 23.43400
C  46.41900 11.51300 24.39400
N  46.10300 14.60800 28.28500
C  45.06200 14.11000 27.55100
C  43.89000 13.90600 28.32200
C  44.25300 14.28500 29.63300
C  45.59700 14.67900 29.51700
C  42.55200 13.34700 27.80800
C  43.87300 14.41300 31.05900
O  42.80700 14.19500 31.57800
C  45.04300 14.94900 31.77300
C  44.69200 16.17300 32.47300
O  44.64900 17.27000 31.99000
O  44.37000 15.84100 33.77300
C  43.76100 16.86500 34.59900
H  50.87400 18.17400 29.83400
H  50.02300 15.52800 23.92000
H  44.26400 13.64300 25.63400
H  47.22300 16.98800 32.56400
H  50.15800 16.71500 31.98700
H  48.24900 19.06800 32.55200
H  49.35000 19.53500 31.39200
H  50.04000 18.88900 32.85400
H  49.32100 14.89300 32.74700
H  47.58300 14.44300 32.77800
H  48.98700 14.81000 34.98400
H  47.35900 15.24700 35.15500
H  53.49600 18.39600 28.04700
H  52.17800 19.46900 28.18200
H  53.14500 19.22700 26.65100
H  53.93300 18.79000 24.72500
H  54.45000 17.36100 23.95200
H  54.43600 17.25200 25.64000
H  48.04200 14.24400 22.69000
H  45.34600 14.81700 23.40600
H  47.46600 17.00600 23.20600
H  46.24100 16.26700 22.27300
H  48.02600 16.05000 21.75100
H  46.24000 12.28400 22.47800
H  44.80900 12.62100 23.32500
H  45.59400 11.17500 25.02000
H  47.28000 11.80400 24.99700
H  46.61400 10.65800 23.74600
H  42.77600 12.35500 27.41500
H  42.24900 13.89000 26.91200
H  41.79200 13.21600 28.57800
H  45.19100 14.13100 32.47900
H  43.40600 17.70100 33.99700
H  44.63300 17.13600 35.19500
H  43.02200 16.33300 35.19900
Mg 47.32200 24.33800 27.57400
C  48.28500 26.67800 30.05500
C  47.07300 21.97400 30.03200
C  46.73300 21.97400 25.22900
C  48.24400 26.65400 25.10200
N  47.69700 24.39500 29.77800
C  47.76900 25.47900 30.55300
C  47.67000 25.07000 32.03700
C  47.38100 23.55100 32.01100
C  47.42600 23.26300 30.47600
C  48.33400 22.69300 32.90900
C  46.78500 26.06000 32.89400
C  46.29900 25.64800 34.34200
H  46.79700 26.61300 35.44000
N  46.94600 22.24500 27.62000
C  46.79800 21.49400 28.75800
C  46.35400 20.17100 28.44000
C  46.26300 20.10900 26.99200
C  46.80500 21.38600 26.51100
C  45.92500 19.14000 29.58100
C  45.71300 19.00700 26.11000
O  45.90100 19.09000 24.86400
C  44.94700 17.87400 26.55300
N  47.47700 24.27200 25.59800
C  46.92500 23.28300 24.81200
C  46.65400 23.76000 23.34400
C  46.93400 25.24400 23.43600
C  47.58500 25.41300 24.76300
C  47.43800 22.95200 22.24700
C  45.63700 26.05400 23.16800
C  44.62300 26.21700 24.37700
N  48.18400 26.34600 27.50000
C  48.47100 27.09200 26.45700
C  49.01000 28.35500 26.94200
C  48.95100 28.30800 28.33700
C  48.51100 27.00100 28.63600
C  49.38400 29.43600 26.04800
C  49.18500 28.96800 29.56800
O  49.65000 30.01500 29.84900
C  48.67800 28.02400 30.68100
C  49.77900 27.92400 31.58700
O  50.70100 27.16900 31.60100
O  49.56400 28.80100 32.62100
C  50.53000 28.77000 33.80100
H  46.76700 21.24500 30.78600
H  46.38400 21.38600 24.37800
H  48.10400 27.39700 24.31300
H  48.67600 25.31300 32.37900
H  46.37500 23.30100 32.34500
H  47.99100 21.66500 33.03100
H  48.25600 23.19200 33.87500
H  49.36400 22.73100 32.55300
H  46.00500 26.45400 32.24200
H  47.38800 26.96800 32.91200
H  46.71200 24.67500 34.60800
H  45.22200 25.51600 34.44800
H  46.79900 18.56100 29.88000
H  45.27700 18.34500 29.21100
H  45.37800 19.53000 30.44000
H  44.28400 17.55100 25.75000
H  44.25600 18.22600 27.31800
H  45.63600 17.05300 26.75400
H  45.60000 23.60200 23.11400
H  47.56700 25.44700 22.57200
H  48.48500 23.25300 22.30300
H  47.23700 23.16800 21.19800
H  47.25000 21.87900 22.26000
H  45.15100 25.50800 22.36000
H  45.81600 27.08400 22.85700
H  44.89000 26.96400 25.12500
H  44.12500 25.30200 24.69900
H  43.76000 26.79600 24.04700
H  49.09400 30.37900 26.51100
H  48.80000 29.31500 25.13600
H  50.46200 29.55600 25.93400
H  47.79000 28.49000 31.10900
H  50.47100 27.79400 34.28200
H  50.43800 29.49700 34.60800
H  51.54000 28.76000 33.39100

