158

Mg 9.35600 3.52900 28.31200
C  10.68600 1.93100 31.14800
C  7.82100 5.71400 30.30000
C  7.92900 4.68500 25.53200
C  10.82200 0.91700 26.35700
N  9.34900 3.74500 30.51800
C  9.91900 2.99700 31.43700
C  9.80800 3.72300 32.82900
C  8.76200 4.87100 32.54000
C  8.62900 4.79100 31.00900
C  7.44600 4.85600 33.38700
C  11.18200 4.14600 33.31300
C  11.65700 3.52400 34.63100
H  12.22300 4.30500 35.74600
N  7.98300 4.95500 28.01900
C  7.42000 5.71900 28.97700
C  6.42800 6.60200 28.39400
C  6.50100 6.43600 26.98600
C  7.48400 5.31000 26.79600
C  5.61500 7.57700 29.24400
C  5.80000 7.05900 25.77100
O  5.97800 6.73100 24.62900
C  4.95200 8.31700 26.03900
N  9.43000 2.88900 26.21300
C  8.80300 3.62800 25.27200
C  9.15200 3.08500 23.88400
C  10.06900 1.88300 24.15700
C  10.15000 1.90000 25.66100
C  7.91200 2.71800 23.13100
C  11.47800 1.67200 23.41500
C  11.57900 0.49800 22.51100
N  10.47900 1.80800 28.61900
C  10.94000 0.87500 27.77600
C  11.70900 -0.13100 28.47400
C  11.62400 0.23000 29.84300
C  10.90900 1.47300 29.86500
C  12.49400 -1.26300 27.89400
C  12.10500 -0.00800 31.21800
O  12.88900 -0.85000 31.62800
C  11.45100 1.13300 32.07500
C  10.63400 0.46200 33.15500
O  9.47300 0.00600 33.02300
O  11.42500 0.34800 34.29800
C  10.86500 -0.13000 35.55900
H  7.45700 6.43100 31.03800
H  7.48100 5.09900 24.62700
H  11.26400 0.09100 25.79400
H  9.49400 2.97500 33.55800
H  9.17400 5.88000 32.51800
H  6.77400 4.03400 33.14100
H  6.88200 5.77300 33.21800
H  7.51100 4.76700 34.47200
H  11.12700 5.23000 33.41500
H  11.94800 3.84200 32.59900
H  12.43700 2.79800 34.40200
H  10.89600 2.95700 35.16600
H  5.59000 7.26700 30.28900
H  4.61700 7.62200 28.80900
H  6.06200 8.54800 29.02700
H  4.22900 8.27700 26.85400
H  4.39300 8.55700 25.13500
H  5.60500 9.16900 26.22800
H  9.79400 3.80000 23.36900
H  9.66300 0.89900 23.92100
H  6.97300 3.02000 23.59400
H  7.84000 1.65500 22.89800
H  7.93000 3.36800 22.25600
H  12.33500 1.56500 24.08100
H  11.71000 2.52900 22.78200
H  12.13900 -0.23100 23.09600
H  12.23500 0.63900 21.65200
H  10.66100 0.01500 22.17600
H  11.94000 -1.77400 27.10600
H  12.51300 -1.99900 28.69800
H  13.51800 -1.12100 27.54900
H  12.23300 1.65500 32.62600
H  10.79500 0.76600 36.17600
H  11.59700 -0.88700 35.83900
H  9.89000 -0.61600 35.53100
Mg 35.58700 1.56800 30.15500
C  33.19100 2.68300 32.58500
C  37.98000 1.76600 32.52100
C  37.88800 1.03800 27.75800
C  33.08300 2.06600 27.73000
N  35.46600 2.05200 32.29200
C  34.42800 2.44900 33.11200
C  34.91100 2.48400 34.54100
C  36.47300 2.42600 34.45800
C  36.65500 2.11600 32.94700
C  37.15800 3.82800 34.75000
C  34.24000 1.39200 35.40300
C  34.08700 1.71100 36.96800
H  34.99100 2.76400 37.65900
N  37.62300 1.25100 30.22600
C  38.46400 1.40500 31.24800
C  39.80400 1.13800 30.87000
C  39.74500 0.83900 29.48800
C  38.34300 0.99900 29.09500
C  40.88400 1.03600 31.91600
C  40.87500 0.44300 28.53800
O  40.71700 0.24000 27.33900
C  42.28100 0.21400 29.05900
N  35.53000 1.50200 28.15300
C  36.58800 1.33300 27.29200
C  36.23800 1.36400 25.81700
C  34.69100 1.24800 25.90600
C  34.38700 1.65300 27.36900
C  36.67900 2.67100 25.10700
C  34.02000 -0.03200 25.50900
C  33.68700 -0.12200 23.99700
N  33.55300 2.23100 30.10600
C  32.72400 2.39100 29.04300
C  31.42800 2.88100 29.50700
C  31.51600 2.92300 30.94500
C  32.82400 2.56200 31.23400
C  30.22300 3.06700 28.66700
C  30.84400 3.22000 32.14500
O  29.66200 3.52700 32.23900
C  31.93700 3.11000 33.31200
C  31.90100 4.46100 33.98100
O  32.13400 5.52300 33.46800
O  31.50000 4.31600 35.31500
C  31.31900 5.61800 36.01000
H  38.74300 1.65500 33.29400
H  38.65200 0.90500 26.98900
H  32.33300 2.16900 26.94200
H  34.71200 3.50300 34.87000
H  36.95700 1.60100 34.98200
H  36.50800 4.40600 35.40700
H  37.41300 4.31500 33.80800
H  38.06200 3.52800 35.27900
H  34.75900 0.43500 35.35100
H  33.21100 1.23600 35.07800
H  34.04600 0.73200 37.44500
H  33.06500 2.09000 36.98900
H  41.67800 0.38900 31.54300
H  40.47500 0.59000 32.82300
H  41.23700 2.01000 32.25300
H  42.51500 0.97600 29.80200
H  42.88800 0.32100 28.16000
H  42.32500 -0.82700 29.38000
H  36.84700 0.54100 25.44100
H  34.27200 1.96100 25.19600
H  37.05600 3.36700 25.85600
H  35.84000 3.21400 24.67300
H  37.46700 2.57300 24.36000
H  33.10300 -0.35900 26.00000
H  34.75000 -0.80400 25.75300
H  32.63400 -0.38100 23.88400
H  34.22200 -0.89800 23.44900
H  33.84300 0.77300 23.39500
H  29.35700 2.56400 29.09700
H  30.27200 2.60100 27.68300
H  30.00500 4.12800 28.54700
H  31.68200 2.35200 34.05200
H  30.81100 6.36200 35.39700
H  32.25800 6.03000 36.38100
H  30.63600 5.48400 36.84800

