158

Mg 24.39700 -5.08700 45.73500
C  26.92100 -2.92600 44.70200
C  22.24700 -3.57500 43.53700
C  22.18100 -7.65400 46.23800
C  26.85100 -6.97900 47.34100
N  24.63200 -3.65100 44.04900
C  25.76300 -2.86400 43.91700
C  25.50000 -1.85000 42.79300
C  23.99900 -1.72600 42.76200
C  23.54500 -3.03000 43.42900
C  23.55900 -0.47200 43.52300
C  26.04700 -2.32200 41.44200
C  26.21800 -1.30200 40.45600
H  25.50400 -1.50100 39.07200
N  22.41200 -5.50300 45.10800
C  21.73100 -4.72700 44.22200
C  20.39100 -5.21900 44.01800
C  20.38300 -6.49000 44.72100
C  21.65600 -6.60900 45.48800
C  19.34100 -4.45000 43.30200
C  19.24200 -7.39400 44.56200
O  18.21000 -7.13100 44.04100
C  19.30500 -8.76900 45.19700
N  24.54800 -7.09400 46.62400
C  23.48900 -7.90500 46.78800
C  23.85200 -9.25800 47.40700
C  25.32500 -9.07900 47.82800
C  25.60300 -7.61100 47.20700
C  22.87700 -9.72000 48.60300
C  26.27900 -10.14300 47.14800
C  27.51900 -10.49300 47.95700
N  26.39300 -4.87100 46.20200
C  27.26800 -5.67500 46.96700
C  28.48200 -4.95500 47.15000
C  28.41000 -3.91300 46.21600
C  27.12300 -3.88700 45.68200
C  29.51700 -5.53600 48.05300
C  29.11900 -2.74200 45.59500
O  30.24800 -2.32500 45.82400
C  28.17800 -2.12700 44.52600
C  27.90300 -0.68300 44.84700
O  27.46400 -0.22400 45.88500
O  28.34700 0.11700 43.84200
C  28.06800 1.53700 43.93600
H  21.67100 -2.83600 42.97600
H  21.47200 -8.45700 46.45000
H  27.62200 -7.57400 47.83500
H  26.03400 -0.93300 43.03900
H  23.68400 -1.60300 41.72600
H  22.81100 0.15700 43.04000
H  24.39300 0.20200 43.71900
H  23.04800 -0.75400 44.44300
H  25.36700 -3.06400 41.02400
H  26.96000 -2.85800 41.70200
H  27.26400 -1.32100 40.15300
H  26.08900 -0.28100 40.81800
H  18.84700 -5.06000 42.54600
H  19.89000 -3.76100 42.66000
H  18.64300 -3.85000 43.88700
H  19.27100 -8.66900 46.28200
H  20.25700 -9.22600 44.92700
H  18.59200 -9.51400 44.84500
H  23.70700 -10.03900 46.66100
H  25.53600 -8.94700 48.89000
H  21.98700 -9.09300 48.54200
H  23.41900 -9.66500 49.54700
H  22.75400 -10.80200 48.65600
H  26.59800 -9.76600 46.17600
H  25.80300 -11.10100 46.94000
H  28.17200 -11.10700 47.33700
H  27.17900 -11.17000 48.74100
H  27.95600 -9.70700 48.57300
H  30.32900 -4.85400 48.30700
H  29.98400 -6.41200 47.60200
H  29.10000 -5.76700 49.03300
H  28.70400 -2.18900 43.57400
H  28.94900 2.01000 44.37100
H  27.29500 1.79900 44.65700
H  27.70800 1.78800 42.93800
Mg -9.92500 39.38900 39.94900
C  -9.20500 36.05600 39.03500
C  -6.75600 40.15000 38.93900
C  -10.80800 42.66800 39.90400
C  -13.21600 38.42500 40.37500
N  -8.24600 38.21300 39.17600
C  -8.12000 36.86100 38.87200
C  -6.73100 36.53900 38.37300
C  -5.87900 37.74500 38.74700
C  -7.03800 38.78000 39.00600
C  -4.87100 37.56400 39.94300
C  -6.64400 36.04300 36.82800
C  -7.14700 37.05800 35.76100
H  -8.08400 36.76500 34.49500
N  -8.86700 41.21200 39.58600
C  -7.61500 41.29100 39.19300
C  -7.35900 42.65800 38.86100
C  -8.56600 43.41800 38.95000
C  -9.53400 42.43600 39.47000
C  -6.05800 43.20900 38.36600
C  -8.74100 44.92200 38.56100
O  -7.76300 45.43600 38.03500
C  -9.99600 45.55100 38.57700
N  -11.71600 40.41400 40.19400
C  -11.75200 41.71100 40.21900
C  -13.18700 42.15200 40.61900
C  -13.98000 40.84900 40.76200
C  -12.94100 39.82300 40.45400
C  -13.21800 43.07600 41.83200
C  -15.26700 40.73400 39.85100
C  -16.59900 40.69700 40.60500
N  -11.03000 37.61200 39.89500
C  -12.38200 37.41400 40.05900
C  -12.70600 35.99400 39.85900
C  -11.50700 35.41900 39.45200
C  -10.54500 36.44000 39.49700
C  -14.00000 35.35800 40.23200
C  -10.92900 34.16500 38.94800
O  -11.40400 33.06600 38.63000
C  -9.42500 34.59600 38.66300
C  -8.55200 33.79800 39.51400
O  -8.48100 33.89200 40.75700
O  -7.71000 33.07300 38.73300
C  -6.44600 32.61500 39.30800
H  -5.73900 40.45000 38.67800
H  -11.09200 43.72100 39.85700
H  -14.26200 38.10900 40.37000
H  -6.26500 35.68400 38.86300
H  -5.30200 38.06600 37.88000
H  -5.29800 38.05400 40.81800
H  -3.90500 38.05100 39.81000
H  -4.69100 36.52400 40.21300
H  -7.10600 35.11400 36.49300
H  -5.56800 36.06500 36.65600
H  -6.28100 37.53500 35.30200
H  -7.71000 37.79600 36.33300
H  -5.70900 44.11300 38.86700
H  -6.01300 43.32400 37.28300
H  -5.30200 42.45800 38.59600
H  -10.74900 44.96600 38.04900
H  -9.85000 46.45600 37.98700
H  -10.32400 45.75400 39.59700
H  -13.61000 42.77400 39.83000
H  -14.39300 40.59100 41.73700
H  -12.19200 43.36500 42.05800
H  -13.65300 42.52700 42.66700
H  -13.80500 43.96100 41.58600
H  -15.20800 39.89700 39.15600
H  -15.32500 41.55200 39.13300
H  -17.30800 41.50100 40.41000
H  -16.41700 41.01400 41.63200
H  -17.06400 39.71300 40.55400
H  -14.75100 35.59000 39.47700
H  -14.43300 35.64100 41.19100
H  -13.80400 34.29300 40.36100
H  -9.22000 34.42100 37.60700
H  -5.64400 33.27400 38.97500
H  -6.31800 31.56500 39.04700
H  -6.37900 32.89500 40.35900

