158

Mg 47.29700 24.72800 28.42100
C  47.95400 27.09900 31.10200
C  46.35400 22.46800 30.96500
C  46.72000 22.45300 26.10300
C  48.52700 26.94900 26.20700
N  47.15400 24.84200 30.77800
C  47.40400 25.92400 31.60400
C  47.14800 25.55200 33.06200
C  46.87900 23.93100 33.00900
C  46.77000 23.68900 31.49000
C  48.02100 23.06600 33.54400
C  46.07800 26.34500 33.78200
C  45.72200 25.92400 35.23400
H  45.46500 26.90100 36.40700
N  46.56100 22.71900 28.53400
C  46.24500 22.02000 29.65300
C  45.84100 20.71200 29.24500
C  46.08700 20.61500 27.87600
C  46.44400 21.94800 27.44000
C  45.46600 19.58600 30.24400
C  45.86300 19.48000 26.92000
O  46.08900 19.67500 25.75200
C  45.31900 18.13300 27.37400
N  47.50600 24.74200 26.40300
C  47.17200 23.74800 25.63300
C  47.47600 24.07500 24.14100
C  47.85900 25.58400 24.26100
C  48.03200 25.79500 25.70800
C  48.59600 23.15500 23.47900
C  46.79000 26.44400 23.49500
C  47.29700 27.24300 22.22200
N  48.16600 26.55900 28.57200
C  48.63600 27.37000 27.52200
C  49.16300 28.61800 28.03900
C  48.91800 28.55200 29.46400
C  48.30900 27.29200 29.71700
C  49.79200 29.68600 27.17300
C  49.04400 29.25900 30.72500
O  49.52600 30.34500 31.05100
C  48.33500 28.39300 31.84800
C  49.24600 28.31000 32.95300
O  50.39400 27.94800 32.95400
O  48.66100 28.70300 34.03600
C  49.21000 28.21900 35.31900
H  46.09800 21.69300 31.69000
H  46.54300 21.69600 25.33600
H  48.78000 27.61600 25.38100
H  48.07000 25.85700 33.55500
H  45.91400 23.73800 33.47900
H  48.70500 23.66400 34.14500
H  48.60000 22.62700 32.73100
H  47.58500 22.25200 34.12300
H  45.16000 26.28600 33.19700
H  46.47600 27.36000 33.77500
H  46.51300 25.22200 35.49700
H  44.81300 25.34100 35.08800
H  46.30000 18.97600 30.58900
H  44.83000 18.84800 29.75600
H  44.82800 19.93100 31.05900
H  45.87200 17.78000 28.24500
H  45.51100 17.46600 26.53300
H  44.28900 18.28900 27.69300
H  46.54900 23.86500 23.60700
H  48.84500 25.72000 23.81800
H  49.57000 23.64500 23.47700
H  48.37000 23.06500 22.41600
H  48.60700 22.10500 23.77200
H  46.39900 27.16500 24.21300
H  46.02300 25.79300 23.07700
H  46.84700 26.63800 21.43600
H  48.38000 27.12700 22.22700
H  46.97700 28.27900 22.33800
H  50.60000 29.96000 27.85200
H  49.10900 30.50300 26.93800
H  50.24400 29.22900 26.29300
H  47.44500 28.95100 32.13700
H  49.43900 29.08100 35.94500
H  50.10600 27.60900 35.20300
H  48.40600 27.61300 35.73600
Mg -11.60400 38.19300 43.45200
C  -9.03500 35.97900 42.46100
C  -10.41200 40.46800 41.31700
C  -14.50700 39.93600 43.78400
C  -13.17200 35.39200 44.90600
N  -9.83900 38.15500 42.05200
C  -8.92700 37.19500 41.77000
C  -7.89700 37.70400 40.85100
C  -8.25900 39.21500 40.58800
C  -9.59100 39.32700 41.41300
C  -7.20800 40.30400 40.77900
C  -7.85400 36.82700 39.51200
C  -6.68000 35.85000 39.39200
H  -5.49000 36.39000 38.58600
N  -12.25100 39.94800 42.74100
C  -11.61100 40.81300 41.91800
C  -12.29800 42.07000 41.81600
C  -13.48800 41.94500 42.56800
C  -13.42900 40.55800 43.12500
C  -11.76400 43.26300 40.99400
C  -14.59200 42.94900 42.64800
O  -14.40500 43.94000 41.94900
C  -15.80900 42.87100 43.51000
N  -13.58500 37.72300 44.15500
C  -14.58500 38.62900 44.17500
C  -15.85900 38.01600 44.74200
C  -15.39000 36.60600 45.12700
C  -13.97300 36.58000 44.69800
C  -16.44900 38.81500 45.90300
C  -16.12900 35.48600 44.45100
C  -16.36800 34.10300 45.25900
N  -11.17500 36.26400 43.78200
C  -11.77700 35.26200 44.56200
C  -11.01900 34.05700 44.63600
C  -9.84800 34.32800 43.95200
C  -10.05500 35.58400 43.33800
C  -11.24300 32.88600 45.46500
C  -8.57000 33.82000 43.56600
O  -7.94300 32.78800 43.85900
C  -7.97200 34.79500 42.52300
C  -6.62900 35.15300 42.97400
O  -5.71400 34.34400 42.99800
O  -6.44900 36.43500 43.44700
C  -5.07100 36.71300 43.97100
H  -10.01800 41.19000 40.59900
H  -15.48400 40.41300 43.67700
H  -13.59700 34.51500 45.40000
H  -6.92800 37.64200 41.34700
H  -8.72900 39.33500 39.61200
H  -7.16400 41.00400 39.94400
H  -6.25600 39.81600 40.98700
H  -7.42500 41.04200 41.55100
H  -7.78100 37.60500 38.75300
H  -8.78000 36.26400 39.39700
H  -7.06800 34.88700 39.06200
H  -6.24100 35.68700 40.37600
H  -12.27700 43.27000 40.03300
H  -10.69400 43.10000 40.86700
H  -11.91600 44.13300 41.63400
H  -16.54500 42.20600 43.05700
H  -16.27400 43.85600 43.55500
H  -15.51800 42.60700 44.52600
H  -16.60600 37.98700 43.94900
H  -15.43400 36.31000 46.17500
H  -16.64100 38.29600 46.84300
H  -17.40000 39.26400 45.61600
H  -15.79200 39.62200 46.22800
H  -15.63300 35.19500 43.52500
H  -17.14800 35.73800 44.15800
H  -15.99400 33.28500 44.64400
H  -17.42700 33.89200 45.40900
H  -15.89100 34.28400 46.22200
H  -12.02200 33.08700 46.20100
H  -10.37500 32.66800 46.08700
H  -11.38400 32.03800 44.79500
H  -7.92600 34.28800 41.56000
H  -4.43800 36.80100 43.08700
H  -4.57100 35.92400 44.53300
H  -5.09800 37.65800 44.51300

