158

Mg 25.57200 0.16000 28.59700
C  27.36600 -0.03100 31.59300
C  22.68100 0.04200 30.44900
C  23.65700 0.03700 25.71100
C  28.43500 -0.32100 26.81300
N  25.12800 -0.16400 30.85200
C  26.01100 0.03800 31.87000
C  25.35800 0.14900 33.23900
C  23.89400 0.03200 32.86600
C  23.88500 -0.04700 31.28700
C  23.19700 -1.14600 33.72700
C  25.69400 1.44300 34.11200
C  25.96200 1.03700 35.63500
H  26.40100 2.13800 36.58600
N  23.49600 0.13900 28.14000
C  22.48600 0.13400 29.07800
C  21.16500 0.26800 28.44700
C  21.50100 0.15200 27.01000
C  22.92600 0.05900 26.89000
C  19.90000 0.33900 29.22200
C  20.56400 0.14700 25.79400
O  20.96900 -0.18700 24.65500
C  19.12900 0.31900 26.02800
N  25.97500 -0.06200 26.55300
C  25.04500 -0.06500 25.51600
C  25.79300 -0.01700 24.16700
C  27.23700 0.16600 24.48800
C  27.29000 -0.05400 26.02300
C  25.45300 -1.28300 23.32000
C  27.99800 1.46900 24.07400
C  27.59200 2.80200 24.76100
N  27.55300 -0.15700 29.06300
C  28.62700 -0.37400 28.20400
C  29.84000 -0.57800 28.99800
C  29.41300 -0.41700 30.34100
C  28.01200 -0.13900 30.33800
C  31.16800 -0.85000 28.44100
C  29.87000 -0.36800 31.71000
O  30.96700 -0.60300 32.20800
C  28.50500 -0.05200 32.60400
C  28.30400 -1.04100 33.65500
O  27.68100 -2.10700 33.56200
O  29.02000 -0.66600 34.79200
C  29.18900 -1.70600 35.77200
H  21.75600 0.01700 31.02800
H  23.25200 0.10700 24.69900
H  29.22200 -0.30200 26.05500
H  25.62800 -0.74300 33.80500
H  23.37400 0.94300 33.16500
H  22.32900 -0.92100 34.34600
H  23.96100 -1.62000 34.34400
H  22.76400 -1.86200 33.02900
H  24.88300 2.17100 34.12400
H  26.59100 1.89700 33.69000
H  26.65500 0.19800 35.69600
H  25.01900 0.66900 36.03900
H  20.04400 0.89200 30.15000
H  19.56400 -0.66700 29.47300
H  19.12800 0.81400 28.61700
H  18.75200 -0.32000 26.82600
H  18.54800 0.17400 25.11700
H  18.89200 1.35500 26.27300
H  25.47400 0.86000 23.60400
H  27.68000 -0.67400 23.95300
H  24.73400 -1.11700 22.51700
H  25.00200 -2.14800 23.80600
H  26.31500 -1.65000 22.76200
H  27.84700 1.66500 23.01200
H  29.04900 1.23100 24.23900
H  28.36100 2.95100 25.52000
H  26.58800 2.69800 25.17200
H  27.58900 3.65300 24.08000
H  32.03000 -0.47600 28.99300
H  31.18100 -0.40000 27.44800
H  31.13100 -1.93900 28.41800
H  28.67600 0.94200 33.01800
H  28.43900 -1.53600 36.54500
H  30.09500 -1.65000 36.37400
H  29.07000 -2.73100 35.42000
Mg -5.51800 25.58600 27.05000
C  -3.91400 27.05700 29.84900
C  -7.13000 23.47200 29.16000
C  -6.51300 24.01700 24.32100
C  -3.40200 27.49800 25.03500
N  -5.41900 25.26100 29.26500
C  -4.80900 26.09500 30.23600
C  -5.32300 25.79400 31.69000
C  -6.23700 24.52000 31.41200
C  -6.30200 24.39600 29.84000
C  -5.75400 23.19700 32.01200
C  -6.08600 26.96300 32.34200
C  -6.20800 26.99000 33.89600
H  -5.82800 25.81100 34.75100
N  -6.67100 23.97700 26.73900
C  -7.24600 23.28800 27.75200
C  -8.02100 22.19700 27.14400
C  -7.82000 22.27700 25.76500
C  -6.93300 23.42600 25.54300
C  -8.83400 21.24600 28.03000
C  -8.27800 21.30000 24.71900
O  -8.10200 21.41500 23.51000
C  -9.07400 20.12500 25.14000
N  -5.07700 25.75100 24.99300
C  -5.73800 25.11100 24.07200
C  -5.39400 25.54000 22.72300
C  -4.52900 26.78900 22.93800
C  -4.28200 26.63100 24.37500
C  -4.57200 24.39600 21.93500
C  -5.28200 28.12200 22.60100
C  -4.93400 28.66000 21.27600
N  -4.04000 27.05700 27.33000
C  -3.24000 27.71600 26.40100
C  -2.28100 28.50700 27.09700
C  -2.54900 28.29100 28.46300
C  -3.59900 27.43700 28.55900
C  -1.28900 29.46600 26.39600
C  -2.16500 28.68700 29.86200
O  -1.25600 29.42700 30.20000
C  -3.05300 27.96400 30.75700
C  -2.32800 27.14500 31.72700
O  -1.58900 26.20300 31.43100
O  -2.64900 27.44200 33.02800
C  -1.89800 26.74800 34.07200
H  -7.72200 22.96500 29.92500
H  -7.12900 23.60000 23.52100
H  -2.74200 28.08700 24.39500
H  -4.45600 25.62600 32.32800
H  -7.22500 24.63400 31.85800
H  -4.72900 23.33000 32.35700
H  -5.81300 22.27800 31.42900
H  -6.52400 22.97700 32.75100
H  -7.06900 26.99500 31.87200
H  -5.57500 27.88700 32.06800
H  -7.23000 27.14900 34.23900
H  -5.55800 27.83000 34.14100
H  -8.40900 20.27300 28.27800
H  -9.80300 21.09500 27.55600
H  -9.04700 21.74500 28.97500
H  -9.20800 19.48700 24.26700
H  -9.98300 20.47500 25.62900
H  -8.57800 19.49800 25.88200
H  -6.28600 25.83600 22.17100
H  -3.63600 26.80200 22.31400
H  -4.49300 23.55000 22.61700
H  -3.53200 24.67100 21.76100
H  -5.03900 23.98500 21.03900
H  -4.94300 28.86600 23.32100
H  -6.36000 28.01000 22.71800
H  -4.04200 28.23400 20.81600
H  -4.91400 29.74800 21.22100
H  -5.73100 28.43000 20.56900
H  -1.69700 29.99500 25.53500
H  -0.45000 28.85000 26.07400
H  -0.91500 30.20400 27.10600
H  -3.62400 28.79100 31.17900
H  -2.41300 25.78800 34.06100
H  -1.97300 27.31000 35.00300
H  -0.84000 26.58000 33.86900

