158

Mg 24.68900 -7.87000 45.87700
C  27.12600 -5.52000 45.00700
C  22.39600 -6.38600 43.96100
C  22.61400 -10.45000 46.64800
C  27.30500 -9.59300 47.73500
N  24.76900 -6.18100 44.62900
C  25.92000 -5.35800 44.40000
C  25.52900 -4.21400 43.32400
C  23.93500 -4.35000 43.20800
C  23.68900 -5.72200 43.92600
C  23.20200 -3.16300 43.84200
C  26.29600 -4.45500 42.00200
C  25.68600 -3.61000 40.85000
H  24.90200 -4.22700 39.69600
N  22.81300 -8.37900 45.33900
C  21.97300 -7.55500 44.65400
C  20.65300 -8.19700 44.55000
C  20.68100 -9.34600 45.33600
C  22.11300 -9.46500 45.81300
C  19.47100 -7.61500 43.67300
C  19.39600 -10.22600 45.68500
O  18.30400 -9.97500 45.16200
C  19.48400 -11.50000 46.41200
N  24.94300 -9.72800 46.92700
C  23.92600 -10.52500 47.14000
C  24.25100 -11.75600 48.05100
C  25.83900 -11.66800 48.19200
C  26.07500 -10.25600 47.53200
C  23.58800 -11.70200 49.45000
C  26.72900 -12.72800 47.45500
C  28.00000 -13.25900 48.25400
N  26.82800 -7.57900 46.36600
C  27.66900 -8.30800 47.14200
C  28.91400 -7.61600 47.24700
C  28.74500 -6.50300 46.42100
C  27.47300 -6.52100 45.86600
C  30.13600 -8.10000 48.05100
C  29.38100 -5.37500 45.85300
O  30.54200 -4.97400 46.06600
C  28.42300 -4.67100 44.81500
C  28.30200 -3.25200 45.09600
O  28.82800 -2.44900 44.32000
O  27.44800 -2.92600 46.13600
C  27.00500 -1.50400 46.17100
H  21.64600 -5.86900 43.35900
H  21.88900 -11.23300 46.88000
H  28.05600 -10.18500 48.26200
H  25.94900 -3.33900 43.82100
H  23.64300 -4.49900 42.16800
H  22.74200 -2.66000 42.99200
H  23.66600 -2.47900 44.55100
H  22.36300 -3.51900 44.44000
H  26.11400 -5.51100 41.80300
H  27.28900 -4.04100 42.17500
H  26.54500 -3.00200 40.56600
H  24.92500 -2.93000 41.23400
H  19.56400 -6.53700 43.53800
H  18.50000 -7.75400 44.14800
H  19.51700 -8.22300 42.76900
H  19.95100 -11.23700 47.36100
H  20.15600 -12.14800 45.84900
H  18.52300 -11.99900 46.53300
H  24.06400 -12.64400 47.44800
H  26.16800 -11.71500 49.23100
H  23.14900 -12.69800 49.52100
H  22.80700 -10.95100 49.57300
H  24.19600 -11.75600 50.35300
H  26.94800 -12.31600 46.47000
H  26.10500 -13.59500 47.23400
H  28.23900 -12.71500 49.16800
H  28.86600 -13.18400 47.59600
H  27.80400 -14.32600 48.36600
H  30.50700 -9.00900 47.57700
H  29.88500 -8.20000 49.10700
H  30.85500 -7.28700 47.94800
H  28.90100 -4.74500 43.83900
H  26.45000 -1.28500 45.25900
H  27.81200 -0.79400 45.99100
H  26.36200 -1.29800 47.02700
Mg 35.22500 49.17000 25.19800
C  35.31400 47.79500 28.40900
C  33.89800 52.04100 26.63300
C  34.51500 50.21600 22.03600
C  36.29300 46.11500 23.88900
N  34.61500 49.73400 27.27600
C  34.80800 49.09100 28.45500
C  34.29800 49.89700 29.69000
C  33.89600 51.31800 29.09300
C  34.17500 51.04400 27.58300
C  32.51200 51.89100 29.50300
C  35.28300 49.94600 30.85500
C  34.78500 49.67900 32.31000
H  34.88400 50.74000 33.42600
N  34.33600 50.98200 24.45600
C  33.89600 52.05300 25.17200
C  33.41700 53.03600 24.27900
C  33.67400 52.55100 22.91500
C  34.18300 51.18500 23.09000
C  32.90400 54.37100 24.83900
C  33.55700 53.27500 21.61100
O  33.89800 52.78700 20.50500
C  33.01100 54.57000 21.56700
N  35.58400 48.39700 23.28700
C  35.15100 48.99800 22.20100
C  35.60100 48.19100 20.97100
C  36.28300 46.93600 21.51100
C  36.10300 47.15800 22.98100
C  34.43000 47.83900 20.00500
C  37.75000 46.82800 21.14200
C  38.68500 47.93400 21.72500
N  35.81300 47.31000 25.90200
C  36.17100 46.18100 25.30900
C  36.38000 45.11500 26.29000
C  36.20500 45.74800 27.46600
C  35.69600 47.07900 27.24500
C  36.74500 43.62700 26.01400
C  36.31300 45.57100 28.93400
O  36.76100 44.68000 29.65500
C  35.58100 46.83700 29.55200
C  34.34600 46.39500 30.23900
O  33.21700 46.32600 29.78600
O  34.64700 45.95300 31.48900
C  33.57200 45.24600 32.28600
H  33.51000 52.97100 27.05300
H  34.39000 50.45800 20.97800
H  36.61200 45.14800 23.49300
H  33.38200 49.39300 29.99600
H  34.72700 51.96700 29.36800
H  31.97100 51.03100 29.89800
H  32.06300 52.36700 28.63200
H  32.63500 52.62800 30.29700
H  35.80100 50.89200 31.00800
H  36.05600 49.24000 30.54900
H  35.61500 49.05100 32.63400
H  33.83300 49.16700 32.44200
H  32.79300 54.34800 25.92400
H  31.90100 54.51600 24.43800
H  33.50500 55.18000 24.42300
H  33.73800 55.18800 22.09400
H  32.08800 54.52000 22.14400
H  32.73400 54.88500 20.56100
H  36.34400 48.67600 20.33800
H  35.59600 46.11100 21.32200
H  33.47300 48.32500 20.19200
H  34.29600 46.76000 19.91700
H  34.73100 48.30700 19.06800
H  37.98600 46.80600 20.07800
H  38.08000 45.84200 21.47000
H  39.38500 47.62500 22.50100
H  38.26600 48.88300 22.06200
H  39.34800 48.22200 20.90900
H  37.79200 43.46200 26.26700
H  36.58900 43.32600 24.97800
H  36.17700 42.88000 26.56900
H  36.27300 47.19300 30.31600
H  33.28900 44.32500 31.77700
H  32.63100 45.79500 32.25400
H  33.85100 45.17100 33.33700

