158

Mg 17.66500 -2.40100 28.20700
C  16.97700 -0.43800 31.13100
C  19.43000 -4.51800 30.29100
C  18.89400 -3.92900 25.51300
C  16.15500 0.07500 26.27300
N  18.18600 -2.43300 30.50600
C  17.60800 -1.63600 31.44000
C  17.80400 -2.23600 32.84300
C  18.65700 -3.53100 32.54100
C  18.80500 -3.46700 31.03700
C  20.00600 -3.53100 33.38700
C  16.48200 -2.67200 33.51500
C  16.23700 -2.13800 34.99100
H  17.45300 -1.68100 35.88400
N  18.93100 -4.02400 27.93400
C  19.48700 -4.77900 28.92600
C  20.33700 -5.82700 28.28300
C  20.12700 -5.74300 26.87600
C  19.24000 -4.58700 26.70300
C  21.07600 -6.84800 29.15300
C  20.60400 -6.62800 25.75300
O  20.29800 -6.41600 24.58700
C  21.29500 -7.81800 26.18200
N  17.51100 -1.93800 26.13700
C  18.15700 -2.70700 25.18500
C  17.85700 -2.16000 23.77000
C  16.66700 -1.14700 24.07400
C  16.75300 -1.02100 25.55200
C  19.00700 -1.47500 23.01700
C  15.24000 -1.65800 23.66400
C  14.14300 -0.61700 23.29100
N  16.78300 -0.59500 28.54700
C  16.12000 0.28500 27.65000
C  15.34500 1.24400 28.46100
C  15.80100 1.06300 29.78500
C  16.65100 -0.07700 29.78300
C  14.38500 2.35300 27.95600
C  15.56400 1.51400 31.10000
O  14.79900 2.41000 31.49000
C  16.35400 0.58800 32.06100
C  17.26900 1.37600 32.88300
O  18.40100 1.66300 32.59700
O  16.58800 1.95900 33.88700
C  17.35300 2.88900 34.68900
H  19.75900 -5.35300 30.91300
H  19.39000 -4.29800 24.61300
H  15.73700 0.86100 25.64100
H  18.39500 -1.48200 33.36400
H  18.13600 -4.47300 32.71300
H  19.93100 -2.91000 34.28000
H  20.81800 -3.12500 32.78500
H  20.21700 -4.53900 33.74500
H  16.31700 -3.74400 33.41600
H  15.78700 -2.06900 32.93000
H  15.63600 -2.91100 35.47100
H  15.54700 -1.29600 34.92500
H  20.47800 -7.75100 29.03800
H  21.39200 -6.69600 30.18600
H  22.06900 -6.99200 28.72600
H  22.31500 -7.76600 26.56000
H  21.58300 -8.35600 25.27900
H  20.59400 -8.47500 26.69700
H  17.57100 -3.07700 23.25500
H  16.72800 -0.15200 23.63300
H  19.75000 -1.44200 23.81400
H  18.68600 -0.46700 22.75500
H  19.35100 -1.99800 22.12500
H  14.94500 -2.24200 24.53500
H  15.38500 -2.24900 22.75900
H  13.25800 -0.74000 23.91600
H  13.75300 -0.95600 22.33100
H  14.56800 0.37600 23.14800
H  13.45500 1.90700 27.60400
H  14.87600 2.80300 27.09300
H  14.25800 3.18700 28.64700
H  15.69500 0.10600 32.78300
H  17.38600 2.50100 35.70700
H  16.85600 3.85500 34.77800
H  18.38900 3.05400 34.39400
Mg -8.51200 40.58900 43.03600
C  -7.59400 37.38200 41.82800
C  -5.96700 41.92700 41.19000
C  -9.92100 43.69100 43.36200
C  -11.33600 39.20700 44.30600
N  -6.87500 39.69500 41.66800
C  -6.75800 38.37900 41.31300
C  -5.45500 38.14500 40.44300
C  -4.82700 39.55100 40.53400
C  -5.97200 40.47700 41.10400
C  -3.46900 39.66500 41.28600
C  -5.82500 37.64300 39.02600
C  -5.33400 36.25000 38.65200
H  -4.19600 36.12100 37.60200
N  -7.91100 42.57400 42.44100
C  -6.86100 42.85500 41.69800
C  -6.71800 44.20400 41.57800
C  -7.83400 44.86200 42.21400
C  -8.68000 43.69900 42.74500
C  -5.50200 44.83800 40.90800
C  -8.11600 46.25000 42.30700
O  -7.35800 47.03700 41.76600
C  -9.15500 46.82300 43.22200
N  -10.25700 41.37000 43.77000
C  -10.65100 42.67000 43.87400
C  -12.09100 42.80700 44.35600
C  -12.50900 41.37600 44.69600
C  -11.27600 40.58300 44.21700
C  -12.35500 43.84700 45.39500
C  -13.98800 40.92900 44.33500
C  -15.16400 41.83300 44.84100
N  -9.38800 38.64000 43.03100
C  -10.52100 38.22800 43.66000
C  -10.67400 36.77600 43.56100
C  -9.50900 36.40500 42.86800
C  -8.76000 37.59000 42.53500
C  -11.85100 35.98300 44.16400
C  -8.77000 35.27900 42.33500
O  -8.97200 34.06700 42.52000
C  -7.57500 35.90400 41.51800
C  -6.27300 35.32600 41.93800
O  -5.61800 35.70800 42.88200
O  -6.11200 34.21500 41.20900
C  -5.02300 33.38600 41.56800
H  -5.08300 42.35200 40.70900
H  -10.44100 44.64900 43.42900
H  -12.22200 38.81800 44.81100
H  -4.75500 37.43800 40.88700
H  -4.78700 40.09000 39.58800
H  -2.74700 40.19100 40.66200
H  -3.07300 38.67400 41.50400
H  -3.46700 40.05300 42.30500
H  -5.63900 38.44200 38.30800
H  -6.90500 37.49800 39.04400
H  -6.19200 35.67800 38.30100
H  -4.99400 35.74100 39.55400
H  -5.25600 44.37500 39.95200
H  -4.66800 44.73900 41.60300
H  -5.60700 45.92100 40.83700
H  -8.96200 47.88000 43.40200
H  -9.15100 46.35200 44.20500
H  -10.16400 46.83400 42.81100
H  -12.64200 43.04600 43.44600
H  -12.39800 41.30600 45.77800
H  -11.46800 44.15800 45.94700
H  -13.18700 43.68000 46.08000
H  -12.70800 44.74200 44.88300
H  -14.18800 40.02400 44.90800
H  -14.10200 40.72700 43.27000
H  -15.55000 41.39100 45.76000
H  -15.97400 42.09400 44.16000
H  -14.82100 42.86500 44.91700
H  -12.67500 35.90800 43.45500
H  -12.31400 36.60000 44.93500
H  -11.38100 35.05000 44.47600
H  -7.74000 35.76000 40.45000
H  -4.76600 32.76200 40.71300
H  -5.09900 32.80400 42.48700
H  -4.11200 33.94800 41.77300

