158

Mg 47.33900 15.83000 27.57800
C  45.59100 15.74100 30.49400
C  49.98400 17.34400 29.19000
C  48.77400 16.55800 24.64200
C  44.39800 14.76900 25.75100
N  47.64900 16.57600 29.56600
C  46.79600 16.37800 30.65000
C  47.49300 16.69200 32.02800
C  48.82000 17.36700 31.55500
C  48.88700 17.01200 29.99500
C  48.97800 18.87800 31.81200
C  47.68100 15.46200 32.86600
C  47.27800 15.64000 34.36600
H  47.20800 17.08400 35.01000
N  49.10800 16.76300 27.03700
C  50.15000 17.18100 27.81000
C  51.37700 17.43100 27.07500
C  50.91200 17.25100 25.74700
C  49.53600 16.70900 25.73200
C  52.68900 17.67500 27.70900
C  51.81100 17.44600 24.38400
O  51.31900 17.10000 23.26900
C  53.09800 17.99700 24.35400
N  46.59400 15.73700 25.55200
C  47.42400 16.19800 24.55800
C  46.62700 16.17400 23.27500
C  45.42400 15.31800 23.55700
C  45.48500 15.23300 25.05400
C  46.30300 17.70900 22.94700
C  45.40300 13.87500 23.01800
C  44.08600 13.44900 22.33100
N  45.36400 15.28600 27.97700
C  44.29800 14.82000 27.15800
C  43.21200 14.43500 28.01500
C  43.64500 14.74900 29.36800
C  44.98300 15.26900 29.22600
C  41.93700 13.62900 27.62700
C  43.30500 14.70100 30.76900
O  42.32900 14.28700 31.35200
C  44.54100 15.28700 31.52100
C  44.02100 16.42000 32.34900
O  43.76300 17.50000 31.94700
O  43.67800 15.95000 33.63100
C  42.68300 16.77000 34.31600
H  50.80300 17.79100 29.75800
H  49.14200 16.72300 23.62700
H  43.49600 14.45200 25.22300
H  46.87800 17.46600 32.48700
H  49.64100 16.77500 31.96000
H  49.10800 19.46100 30.90000
H  49.88500 19.04800 32.39200
H  48.16000 19.19500 32.45800
H  48.74400 15.22000 32.86600
H  47.12300 14.65600 32.38800
H  47.92200 14.98700 34.95600
H  46.27200 15.22200 34.39300
H  53.37500 16.90600 27.35400
H  52.51800 17.45200 28.76300
H  52.92600 18.72100 27.51900
H  53.04100 18.77300 23.59100
H  53.76500 17.19200 24.04700
H  53.40500 18.44300 25.30100
H  47.25400 15.70100 22.51900
H  44.53400 15.90700 23.33300
H  47.21000 18.20100 22.59700
H  45.97800 18.26800 23.82500
H  45.50900 17.69100 22.20100
H  45.71700 13.09200 23.70900
H  46.12800 13.61500 22.24700
H  43.35100 14.25300 22.36600
H  43.75000 12.47900 22.69700
H  44.27600 13.24000 21.27800
H  41.04700 14.24900 27.52200
H  41.64600 12.76000 28.21700
H  42.29400 13.20900 26.68700
H  44.96500 14.43600 32.05400
H  41.78800 16.99100 33.73400
H  43.15300 17.63700 34.78100
H  42.26100 16.16400 35.11800
Mg 49.96300 46.55300 43.33200
C  46.73900 46.95900 42.34200
C  50.00800 43.45900 41.73800
C  53.25600 46.53200 43.67700
C  49.96900 49.99100 44.47600
N  48.58700 45.41800 42.09300
C  47.30300 45.77100 41.89600
C  46.54300 44.75900 41.04000
C  47.55100 43.56600 40.94800
C  48.77700 44.14200 41.66900
C  47.02300 42.22400 41.47200
C  45.98100 45.32700 39.67000
C  44.65900 44.74000 39.29700
H  44.61400 43.72200 38.09400
N  51.41300 45.12500 42.94400
C  51.22900 43.97000 42.24400
C  52.49500 43.26700 42.24300
C  53.47100 44.05700 42.94600
C  52.76200 45.29400 43.25700
C  52.65700 41.91200 41.48800
C  54.93900 43.80800 43.14300
O  55.41500 42.77900 42.72800
C  55.88300 44.69000 44.06700
N  51.44700 48.03400 44.03500
C  52.74400 47.75200 44.08800
C  53.51000 49.01600 44.60700
C  52.49600 50.15400 44.66300
C  51.19700 49.40500 44.38800
C  54.11600 48.71300 46.01200
C  52.77700 51.35900 43.66200
C  53.26100 52.64200 44.35200
N  48.61900 48.15600 43.51500
C  48.76500 49.46900 43.96600
C  47.44000 50.11200 43.93600
C  46.61900 49.15600 43.25900
C  47.43700 48.00700 43.03500
C  47.07600 51.38500 44.46600
C  45.29500 48.90800 42.70500
O  44.24800 49.61100 42.73600
C  45.30300 47.43800 42.17000
C  44.27500 46.69800 42.96600
O  44.15700 46.58400 44.19100
O  43.42100 46.05700 42.07100
C  42.57700 44.97100 42.54500
H  50.07900 42.51600 41.19300
H  54.34000 46.59800 43.78600
H  49.89900 51.05800 44.69900
H  45.65300 44.39800 41.55400
H  47.71600 43.40200 39.88300
H  46.06100 42.33300 41.97300
H  47.77300 41.74400 42.10100
H  46.89200 41.48700 40.68000
H  46.74500 45.10800 38.92400
H  45.99000 46.41700 39.69400
H  43.93800 45.55100 39.19400
H  44.21400 44.13300 40.08500
H  53.11700 42.12100 40.52200
H  51.72300 41.35100 41.46100
H  53.37700 41.27300 42.00000
H  56.50400 43.92800 44.53900
H  55.28500 45.14400 44.85800
H  56.48200 45.34900 43.44000
H  54.35000 49.21000 43.94000
H  52.45400 50.56500 45.67200
H  54.44100 49.59500 46.56500
H  54.94100 48.04000 45.77700
H  53.30700 48.23700 46.56500
H  51.80900 51.60900 43.22800
H  53.44800 51.03000 42.86800
H  54.34200 52.77900 44.32200
H  52.98000 52.54200 45.40000
H  52.82900 53.55400 43.94000
H  47.44200 52.21500 43.86100
H  47.39600 51.51800 45.49900
H  46.00000 51.53200 44.37600
H  45.00500 47.47900 41.12200
H  42.13700 45.08500 43.53600
H  43.14200 44.03900 42.54300
H  41.75000 44.83700 41.84700

