158

Mg 17.22800 -2.02800 27.23000
C  16.28000 0.01500 29.85900
C  19.22400 -3.77700 29.47200
C  18.69300 -3.48700 24.65200
C  15.26600 -0.13800 25.10400
N  17.82400 -1.74700 29.35500
C  17.21500 -0.92500 30.28600
C  17.66500 -1.19900 31.76500
C  18.76700 -2.24400 31.49700
C  18.65300 -2.62900 30.05000
C  20.29900 -1.80200 31.71800
C  16.49900 -1.75200 32.64600
C  16.50700 -1.34200 34.12100
H  17.74300 -0.85600 34.83800
N  18.57500 -3.55300 27.09000
C  19.24000 -4.17700 28.12100
C  19.96400 -5.27500 27.53800
C  19.96700 -5.08700 26.11300
C  19.05000 -3.98300 25.89400
C  20.69300 -6.37400 28.39700
C  20.67600 -5.93500 25.01200
O  20.70500 -5.70200 23.82400
C  21.32900 -7.19900 25.46000
N  17.21000 -1.63300 25.13100
C  17.79400 -2.51400 24.26900
C  17.46400 -2.17500 22.80200
C  16.03100 -1.51300 23.07700
C  16.18500 -0.97900 24.48800
C  18.48100 -1.27500 22.12400
C  14.82300 -2.51600 22.69200
C  14.24800 -3.29600 23.84200
N  16.01300 -0.31600 27.39800
C  15.24700 0.27200 26.42200
C  14.43500 1.27500 27.02800
C  14.76300 1.20900 28.39400
C  15.78100 0.27300 28.56600
C  13.34500 2.06900 26.34500
C  14.50900 1.71400 29.72800
O  13.67200 2.54100 30.11200
C  15.47100 0.97900 30.71300
C  16.35300 1.97500 31.39000
O  17.40400 2.45700 30.93900
O  15.72000 2.33800 32.53600
C  16.36700 3.44000 33.26700
H  19.78900 -4.46800 30.10000
H  19.12600 -3.83000 23.71000
H  14.57200 0.36100 24.42500
H  18.13700 -0.25000 32.02100
H  18.65100 -3.08000 32.18700
H  20.82600 -2.16500 30.83600
H  20.78800 -2.24000 32.58800
H  20.25600 -0.71600 31.79600
H  16.62900 -2.83400 32.63000
H  15.52500 -1.63800 32.17200
H  16.01500 -2.13600 34.68300
H  15.78900 -0.52200 34.14900
H  20.40000 -7.37700 28.08800
H  20.31600 -6.33900 29.42000
H  21.78200 -6.36400 28.35200
H  20.68800 -7.90200 25.99300
H  22.12400 -6.76400 26.06600
H  21.90000 -7.70400 24.68200
H  17.40600 -3.14900 22.31600
H  15.87800 -0.62700 22.46000
H  19.41000 -1.20800 22.69100
H  18.10200 -0.29800 21.82400
H  18.73100 -1.84100 21.22700
H  15.18600 -3.25900 21.98200
H  14.07300 -1.83200 22.29400
H  13.95900 -2.55900 24.59200
H  15.01000 -3.93400 24.28900
H  13.37400 -3.93700 23.72600
H  13.71100 2.66500 25.51000
H  12.74700 2.55500 27.11600
H  12.77000 1.27300 25.87200
H  14.77200 0.48200 31.38500
H  15.68900 3.88700 33.99300
H  16.63600 4.21000 32.54200
H  17.32800 3.19000 33.71500
Mg -5.38100 25.13100 25.94400
C  -3.86700 26.67600 28.66800
C  -6.80400 22.89200 28.15300
C  -7.09300 23.78000 23.39600
C  -3.66400 27.14700 23.77800
N  -5.32200 24.80600 28.12800
C  -4.74500 25.65800 29.06000
C  -5.13900 25.27300 30.54300
C  -5.66600 23.78300 30.24600
C  -5.94500 23.83400 28.78300
C  -4.74600 22.64000 30.82200
C  -6.28100 26.17700 31.14400
C  -5.94900 26.68400 32.55700
H  -6.90100 26.34100 33.66700
N  -6.76900 23.55700 25.70800
C  -7.29800 22.77800 26.80800
C  -8.43700 21.92300 26.39200
C  -8.56900 22.16300 25.01400
C  -7.48500 23.23300 24.65300
C  -9.09100 21.02900 27.38400
C  -9.47800 21.64200 23.87700
O  -9.36700 22.10100 22.72800
C  -10.36600 20.38700 24.13700
N  -5.17000 25.30700 23.90200
C  -6.07700 24.67800 23.04600
C  -5.74100 24.99000 21.59300
C  -4.70800 26.24200 21.70600
C  -4.42200 26.19500 23.18600
C  -5.33500 23.72700 20.76500
C  -5.27800 27.61000 21.12600
C  -4.93600 27.93800 19.62800
N  -4.01900 26.57200 26.13800
C  -3.33900 27.27700 25.16500
C  -2.46000 28.27300 25.72400
C  -2.69800 28.12200 27.12600
C  -3.61300 27.00800 27.32400
C  -1.57200 29.20700 24.97600
C  -2.32000 28.67700 28.49000
O  -1.65700 29.62200 28.95200
C  -3.11400 27.67800 29.47800
C  -2.09300 27.00800 30.28500
O  -1.21100 26.22700 29.78400
O  -2.06200 27.54900 31.56800
C  -0.92500 27.20700 32.37600
H  -7.19500 22.14300 28.84500
H  -7.72300 23.62200 22.51800
H  -3.05400 27.81200 23.16300
H  -4.36300 25.18400 31.30300
H  -6.65700 23.59900 30.66200
H  -3.84000 22.55400 30.22200
H  -5.36400 21.74200 30.83300
H  -4.52100 22.85000 31.86800
H  -7.27100 25.72200 31.16800
H  -6.19300 27.08500 30.54800
H  -6.19000 27.74700 32.54900
H  -4.92100 26.44700 32.83100
H  -9.38100 21.53100 28.30700
H  -8.31700 20.30300 27.63200
H  -9.97300 20.50800 27.01100
H  -9.71700 19.70100 24.68100
H  -10.69000 20.09400 23.13800
H  -11.14400 20.82000 24.76500
H  -6.70000 25.34900 21.21800
H  -3.78200 25.96400 21.20300
H  -5.40600 22.87100 21.43700
H  -4.30400 23.82400 20.42500
H  -6.06300 23.78500 19.95600
H  -4.86900 28.39100 21.76700
H  -6.35900 27.72900 21.20000
H  -4.06400 27.39300 19.26500
H  -4.71500 29.00400 19.57900
H  -5.78100 27.64700 19.00300
H  -2.09000 29.96000 24.38200
H  -0.83100 28.57700 24.48400
H  -0.96400 29.72300 25.72000
H  -3.74200 28.25700 30.15600
H  -1.28800 26.59500 33.20100
H  -0.70100 28.16800 32.84000
H  -0.03700 26.77600 31.91300

