158

Mg 39.86900 8.75200 29.53800
C  41.53900 10.08900 32.29500
C  37.49900 7.38600 31.53800
C  38.59800 7.04400 26.86200
C  42.59900 9.74900 27.60200
N  39.61300 8.69800 31.64800
C  40.31500 9.46400 32.59000
C  39.60600 9.48000 33.98700
C  38.54000 8.34800 33.84700
C  38.57700 8.03700 32.29000
C  38.88700 6.95600 34.54600
C  39.03500 10.85700 34.41100
C  38.75400 11.16500 35.94100
H  39.65700 12.11700 36.77700
N  38.29300 7.45200 29.22600
C  37.38400 7.08200 30.15100
C  36.37400 6.37000 29.52500
C  36.57000 6.33600 28.11000
C  37.84000 6.92600 28.02900
C  35.25100 5.74100 30.35200
C  35.80300 5.71000 27.04700
O  36.28300 5.52300 25.91600
C  34.31300 5.47500 27.31400
N  40.60600 8.41600 27.57000
C  39.83600 7.73500 26.66500
C  40.54500 7.72500 25.24500
C  41.51300 8.91000 25.49500
C  41.56900 9.11100 26.98800
C  41.28400 6.35600 24.96800
C  41.04200 10.19800 24.74800
C  39.74000 10.81300 25.10300
N  41.70600 9.78000 29.81400
C  42.76200 10.09800 28.96100
C  43.86200 10.66400 29.64700
C  43.36700 10.74600 31.01600
C  42.12200 10.16700 31.00200
C  45.16600 11.24400 29.10200
C  43.64700 11.43300 32.28000
O  44.40200 12.30500 32.66300
C  42.49800 10.85800 33.17100
C  43.09000 10.09300 34.33100
O  43.96300 9.29400 34.23900
O  42.54700 10.59300 35.52500
C  43.11400 10.01500 36.74500
H  36.69300 7.07700 32.20700
H  38.25400 6.50400 25.97800
H  43.43100 10.09500 26.98500
H  40.35400 9.23000 34.73900
H  37.58600 8.73700 34.20000
H  38.82000 6.17300 33.79100
H  38.15500 6.75100 35.32700
H  39.82200 6.86600 35.09900
H  38.15300 11.13300 33.83300
H  39.71200 11.67900 34.17800
H  38.73600 10.28100 36.57800
H  37.76000 11.57500 36.12200
H  35.35200 5.63700 31.43300
H  34.97300 4.77200 29.93700
H  34.35700 6.35800 30.26600
H  33.87500 6.32600 27.83600
H  34.26800 4.57900 27.93300
H  33.70200 5.19000 26.45800
H  39.87800 7.91100 24.40300
H  42.50900 8.51600 25.29600
H  42.32000 6.34200 24.63100
H  40.67800 5.87100 24.20300
H  41.21000 5.71900 25.85000
H  41.02700 9.94300 23.68900
H  41.83100 10.92500 24.94300
H  39.88200 11.84700 25.41600
H  39.19300 10.16700 25.79100
H  39.20000 10.81200 24.15600
H  45.25800 12.25000 29.51000
H  45.20100 11.28400 28.01300
H  45.96600 10.56900 29.40500
H  41.98800 11.73900 33.55900
H  42.84500 10.59900 37.62500
H  44.18400 10.20300 36.65400
H  43.01000 8.93100 36.80900
Mg 27.00600 50.43900 25.71800
C  25.13000 51.76600 28.33400
C  29.35100 49.51400 28.15400
C  29.17200 49.73400 23.25200
C  24.89000 51.97500 23.40400
N  27.25200 50.67300 27.99300
C  26.33100 51.20300 28.83400
C  26.60200 50.87300 30.36000
C  28.15000 50.50700 30.30400
C  28.27100 50.20100 28.74600
C  29.16000 51.49700 30.87300
C  25.68700 49.74700 30.83500
C  24.62500 50.17800 31.90900
H  24.68300 49.52300 33.30700
N  28.87400 49.59000 25.76300
C  29.67700 49.26500 26.84400
C  30.93600 48.72800 26.37200
C  30.88700 48.82500 24.93900
C  29.58400 49.35400 24.60300
C  32.01100 48.18000 27.26000
C  31.96100 48.51800 23.96700
O  31.85100 48.55600 22.73800
C  33.29300 48.17700 24.36900
N  27.06500 50.81700 23.56900
C  28.04800 50.43800 22.77600
C  27.69500 50.57900 21.31400
C  26.27200 51.29000 21.34200
C  26.08800 51.46400 22.87400
C  28.85400 51.33700 20.58900
C  25.10100 50.45800 20.60900
C  24.58000 49.07000 21.15700
N  25.33600 51.58800 25.76600
C  24.51400 52.06600 24.71900
C  23.35300 52.72200 25.30800
C  23.65000 52.66200 26.68400
C  24.83800 51.97700 26.98400
C  22.26800 53.31000 24.55300
C  23.06000 53.04200 27.96100
O  21.96800 53.56200 28.20600
C  23.98900 52.42100 29.17200
C  24.40600 53.58600 30.11700
O  25.37900 54.28700 29.96100
O  23.49300 53.73600 31.14000
C  23.84900 54.68800 32.17500
H  30.02600 48.93400 28.78600
H  29.78500 49.50200 22.37900
H  24.21500 52.31600 22.61600
H  26.45500 51.84500 30.83200
H  28.23500 49.53300 30.78500
H  28.59600 52.29500 31.35600
H  29.74200 51.84100 30.01800
H  29.68700 51.00500 31.69000
H  26.29900 48.98400 31.31600
H  25.08700 49.27900 30.05500
H  23.62100 49.99200 31.52800
H  24.83500 51.23600 32.06900
H  32.81700 48.86600 27.00000
H  32.30700 47.15700 27.02600
H  31.90100 48.15600 28.34400
H  34.00500 47.92100 23.58500
H  33.30500 47.35000 25.07900
H  33.65700 49.13300 24.74800
H  27.52800 49.55900 20.96800
H  26.39700 52.25300 20.84700
H  29.66900 51.62400 21.25400
H  28.44300 52.21200 20.08600
H  29.31000 50.63600 19.89100
H  25.54500 50.26300 19.63300
H  24.33500 51.21000 20.41700
H  24.81500 49.05200 22.22100
H  24.94000 48.21700 20.58100
H  23.49800 49.13200 21.04100
H  21.34200 52.86000 24.91100
H  22.34700 53.25200 23.46700
H  22.23000 54.37500 24.78100
H  23.36700 51.69700 29.69800
H  22.98600 54.93800 32.79200
H  24.27100 55.63900 31.85000
H  24.60300 54.14800 32.74800

