158

Mg 29.67800 57.24600 40.19000
C  27.11800 54.78700 39.25600
C  32.09300 54.83100 39.25400
C  31.84000 59.68400 40.11900
C  26.98200 59.47600 40.63000
N  29.58200 55.02000 39.35200
C  28.42800 54.34800 39.06000
C  28.84800 53.07600 38.33800
C  30.38800 52.98500 38.71400
C  30.75900 54.34200 39.11300
C  30.72800 51.92100 39.73500
C  28.51000 53.15400 36.79300
C  27.29700 52.33500 36.25100
H  26.44300 53.09400 35.19400
N  31.74400 57.29800 39.89300
C  32.47500 56.17700 39.54600
C  33.84400 56.62900 39.42100
C  33.87900 58.03700 39.70400
C  32.44900 58.39800 39.95300
C  34.95300 55.63800 39.06400
C  35.13100 58.98100 39.66500
O  36.20900 58.50100 39.46200
C  35.00300 60.44500 39.98400
N  29.41400 59.26400 40.19300
C  30.52500 60.10700 40.31500
C  30.08400 61.58400 40.39200
C  28.53600 61.48100 40.74500
C  28.28400 59.99700 40.52400
C  30.93500 62.44100 41.36500
C  27.59000 62.46600 39.94400
C  26.71300 63.35200 40.75800
N  27.48200 57.14800 40.05600
C  26.61500 58.17300 40.31000
C  25.24100 57.66400 40.27400
C  25.40500 56.33800 39.74700
C  26.80500 56.07800 39.71300
C  23.95300 58.39300 40.75100
C  24.71700 55.12900 39.31300
O  23.50600 55.00900 39.03900
C  25.82800 54.08400 38.94500
C  25.50700 52.98700 39.78700
O  26.25700 52.61500 40.64400
O  24.33100 52.37400 39.51300
C  24.04100 51.17500 40.31600
H  32.81100 54.07600 38.92600
H  32.58400 60.48400 40.13300
H  26.20200 60.19100 40.89900
H  28.32400 52.19100 38.69900
H  30.89700 52.80800 37.76700
H  31.52100 52.41600 40.29600
H  31.17800 51.09700 39.18300
H  29.85400 51.57300 40.28500
H  29.35400 52.66200 36.31000
H  28.46900 54.16000 36.37400
H  26.73400 51.90200 37.07900
H  27.75800 51.44100 35.83300
H  35.89300 56.07200 38.72500
H  34.59200 55.01700 38.24400
H  35.22100 55.09700 39.97200
H  34.55400 60.40400 40.97600
H  34.49300 60.97000 39.17700
H  35.99900 60.88700 40.03200
H  30.17000 61.95400 39.37000
H  28.47600 61.77800 41.79200
H  31.45200 63.11700 40.68300
H  31.69200 61.87200 41.90500
H  30.41600 63.05500 42.10100
H  26.84800 61.76200 39.56800
H  27.98800 63.07700 39.13500
H  26.42800 64.18900 40.12000
H  27.18600 63.78300 41.64100
H  25.82200 62.93300 41.22600
H  23.97500 58.24200 41.83000
H  23.02200 58.03900 40.30800
H  23.91400 59.45100 40.49400
H  25.73700 53.73800 37.91600
H  23.34600 51.39400 41.12600
H  24.89700 50.78500 40.86800
H  23.64100 50.38500 39.68100
Mg 0.79500 42.10000 26.45200
C  2.28100 42.23600 29.50200
C  -2.23100 41.43700 28.11000
C  -0.68600 41.68000 23.46500
C  3.86300 42.70400 24.94500
N  0.15400 41.83000 28.59800
C  0.89100 42.04200 29.68000
C  0.05200 42.02100 30.92600
C  -1.39400 41.61300 30.56700
C  -1.16400 41.62000 29.01300
C  -1.96900 40.31200 31.26500
C  0.14000 43.39300 31.79500
C  0.07500 43.38300 33.35100
H  -0.35400 42.01200 34.09500
N  -1.09200 41.42300 25.92900
C  -2.18900 41.28900 26.68300
C  -3.27700 40.82400 25.87400
C  -2.90500 41.01000 24.52900
C  -1.50500 41.42800 24.58400
C  -4.63000 40.36000 26.42400
C  -3.79400 40.80600 23.22800
O  -3.36600 40.86700 22.08700
C  -5.23800 40.37200 23.41300
N  1.45700 42.29800 24.50400
C  0.69500 41.98700 23.43600
C  1.32800 42.16500 22.09900
C  2.74700 42.49700 22.51300
C  2.73500 42.62000 24.07900
C  1.24200 40.90500 21.16200
C  3.44700 43.62200 21.76700
C  3.29500 43.63300 20.20700
N  2.72900 42.44300 27.05900
C  3.93600 42.71000 26.35600
C  5.06400 42.77800 27.21400
C  4.41400 42.53200 28.50900
C  3.03200 42.39000 28.32000
C  6.47900 42.86500 26.88700
C  4.71000 42.34900 29.91600
O  5.77200 42.29500 30.51400
C  3.29700 42.27000 30.66900
C  3.37900 41.06600 31.48500
O  3.16100 39.94000 31.13700
O  3.90400 41.36200 32.78700
C  4.17800 40.25300 33.74200
H  -3.22900 41.29100 28.53000
H  -1.24900 41.56800 22.53700
H  4.82400 42.96100 24.49300
H  0.53200 41.17300 31.41400
H  -2.06500 42.45700 30.72900
H  -2.93600 40.61200 31.67000
H  -1.34800 39.96000 32.08900
H  -2.25000 39.62800 30.46500
H  -0.69600 43.98400 31.42100
H  1.09000 43.86600 31.54200
H  -0.69800 44.12500 33.55000
H  1.05200 43.71600 33.70400
H  -5.06000 39.43600 26.03700
H  -5.31100 41.20900 26.36100
H  -4.57300 40.20400 27.50100
H  -5.69900 41.06200 24.12000
H  -5.32900 39.31300 23.65500
H  -5.84100 40.51100 22.51500
H  1.04600 43.13000 21.67800
H  3.43200 41.69600 22.23500
H  0.68500 41.26200 20.29500
H  0.59700 40.21200 21.70200
H  2.16200 40.36600 20.93500
H  4.50100 43.58000 22.04100
H  2.93200 44.46200 22.23100
H  3.08000 44.64600 19.87000
H  2.42300 43.04000 19.93000
H  4.15000 43.24600 19.65400
H  6.86600 41.85100 26.78900
H  7.03300 43.32100 27.70800
H  6.59600 43.41900 25.95600
H  3.18800 43.14900 31.30600
H  5.25600 40.13200 33.84700
H  3.59300 39.35700 33.53200
H  3.72500 40.73400 34.60900

