158

Mg -1.70000 17.31400 26.65400
C  -1.66300 14.98800 29.12500
C  -2.30300 19.72100 29.03800
C  -1.73600 19.56900 24.13800
C  -1.48600 14.81800 24.32400
N  -1.83700 17.36300 28.81700
C  -1.76000 16.27500 29.62000
C  -1.96900 16.76500 31.09400
C  -2.50300 18.22200 30.96300
C  -2.16500 18.45400 29.54700
C  -4.00700 18.38900 31.34400
C  -0.55100 16.63000 31.89900
C  -0.07400 17.55800 33.02300
H  0.44600 16.95600 34.36600
N  -1.92700 19.31200 26.60100
C  -2.10700 20.13100 27.69400
C  -2.16200 21.54200 27.19600
C  -1.73900 21.51400 25.82800
C  -1.76100 20.14000 25.47200
C  -2.57200 22.79500 28.12800
C  -1.54100 22.68600 24.85300
O  -1.38500 22.56400 23.61600
C  -1.50700 24.07000 25.41100
N  -1.89100 17.21000 24.48900
C  -1.78200 18.27300 23.67900
C  -1.81900 17.86900 22.14900
C  -1.62100 16.32700 22.22100
C  -1.67900 16.08200 23.81900
C  -3.09900 18.37200 21.41000
C  -0.32000 15.79800 21.50400
C  1.00900 15.95000 22.34100
N  -1.75400 15.32600 26.64200
C  -1.57100 14.42100 25.63400
C  -1.49900 13.11700 26.16200
C  -1.57200 13.27900 27.55900
C  -1.67700 14.66700 27.77900
C  -1.26700 11.76600 25.45300
C  -1.57500 12.51800 28.82200
O  -1.36300 11.32800 29.09300
C  -1.87000 13.60900 29.88200
C  -0.95800 13.35400 31.02700
O  0.26200 13.58900 30.91100
O  -1.53800 12.85600 32.14400
C  -0.65900 12.65000 33.27900
H  -2.36600 20.44400 29.85300
H  -1.71700 20.31700 23.34200
H  -1.25000 14.04100 23.59400
H  -2.62500 16.07800 31.62700
H  -1.83700 18.90300 31.49100
H  -4.56800 17.60100 31.84700
H  -4.55100 18.60800 30.42500
H  -4.14600 19.28600 31.94800
H  0.28200 16.59500 31.19700
H  -0.73700 15.64900 32.33600
H  -0.78900 18.35000 33.24500
H  0.76300 18.06400 32.54200
H  -3.03000 22.41800 29.04200
H  -3.32700 23.31900 27.54100
H  -1.62300 23.26300 28.38900
H  -0.74400 24.06200 26.19000
H  -2.47100 24.30700 25.86100
H  -1.33500 24.79400 24.61500
H  -0.94100 18.31800 21.68400
H  -2.53900 15.92200 21.79500
H  -2.77800 19.09800 20.66200
H  -3.75400 18.97000 22.04300
H  -3.65400 17.57900 20.90800
H  -0.14700 16.23400 20.52000
H  -0.50300 14.72900 21.39600
H  0.84000 16.52900 23.24900
H  1.81700 16.29700 21.69700
H  1.31300 14.95700 22.67200
H  -0.58200 11.06900 25.93400
H  -1.01300 11.84900 24.39600
H  -2.22900 11.26000 25.37200
H  -2.87600 13.43500 30.26500
H  -0.23800 13.58200 33.65700
H  0.15000 12.01100 32.92500
H  -1.19200 11.97800 33.95300
Mg -9.68500 40.38800 42.08800
C  -8.72300 37.00300 40.90900
C  -6.76100 41.51800 40.81100
C  -11.04300 43.38800 42.21300
C  -12.95900 38.80800 42.56600
N  -8.03900 39.36700 40.85500
C  -7.72900 38.00200 40.75900
C  -6.31600 37.83500 40.06200
C  -5.65700 39.20800 40.36400
C  -6.83300 40.11100 40.72700
C  -4.61200 39.30400 41.56100
C  -6.44000 37.43200 38.58900
C  -5.80900 36.12000 37.99300
H  -5.58000 36.21300 36.49500
N  -8.98900 42.26600 41.69000
C  -7.75600 42.53300 41.12900
C  -7.56800 43.94300 41.16100
C  -8.81900 44.50500 41.48700
C  -9.68000 43.41600 41.81100
C  -6.32000 44.62900 40.71000
C  -9.21100 46.06000 41.50700
O  -8.48100 46.98200 41.19700
C  -10.52000 46.51500 42.06100
N  -11.65700 40.97300 42.29100
C  -11.96100 42.33500 42.39700
C  -13.44600 42.64500 42.74600
C  -14.07100 41.18500 42.94900
C  -12.87300 40.25700 42.51200
C  -13.61400 43.58600 44.00800
C  -15.48300 40.91800 42.30000
C  -16.46000 40.04500 43.06700
N  -10.61400 38.33700 42.01700
C  -11.95500 37.89300 42.22700
C  -12.02200 36.39900 42.07800
C  -10.75300 36.01000 41.63900
C  -9.94900 37.20100 41.57100
C  -13.23500 35.54700 42.17500
C  -10.04800 34.87400 41.14400
O  -10.33600 33.70200 41.09400
C  -8.56600 35.51000 40.73200
C  -7.57900 34.79500 41.57400
O  -7.10600 35.21400 42.65200
O  -7.33100 33.64400 40.89300
C  -6.53700 32.62200 41.47900
H  -5.79300 41.92800 40.51800
H  -11.54300 44.31700 42.49300
H  -13.88600 38.26200 42.75400
H  -5.77100 37.02000 40.53800
H  -5.12000 39.60400 39.50200
H  -3.58700 39.27200 41.19200
H  -4.83100 38.44200 42.19100
H  -4.77400 40.18200 42.18700
H  -5.92200 38.24700 38.08500
H  -7.50800 37.45000 38.37000
H  -6.46400 35.26200 38.14500
H  -4.92600 35.82700 38.56100
H  -5.97600 44.23500 39.75300
H  -5.56500 44.39700 41.46100
H  -6.29700 45.71600 40.62700
H  -10.71700 46.05600 43.03000
H  -11.29500 46.09700 41.41800
H  -10.49500 47.60200 42.13400
H  -13.77600 43.22100 41.88100
H  -14.19500 41.15600 44.03200
H  -12.71700 43.62900 44.62600
H  -14.49000 43.22600 44.54800
H  -13.82700 44.63000 43.77800
H  -15.40900 40.51800 41.28900
H  -15.84800 41.92700 42.11300
H  -17.39900 40.58500 43.18400
H  -16.13300 40.04200 44.10700
H  -16.63400 38.99500 42.83200
H  -13.96000 35.59800 41.36300
H  -13.73400 35.84600 43.09700
H  -12.81500 34.57100 42.41700
H  -8.30100 35.21900 39.71600
H  -5.85800 33.01500 42.23700
H  -6.00900 32.05600 40.71200
H  -7.21700 31.94700 41.99900

