158

Mg 9.67800 4.37300 27.78600
C  10.81600 2.71000 30.84200
C  7.85500 6.37600 29.65900
C  8.10300 5.46900 24.89100
C  11.10500 1.81200 25.88500
N  9.27800 4.42200 30.05400
C  10.02600 3.86900 31.08600
C  9.75400 4.55100 32.41100
C  8.60600 5.54600 32.01900
C  8.55100 5.44200 30.46400
C  7.18000 5.23400 32.67800
C  11.04100 5.17000 33.13800
C  11.60900 4.41500 34.31400
H  11.90700 5.28200 35.58100
N  8.26900 5.81300 27.40100
C  7.63000 6.56900 28.26300
C  6.78400 7.58600 27.62500
C  6.99300 7.42200 26.21100
C  7.86800 6.26000 26.04200
C  6.07700 8.65500 28.48300
C  6.48200 8.21400 25.01800
O  6.74200 7.98600 23.87700
C  5.61100 9.51600 25.24700
N  9.78700 3.85700 25.66600
C  8.85100 4.24800 24.80200
C  8.98400 3.57000 23.40900
C  10.14800 2.55500 23.67600
C  10.45100 2.78800 25.15200
C  7.79800 2.95800 22.81300
C  11.36600 2.76900 22.72100
C  11.62500 1.93500 21.44400
N  10.77800 2.68400 28.19300
C  11.17500 1.67300 27.32300
C  11.67800 0.55400 28.08200
C  11.60700 0.95000 29.44800
C  11.04800 2.18100 29.47600
C  12.15500 -0.74200 27.49400
C  11.89700 0.50600 30.83800
O  12.40200 -0.57800 31.19700
C  11.45800 1.72300 31.83100
C  10.57200 1.11200 32.84100
O  9.37000 1.15800 32.84000
O  11.31500 0.47500 33.82000
C  10.67200 0.37700 35.11400
H  7.58300 7.18500 30.34200
H  7.69800 5.69700 23.90300
H  11.50300 1.04200 25.22100
H  9.33200 3.68000 32.91400
H  8.86900 6.57400 32.27200
H  7.16300 4.37600 33.35000
H  6.48400 5.04100 31.86200
H  6.78300 6.05900 33.27000
H  10.80200 6.21000 33.36000
H  11.68900 5.15000 32.26100
H  12.54100 3.95700 33.98300
H  10.81500 3.72500 34.59700
H  4.99900 8.72600 28.33600
H  6.57100 9.57700 28.17800
H  6.17200 8.50100 29.55700
H  5.44600 9.87100 24.23000
H  6.07400 10.34100 25.78800
H  4.60500 9.22300 25.54800
H  9.21800 4.40800 22.75200
H  9.85300 1.50800 23.59600
H  7.88700 1.89000 22.61700
H  7.61800 3.55000 21.91600
H  6.88900 3.07700 23.40300
H  12.24100 2.62900 23.35500
H  11.39800 3.78900 22.33700
H  11.88200 2.57800 20.60200
H  10.74300 1.31800 21.27400
H  12.41400 1.19600 21.58300
H  11.94600 -1.59700 28.13700
H  13.17600 -0.62700 27.12800
H  11.58400 -0.90500 26.58000
H  12.37200 2.14400 32.25100
H  11.48900 0.41200 35.83500
H  10.15800 -0.58400 35.14100
H  9.90900 1.12100 35.33900
Mg 46.61800 24.70400 29.53700
C  47.26700 26.95900 32.14900
C  46.12600 22.26200 31.89000
C  46.69100 22.44000 27.10900
C  47.71400 27.27900 27.33100
N  46.60100 24.62700 31.77100
C  46.88300 25.69500 32.63600
C  46.67700 25.19500 34.05100
C  46.55200 23.65900 33.93700
C  46.37500 23.51000 32.42900
C  47.61500 22.83900 34.72300
C  45.40900 25.99300 34.61900
C  45.58900 26.44600 36.13600
H  44.42400 26.13500 37.11000
N  46.34700 22.63200 29.51300
C  46.02400 21.81800 30.56600
C  45.83700 20.47500 30.12100
C  46.05600 20.47600 28.73000
C  46.35100 21.91500 28.39000
C  45.50600 19.34000 31.10300
C  46.10500 19.27200 27.79800
O  46.57800 19.36800 26.66700
C  45.56600 17.96800 28.29700
N  47.14200 24.86500 27.56400
C  47.06200 23.71200 26.75200
C  47.47100 24.16500 25.32200
C  47.40100 25.68700 25.33700
C  47.41700 25.97200 26.83300
C  48.86500 23.51500 24.91600
C  46.20300 26.28900 24.59100
C  44.75300 26.11200 25.20400
N  47.21100 26.84900 29.62900
C  47.67100 27.73400 28.67300
C  48.18200 28.95400 29.30500
C  47.94600 28.71900 30.67300
C  47.43500 27.41100 30.79300
C  48.78100 30.17900 28.59400
C  48.13500 29.30700 31.94900
O  48.52700 30.40200 32.31500
C  47.74000 28.14400 33.01800
C  48.96200 27.59300 33.77100
O  50.06800 27.34300 33.32300
O  48.71100 27.56500 35.06900
C  49.71700 27.86000 36.08900
H  45.86900 21.51700 32.64600
H  46.67600 21.81000 26.21700
H  47.85600 28.02900 26.55000
H  47.54600 25.41400 34.67100
H  45.61000 23.37400 34.40500
H  48.35800 23.45400 35.23100
H  48.11300 22.25600 33.94800
H  47.03200 22.22900 35.41200
H  44.55400 25.34700 34.42000
H  45.11400 26.86700 34.04000
H  45.67600 27.52900 36.21800
H  46.48100 26.07200 36.63800
H  45.60700 19.57800 32.16200
H  46.23300 18.58900 30.79300
H  44.50300 18.94200 30.95400
H  45.35600 17.48400 27.34300
H  44.68700 18.11500 28.92500
H  46.38600 17.50400 28.84600
H  46.62900 23.83100 24.71700
H  48.29000 26.24100 25.03400
H  48.61800 22.64800 24.30400
H  49.46400 23.28100 25.79600
H  49.37300 24.23700 24.27500
H  46.22400 26.13600 23.51200
H  46.43600 27.35000 24.50900
H  44.74300 25.70700 26.21600
H  44.11200 25.40500 24.67700
H  44.33000 27.11000 25.32200
H  48.21200 31.08300 28.81000
H  48.83200 30.11200 27.50700
H  49.78000 30.16000 29.02900
H  46.96100 28.48900 33.69800
H  50.72400 27.55000 35.80800
H  49.49900 27.23100 36.95200
H  49.55900 28.90800 36.34500

