158

Mg 25.65100 -0.74000 29.28900
C  27.68000 -0.62600 32.12700
C  23.03400 0.21800 31.19900
C  23.76500 -0.52000 26.51700
C  28.39100 -1.74700 27.33200
N  25.43900 -0.36200 31.48900
C  26.40100 -0.14000 32.44400
C  25.88700 0.38600 33.78500
C  24.28900 0.45800 33.41900
C  24.20800 0.07400 31.93300
C  23.41700 -0.54300 34.30900
C  26.63200 1.69400 34.11000
C  27.59300 1.70700 35.31600
H  27.14800 2.64200 36.53500
N  23.62600 -0.27300 28.89900
C  22.74800 0.12500 29.87000
C  21.50100 0.42100 29.19000
C  21.73700 0.32800 27.80500
C  23.08600 -0.17100 27.69400
C  20.17300 0.72100 29.91100
C  20.91600 0.68400 26.62700
O  21.22100 0.50100 25.46900
C  19.54500 1.34900 26.86500
N  26.02900 -1.21400 27.20200
C  25.08700 -0.95900 26.19700
C  25.81400 -1.07500 24.81300
C  27.30200 -1.30000 25.14900
C  27.21500 -1.49800 26.64500
C  25.24500 -2.07000 23.75500
C  28.28000 -0.18200 24.62100
C  28.53000 1.06700 25.44200
N  27.61600 -1.23000 29.60800
C  28.56700 -1.69300 28.73600
C  29.72500 -1.98100 29.47200
C  29.51400 -1.50900 30.78100
C  28.15600 -1.13300 30.86600
C  31.04000 -2.45400 28.94100
C  30.12900 -1.28700 32.04400
O  31.26400 -1.52700 32.43100
C  29.02100 -0.61800 32.92500
C  29.04600 -1.33600 34.26800
O  28.43100 -2.34100 34.55000
O  29.74300 -0.54400 35.10900
C  29.90100 -1.14700 36.47300
H  22.20100 0.37400 31.88800
H  23.24700 -0.34200 25.57200
H  29.33300 -1.87700 26.79500
H  25.97200 -0.38900 34.54700
H  23.88300 1.46400 33.53100
H  24.04700 -0.97300 35.08700
H  22.74300 -1.24300 33.81600
H  22.69700 0.02200 34.90300
H  25.85200 2.43800 34.26900
H  27.21800 2.00100 33.24400
H  28.57000 2.08600 35.01600
H  27.73200 0.69400 35.69400
H  19.95400 1.78800 29.94000
H  20.30400 0.51600 30.97400
H  19.38700 0.08800 29.50000
H  19.45900 2.12600 27.62500
H  18.76400 0.63400 27.12300
H  19.20900 1.76000 25.91300
H  25.67100 -0.06500 24.42700
H  27.64100 -2.25200 24.74000
H  24.79400 -1.39900 23.02400
H  24.62000 -2.84800 24.19300
H  26.05600 -2.53700 23.19500
H  27.93400 0.08600 23.62300
H  29.30400 -0.54300 24.52600
H  27.94100 1.05300 26.35900
H  28.35300 1.96400 24.84800
H  29.58900 1.15300 25.68600
H  31.27400 -1.93100 28.01400
H  31.09500 -3.54100 28.88200
H  31.67300 -2.05500 29.73500
H  29.28800 0.42800 33.07700
H  29.17700 -0.69100 37.14800
H  30.92200 -1.05400 36.84300
H  29.79400 -2.22900 36.53900
Mg 8.78600 47.79600 26.65900
C  6.83300 47.44000 29.55200
C  11.51300 48.00700 28.82000
C  10.74600 47.98400 24.00600
C  5.91700 47.56000 24.74400
N  9.08000 47.81400 28.95600
C  8.14100 47.57600 29.95200
C  8.72100 47.64600 31.34000
C  10.22700 47.97100 31.07400
C  10.27600 47.92000 29.52900
C  10.78900 49.33700 31.74000
C  8.33900 46.48600 32.37400
C  9.40300 45.98800 33.40200
H  8.89200 45.49200 34.69500
N  10.84100 47.98100 26.46400
C  11.77300 48.02200 27.44700
C  13.11900 48.11100 26.86600
C  12.99200 48.17800 25.47000
C  11.49000 48.08400 25.25000
C  14.34500 48.12800 27.86100
C  13.99500 48.25200 24.33400
O  13.66700 48.56700 23.17100
C  15.46700 48.33700 24.77800
N  8.40900 47.86200 24.69900
C  9.36200 47.96400 23.76400
C  8.77600 48.15900 22.38500
C  7.27900 47.85500 22.59500
C  7.18300 47.73900 24.08400
C  9.16900 49.52300 21.55200
C  6.57200 46.72300 21.78400
C  5.70500 47.21000 20.59200
N  6.77700 47.68700 26.98900
C  5.73000 47.54500 26.10600
C  4.53900 47.43000 26.83700
C  4.90100 47.38600 28.19900
C  6.31400 47.54500 28.25100
C  3.09900 47.35600 26.28800
C  4.35500 47.20500 29.58800
O  3.19100 47.04700 29.96000
C  5.62400 47.24600 30.47600
C  5.55300 46.02000 31.30300
O  5.83800 44.89800 30.93600
O  5.14700 46.33500 32.53600
C  4.89000 45.23500 33.47900
H  12.33200 48.09800 29.53700
H  11.31400 48.14900 23.08800
H  4.95400 47.48600 24.23400
H  8.31800 48.54800 31.80200
H  10.96000 47.21200 31.34900
H  11.82700 49.14300 32.01100
H  10.22800 49.65200 32.62000
H  10.55300 50.04800 30.94800
H  8.13000 45.61300 31.75600
H  7.44300 46.81900 32.89800
H  10.16200 46.75100 33.56900
H  9.92300 45.15800 32.92300
H  15.14200 47.43000 27.60400
H  14.13800 47.78700 28.87500
H  14.76600 49.13000 27.77200
H  15.72000 47.38000 25.23500
H  15.49900 49.08400 25.57100
H  16.13000 48.48600 23.92600
H  9.22400 47.32700 21.84100
H  6.72400 48.78400 22.46400
H  9.13500 50.48600 22.06200
H  8.58600 49.56600 20.63200
H  10.21400 49.38700 21.27300
H  6.10200 46.05900 22.50900
H  7.35400 46.15300 21.28200
H  5.93300 48.24600 20.34400
H  4.63700 47.20900 20.81100
H  5.84900 46.53900 19.74500
H  2.54500 46.54700 26.76400
H  3.11700 47.18900 25.21100
H  2.51300 48.22200 26.59500
H  5.52000 47.99000 31.26600
H  3.82100 45.07700 33.62800
H  5.31100 45.29900 34.48200
H  5.49100 44.36400 33.21600

