158

Mg 40.66800 9.11000 29.61500
C  42.56100 10.31700 32.30900
C  38.41000 7.67800 31.80600
C  39.08600 7.98600 26.87300
C  43.27500 10.04900 27.48900
N  40.55800 8.95300 31.80900
C  41.41100 9.60800 32.73200
C  40.88300 9.42200 34.11100
C  39.51500 8.63700 33.94300
C  39.50000 8.36300 32.43000
C  39.22700 7.37900 34.81800
C  40.77200 10.76700 34.92000
C  39.47400 11.16700 35.72100
H  39.41700 12.05100 36.89600
N  39.04200 7.86900 29.36200
C  38.21000 7.40800 30.39400
C  37.12300 6.69000 29.80300
C  37.38100 6.72800 28.37700
C  38.49100 7.62200 28.13500
C  36.12400 5.93900 30.63500
C  36.56700 6.05000 27.25600
O  36.85500 6.04000 26.08500
C  35.44800 5.15100 27.56000
N  41.14500 8.97400 27.43000
C  40.25100 8.66500 26.49100
C  40.80500 8.72100 24.99900
C  42.24500 9.34800 25.26000
C  42.21900 9.55000 26.83000
C  40.81700 7.37700 24.22800
C  42.49900 10.70500 24.54700
C  41.75100 11.90700 25.08800
N  42.46000 10.05800 29.72800
C  43.43100 10.34800 28.82600
C  44.58900 10.92400 29.43900
C  44.29400 10.95500 30.78900
C  43.00300 10.41000 30.93600
C  45.82500 11.25500 28.65100
C  44.75900 11.28400 32.10200
O  45.79700 11.82000 32.43100
C  43.59700 11.00000 33.22000
C  44.25800 10.12800 34.15500
O  44.41000 8.90200 34.00800
O  44.70800 10.88000 35.13400
C  45.47800 10.33400 36.20100
H  37.61100 7.28800 32.43900
H  38.61200 7.61800 25.96000
H  44.21900 10.09200 26.94200
H  41.60100 8.74600 34.57600
H  38.68100 9.33800 33.90700
H  38.25300 7.38500 35.30900
H  40.06700 7.25400 35.50200
H  39.14800 6.55200 34.11200
H  40.92300 11.54900 34.17600
H  41.58900 10.93000 35.62300
H  39.08400 10.20700 36.05700
H  38.75600 11.58900 35.01800
H  35.95000 6.28700 31.65300
H  36.43400 4.90200 30.76800
H  35.23600 5.81900 30.01500
H  34.49200 5.59200 27.84300
H  35.72200 4.52900 28.41200
H  35.27700 4.35800 26.83200
H  40.07200 9.38500 24.54100
H  42.99600 8.60000 25.00700
H  40.02000 7.27200 23.49200
H  40.74200 6.63000 25.01800
H  41.74800 7.35100 23.66200
H  42.38000 10.69400 23.46300
H  43.55100 10.97800 24.63000
H  42.34100 12.62400 25.66000
H  40.91200 11.60700 25.71500
H  41.33300 12.47700 24.25800
H  46.22400 10.45000 28.03400
H  46.48900 11.55200 29.46300
H  45.62700 12.06100 27.94400
H  43.26000 11.97200 33.57900
H  46.14600 9.50900 35.95000
H  44.88100 9.85300 36.97500
H  46.12300 11.10300 36.62600
Mg -5.93900 25.49300 26.23300
C  -4.04100 26.95500 28.82000
C  -7.23200 23.33300 28.51000
C  -7.15700 23.80500 23.59900
C  -4.21000 27.71500 24.06700
N  -5.58700 25.18100 28.41000
C  -5.06000 26.10500 29.27800
C  -5.52600 25.87500 30.72100
C  -6.29900 24.54700 30.55500
C  -6.42300 24.29600 29.07600
C  -5.89800 23.27900 31.31900
C  -6.26800 27.08200 31.35600
C  -6.82300 26.83800 32.72300
H  -6.14800 25.82200 33.62700
N  -7.13500 23.84900 26.05100
C  -7.56900 23.09600 27.12100
C  -8.36900 22.00800 26.60200
C  -8.40900 22.17300 25.18700
C  -7.53700 23.27600 24.84200
C  -9.06500 21.11500 27.53700
C  -9.25500 21.44600 24.15400
O  -9.36900 21.82700 22.97900
C  -10.18500 20.36600 24.61500
N  -5.67500 25.62300 24.13500
C  -6.22900 24.79900 23.23800
C  -5.98800 25.25300 21.77600
C  -5.21700 26.56600 21.91700
C  -5.00800 26.70900 23.50100
C  -5.39100 24.14800 20.86300
C  -5.77300 27.84400 21.24200
C  -5.05600 28.47800 20.06200
N  -4.42100 27.00600 26.36800
C  -3.80100 27.79100 25.38600
C  -2.81700 28.66500 25.94700
C  -2.84000 28.28400 27.32800
C  -3.79600 27.28500 27.49000
C  -1.98200 29.70300 25.23700
C  -2.30900 28.56100 28.63500
O  -1.45300 29.42200 28.92400
C  -3.06900 27.69700 29.65600
C  -2.15000 27.09800 30.72100
O  -1.47100 26.10800 30.55500
O  -2.27400 27.82800 31.88900
C  -1.87600 27.21600 33.11500
H  -7.68000 22.67200 29.25600
H  -7.31700 23.21100 22.69600
H  -3.75000 28.43500 23.38700
H  -4.68700 25.69400 31.39400
H  -7.31200 24.79800 30.87000
H  -5.04300 23.38700 31.98600
H  -5.57200 22.44600 30.69600
H  -6.73900 23.02600 31.96500
H  -7.10700 27.19200 30.67000
H  -5.60500 27.94800 31.37900
H  -7.86900 26.57700 32.56400
H  -6.76500 27.74400 33.32700
H  -10.07900 21.51400 27.56500
H  -8.64300 21.21700 28.53600
H  -9.09600 20.05800 27.27400
H  -10.74300 20.00800 23.75000
H  -10.98800 20.72400 25.25800
H  -9.54800 19.61600 25.08300
H  -6.95600 25.52700 21.35700
H  -4.17600 26.49500 21.60200
H  -5.53200 23.13300 21.23600
H  -4.31200 24.29800 20.84200
H  -5.86700 24.17400 19.88300
H  -5.84900 28.58200 22.04000
H  -6.77000 27.64600 20.84900
H  -4.44600 29.31700 20.39800
H  -5.82400 28.92600 19.43100
H  -4.48900 27.75700 19.47300
H  -2.03800 29.73400 24.14900
H  -0.94000 29.70300 25.55900
H  -2.33100 30.64000 25.67100
H  -3.69100 28.50300 30.04500
H  -1.27100 28.00200 33.56700
H  -1.35500 26.26300 33.03000
H  -2.74600 27.17900 33.77100

