158

Mg 27.18000 50.21100 27.51600
C  24.95900 51.33100 30.10600
C  29.44800 49.45800 30.04000
C  29.43700 49.89700 25.23500
C  24.80500 51.51600 25.12800
N  27.16400 50.41600 29.76200
C  26.11600 50.72400 30.60000
C  26.44600 50.55800 32.07000
C  27.96800 50.17100 32.03300
C  28.25200 50.08000 30.55100
C  28.97000 51.18000 32.76400
C  25.46400 49.43200 32.68600
C  24.78400 49.76200 34.02800
H  24.93800 48.73000 35.17400
N  29.13100 49.52000 27.60600
C  29.86500 49.21100 28.72100
C  31.19600 48.86800 28.23700
C  31.30000 49.14400 26.85800
C  29.96300 49.53900 26.49400
C  32.29800 48.42900 29.22900
C  32.50200 49.21800 25.94700
O  32.41700 49.74800 24.84300
C  33.85200 48.70500 26.40700
N  27.15600 50.82700 25.53600
C  28.15300 50.24600 24.78500
C  27.82400 50.40200 23.30300
C  26.33900 50.81400 23.26700
C  26.08000 51.03300 24.71300
C  28.76300 51.38200 22.60000
C  25.43000 49.76200 22.54900
C  24.62600 50.32500 21.36700
N  25.24900 51.16700 27.54900
C  24.45700 51.68200 26.52500
C  23.30300 52.35200 27.03300
C  23.48700 52.20400 28.44700
C  24.65700 51.50000 28.73200
C  22.20100 52.95100 26.25500
C  22.85500 52.51600 29.70400
O  21.77900 53.10900 29.91700
C  23.80400 51.92300 30.85400
C  24.26300 53.18500 31.58000
O  25.26800 53.83500 31.26400
O  23.54200 53.44900 32.72600
C  24.06900 54.54200 33.48200
H  30.05900 49.00600 30.82500
H  30.12700 49.52200 24.47700
H  24.05100 51.78400 24.38400
H  26.35600 51.50600 32.60100
H  28.04100 49.13400 32.36100
H  29.79900 51.39800 32.09100
H  29.34500 50.77000 33.70200
H  28.54000 52.16200 32.95900
H  25.91700 48.44100 32.69700
H  24.63800 49.14600 32.03400
H  23.73700 49.91300 33.76700
H  25.21600 50.71400 34.33600
H  32.49000 47.37500 29.02700
H  32.09700 48.41700 30.30000
H  33.14500 49.11000 29.14800
H  34.53800 48.67900 25.56100
H  33.65900 47.71400 26.81700
H  34.07500 49.34600 27.26000
H  27.91700 49.38400 22.92600
H  26.23200 51.82600 22.87600
H  28.35800 52.18600 21.98600
H  29.28900 50.67400 21.95900
H  29.50000 51.78100 23.29800
H  24.66900 49.28600 23.16600
H  26.08400 48.96900 22.18700
H  24.96700 51.33100 21.12500
H  23.53800 50.25800 21.40000
H  24.95400 49.73000 20.51500
H  21.55600 53.63300 26.80900
H  21.58300 52.23400 25.71600
H  22.59300 53.64200 25.50800
H  23.25700 51.23000 31.49400
H  23.50400 54.80400 34.37600
H  24.22700 55.46800 32.93000
H  24.99800 54.14100 33.88800
Mg -5.68600 24.26200 25.54900
C  -4.23000 26.03800 28.18700
C  -7.54600 22.47300 27.83700
C  -6.79700 22.39000 22.97200
C  -3.85400 26.24900 23.28600
N  -5.78100 24.26900 27.70300
C  -5.15700 25.08800 28.59900
C  -5.64400 24.79900 30.12900
C  -6.20500 23.31000 29.94600
C  -6.56100 23.35300 28.40000
C  -5.25900 22.14100 30.33000
C  -6.71300 25.83700 30.58500
C  -6.58400 26.41500 31.95300
H  -5.92800 25.50400 32.98600
N  -7.05400 22.66300 25.43000
C  -7.78600 22.08200 26.48500
C  -8.63800 21.02200 25.96500
C  -8.54800 21.11500 24.52900
C  -7.45300 22.05900 24.25100
C  -9.44800 20.24800 26.87600
C  -9.32200 20.42800 23.39100
O  -9.14700 20.64400 22.20400
C  -10.46400 19.43300 23.72900
N  -5.42300 24.33900 23.49200
C  -5.99700 23.39700 22.66000
C  -5.55200 23.68300 21.14100
C  -5.10800 25.09300 21.29700
C  -4.70800 25.22100 22.75700
C  -4.43500 22.71000 20.68000
C  -6.07600 26.23700 20.92300
C  -5.50000 27.16400 19.87100
N  -4.30000 25.87200 25.64100
C  -3.67900 26.56900 24.66800
C  -2.70100 27.47300 25.31300
C  -2.91300 27.33700 26.65800
C  -3.88500 26.31400 26.85400
C  -1.68900 28.25300 24.53000
C  -2.53700 27.90900 28.00900
O  -1.90400 28.86600 28.37200
C  -3.42400 27.01500 29.06500
C  -2.46900 26.32900 29.95900
O  -1.88700 25.27400 29.69200
O  -2.30500 27.08300 31.13300
C  -1.36900 26.56100 32.16300
H  -8.10500 21.91900 28.59400
H  -7.08500 21.85400 22.06500
H  -3.25600 26.82400 22.57600
H  -4.82800 24.75200 30.85000
H  -7.18200 23.13300 30.39600
H  -4.30000 22.48900 30.71500
H  -5.04200 21.61800 29.39900
H  -5.82300 21.52300 31.02900
H  -7.74200 25.49700 30.47300
H  -6.60900 26.69300 29.91800
H  -7.63700 26.50200 32.22200
H  -6.02000 27.34700 31.90400
H  -9.11700 19.23300 27.09700
H  -10.49600 20.16900 26.59000
H  -9.46300 20.70100 27.86700
H  -11.28300 20.01500 24.15000
H  -9.95700 18.72100 24.38000
H  -10.81300 18.92900 22.82800
H  -6.47800 23.56400 20.58000
H  -4.19700 25.30400 20.73600
H  -4.88900 22.33600 19.76200
H  -4.21400 21.94900 21.42800
H  -3.48200 23.18100 20.43700
H  -6.35500 26.81800 21.80200
H  -7.02600 25.78200 20.64300
H  -4.70900 27.75600 20.33300
H  -6.25000 27.88600 19.54900
H  -5.07400 26.76900 18.94900
H  -0.93400 27.62800 24.05300
H  -1.20000 28.88600 25.27100
H  -2.12000 28.92800 23.79000
H  -4.00800 27.61000 29.76700
H  -1.78000 26.81700 33.13900
H  -0.40900 27.05700 32.02100
H  -1.19300 25.49800 31.99700

