158

Mg 49.50700 44.60400 43.60900
C  46.22700 45.24400 42.38600
C  49.05500 41.25700 42.64300
C  52.73800 44.11400 43.88600
C  49.86900 48.20600 43.93700
N  47.82200 43.43600 42.67200
C  46.63100 43.92300 42.25800
C  45.76700 42.82000 41.53200
C  46.53800 41.53100 42.01000
C  47.91700 42.09000 42.38600
C  46.01700 40.78400 43.22400
C  45.71400 42.97200 39.97700
C  44.85000 41.90100 39.31200
H  45.50000 41.17900 38.13100
N  50.77100 42.91000 43.31800
C  50.39400 41.65200 42.97700
C  51.53000 40.75200 43.08100
C  52.56300 41.53900 43.52500
C  52.03000 42.91200 43.68900
C  51.40000 39.26100 42.85600
C  54.01900 41.02900 43.77600
O  54.27500 39.82900 43.76600
C  55.14800 41.96100 44.18700
N  51.02500 45.96100 43.73000
C  52.30800 45.48400 43.97800
C  53.34000 46.68200 44.14100
C  52.37300 47.93000 44.17500
C  50.97400 47.35400 43.97900
C  54.14500 46.40100 45.43100
C  52.64300 48.99000 43.04600
C  52.53000 50.47000 43.48800
N  48.30100 46.39200 43.50300
C  48.53700 47.67900 43.71600
C  47.29800 48.43300 43.57100
C  46.37300 47.53700 43.01600
C  47.04400 46.27900 43.01200
C  47.18700 49.92100 43.79400
C  45.02900 47.41700 42.45100
O  44.13100 48.28600 42.36000
C  44.94700 45.99000 41.88500
C  43.66700 45.32400 42.07300
O  42.92900 45.05300 41.14000
O  43.35500 45.12600 43.39200
C  41.94700 44.65100 43.62200
H  48.86300 40.18500 42.55800
H  53.78900 43.95900 44.13900
H  50.09100 49.27100 44.02800
H  44.79700 42.84100 42.02800
H  46.54000 40.79900 41.20300
H  45.72000 39.78400 42.90900
H  45.10400 41.22600 43.62300
H  46.84800 40.59300 43.90300
H  46.71700 42.80300 39.58300
H  45.31900 43.91900 39.61000
H  43.90900 42.38200 39.04400
H  44.56600 41.12800 40.02500
H  52.39100 38.84800 42.67000
H  50.71800 39.00500 42.04500
H  50.91600 38.87700 43.75300
H  56.04000 41.40000 44.47000
H  54.90800 42.37700 45.16500
H  55.38000 42.78000 43.50700
H  53.84000 46.65200 43.17300
H  52.36200 48.34700 45.18200
H  53.52900 45.78200 46.08300
H  54.32600 47.26700 46.06700
H  55.08400 45.96200 45.09400
H  52.01600 48.91800 42.15700
H  53.65900 48.77100 42.71800
H  52.18000 50.61900 44.51000
H  51.75000 50.87300 42.84100
H  53.45200 51.04900 43.44200
H  47.16200 50.38300 42.80700
H  47.96100 50.37500 44.41200
H  46.25400 50.16100 44.30300
H  44.99500 46.08400 40.80000
H  41.18500 45.42700 43.55200
H  41.88700 44.25400 44.63500
H  41.72400 43.87200 42.89300
Mg 26.77500 50.59900 26.65900
C  24.75200 51.58400 29.19500
C  29.17200 49.81000 28.93600
C  28.80900 49.98600 24.11500
C  24.33500 51.58300 24.38000
N  27.00800 50.72300 28.90500
C  25.94200 51.03600 29.66100
C  26.37600 50.68000 31.19300
C  27.87100 50.25100 31.07900
C  28.01300 50.22700 29.57600
C  28.87500 51.19800 31.89200
C  25.40900 49.59500 31.81600
C  24.78200 49.99900 33.18600
H  24.99900 49.28900 34.49500
N  28.65100 49.89300 26.56300
C  29.50700 49.68200 27.57100
C  30.89500 49.46500 27.12300
C  30.82100 49.53100 25.68300
C  29.36600 49.85300 25.39800
C  32.15300 49.02100 27.90500
C  31.88500 49.37500 24.62100
O  31.53000 49.46500 23.49900
C  33.31000 49.08000 24.98100
N  26.64100 50.82200 24.50300
C  27.56000 50.28200 23.68400
C  27.03500 50.11200 22.23000
C  25.53600 50.48500 22.36400
C  25.45900 51.00900 23.82600
C  27.78200 51.14100 21.18900
C  24.58300 49.25100 22.08900
C  23.28100 49.54300 21.31600
N  25.06100 51.48700 26.73300
C  24.23600 51.91500 25.71300
C  23.02800 52.57300 26.25100
C  23.28700 52.48500 27.60400
C  24.47300 51.83200 27.83900
C  21.84700 53.03000 25.47400
C  22.63000 52.71000 28.89900
O  21.55300 53.17800 29.21100
C  23.61600 52.17300 30.01400
C  24.04300 53.24300 30.95000
O  24.80900 54.12200 30.62900
O  23.46900 53.16300 32.16600
C  23.76100 54.25300 33.17400
H  30.00000 49.61200 29.62000
H  29.36400 49.52900 23.29200
H  23.53300 51.80000 23.67100
H  26.17400 51.59700 31.74900
H  27.90800 49.20300 31.37800
H  28.33200 51.78500 32.63200
H  29.47200 51.70900 31.13600
H  29.48700 50.52500 32.49300
H  25.99900 48.68500 31.92700
H  24.61700 49.31800 31.12100
H  23.72900 49.88500 32.93000
H  24.83700 51.07300 33.36200
H  32.41600 48.01100 27.59300
H  32.02400 48.99900 28.98700
H  32.99000 49.63500 27.57300
H  33.28000 48.17300 25.58500
H  33.74000 49.94500 25.48600
H  33.84300 48.77600 24.08000
H  27.14200 49.04900 22.01100
H  25.34400 51.28500 21.64900
H  28.41400 51.70900 21.87200
H  27.14700 51.80800 20.60500
H  28.40700 50.45500 20.61700
H  24.28300 48.83400 23.05000
H  25.18200 48.65300 21.40200
H  23.06400 48.94900 20.42800
H  23.34400 50.61600 21.13500
H  22.44100 49.34200 21.98000
H  21.60600 52.31400 24.68900
H  22.08800 54.02200 25.09300
H  20.97100 53.12300 26.11600
H  23.03500 51.44100 30.57500
H  24.26300 53.70500 33.97200
H  22.78600 54.57300 33.54300
H  24.39100 55.05200 32.78500

