158

Mg -1.40800 17.70600 27.24000
C  -2.17200 15.36200 29.71400
C  -1.79700 20.20500 29.51400
C  -1.18500 19.95300 24.69100
C  -1.51300 15.09700 24.81000
N  -2.01000 17.73400 29.36900
C  -2.03900 16.65700 30.18800
C  -1.95300 17.04600 31.65500
C  -2.00200 18.63700 31.55300
C  -1.90100 18.90900 30.04300
C  -3.01700 19.46100 32.35500
C  -0.68200 16.41700 32.47000
C  -0.24900 17.11200 33.73100
H  -0.23400 16.32300 35.13900
N  -1.50800 19.80600 27.14900
C  -1.70200 20.62100 28.20400
C  -1.59400 21.98900 27.73500
C  -1.47000 21.97600 26.31100
C  -1.39200 20.53500 25.95400
C  -1.77600 23.14500 28.74600
C  -1.30400 23.09500 25.29500
O  -1.03900 22.90900 24.12000
C  -1.30500 24.47600 25.80800
N  -1.37500 17.51700 25.08800
C  -1.28900 18.61300 24.29600
C  -1.17300 18.25100 22.72100
C  -1.16700 16.71600 22.79900
C  -1.35200 16.40000 24.29300
C  -2.25100 18.90900 21.72300
C  0.12900 16.10200 22.26800
C  1.32400 16.47100 23.11500
N  -1.72800 15.61600 27.22400
C  -1.76300 14.76000 26.13000
C  -2.09700 13.41100 26.65500
C  -2.22700 13.60400 28.05600
C  -2.04700 14.94400 28.35800
C  -2.35700 12.09300 25.87900
C  -2.46000 12.92300 29.25800
O  -2.71200 11.76100 29.48900
C  -2.52200 14.02300 30.40400
C  -1.52700 13.54700 31.38600
O  -0.31700 13.53000 31.25000
O  -2.12300 12.88900 32.41500
C  -1.24900 12.18400 33.35200
H  -1.56800 20.94000 30.28900
H  -1.14200 20.55900 23.78400
H  -1.47800 14.31000 24.05300
H  -2.82100 16.70500 32.21800
H  -1.01100 18.96500 31.86700
H  -3.80000 19.75400 31.65600
H  -2.57200 20.41000 32.65400
H  -3.46300 18.94000 33.20300
H  0.25500 16.21300 31.95100
H  -0.98900 15.43600 32.83300
H  -0.95400 17.90700 33.97600
H  0.61300 17.73900 33.50500
H  -1.53700 22.88600 29.77700
H  -2.80900 23.49000 28.68400
H  -1.17300 23.99900 28.43800
H  -1.27800 25.23700 25.02700
H  -0.44400 24.57000 26.46900
H  -2.17000 24.71100 26.42800
H  -0.17300 18.60900 22.47700
H  -2.00300 16.25700 22.27200
H  -2.99400 18.23200 21.30300
H  -1.64400 19.19800 20.86500
H  -2.68100 19.78100 22.21600
H  0.27100 16.52900 21.27500
H  0.04800 15.01600 22.21900
H  1.57500 15.61900 23.74700
H  1.17500 17.40800 23.65100
H  2.16600 16.73900 22.47800
H  -1.51300 11.44200 26.10800
H  -2.51000 12.27300 24.81500
H  -3.28900 11.62600 26.19600
H  -3.55800 13.89800 30.72200
H  -0.40900 11.73200 32.82400
H  -1.80500 11.40900 33.88000
H  -0.73200 12.89300 34.00000
Mg 27.13700 51.20200 26.00900
C  25.15700 52.21100 28.77200
C  29.46400 49.89700 28.15300
C  28.76700 50.18000 23.42700
C  24.99100 53.01000 24.00500
N  27.25500 51.14100 28.18000
C  26.35000 51.53200 29.15800
C  26.93500 51.34100 30.55600
C  28.36300 50.64800 30.28700
C  28.38700 50.67800 28.75200
C  29.57400 51.29800 31.02000
C  25.93600 50.55100 31.56500
C  25.62800 51.35300 32.84500
H  26.73900 51.59800 33.91400
N  28.92900 50.19000 25.81700
C  29.75000 49.69200 26.79100
C  30.83500 49.00300 26.15800
C  30.56900 48.89700 24.79100
C  29.39500 49.78100 24.65500
C  31.91500 48.43300 26.98500
C  31.29400 48.21900 23.61500
O  30.90100 48.09800 22.48600
C  32.48900 47.39500 24.07500
N  27.10800 51.73900 23.98000
C  27.81300 51.00200 23.08900
C  27.25800 51.20300 21.63900
C  26.13800 52.20600 21.82300
C  26.05400 52.31500 23.37800
C  28.37400 51.63100 20.63400
C  24.84100 51.72600 21.01000
C  24.09400 50.54100 21.49800
N  25.36900 52.43000 26.26200
C  24.53400 53.04500 25.33300
C  23.25400 53.43300 25.94200
C  23.52100 53.22400 27.29500
C  24.78400 52.57100 27.43800
C  22.11100 54.10700 25.25600
C  22.93800 53.35100 28.66100
O  21.83600 53.74900 28.97000
C  24.07500 52.86000 29.67100
C  24.79900 54.00300 30.25100
O  25.57400 54.68700 29.65700
O  24.28800 54.27400 31.49700
C  24.73700 55.51400 32.15400
H  30.16600 49.45500 28.86200
H  29.10400 49.53500 22.61200
H  24.34600 53.61500 23.36500
H  27.06500 52.28700 31.08200
H  28.24300 49.64300 30.69200
H  30.34500 50.55000 31.20900
H  29.17300 51.79300 31.90400
H  29.86600 52.12100 30.36700
H  26.39000 49.58400 31.78000
H  25.00800 50.27500 31.06400
H  24.73900 51.04700 33.39700
H  25.44900 52.37600 32.51100
H  31.93500 48.97400 27.93100
H  32.90000 48.54800 26.53400
H  31.74300 47.36000 27.07900
H  33.16700 48.06100 24.60900
H  32.90000 46.81900 23.24700
H  32.15600 46.65600 24.80300
H  26.77200 50.36100 21.14600
H  26.45900 53.19800 21.50400
H  28.20500 52.64500 20.27100
H  28.26800 50.94500 19.79400
H  29.37200 51.69300 21.06900
H  25.22300 51.54100 20.00600
H  24.05000 52.47500 20.96700
H  24.08600 49.95900 20.57700
H  23.09400 50.79900 21.84700
H  24.77400 50.05900 22.20100
H  22.33900 55.13400 24.97200
H  21.35800 54.16000 26.04200
H  21.73200 53.59600 24.37100
H  23.77000 52.15100 30.44100
H  24.27800 55.75700 33.11300
H  24.59300 56.42000 31.56600
H  25.82600 55.49500 32.14100

