158

Mg 41.00100 8.57200 30.34600
C  42.81900 9.75300 33.02100
C  38.48400 7.71500 32.53200
C  39.30900 7.52600 27.65400
C  43.56900 9.54000 28.19900
N  40.74800 8.53200 32.57200
C  41.60800 9.26600 33.42000
C  40.97700 9.42200 34.80800
C  39.74400 8.40700 34.73100
C  39.64000 8.16600 33.19100
C  39.75300 7.09800 35.57600
C  40.50200 10.82200 35.19900
C  40.04400 11.02400 36.66100
H  40.60200 12.16100 37.51600
N  39.20000 7.67800 30.13200
C  38.27800 7.40800 31.15500
C  37.10300 6.74200 30.55100
C  37.22700 6.84400 29.18800
C  38.60100 7.38100 28.91400
C  35.88000 6.28300 31.32700
C  36.22400 6.51300 28.08100
O  36.49300 6.76600 26.90500
C  34.90500 5.90200 28.32800
N  41.46400 8.31900 28.20700
C  40.56000 7.92000 27.33500
C  41.13200 7.94900 25.92700
C  42.38400 8.90400 26.07200
C  42.45200 8.97900 27.57000
C  41.53600 6.55400 25.33600
C  42.36700 10.24600 25.37300
C  41.87400 11.53700 26.04400
N  42.86000 9.42100 30.52300
C  43.82700 9.72400 29.59100
C  44.88600 10.47200 30.21200
C  44.54200 10.54600 31.55500
C  43.29900 9.84100 31.74400
C  46.07400 11.00800 29.53500
C  44.95400 11.03200 32.81600
O  45.93300 11.71800 33.20500
C  43.87000 10.52000 33.82200
C  44.60200 9.90200 34.93000
O  45.05400 8.76100 34.91300
O  44.82100 10.77200 35.97200
C  45.68200 10.31900 37.06700
H  37.66000 7.44600 33.19800
H  38.80700 7.25000 26.72500
H  44.35900 10.08100 27.67300
H  41.67100 9.01500 35.54400
H  38.83800 8.93200 35.03300
H  40.06500 6.38400 34.81400
H  38.80900 6.79000 36.02600
H  40.50300 7.10600 36.36700
H  39.67700 11.06100 34.52800
H  41.27100 11.57100 35.01400
H  40.27200 10.13500 37.25000
H  38.97900 11.20900 36.52100
H  36.15700 6.09400 32.36400
H  35.47100 5.35400 30.92900
H  35.09300 7.03400 31.39600
H  35.01600 4.91400 28.77500
H  34.41100 5.80900 27.36000
H  34.23200 6.41300 29.01600
H  40.53500 8.35300 25.10900
H  43.37800 8.54100 25.80800
H  42.61500 6.47800 25.47000
H  41.24900 6.40900 24.29500
H  41.10600 5.71200 25.87800
H  41.77900 10.12800 24.46300
H  43.37100 10.41600 24.98700
H  42.73600 12.19800 25.95500
H  41.43600 11.48000 27.04100
H  41.02600 11.91900 25.47600
H  45.83500 11.54100 28.61400
H  46.65800 10.16600 29.16300
H  46.76000 11.58600 30.15400
H  43.49600 11.51900 34.04400
H  45.00400 9.79800 37.74200
H  46.03500 11.20000 37.60300
H  46.51100 9.65700 36.81600
Mg 0.74600 42.71400 25.95500
C  1.77200 42.70200 29.21000
C  -2.38900 41.38900 26.96100
C  0.04500 41.90500 22.78000
C  4.06300 43.77200 24.99400
N  -0.16300 42.06600 27.88700
C  0.42200 42.29600 29.10700
C  -0.53300 41.90000 30.25800
C  -1.71100 41.25400 29.50200
C  -1.43000 41.58200 27.97100
C  -1.97800 39.68000 29.74300
C  -0.88400 43.07700 31.18000
C  -0.98700 42.68900 32.67100
H  -1.65900 41.31600 33.11300
N  -1.00900 41.94300 24.98900
C  -2.20600 41.55700 25.56100
C  -3.21800 41.42800 24.55000
C  -2.50200 41.46500 23.27100
C  -1.04700 41.71700 23.61700
C  -4.63200 41.23800 24.85300
C  -2.99500 41.18100 21.87600
O  -2.19100 41.17700 20.90700
C  -4.40200 40.99200 21.56700
N  1.84600 42.77700 24.20200
C  1.36400 42.34500 23.02700
C  2.27500 42.79000 21.90800
C  3.44600 43.58200 22.52300
C  3.11000 43.44900 24.00600
C  2.74900 41.62200 21.08600
C  3.43500 45.08300 22.08900
C  3.60500 45.32500 20.59200
N  2.52400 43.19400 26.87600
C  3.76900 43.63300 26.40000
C  4.68400 43.80100 27.44500
C  3.95600 43.39300 28.57000
C  2.62300 43.11400 28.16600
C  6.14800 44.28000 27.32900
C  4.07100 43.23300 29.98400
O  4.98200 43.39700 30.71400
C  2.67000 42.82700 30.44300
C  2.84900 41.46900 31.03000
O  3.57600 40.55800 30.66000
O  2.15800 41.48400 32.19400
C  2.45300 40.25200 32.96900
H  -3.37000 41.08600 27.33200
H  -0.12300 41.92500 21.70200
H  5.02200 44.19000 24.68000
H  -0.07300 41.18600 30.94100
H  -2.60600 41.77700 29.83900
H  -1.29300 39.23300 30.46300
H  -1.92500 39.23100 28.75100
H  -3.02500 39.53900 30.01000
H  -1.84500 43.53300 30.94600
H  -0.20400 43.91600 31.02800
H  -1.58400 43.50000 33.08700
H  0.06000 42.69900 32.97300
H  -5.27000 42.09400 24.63200
H  -4.77700 40.98000 25.90200
H  -5.03100 40.40000 24.28300
H  -4.70900 39.94900 21.65300
H  -4.61400 41.33000 20.55300
H  -4.94500 41.67900 22.21600
H  1.77900 43.46300 21.21000
H  4.37600 43.05600 22.30600
H  1.94600 41.28600 20.42900
H  2.95400 40.79600 21.76600
H  3.62700 41.86000 20.48500
H  4.18300 45.58800 22.70000
H  2.43300 45.43700 22.33100
H  2.68400 45.51200 20.03900
H  4.12500 44.49500 20.11300
H  4.25300 46.19800 20.51500
H  6.37900 44.42500 26.27400
H  6.85000 43.55300 27.73900
H  6.09800 45.22000 27.87900
H  2.22000 43.50200 31.17100
H  3.49800 40.39600 33.24400
H  2.26100 39.31300 32.45100
H  1.87900 40.37400 33.88800

