158

Mg -0.23600 7.66900 27.12300
C  0.88300 9.95000 29.53200
C  -0.41700 5.15900 29.32700
C  -1.06800 5.55600 24.61200
C  0.61600 10.11400 24.58900
N  0.07200 7.58500 29.17500
C  0.50100 8.67700 29.98500
C  0.27900 8.28200 31.46400
C  0.09900 6.69300 31.31600
C  -0.10900 6.44700 29.86300
C  1.16600 5.85900 32.01000
C  -0.97100 9.03200 32.11700
C  -1.03300 9.11100 33.69900
H  0.14100 8.62400 34.58700
N  -0.81900 5.61900 26.96300
C  -0.79000 4.74200 28.02800
C  -1.28400 3.44600 27.60900
C  -1.40700 3.50900 26.24700
C  -1.07200 4.92600 25.86500
C  -1.56200 2.22700 28.55000
C  -1.61000 2.36100 25.21800
O  -1.47500 2.58900 24.02500
C  -1.93700 1.00000 25.70000
N  -0.02700 7.78900 24.88400
C  -0.61600 6.79000 24.14800
C  -0.86300 7.15500 22.69900
C  -0.33500 8.61500 22.62200
C  0.12100 8.89900 24.09300
C  -0.18000 6.19800 21.77000
C  -1.18300 9.78300 22.03600
C  -0.45300 10.94500 21.26900
N  0.71000 9.56300 27.01400
C  0.92300 10.44700 25.96300
C  1.43800 11.74300 26.52400
C  1.33700 11.57700 27.89300
C  0.93800 10.26600 28.19200
C  1.77900 12.95500 25.76000
C  1.48300 12.34200 29.04600
O  1.67600 13.55300 29.27800
C  1.21700 11.29900 30.21800
C  2.31400 11.29300 31.16300
O  3.32500 10.63500 31.03000
O  2.01700 12.05600 32.27900
C  2.88600 11.92900 33.50700
H  -0.60600 4.43200 30.12000
H  -1.46500 4.86800 23.86300
H  0.82200 10.90900 23.86800
H  1.20000 8.44100 32.02700
H  -0.81600 6.36000 31.80600
H  0.58200 5.27000 32.71700
H  1.95200 6.44400 32.48800
H  1.49000 5.05800 31.34500
H  -1.77500 8.35400 31.83100
H  -1.29700 9.98400 31.69800
H  -1.96700 8.61100 33.95500
H  -0.99200 10.18900 33.85400
H  -1.68800 2.63300 29.55300
H  -0.78700 1.48800 28.75500
H  -2.49400 1.71200 28.31600
H  -2.15700 0.30800 24.88700
H  -2.79500 1.13400 26.35900
H  -1.01300 0.63000 26.14600
H  -1.92400 7.27600 22.48100
H  0.62800 8.63700 22.11200
H  0.36300 5.41300 22.29400
H  0.44800 6.76100 21.07900
H  -1.00500 5.77200 21.19900
H  -1.71900 10.16400 22.90500
H  -1.92500 9.29900 21.40000
H  -0.76500 10.85000 20.22900
H  0.62000 10.82500 21.41900
H  -0.67300 11.85600 21.82500
H  1.24100 13.76600 26.25100
H  1.40500 12.81600 24.74500
H  2.83500 13.22500 25.75700
H  0.25800 11.58300 30.65000
H  3.86700 11.50000 33.30400
H  2.31900 11.42800 34.29100
H  3.11100 12.94300 33.83700
Mg 27.47000 51.23200 25.95900
C  25.31700 52.37200 28.66700
C  29.54600 50.11700 28.31500
C  29.44700 50.52400 23.46500
C  25.24800 52.86100 23.83100
N  27.42500 51.33500 28.23700
C  26.40400 51.62200 29.08600
C  26.83600 51.42600 30.53400
C  28.33500 51.05600 30.42600
C  28.49800 50.84100 28.89400
C  29.29600 52.08900 31.06800
C  25.92300 50.39200 31.19000
C  25.00300 50.90800 32.36000
H  25.22000 50.16800 33.60800
N  29.30500 50.52300 25.96400
C  29.97300 49.95900 26.98900
C  31.23100 49.33500 26.51400
C  31.12600 49.39900 25.09500
C  29.89900 50.21200 24.75900
C  32.25000 48.67600 27.33000
C  32.14100 48.79700 24.12900
O  32.06200 49.08500 22.92500
C  33.22000 47.86900 24.51100
N  27.20100 51.50300 23.96700
C  28.19000 51.14400 23.11800
C  27.93800 51.49400 21.66700
C  26.49300 52.07400 21.73600
C  26.27800 52.18500 23.25800
C  28.92300 52.53000 20.91700
C  25.38100 51.14200 21.19300
C  24.32600 51.87900 20.47600
N  25.66900 52.35100 26.14300
C  24.98900 53.01400 25.15900
C  23.71500 53.63500 25.65900
C  23.88600 53.52000 27.12000
C  25.03100 52.64900 27.28900
C  22.65000 54.37300 24.83300
C  23.29800 53.83000 28.44900
O  22.35000 54.49700 28.80400
C  24.17600 53.06800 29.52300
C  24.70100 54.04300 30.52500
O  25.68900 54.79500 30.36400
O  24.03900 53.95800 31.68100
C  24.59700 54.84000 32.78700
H  30.16500 49.66900 29.09500
H  30.10700 50.22200 22.64800
H  24.52200 53.21000 23.09400
H  26.75400 52.38800 31.04100
H  28.41300 50.08800 30.92200
H  28.83100 52.78300 31.76800
H  29.59300 52.83600 30.33200
H  30.17700 51.60600 31.49000
H  26.53700 49.54900 31.50800
H  25.27700 49.87900 30.47700
H  23.97500 50.85000 32.00400
H  25.30300 51.94200 32.53200
H  32.29700 47.58900 27.27800
H  32.10400 48.95400 28.37400
H  33.24400 49.10800 27.21500
H  34.04100 48.40600 24.98700
H  33.58600 47.54600 23.53600
H  32.88600 46.96500 25.02100
H  27.91300 50.56300 21.10100
H  26.46200 53.09000 21.34100
H  28.42700 53.41400 20.51600
H  29.43800 51.89000 20.20200
H  29.66000 53.00500 21.56500
H  24.81700 50.74600 22.03800
H  25.79700 50.33700 20.58700
H  24.57100 51.82100 19.41500
H  24.25700 52.90300 20.84300
H  23.40700 51.30100 20.58000
H  22.98800 55.23600 24.25900
H  21.79500 54.63900 25.45500
H  22.21000 53.59900 24.20500
H  23.60900 52.28200 30.02100
H  24.18700 54.34400 33.66600
H  24.24800 55.87100 32.73200
H  25.66700 55.04800 32.80400

