158

Mg 35.24400 1.90300 29.27800
C  33.04800 2.98500 31.88900
C  37.78000 1.85300 31.72700
C  37.40500 0.96800 26.89400
C  32.68500 2.31100 27.07200
N  35.39600 2.27400 31.49100
C  34.31100 2.68800 32.33800
C  34.80200 2.70600 33.80800
C  36.35200 2.69700 33.69500
C  36.55600 2.22200 32.25200
C  37.00600 4.17000 33.85700
C  34.20600 1.66000 34.81200
C  33.81800 2.15300 36.24600
H  34.60800 3.29400 36.83400
N  37.32200 1.45000 29.38200
C  38.17200 1.55400 30.41300
C  39.47900 1.06900 29.98900
C  39.36900 0.70400 28.59900
C  38.00800 1.08800 28.20700
C  40.67900 1.15100 30.83600
C  40.44800 0.26000 27.66800
O  40.18400 -0.03500 26.50000
C  41.88300 0.00600 28.11900
N  35.16400 1.80700 27.20700
C  36.18100 1.34700 26.44700
C  35.72200 1.24000 24.97700
C  34.14200 1.36800 25.08500
C  33.97800 1.90600 26.54300
C  36.41600 2.27700 24.01500
C  33.34900 0.10100 24.91100
C  32.02000 0.23400 24.26700
N  33.31400 2.57000 29.41600
C  32.40800 2.67600 28.41500
C  31.17400 3.12100 28.93000
C  31.31100 3.21500 30.30300
C  32.62100 2.84600 30.54300
C  29.84300 3.20800 28.18000
C  30.62900 3.55300 31.60000
O  29.48800 3.78700 31.93900
C  31.80800 3.41400 32.68000
C  31.92200 4.68200 33.39000
O  32.68600 5.65200 33.17300
O  31.05000 4.63000 34.48300
C  31.33400 5.55100 35.59300
H  38.55400 1.94800 32.49000
H  38.03400 0.58800 26.08600
H  31.90100 2.33600 26.31300
H  34.56300 3.72000 34.13000
H  36.77700 2.08200 34.48800
H  36.29100 4.77900 34.41100
H  37.21900 4.71300 32.93600
H  37.89800 4.09500 34.47900
H  34.96000 0.88200 34.92800
H  33.30100 1.12100 34.53100
H  34.12200 1.32300 36.88300
H  32.77300 2.33300 36.50000
H  41.21800 0.20800 30.74500
H  40.45100 1.48900 31.84700
H  41.36200 1.92400 30.48300
H  42.21000 0.81000 28.77900
H  42.52700 -0.06900 27.24200
H  41.84600 -0.88400 28.74700
H  36.02900 0.22300 24.73300
H  33.90700 2.11400 24.32600
H  36.88500 1.89400 23.10900
H  37.27700 2.60100 24.59900
H  35.75200 3.11800 23.81700
H  33.25500 -0.34000 25.90400
H  33.88900 -0.55400 24.22800
H  31.95100 -0.34700 23.34700
H  31.80900 1.29600 24.14200
H  31.18500 -0.18300 24.83000
H  29.40400 2.21400 28.09000
H  30.01600 3.52000 27.15000
H  29.14400 3.88300 28.67300
H  31.56900 2.51700 33.25100
H  30.92700 5.16300 36.52700
H  30.67400 6.41600 35.52500
H  32.28900 6.06400 35.70500
Mg 26.95800 49.99100 27.11100
C  25.04100 51.22400 29.69600
C  29.42500 49.41900 29.44800
C  29.06700 49.35500 24.58000
C  24.71200 51.26800 24.79100
N  27.14000 50.24700 29.38700
C  26.10100 50.60800 30.24600
C  26.46500 50.26900 31.67500
C  27.97400 49.90200 31.48900
C  28.21200 49.84300 30.02900
C  28.94800 51.01600 32.10900
C  25.56400 49.17200 32.42600
C  24.91100 49.47000 33.79300
H  25.70500 50.12000 34.80500
N  28.92900 49.36100 27.04700
C  29.76300 49.11200 28.11100
C  30.99500 48.53000 27.63600
C  30.96200 48.66700 26.26700
C  29.64700 49.18200 25.90800
C  32.06100 47.97500 28.47800
C  31.95700 48.29400 25.21200
O  31.91800 48.67500 24.08600
C  33.13700 47.36500 25.52900
N  26.89300 50.37100 24.99100
C  27.81300 49.79100 24.21700
C  27.37700 49.73400 22.67700
C  25.88400 50.19600 22.85600
C  25.77700 50.58400 24.28500
C  28.17800 50.68100 21.79500
C  24.89500 49.12800 22.33900
C  24.31200 48.14300 23.35300
N  25.32100 51.13500 27.15000
C  24.48300 51.58600 26.16800
C  23.34400 52.18500 26.72000
C  23.49300 52.07800 28.07600
C  24.76100 51.52600 28.30000
C  22.20600 52.80800 25.91000
C  22.99800 52.41400 29.36300
O  21.97900 53.02900 29.67600
C  23.96200 51.81100 30.51600
C  24.46300 52.90400 31.43900
O  25.32300 53.72400 31.13000
O  23.78800 52.88100 32.64500
C  24.22900 53.84700 33.64200
H  30.09600 48.94300 30.16500
H  29.68100 49.03400 23.73600
H  23.94300 51.56200 24.07300
H  26.45800 51.24000 32.17100
H  28.13100 48.97900 32.04800
H  28.32800 51.78800 32.56500
H  29.60700 51.46000 31.36300
H  29.62200 50.50500 32.79700
H  26.10100 48.26300 32.69500
H  24.80000 48.82900 31.72800
H  24.35500 48.58400 34.09800
H  24.13000 50.17400 33.50500
H  32.31800 47.03500 27.98900
H  31.85400 47.82800 29.53800
H  32.93300 48.61600 28.34400
H  32.89900 46.38200 25.93600
H  33.80900 47.69100 26.32200
H  33.80200 47.20800 24.67900
H  27.52100 48.69300 22.38700
H  25.65800 51.08700 22.27000
H  29.10300 50.88900 22.33300
H  27.74200 51.65800 21.58600
H  28.27700 50.22000 20.81200
H  25.23700 48.52000 21.50200
H  24.03900 49.71100 21.99900
H  24.79600 48.31300 24.31400
H  24.45600 47.14700 22.93600
H  23.27600 48.41400 23.55700
H  21.93500 52.17600 25.06400
H  22.53900 53.81100 25.64400
H  21.37200 52.95500 26.59600
H  23.39700 51.09800 31.11700
H  23.81500 53.54800 34.60400
H  23.76900 54.80200 33.38600
H  25.31600 53.82300 33.72200

