158

Mg 48.31000 35.23400 27.62900
C  45.93500 33.87900 29.92100
C  48.55100 37.96400 29.68900
C  49.74600 36.78500 25.16400
C  47.45500 32.61800 25.42400
N  47.18600 35.91000 29.45700
C  46.37800 35.12500 30.27300
C  46.23400 35.75300 31.67300
C  46.72500 37.22200 31.44900
C  47.62800 36.95900 30.15500
C  45.56900 38.11800 31.15100
C  46.97500 34.88400 32.75200
C  48.03500 35.50700 33.81500
H  47.55800 35.94000 35.17900
N  49.12900 37.08400 27.44300
C  49.16400 38.02700 28.44600
C  50.13900 39.05300 27.97000
C  50.50000 38.70500 26.69800
C  49.75700 37.55600 26.35500
C  50.46800 40.21800 28.80900
C  51.44300 39.44900 25.70900
O  51.77100 39.03900 24.63500
C  52.08300 40.80100 26.13400
N  48.25000 34.89500 25.53000
C  49.10300 35.67800 24.78500
C  49.15900 35.12800 23.31300
C  48.67500 33.66700 23.55000
C  48.09100 33.72200 24.90000
C  48.12800 35.86600 22.44900
C  49.64900 32.47900 23.35100
C  49.21100 31.38300 22.32500
N  47.09700 33.56700 27.71000
C  46.91500 32.53700 26.74800
C  46.00600 31.52000 27.34300
C  45.55900 32.05100 28.51400
C  46.24400 33.27300 28.72900
C  45.71200 30.21500 26.71600
C  44.70400 31.80600 29.59200
O  43.97000 30.85500 29.90300
C  44.87200 33.06900 30.45900
C  44.93800 32.59700 31.87600
O  45.77700 31.85500 32.39500
O  43.78400 33.04500 32.52700
C  43.49700 32.72500 33.95400
H  48.73600 38.67000 30.50100
H  50.40900 37.23400 24.42100
H  47.44300 31.73200 24.78500
H  45.19400 35.68600 31.99400
H  47.29000 37.70400 32.24800
H  44.68400 37.60500 31.52600
H  45.43900 38.16400 30.07000
H  45.74200 39.11400 31.55900
H  47.42200 34.01000 32.27900
H  46.13500 34.59500 33.38300
H  48.60100 36.30600 33.33600
H  48.70900 34.66700 33.98200
H  49.96500 41.01700 28.26500
H  51.54000 40.38700 28.91000
H  49.90800 40.17800 29.74400
H  51.31000 41.43100 26.57600
H  52.57800 41.31500 25.31100
H  52.74000 40.56000 26.97000
H  50.16800 35.20100 22.90900
H  47.79600 33.45600 22.94000
H  48.57900 35.98200 21.46400
H  47.87200 36.80600 22.93800
H  47.15700 35.37400 22.38100
H  49.81800 31.88500 24.25000
H  50.62000 32.87100 23.04800
H  48.23500 31.60200 21.89200
H  49.31500 30.42200 22.82700
H  49.94700 31.55600 21.53900
H  46.68600 29.73000 26.65100
H  45.24500 30.40000 25.74900
H  44.96600 29.67100 27.29600
H  43.87300 33.50400 30.48400
H  44.19000 31.90300 34.13500
H  42.47500 32.48400 34.24500
H  43.84200 33.60500 34.49700
Mg -5.14500 26.30600 26.37600
C  -3.54800 27.45700 29.22900
C  -6.77200 24.04000 28.38700
C  -6.28000 24.81900 23.57900
C  -3.28700 28.40400 24.51100
N  -5.13900 25.86900 28.56900
C  -4.48700 26.50800 29.52800
C  -4.98800 26.07500 30.95100
C  -5.76000 24.78700 30.62700
C  -5.92000 24.87700 29.10800
C  -4.98400 23.52100 31.08200
C  -5.92400 27.19300 31.52100
C  -5.81600 27.26700 33.08400
H  -5.33700 26.18600 34.07000
N  -6.47400 24.77200 26.05900
C  -7.07700 23.94900 27.00400
C  -7.99400 23.03700 26.31300
C  -7.75000 23.16100 24.91800
C  -6.80300 24.34100 24.79800
C  -8.95100 22.14100 27.10800
C  -8.33100 22.44000 23.68300
O  -8.13600 22.73600 22.52300
C  -9.21700 21.28100 23.85000
N  -4.92700 26.65500 24.35700
C  -5.38700 25.89700 23.37400
C  -4.82300 26.30000 21.98200
C  -4.02100 27.59800 22.27100
C  -4.09900 27.55500 23.84700
C  -4.00400 25.27300 21.22600
C  -4.72000 28.91600 21.61400
C  -4.27900 29.06900 20.11200
N  -3.76200 27.73800 26.76000
C  -3.11400 28.49800 25.87900
C  -2.17000 29.27300 26.59300
C  -2.35400 28.93700 27.91800
C  -3.27700 27.97400 27.94800
C  -1.22900 30.24400 25.97900
C  -2.00000 29.29900 29.29700
O  -1.26000 30.18400 29.67500
C  -2.71500 28.31500 30.17200
C  -1.72900 27.53900 30.89900
O  -1.48800 26.39500 30.61000
O  -1.26000 28.17700 32.03400
C  -0.57500 27.29800 33.05900
H  -7.26600 23.35800 29.08200
H  -6.60800 24.43900 22.60900
H  -2.66100 28.98600 23.83100
H  -4.10100 25.94900 31.57200
H  -6.76200 24.80400 31.05500
H  -4.16200 23.76800 31.75300
H  -4.53600 22.99900 30.23600
H  -5.63800 22.87100 31.66300
H  -6.98900 27.04900 31.33600
H  -5.60100 28.15700 31.12800
H  -6.79500 27.64200 33.38400
H  -5.15700 28.13400 33.13500
H  -9.89600 22.00300 26.58200
H  -9.09600 22.41800 28.15200
H  -8.47200 21.16300 27.15000
H  -9.40700 20.67600 22.96300
H  -10.17600 21.65300 24.21000
H  -8.84600 20.68900 24.68700
H  -5.68800 26.62300 21.40300
H  -3.03100 27.45300 21.84000
H  -4.00500 25.56000 20.17400
H  -4.42800 24.27800 21.35700
H  -2.96800 25.25600 21.56200
H  -4.45700 29.85100 22.10900
H  -5.77500 28.64600 21.67400
H  -5.16300 28.96800 19.48200
H  -3.62000 28.23600 19.86700
H  -3.76900 30.03000 20.06300
H  -0.89900 30.95400 26.73800
H  -1.70000 30.71800 25.11800
H  -0.34800 29.68600 25.66000
H  -3.34700 28.83000 30.89600
H  -1.30700 27.18200 33.85800
H  0.28900 27.91300 33.30800
H  -0.25100 26.30700 32.73900

