158

Mg 35.84300 48.01500 25.90300
C  36.03000 46.12200 28.81900
C  34.17600 50.42600 27.60800
C  35.36500 49.59500 22.85800
C  37.38000 45.41900 24.19700
N  35.08700 48.18600 27.91000
C  35.42500 47.36800 28.99400
C  34.98900 48.01800 30.34000
C  34.29600 49.29100 29.96000
C  34.53000 49.28900 28.41100
C  32.76600 49.47400 30.47100
C  36.18300 48.13200 31.31900
C  35.89800 47.87400 32.72800
H  35.92800 49.14600 33.66500
N  34.88500 49.73500 25.29800
C  34.38200 50.69700 26.20500
C  34.09600 51.93100 25.44600
C  34.49600 51.70200 24.09700
C  34.95800 50.28900 23.97900
C  33.49800 53.13300 26.14900
C  34.62300 52.72200 23.00000
O  35.00900 52.47200 21.90400
C  34.37900 54.19000 23.33600
N  36.12300 47.48600 23.77500
C  35.90100 48.29000 22.76400
C  36.50700 47.69500 21.44300
C  37.20600 46.41700 21.87500
C  36.96800 46.48100 23.42400
C  35.57700 47.31200 20.30400
C  38.72800 46.36300 21.48900
C  39.02700 45.79200 20.11000
N  36.59700 46.13200 26.39000
C  37.13200 45.15300 25.57300
C  37.42900 43.94600 26.30300
C  36.99500 44.24900 27.68400
C  36.48100 45.60800 27.61900
C  38.07200 42.67600 25.82800
C  36.94200 43.75200 29.02600
O  37.27500 42.68200 29.50300
C  36.35300 45.01300 29.85400
C  35.19100 44.51000 30.64600
O  34.24800 43.87800 30.11700
O  35.31500 44.75500 32.02300
C  34.16600 44.42100 32.87600
H  33.88700 51.30200 28.19300
H  35.31200 50.09400 21.88800
H  37.95300 44.64600 23.68100
H  34.22500 47.37600 30.77900
H  34.90700 50.08800 30.38200
H  32.78100 50.24200 31.24400
H  32.39100 48.57000 30.95100
H  32.11600 49.83400 29.67300
H  36.63300 49.11500 31.18000
H  37.01200 47.50400 30.99200
H  36.72100 47.23100 33.03800
H  34.93200 47.38500 32.85800
H  33.92100 54.07400 25.79700
H  33.77800 53.25500 27.19500
H  32.41600 53.14500 26.01900
H  33.32900 54.46100 23.44800
H  34.64400 54.74400 22.43600
H  35.08000 54.59200 24.06700
H  37.12300 48.48700 21.01700
H  36.74100 45.48800 21.54400
H  35.50100 48.05400 19.50900
H  34.61200 46.95500 20.66500
H  36.00700 46.50800 19.70600
H  39.34200 45.75000 22.15000
H  39.09100 47.37800 21.65500
H  38.08600 45.49500 19.64800
H  39.75400 44.98100 20.14100
H  39.53700 46.54100 19.50400
H  39.08800 42.62200 26.22000
H  38.13800 42.60500 24.74200
H  37.46900 41.83200 26.16600
H  37.07600 45.35800 30.59300
H  33.95000 45.22300 33.58100
H  34.38000 43.53700 33.47700
H  33.22600 44.32900 32.33200
Mg -12.74000 16.28700 42.85000
C  -9.52400 14.97200 42.14300
C  -11.69700 19.18000 41.59900
C  -16.06200 17.18000 42.81500
C  -13.72300 13.06900 43.94500
N  -10.86400 16.96800 42.10500
C  -9.62200 16.34900 41.98200
C  -8.56400 17.35300 41.62700
C  -9.26800 18.64900 41.76600
C  -10.69200 18.22800 41.78500
C  -8.96900 19.40400 43.03900
C  -8.11200 17.02500 40.21700
C  -6.65700 17.40100 39.82400
H  -6.04000 16.42300 38.83600
N  -13.75000 17.95500 42.26700
C  -13.11700 19.08900 41.78600
C  -14.07500 20.11200 41.44800
C  -15.36300 19.52500 41.71700
C  -15.11700 18.15600 42.29400
C  -13.67200 21.44500 40.84000
C  -16.70600 20.22900 41.52400
O  -16.77700 21.38600 41.16800
C  -18.03900 19.54300 41.73200
N  -14.68900 15.22200 43.38800
C  -15.88000 15.84100 43.26400
C  -16.91900 14.93500 43.80600
C  -16.05400 13.76100 44.40800
C  -14.73100 13.94200 43.86600
C  -17.98000 15.60400 44.78300
C  -16.67900 12.34500 43.99200
C  -17.20700 11.43600 45.18900
N  -11.82800 14.37700 43.11000
C  -12.33400 13.17800 43.50900
C  -11.28100 12.16200 43.45000
C  -10.18100 12.78700 42.92800
C  -10.53800 14.12900 42.69300
C  -11.51900 10.69900 43.67100
C  -8.79200 12.62500 42.54200
O  -8.06200 11.63400 42.55800
C  -8.33700 14.04800 42.01400
C  -7.27200 14.51600 42.89400
O  -7.42800 14.72900 44.07400
O  -6.06800 14.63100 42.15600
C  -4.94600 15.21100 42.82700
H  -11.43600 20.23200 41.47100
H  -17.08400 17.56200 42.85600
H  -13.90400 12.01500 44.16700
H  -7.63100 17.27000 42.18500
H  -9.08500 19.29500 40.90700
H  -9.79000 19.30000 43.74800
H  -8.93600 20.47100 42.82000
H  -8.02100 19.08200 43.46800
H  -8.79300 17.52200 39.52500
H  -8.27900 15.96400 40.03400
H  -6.05500 17.54200 40.72200
H  -6.45000 18.39700 39.43200
H  -13.30800 21.24900 39.83200
H  -12.86400 21.81000 41.47500
H  -14.49100 22.16000 40.92000
H  -18.18500 19.37500 42.79900
H  -17.90900 18.56500 41.26700
H  -18.85200 20.13100 41.30600
H  -17.54700 14.64900 42.96300
H  -16.02300 13.76300 45.49700
H  -17.53200 16.55400 45.07400
H  -18.20900 14.99100 45.65400
H  -18.89400 15.73700 44.20300
H  -15.98800 11.77400 43.37200
H  -17.50200 12.48100 43.29000
H  -17.01900 10.38300 44.98400
H  -18.28700 11.54300 45.09600
H  -16.87900 11.53900 46.22400
H  -12.50700 10.37100 43.34900
H  -11.36400 10.33000 44.68500
H  -10.74700 10.20300 43.08300
H  -7.86600 13.85300 41.05100
H  -5.21700 16.15900 43.29300
H  -4.18300 15.35000 42.06200
H  -4.56400 14.58400 43.63200

