158

Mg 23.74000 -5.80300 45.43100
C  26.09400 -3.58800 43.79500
C  21.43600 -4.57100 43.21600
C  21.91500 -8.49800 46.07900
C  26.45800 -7.24000 47.09100
N  23.80400 -4.23700 43.75700
C  24.86500 -3.50200 43.21200
C  24.39500 -2.64600 41.99300
C  22.82600 -2.62000 42.24800
C  22.64600 -3.94500 43.09300
C  22.30100 -1.34400 42.96500
C  24.88000 -3.18700 40.61100
C  25.53200 -2.30200 39.43800
H  24.94200 -2.37200 38.03800
N  21.87700 -6.43600 44.76500
C  21.00700 -5.75500 43.88100
C  19.70500 -6.42900 43.91500
C  19.83900 -7.64400 44.68400
C  21.26400 -7.57500 45.18200
C  18.57500 -5.82100 43.15900
C  18.80600 -8.74300 44.87500
O  17.64600 -8.47300 44.49400
C  18.94400 -9.98200 45.75300
N  24.11500 -7.71400 46.45500
C  23.19300 -8.59800 46.64500
C  23.67300 -9.82500 47.55100
C  25.12700 -9.26100 47.95400
C  25.28000 -8.00000 47.14500
C  22.67000 -10.15300 48.79600
C  26.26600 -10.30500 47.72300
C  27.16800 -10.61800 48.95200
N  25.80100 -5.42000 45.62800
C  26.72700 -6.09200 46.34300
C  27.99400 -5.42400 46.13300
C  27.85000 -4.49600 45.19500
C  26.48600 -4.52000 44.86300
C  29.32300 -5.86500 46.71000
C  28.51600 -3.49600 44.34900
O  29.77600 -3.35400 44.18200
C  27.36500 -2.80600 43.50000
C  27.33200 -1.39200 43.97500
O  26.54300 -0.90400 44.75300
O  28.19300 -0.58600 43.24800
C  27.70400 0.82600 43.11200
H  20.62100 -4.23300 42.57300
H  21.36300 -9.41100 46.31000
H  27.23800 -7.84100 47.56300
H  24.84300 -1.66200 42.12600
H  22.30300 -2.77200 41.30400
H  21.38000 -0.94100 42.54500
H  23.04700 -0.56900 43.14100
H  22.05700 -1.54600 44.00800
H  23.97200 -3.53800 40.12000
H  25.45600 -4.09100 40.80700
H  26.59100 -2.56100 39.40900
H  25.54000 -1.26200 39.76300
H  18.40600 -6.09600 42.11800
H  18.71000 -4.74600 43.27900
H  17.61900 -6.00700 43.64800
H  18.03200 -10.57000 45.85000
H  19.24300 -9.54500 46.70600
H  19.74400 -10.61600 45.37100
H  23.59800 -10.72000 46.93300
H  25.02400 -8.93800 48.99000
H  22.00500 -9.30200 48.94600
H  23.11700 -10.12500 49.79000
H  22.10300 -11.08000 48.71800
H  26.98400 -9.90400 47.00800
H  25.82200 -11.25300 47.42100
H  28.19800 -10.56900 48.59900
H  26.99800 -11.64000 49.29000
H  26.90700 -9.97200 49.79000
H  29.87300 -6.59800 46.12100
H  29.08600 -6.29700 47.68200
H  29.88900 -4.93400 46.76300
H  27.63400 -2.80300 42.44300
H  26.62400 0.81500 42.96400
H  28.03500 1.21800 42.15000
H  28.01500 1.40600 43.98000
Mg -10.35700 17.00500 40.89800
C  -6.88400 16.42300 40.73800
C  -9.69900 20.20900 40.44200
C  -13.62200 17.41100 40.44400
C  -10.89300 13.52600 40.89900
N  -8.44400 18.16900 40.82200
C  -7.20700 17.74400 40.59300
C  -6.24200 18.98600 40.45000
C  -7.14400 20.19700 40.84300
C  -8.51400 19.52300 40.79700
C  -6.88900 20.74800 42.22400
C  -5.65600 19.05900 38.98100
C  -4.20600 18.51600 38.84600
H  -3.86100 17.68200 37.59800
N  -11.50700 18.55400 40.35400
C  -11.05100 19.83400 40.24100
C  -12.17400 20.65000 39.92900
C  -13.33600 19.86200 39.89400
C  -12.87300 18.57800 40.24300
C  -12.11500 22.10500 39.60200
C  -14.78500 20.37600 39.58800
O  -14.95700 21.55600 39.20600
C  -15.97100 19.50000 39.67300
N  -11.99200 15.67300 40.76600
C  -13.23400 16.11800 40.67900
C  -14.31800 15.00100 40.75300
C  -13.35900 13.72000 40.62600
C  -11.94800 14.34400 40.77500
C  -15.06400 15.16500 42.09000
C  -13.46400 12.92100 39.23400
C  -12.90200 13.64500 38.03100
N  -9.15900 15.26200 40.97800
C  -9.51700 13.92700 41.08100
C  -8.25400 13.14500 41.24100
C  -7.21800 14.05000 40.98000
C  -7.81300 15.36300 40.92200
C  -8.22000 11.66900 41.31900
C  -5.74800 14.27100 40.85000
O  -4.79900 13.48000 40.85000
C  -5.55400 15.76700 40.76800
C  -4.86700 16.13200 42.04100
O  -3.93200 16.91400 42.15900
O  -5.54000 15.44200 43.05300
C  -5.22900 15.63800 44.45300
H  -9.59000 21.27400 40.22500
H  -14.69000 17.41200 40.21700
H  -11.07800 12.45200 40.96900
H  -5.34800 18.94300 41.07200
H  -7.15200 21.01100 40.11800
H  -6.06500 21.45900 42.16100
H  -6.57600 19.97500 42.92600
H  -7.78800 20.99200 42.79000
H  -5.71500 20.04200 38.51400
H  -6.25400 18.37100 38.38400
H  -3.78900 18.10300 39.76500
H  -3.71600 19.48600 38.75400
H  -12.69000 22.32400 38.70200
H  -11.16300 22.62700 39.70200
H  -12.77100 22.57400 40.33600
H  -16.88300 20.08100 39.53000
H  -15.95400 19.12000 40.69500
H  -15.84000 18.62700 39.03400
H  -14.99400 15.08600 39.90200
H  -13.58500 13.00300 41.41500
H  -16.01700 15.61700 41.81400
H  -14.55600 15.93400 42.67200
H  -15.24900 14.25200 42.65700
H  -14.51800 12.64600 39.17900
H  -12.94600 11.98700 39.45400
H  -13.44200 13.48400 37.09800
H  -11.84300 13.47800 37.83100
H  -12.86300 14.71400 38.23900
H  -7.26700 11.26700 40.97500
H  -8.98200 11.33100 40.61700
H  -8.27000 11.30300 42.34500
H  -4.88300 16.02000 39.94700
H  -5.43800 14.73100 45.02100
H  -5.89800 16.43100 44.78900
H  -4.24000 16.04400 44.66300

