158

Mg 34.45400 3.05600 29.71000
C  32.32100 4.01800 32.28900
C  36.99800 2.98900 31.95500
C  36.55000 2.50500 27.09400
C  31.79900 3.75000 27.54800
N  34.60600 3.33000 31.87200
C  33.60500 3.75500 32.63900
C  34.12100 3.82200 34.10800
C  35.63300 3.70800 33.96100
C  35.79000 3.35700 32.49500
C  36.50200 4.98400 34.38800
C  33.51400 2.57200 34.85700
C  33.10700 2.80900 36.31800
H  33.96000 3.77700 37.13200
N  36.45500 2.75400 29.52500
C  37.33100 2.72700 30.59600
C  38.66700 2.53000 30.09200
C  38.51900 2.31900 28.67800
C  37.13700 2.56400 28.37300
C  39.77100 2.19800 31.13900
C  39.62300 1.98700 27.62700
O  39.43300 1.97200 26.40600
C  41.05400 1.74700 28.13400
N  34.18400 3.16300 27.58500
C  35.28500 2.97100 26.74700
C  34.78100 2.95500 25.28200
C  33.21700 3.17500 25.38800
C  33.01500 3.35000 26.94300
C  35.51000 3.98300 24.32200
C  32.37000 1.98800 24.85900
C  32.36100 0.73900 25.81000
N  32.51000 3.75400 29.78500
C  31.51600 3.87100 28.88400
C  30.26700 4.33300 29.45900
C  30.49200 4.24400 30.81800
C  31.85900 3.95600 30.93200
C  29.03900 4.55200 28.81600
C  29.94000 4.52900 32.09600
O  28.80700 4.88400 32.31000
C  31.11400 4.40700 33.09300
C  31.38700 5.76300 33.70200
O  31.69600 6.78100 33.04600
O  31.03000 5.64700 35.00800
C  31.21700 6.92300 35.78200
H  37.84800 3.15400 32.62000
H  37.15900 2.29400 26.21300
H  31.13500 3.88600 26.69200
H  33.94600 4.78400 34.59000
H  36.07000 2.90800 34.55800
H  37.06500 4.83900 35.31000
H  35.96800 5.93400 34.41500
H  37.28600 5.06200 33.63500
H  34.25700 1.77800 34.92500
H  32.57000 2.20400 34.45500
H  33.22900 1.85900 36.83900
H  32.06700 3.08100 36.13900
H  40.78300 1.99300 30.79000
H  39.60100 1.34600 31.79800
H  39.88300 3.06400 31.79100
H  41.56200 2.67600 28.39400
H  41.51200 1.24600 27.28100
H  41.03300 0.98700 28.91400
H  34.99300 1.92500 24.99500
H  32.90500 4.13800 24.98300
H  36.05500 4.74300 24.88200
H  34.80500 4.56000 23.72300
H  36.31700 3.54800 23.73200
H  32.88000 1.72400 23.93200
H  31.35400 2.25200 24.56700
H  32.48400 1.04400 26.84900
H  33.24000 0.10800 25.67400
H  31.36100 0.32600 25.67600
H  28.70100 3.59500 28.41900
H  29.14800 5.19200 27.94100
H  28.29700 5.11700 29.38000
H  30.97200 3.60300 33.81500
H  31.42400 6.64400 36.81500
H  30.33700 7.56200 35.69800
H  32.10100 7.36500 35.32300
Mg 36.77600 50.16000 25.50000
C  36.77000 48.29700 28.49300
C  35.58200 52.79900 27.11700
C  36.51600 51.79800 22.54500
C  37.69400 47.16500 23.84800
N  36.25900 50.49900 27.49500
C  36.33900 49.61000 28.60600
C  35.87300 50.32500 29.90200
C  35.29700 51.68500 29.34400
C  35.82000 51.66000 27.89000
C  33.79000 51.71200 29.41500
C  37.08800 50.61300 30.81500
C  36.83000 50.81300 32.36100
H  35.44600 50.72500 32.94900
N  36.07000 52.06900 24.90300
C  35.67400 52.99400 25.76800
C  35.41200 54.22600 25.08100
C  35.59000 54.03600 23.66400
C  36.10600 52.58700 23.63700
C  34.92300 55.41000 25.80100
C  35.36300 54.88400 22.52600
O  35.66400 54.54900 21.35200
C  34.58000 56.17900 22.70700
N  37.17100 49.55000 23.47400
C  36.86800 50.44100 22.43900
C  37.16700 49.78000 21.08300
C  37.56400 48.30600 21.47900
C  37.53300 48.34300 23.05200
C  35.97100 49.89000 20.06200
C  38.86100 47.73400 20.83800
C  40.17800 48.04900 21.54800
N  37.08300 48.11700 26.00600
C  37.56700 47.08500 25.26600
C  37.95000 45.94400 26.11100
C  37.67800 46.38600 27.43700
C  37.10300 47.67900 27.26800
C  38.48600 44.59700 25.64800
C  37.71100 46.12100 28.83700
O  37.93400 45.09500 29.46000
C  37.16600 47.31600 29.56300
C  36.09500 46.86000 30.46400
O  34.90100 46.80200 30.11800
O  36.63200 46.56300 31.69500
C  35.65000 45.92400 32.56900
H  35.30000 53.71100 27.64800
H  36.35800 52.30700 21.59200
H  38.08600 46.25300 23.39200
H  35.22200 49.71300 30.52600
H  35.69500 52.56200 29.85200
H  33.45600 52.32600 30.25100
H  33.36300 50.76000 29.73100
H  33.18800 51.83300 28.51400
H  37.52500 51.50100 30.35700
H  37.84200 49.82600 30.78700
H  37.25600 51.74900 32.72200
H  37.51300 50.17800 32.92500
H  34.45400 56.15200 25.15400
H  35.81500 55.81200 26.28200
H  34.12900 55.18700 26.51400
H  34.69100 56.72400 21.76900
H  35.16300 56.72800 23.44600
H  33.59400 55.77800 22.93900
H  37.99200 50.32100 20.61800
H  36.74300 47.63300 21.23400
H  35.73100 48.99500 19.48800
H  36.07100 50.70300 19.34200
H  35.07400 50.23300 20.57600
H  38.96200 47.85500 19.75900
H  38.78100 46.64800 20.86900
H  40.53200 47.16700 22.08200
H  40.12300 48.90800 22.21700
H  40.78900 48.40500 20.71900
H  38.04300 44.37300 24.67800
H  38.35400 43.76700 26.34300
H  39.57000 44.53500 25.54700
H  38.04200 47.70200 30.08300
H  34.92100 46.71700 32.72700
H  36.12900 45.72600 33.52800
H  35.08600 45.08400 32.16200

