158

Mg 54.32500 25.33700 44.10200
C  51.57200 27.63800 43.61700
C  52.45600 22.85300 42.96400
C  57.17700 23.57900 43.81200
C  56.28400 28.30600 44.74200
N  52.29400 25.33300 43.05000
C  51.28500 26.29300 43.16100
C  49.89900 25.69100 42.78100
C  50.26600 24.12600 42.93400
C  51.73600 24.06900 42.98300
C  49.65600 23.43200 44.09200
C  49.44600 26.07900 41.37300
C  50.59100 26.38200 40.28400
H  50.14500 26.58400 38.87700
N  54.81100 23.43800 43.64700
C  53.87800 22.58500 43.16100
C  54.57300 21.32500 42.87200
C  55.91000 21.47200 43.33400
C  56.01300 22.85900 43.54400
C  53.85100 20.08700 42.33000
C  56.95200 20.38100 43.40200
O  56.55200 19.20600 43.24700
C  58.39800 20.60400 43.77800
N  56.42700 25.89400 44.20300
C  57.41700 24.90800 44.14700
C  58.82900 25.55800 44.39500
C  58.52600 27.03100 44.75100
C  56.99800 27.12900 44.66500
C  59.67900 24.77300 45.46200
C  59.19100 27.92100 43.68000
C  59.95800 29.13300 44.22500
N  54.06200 27.52200 44.28500
C  54.90300 28.52700 44.67200
C  54.22100 29.77600 44.87600
C  52.98200 29.43000 44.43200
C  52.87100 28.06100 44.09100
C  54.69800 31.11000 45.21800
C  51.68800 30.05500 44.24700
O  51.33700 31.22600 44.36700
C  50.81700 28.94200 43.54200
C  50.58400 29.43600 42.19000
O  51.45100 29.95800 41.51500
O  49.24500 29.51300 42.00400
C  48.79700 29.97800 40.69400
H  51.86500 21.98300 42.67000
H  58.15500 23.09500 43.76100
H  56.93400 29.09300 45.13000
H  49.16300 26.10400 43.47100
H  50.03800 23.46800 42.09500
H  49.79300 22.35300 44.15900
H  48.58200 23.57500 44.21000
H  50.05600 23.79300 45.04000
H  49.07200 27.08700 41.55000
H  48.73300 25.33600 41.01400
H  51.27600 25.53800 40.36500
H  51.08600 27.29500 40.61500
H  53.60100 19.39300 43.13200
H  54.55800 19.57900 41.67400
H  53.00800 20.29200 41.67000
H  58.90400 19.63900 43.73500
H  58.44900 20.94900 44.81100
H  58.80500 21.17200 42.94200
H  59.27100 25.42400 43.40800
H  58.75700 27.22800 45.79700
H  60.47900 24.17900 45.02000
H  59.18000 23.90100 45.88700
H  60.12500 25.53800 46.09600
H  58.60200 28.41700 42.90900
H  59.86400 27.30200 43.08700
H  59.76700 30.02700 43.63200
H  61.03600 28.96800 44.20900
H  59.74900 29.15800 45.29400
H  55.77000 31.29200 45.14800
H  54.32200 31.47000 46.17500
H  54.24800 31.79300 44.49800
H  49.90400 28.85900 44.13000
H  49.65300 30.14100 40.03900
H  48.13600 30.84400 40.67500
H  48.27000 29.13900 40.24000
Mg 35.40200 49.47200 26.26900
C  35.80600 47.49100 29.00000
C  34.20600 52.06100 28.15000
C  34.99100 51.28000 23.33900
C  36.36700 46.76800 24.20400
N  34.83300 49.67600 28.36200
C  35.22700 48.79200 29.28600
C  35.12900 49.38000 30.71800
C  34.34500 50.68900 30.46200
C  34.39400 50.82000 28.93000
C  32.86000 50.78500 31.08800
C  36.50700 49.55200 31.43900
C  36.57800 48.82100 32.83400
H  35.56200 49.06100 33.99000
N  34.83000 51.37000 25.85500
C  34.44800 52.33100 26.76400
C  34.29900 53.59400 26.02000
C  34.42500 53.39700 24.64000
C  34.78700 51.93300 24.61300
C  34.05200 54.86700 26.77500
C  34.33700 54.28700 23.45000
O  34.28000 53.88300 22.28900
C  34.06900 55.73100 23.72200
N  35.76700 49.11000 24.08700
C  35.45600 50.00400 23.10400
C  35.56500 49.33600 21.71300
C  36.19200 47.97600 22.05800
C  36.17800 47.91700 23.54800
C  34.26700 49.26000 20.88400
C  37.69100 47.88900 21.46200
C  38.82900 48.30900 22.48500
N  35.96600 47.48700 26.53000
C  36.38800 46.56700 25.56400
C  36.66200 45.33500 26.34600
C  36.49500 45.67300 27.69000
C  36.07900 46.99200 27.71500
C  37.19900 44.06100 25.73700
C  36.55600 45.11500 28.97800
O  36.92100 44.04300 29.41000
C  36.10000 46.29700 29.92900
C  34.88300 45.77800 30.65700
O  33.81300 45.55500 30.24200
O  35.25100 45.50200 31.94200
C  34.14400 45.24400 32.84300
H  33.82300 52.85400 28.79700
H  35.05200 51.80800 22.38600
H  36.31300 45.88100 23.56900
H  34.49200 48.69500 31.27700
H  34.81800 51.52600 30.97500
H  32.19400 51.18300 30.32300
H  32.94000 51.49300 31.91300
H  32.47600 49.86500 31.52600
H  36.88700 50.57100 31.50700
H  37.22700 48.94800 30.88800
H  37.58400 49.00700 33.20900
H  36.58900 47.73200 32.79100
H  33.10200 55.29900 26.46200
H  34.94400 55.48700 26.68900
H  33.82600 54.68900 27.82700
H  33.06700 55.94400 24.09500
H  34.19800 56.22400 22.75900
H  34.83400 56.00800 24.44800
H  36.34700 49.90900 21.21600
H  35.62300 47.13100 21.67000
H  34.10600 48.18800 20.76900
H  34.53400 49.88400 20.03100
H  33.46700 49.71100 21.47200
H  37.68300 48.51900 20.57300
H  37.89300 46.83800 21.25800
H  39.68200 47.69500 22.19600
H  38.66600 48.26000 23.56200
H  39.09100 49.35600 22.33100
H  38.28800 44.03000 25.78300
H  36.90800 43.85900 24.70600
H  36.74200 43.29800 26.36700
H  36.89500 46.38200 30.67100
H  34.38600 45.71600 33.79500
H  33.96700 44.17100 32.91500
H  33.16900 45.63000 32.54400

