158

Mg 43.85900 4.92500 47.00300
C  41.93700 7.80500 47.00300
C  40.94700 3.02800 47.06400
C  45.68200 2.24100 46.24000
C  46.70400 6.93800 46.96900
N  41.67500 5.39400 46.79800
C  41.15300 6.61500 46.97600
C  39.59700 6.61800 47.16800
C  39.38800 4.99300 47.24000
C  40.76800 4.43500 47.04700
C  38.79900 4.50300 48.53900
C  38.59300 7.32900 46.21500
C  39.17300 7.71800 44.86900
H  38.81500 6.87000 43.69900
N  43.43600 2.91500 46.68700
C  42.16900 2.31600 46.74900
C  42.29000 0.96600 46.39900
C  43.57900 0.74400 45.88900
C  44.32700 2.01200 46.23600
C  41.12000 0.02300 46.43300
C  44.19300 -0.56000 45.19800
O  43.60600 -1.65200 45.22200
C  45.41300 -0.45900 44.37600
N  45.97900 4.59100 46.76700
C  46.46700 3.32100 46.48200
C  47.94800 3.37200 46.13100
C  48.31300 4.94300 46.52300
C  46.92800 5.54000 46.76700
C  48.69900 2.26100 46.80800
C  49.42000 5.68100 45.69000
C  50.57800 6.22000 46.51800
N  44.31100 6.95400 47.11200
C  45.47700 7.62800 47.01400
C  45.23600 9.11400 46.95300
C  43.82300 9.17700 46.95500
C  43.35100 7.89500 47.02900
C  46.26500 10.17700 46.74200
C  42.72200 10.07100 46.97300
O  42.68000 11.27100 46.86800
C  41.37700 9.26000 47.06300
C  40.56900 9.67800 48.25200
O  40.65300 9.29000 49.41700
O  39.65700 10.66600 47.90600
C  38.88000 11.21000 48.98400
H  40.07000 2.39200 47.19300
H  46.27600 1.34900 46.03300
H  47.60800 7.54400 47.05700
H  39.42700 7.01300 48.17000
H  38.82200 4.66400 46.36800
H  38.06800 3.72600 48.31600
H  38.29300 5.26800 49.12800
H  39.56600 4.09700 49.19800
H  38.31800 8.27800 46.67500
H  37.70500 6.69500 46.21700
H  40.25700 7.61500 44.89700
H  38.81100 8.71700 44.62500
H  41.49300 -0.98100 46.63800
H  40.57900 0.05700 45.48700
H  40.43600 0.40500 47.19200
H  45.43600 -1.43200 43.88600
H  46.28600 -0.33600 45.01600
H  45.25900 0.30500 43.61300
H  48.08100 3.36600 45.04900
H  48.78100 4.83600 47.50100
H  48.76200 1.44200 46.09100
H  48.18100 1.89700 47.69600
H  49.70600 2.59500 47.05900
H  48.98600 6.57900 45.25100
H  49.86700 5.10100 44.88200
H  51.51500 5.69100 46.34000
H  50.50000 6.21200 47.60500
H  50.74600 7.26400 46.25500
H  46.35200 10.75300 47.66400
H  45.91200 10.77000 45.89900
H  47.22200 9.75000 46.44200
H  40.78100 9.40900 46.16300
H  39.50400 11.81400 49.64200
H  38.29700 10.39600 49.41400
H  38.21400 11.97100 48.57500
Mg 54.05700 24.59900 44.40800
C  51.46800 26.98500 44.02100
C  51.68800 22.20500 43.53100
C  56.56100 22.61100 43.54300
C  56.31100 27.30800 45.04000
N  51.87100 24.65100 43.73400
C  51.02700 25.70700 43.78500
C  49.62800 25.21100 43.38000
C  49.67800 23.77700 43.87300
C  51.15900 23.54400 43.69500
C  49.03100 23.57400 45.22300
C  49.29600 25.32300 41.80100
C  50.48000 25.51100 40.81000
H  51.22000 24.31300 40.47000
N  54.14200 22.61600 43.67800
C  53.06800 21.81700 43.43100
C  53.54600 20.47900 43.14300
C  54.95400 20.60200 43.09000
C  55.29900 21.97600 43.43100
C  52.60800 19.33700 42.75900
C  55.89500 19.45900 42.81500
O  55.46600 18.35900 42.50600
C  57.41900 19.58800 43.11200
N  56.10200 24.84100 44.51400
C  56.95000 23.82600 44.11300
C  58.36900 24.24900 44.38200
C  58.30400 25.77900 44.53600
C  56.80900 26.01300 44.75000
C  59.10500 23.44500 45.44600
C  58.80900 26.63100 43.44500
C  58.09800 26.53800 42.03300
N  53.89700 26.68200 44.69600
C  54.93100 27.67300 45.04400
C  54.34500 28.92600 45.14100
C  52.98500 28.67400 44.73400
C  52.77800 27.35200 44.41900
C  55.06000 30.14700 45.61700
C  51.76000 29.29800 44.51400
O  51.48600 30.46600 44.48200
C  50.71900 28.31200 43.90900
C  50.29700 28.73100 42.49400
O  51.07700 29.01400 41.60200
O  48.99900 28.66500 42.32900
C  48.47000 29.02600 41.03900
H  50.93000 21.42200 43.46600
H  57.53300 22.16600 43.31600
H  57.06100 28.09800 45.12200
H  48.88100 25.85000 43.85000
H  49.22600 23.11000 43.13900
H  48.20200 22.86700 45.23700
H  48.52800 24.48900 45.53300
H  49.77700 23.27100 45.95800
H  48.65400 26.18700 41.62800
H  48.68800 24.45900 41.53300
H  51.07500 26.34400 41.18200
H  50.13600 25.95500 39.87600
H  53.25500 18.45900 42.74400
H  52.13800 19.55800 41.80100
H  51.78200 19.21200 43.45900
H  57.98000 20.08800 42.32200
H  57.84600 18.58900 43.20600
H  57.68700 20.16300 43.99800
H  58.94900 23.93700 43.51300
H  58.77400 26.02500 45.48800
H  59.68200 22.66100 44.95800
H  58.37700 22.89700 46.04500
H  59.75000 24.06200 46.07200
H  59.83800 26.27700 43.38300
H  58.78500 27.69200 43.69500
H  57.79800 27.55600 41.78600
H  57.22800 25.88300 42.07000
H  58.66000 26.05000 41.23700
H  55.02400 30.16700 46.70600
H  54.44500 31.01200 45.36900
H  56.06100 30.15600 45.18600
H  49.86800 28.49600 44.56500
H  47.58900 29.66700 41.01900
H  48.22700 28.23400 40.33100
H  49.05000 29.79100 40.52200

