158

Mg 35.20400 1.68500 29.38500
C  32.90000 2.94900 31.81100
C  37.62900 1.79300 31.66300
C  37.49100 1.09900 27.01900
C  32.71000 2.17200 26.98800
N  35.27800 2.38000 31.46700
C  34.18100 2.64300 32.29100
C  34.71700 2.69900 33.70700
C  36.27500 2.61900 33.58100
C  36.43600 2.26200 32.13800
C  37.04600 3.87800 33.84600
C  34.02000 1.61200 34.56500
C  33.71100 2.10300 35.97200
H  34.70600 2.96900 36.70100
N  37.16600 1.21400 29.46600
C  38.02600 1.31600 30.45800
C  39.29300 0.73300 30.12200
C  39.18700 0.40000 28.76300
C  37.90500 0.99000 28.35500
C  40.51500 0.52700 31.04000
C  40.23200 -0.27800 27.84200
O  40.09200 -0.33600 26.63400
C  41.46700 -0.90100 28.39300
N  35.10000 1.67600 27.36200
C  36.20100 1.45900 26.55800
C  35.76900 1.47700 25.08800
C  34.22100 1.60800 25.06700
C  33.98700 1.77000 26.59400
C  36.40100 2.55300 24.25000
C  33.45300 0.42700 24.41300
C  32.40000 0.71300 23.29900
N  33.12300 2.40000 29.32500
C  32.26100 2.58000 28.31500
C  30.95800 3.09300 28.77600
C  31.17300 3.19200 30.16200
C  32.51700 2.80200 30.44100
C  29.68400 3.35000 28.02100
C  30.63900 3.71900 31.44600
O  29.51000 4.20400 31.67700
C  31.62000 3.36000 32.53400
C  31.71700 4.48400 33.50900
O  32.40400 5.45700 33.30300
O  30.77800 4.32700 34.53300
C  30.98300 5.23200 35.67500
H  38.39200 1.63800 32.42800
H  38.17500 0.73200 26.25100
H  31.98600 2.27500 26.17700
H  34.41000 3.71300 33.96600
H  36.66000 1.78000 34.16100
H  37.93100 3.89600 33.21000
H  37.50800 4.03500 34.82100
H  36.42500 4.72600 33.55600
H  34.69000 0.75400 34.62000
H  33.12300 1.35100 34.00300
H  33.56700 1.20800 36.57800
H  32.80300 2.70500 35.96900
H  40.44200 1.03500 32.00200
H  41.37200 0.96200 30.52500
H  40.62100 -0.55400 31.13300
H  41.37500 -1.68100 29.14900
H  42.14500 -0.08100 28.63100
H  41.97700 -1.33700 27.53400
H  36.01300 0.48800 24.69900
H  33.80500 2.46900 24.54400
H  36.90800 3.17000 24.99100
H  35.68700 3.22900 23.78100
H  37.06300 2.26300 23.43400
H  32.99200 -0.25400 25.12900
H  34.04300 -0.28700 23.83900
H  31.69000 1.48500 23.59500
H  31.96400 -0.27200 23.13000
H  32.82800 0.86000 22.30800
H  28.94600 2.57200 28.21500
H  29.81400 3.31200 26.93900
H  29.40500 4.32200 28.42600
H  31.22500 2.57400 33.17800
H  30.30800 6.08700 35.64900
H  31.96700 5.70000 35.64000
H  30.80000 4.69300 36.60400
Mg 0.39800 43.01100 26.53700
C  2.49600 42.24600 29.21000
C  -2.24600 41.89300 28.43900
C  -1.59400 43.39600 23.89100
C  3.12300 44.02000 24.60700
N  0.18600 41.94200 28.57100
C  1.17500 41.88400 29.52300
C  0.55000 41.78000 30.88400
C  -0.96500 41.52300 30.62400
C  -1.03900 41.84500 29.09900
C  -1.54900 40.17800 30.85000
C  0.80700 43.06400 31.75200
C  1.08700 42.83600 33.27800
H  0.53000 41.59800 33.94600
N  -1.63900 42.65100 26.19600
C  -2.60000 42.25600 27.12800
C  -3.89500 42.15600 26.46100
C  -3.72100 42.53400 25.07400
C  -2.29000 42.88600 24.98400
C  -5.14400 41.75200 27.19600
C  -4.67000 42.70500 23.97000
O  -4.44400 43.22700 22.90900
C  -6.05100 42.22800 24.15900
N  0.68100 43.62000 24.55900
C  -0.32200 43.81100 23.65400
C  0.07100 44.49800 22.35100
C  1.52200 44.79300 22.73600
C  1.83700 44.11700 24.05000
C  -0.07300 43.61000 21.12800
C  2.09500 46.24400 22.42900
C  1.98200 47.29500 23.51500
N  2.40400 43.08700 26.75100
C  3.38600 43.51100 25.88400
C  4.67100 43.38900 26.55100
C  4.36800 42.89600 27.81300
C  2.94100 42.74200 27.96400
C  6.03800 43.75000 25.89700
C  4.95500 42.54300 29.05900
O  6.10200 42.34300 29.39700
C  3.74900 42.30200 30.04300
C  4.03800 41.07300 30.85200
O  3.79600 39.92500 30.49300
O  4.64300 41.41400 32.01200
C  5.03000 40.25100 32.86500
H  -3.17300 41.62700 28.95000
H  -2.26600 43.41800 23.03000
H  3.94000 44.45700 24.02900
H  1.08300 40.94000 31.33000
H  -1.60600 42.26800 31.09600
H  -1.08800 39.66100 31.69100
H  -1.28800 39.58100 29.97600
H  -2.63900 40.16700 30.89200
H  -0.09600 43.66900 31.67200
H  1.66600 43.67900 31.48400
H  0.74400 43.71800 33.82000
H  2.17500 42.86600 33.33600
H  -5.87100 42.55800 27.30000
H  -5.03600 41.40300 28.22300
H  -5.61900 40.91500 26.68400
H  -6.42200 42.19100 23.13400
H  -6.61900 42.96500 24.72800
H  -6.05400 41.21300 24.55400
H  -0.53800 45.38600 22.17900
H  2.15000 44.04400 22.25400
H  0.88600 43.29400 20.71800
H  -0.66100 44.14300 20.38100
H  -0.65800 42.71400 21.33900
H  1.51800 46.61400 21.58200
H  3.05400 46.03300 21.95400
H  1.75400 46.90800 24.50800
H  1.36600 48.16000 23.27200
H  3.05400 47.47100 23.60600
H  6.25500 43.02400 25.11300
H  6.73100 43.64800 26.73200
H  6.01700 44.74300 25.44700
H  3.64400 43.05600 30.82300
H  5.00500 40.54400 33.91400
H  6.10500 40.09500 32.77300
H  4.54200 39.31100 32.60700

