158

Mg 2.77700 -0.51000 43.32700
C  6.15000 -0.15400 42.21500
C  2.13400 2.51600 41.75700
C  -0.56400 -1.33000 43.22600
C  3.52800 -3.39000 44.69000
N  3.99900 0.91300 41.93100
C  5.36600 0.90100 41.71800
C  5.76200 2.06200 40.82500
C  4.66800 3.11000 41.23400
C  3.49700 2.13600 41.66300
C  5.02100 4.14000 42.32600
C  5.80900 1.69500 39.30800
C  6.98800 2.21600 38.40100
H  6.50800 2.49900 36.98200
N  0.97200 0.54500 42.71100
C  0.93400 1.76200 42.11200
C  -0.44900 2.06600 41.86500
C  -1.28500 0.96700 42.18600
C  -0.28100 -0.00800 42.77500
C  -0.78600 3.32800 41.31000
C  -2.77100 0.84300 41.95100
O  -3.45500 1.66800 41.27300
C  -3.55700 -0.32400 42.42300
N  1.62300 -2.06700 43.90000
C  0.28700 -2.13100 43.91500
C  -0.17000 -3.47100 44.56700
C  1.07600 -4.02000 45.29600
C  2.13100 -3.12700 44.61200
C  -1.36000 -3.15100 45.63400
C  1.29100 -5.58600 45.24500
C  1.34300 -6.20000 46.63000
N  4.49600 -1.68100 43.42200
C  4.64000 -2.83000 44.12600
C  6.04800 -3.19400 43.99200
C  6.71000 -2.23500 43.21700
C  5.70300 -1.29800 42.93400
C  6.80600 -4.34600 44.51600
C  7.96100 -1.73300 42.59700
O  9.12800 -2.12600 42.59000
C  7.60500 -0.38100 41.94400
C  8.57400 0.71800 42.42700
O  8.90500 0.96200 43.59200
O  9.01500 1.40700 41.35300
C  9.90900 2.58700 41.55400
H  2.07400 3.56800 41.47000
H  -1.55700 -1.75900 43.08000
H  3.85200 -4.20400 45.34200
H  6.71600 2.56200 40.98900
H  4.51000 3.67400 40.31400
H  4.18800 4.20700 43.02600
H  5.13500 5.18200 42.02600
H  5.92200 3.83000 42.85500
H  4.96800 2.13400 38.77100
H  5.63300 0.64100 39.09100
H  7.83300 1.53500 38.30800
H  7.28500 3.16200 38.85500
H  -0.60100 3.43400 40.24100
H  -0.20600 4.09900 41.81800
H  -1.80400 3.58300 41.60500
H  -4.61200 -0.05300 42.41400
H  -3.27800 -0.71200 43.40300
H  -3.33100 -1.11600 41.70900
H  -0.54800 -4.13200 43.78700
H  1.03600 -3.70600 46.33900
H  -1.05100 -3.41300 46.64600
H  -2.23500 -3.65500 45.22200
H  -1.70800 -2.11900 45.61300
H  2.19400 -5.89900 44.72100
H  0.51100 -6.14800 44.73200
H  0.83100 -7.16100 46.68800
H  1.12600 -5.52400 47.45600
H  2.38000 -6.48900 46.80200
H  7.20700 -4.87500 43.65200
H  6.14300 -4.94900 45.13600
H  7.57400 -4.00600 45.21100
H  7.80900 -0.39400 40.87400
H  9.57000 3.32300 40.82500
H  10.98200 2.43500 41.43800
H  9.75800 3.02200 42.54200
Mg 41.81800 40.72500 27.43000
C  40.74500 43.27900 29.51300
C  42.08100 38.62100 30.07500
C  43.27800 38.41300 25.36300
C  41.63600 42.89000 24.70300
N  41.44700 40.94500 29.54300
C  40.98600 42.03200 30.18300
C  40.83600 41.72100 31.67500
C  41.33600 40.25300 31.85600
C  41.65600 39.91500 30.41500
C  42.55300 40.04200 32.85300
C  39.41100 41.99700 32.19200
C  39.28000 43.11600 33.29500
H  38.75900 42.72500 34.71900
N  42.49600 38.85200 27.66400
C  42.45500 38.13400 28.82400
C  42.91500 36.83900 28.67200
C  43.34400 36.70700 27.29700
C  43.02900 37.99800 26.68600
C  43.07900 35.83300 29.84500
C  43.90500 35.49100 26.61900
O  44.09800 35.53100 25.38500
C  43.82700 34.14000 27.30300
N  42.24400 40.62300 25.25100
C  43.02300 39.61400 24.73900
C  43.29400 39.95500 23.20700
C  42.62700 41.36900 23.02000
C  42.12300 41.62700 24.39800
C  44.78100 39.84100 22.74500
C  41.49200 41.51200 21.82700
C  40.06800 41.03200 22.13000
N  41.29600 42.63800 27.13200
C  41.27800 43.43400 25.94600
C  40.75700 44.73600 26.22400
C  40.47000 44.69000 27.61200
C  40.90400 43.48500 28.12600
C  40.58100 46.05300 25.36200
C  39.96500 45.50000 28.76300
O  39.52400 46.65900 28.79100
C  40.28000 44.68300 30.09000
C  41.35100 45.34200 30.85600
O  42.57300 45.29900 30.59100
O  40.82800 45.90700 31.97100
C  41.80200 46.27600 33.04200
H  42.13200 37.95300 30.93700
H  43.83200 37.84400 24.61400
H  41.48200 43.45700 23.78200
H  41.59700 42.23000 32.26700
H  40.62600 39.56600 32.31600
H  43.53800 39.95700 32.39300
H  42.34500 39.09300 33.34900
H  42.62100 40.90700 33.51300
H  39.01800 41.05100 32.56500
H  38.78400 42.28300 31.34800
H  38.50500 43.79900 32.94600
H  40.22100 43.62700 33.49900
H  42.27000 35.10400 29.80700
H  42.97200 36.31100 30.81900
H  44.03100 35.30600 29.79100
H  44.14400 33.36700 26.60400
H  42.81200 33.76100 27.41800
H  44.48800 34.02400 28.16200
H  42.85400 39.20700 22.54800
H  43.33500 42.09500 22.62200
H  45.47600 39.39800 23.45900
H  45.12000 40.76000 22.26800
H  44.78600 39.14200 21.90900
H  41.91200 41.01800 20.95100
H  41.45600 42.56000 21.53100
H  40.09700 40.48500 23.07200
H  39.69000 40.37900 21.34400
H  39.53100 41.96800 22.28800
H  40.00200 45.73900 24.49400
H  41.58000 46.32100 25.01800
H  40.01000 46.85600 25.82800
H  39.43200 44.48500 30.74600
H  42.42700 45.39300 33.17600
H  41.24500 46.42100 33.96800
H  42.49100 47.09500 32.83700

