158

Mg 40.01800 10.13800 29.46900
C  41.99300 11.41500 32.15800
C  37.84500 8.98200 31.79300
C  38.46900 8.72500 27.00000
C  42.71900 10.90300 27.37000
N  39.95700 10.12900 31.75400
C  40.70800 10.91400 32.60200
C  40.16700 10.93800 34.01200
C  38.88900 10.01000 33.87500
C  38.85100 9.68800 32.38300
C  38.81100 8.84300 34.88700
C  39.94300 12.37600 34.51600
C  40.63300 12.76100 35.81800
H  39.77000 13.61600 36.81700
N  38.32500 9.03700 29.44600
C  37.54900 8.61100 30.47900
C  36.33000 8.01900 29.91100
C  36.42100 8.01500 28.49200
C  37.81600 8.58200 28.27400
C  35.21000 7.58400 30.92400
C  35.45300 7.54400 27.42700
O  35.69400 7.54900 26.20400
C  34.14100 7.03500 27.80000
N  40.64100 9.78000 27.51200
C  39.72500 9.20200 26.67300
C  40.16700 9.29200 25.17300
C  41.52500 9.94900 25.36600
C  41.66200 10.19900 26.81300
C  40.26500 7.96500 24.36500
C  41.78400 11.24800 24.50300
C  41.18600 12.58700 24.93800
N  41.87100 11.01000 29.64800
C  42.82100 11.31300 28.72300
C  44.00100 11.93900 29.31600
C  43.70200 12.04500 30.61500
C  42.43200 11.39400 30.82200
C  45.31400 12.26100 28.67300
C  44.18300 12.52000 31.85800
O  45.27000 13.11100 32.05800
C  43.13600 12.10300 32.96600
C  43.79000 11.23000 34.00600
O  43.82000 10.00900 33.97800
O  44.11700 11.96900 35.06900
C  44.29500 11.17300 36.33300
H  37.22000 8.59700 32.60200
H  37.92400 8.40400 26.10900
H  43.50700 11.10600 26.64200
H  40.87500 10.47600 34.69900
H  37.94100 10.54000 33.97000
H  37.88200 8.66900 35.43100
H  39.56000 9.04300 35.65300
H  39.12600 7.91300 34.41300
H  38.85400 12.38800 34.57900
H  40.15000 13.11400 33.74100
H  41.46900 13.36600 35.46900
H  41.05100 11.90500 36.34800
H  34.61400 8.38300 31.36500
H  35.66400 7.19900 31.83700
H  34.58100 6.78200 30.53800
H  34.17300 6.38500 28.67400
H  33.52600 6.57600 27.02600
H  33.58200 7.91700 28.11400
H  39.53800 9.94000 24.56300
H  42.30800 9.23100 25.12500
H  39.45100 7.95400 23.64100
H  40.18300 7.06400 24.97300
H  41.16500 8.00800 23.75100
H  41.60600 10.93700 23.47400
H  42.86000 11.38100 24.60800
H  40.71300 13.15900 24.13900
H  41.91800 13.21700 25.44400
H  40.35800 12.33800 25.60100
H  45.21000 13.28800 28.32300
H  45.50000 11.63900 27.79700
H  46.18600 12.33000 29.32300
H  42.74100 13.00400 33.43400
H  44.03000 10.12100 36.23600
H  43.48400 11.65200 36.88200
H  45.28600 11.42000 36.71400
Mg 27.98300 49.97600 26.24100
C  25.87700 50.84600 28.90500
C  30.33300 49.32100 28.65900
C  30.12400 49.21900 23.81600
C  25.39500 50.66200 24.12400
N  28.09500 50.20100 28.50600
C  27.13200 50.45500 29.39900
C  27.51200 50.31700 30.82300
C  29.02500 49.92300 30.74800
C  29.13200 49.80000 29.22200
C  29.97300 50.88300 31.57300
C  26.53000 49.40200 31.65700
C  25.93400 50.00600 32.91700
H  26.01200 49.17900 34.20700
N  29.87600 49.29300 26.19700
C  30.67000 48.99300 27.31100
C  31.97200 48.46700 26.84100
C  31.92700 48.50900 25.41600
C  30.59600 49.02100 25.06400
C  33.10400 48.07800 27.77900
C  33.04600 48.12000 24.45300
O  32.94700 48.34900 23.28500
C  34.30700 47.55000 24.94000
N  27.80900 50.08100 24.27900
C  28.82900 49.56100 23.45600
C  28.29900 49.54500 21.99300
C  26.74600 49.67500 22.20500
C  26.56400 50.07800 23.67800
C  28.97200 50.65600 21.12000
C  26.02800 48.25800 21.92300
C  25.17200 48.12400 20.59200
N  26.07700 50.76400 26.46500
C  25.10500 51.02100 25.49200
C  23.88400 51.57000 26.06000
C  24.18700 51.47300 27.41400
C  25.47700 50.97500 27.60300
C  22.68600 52.02700 25.37800
C  23.68300 51.76000 28.71700
O  22.57300 52.08500 29.06500
C  24.71100 51.41700 29.69200
C  25.03100 52.64300 30.48200
O  25.83400 53.49200 30.13100
O  24.29900 52.70700 31.62200
C  24.65200 53.81400 32.52900
H  31.03300 49.07400 29.46000
H  30.79200 48.82300 23.04800
H  24.57900 50.60500 23.40000
H  27.40000 51.31900 31.23700
H  29.17600 48.88200 31.03100
H  30.86800 51.11100 30.99600
H  30.35500 50.36300 32.45200
H  29.47600 51.77400 31.95700
H  27.01400 48.46900 31.94600
H  25.66700 49.04800 31.09500
H  24.88000 50.26400 32.81100
H  26.36600 50.98400 33.12900
H  33.87600 48.82900 27.61000
H  33.37700 47.05000 27.54100
H  32.75600 48.26400 28.79500
H  34.83000 48.17100 25.66800
H  34.91800 47.52000 24.03800
H  34.11600 46.54000 25.30300
H  28.52100 48.55000 21.60500
H  26.29900 50.48800 21.63500
H  29.64800 51.37700 21.57900
H  28.19400 51.17900 20.56400
H  29.46600 50.08800 20.33300
H  25.54900 48.08300 22.88600
H  26.78200 47.47300 21.98300
H  25.21200 48.95500 19.88800
H  24.15300 47.99600 20.95500
H  25.49000 47.24600 20.03000
H  22.24500 51.38300 24.61800
H  23.03300 52.96600 24.94500
H  21.93300 52.09200 26.16300
H  24.20800 50.75400 30.39600
H  25.45800 53.53200 33.20600
H  23.76200 53.97300 33.13800
H  24.74900 54.73000 31.94600

