158

Mg 1.52700 -0.81600 43.58800
C  4.92600 0.06000 44.01200
C  0.99200 2.29100 42.29200
C  -1.54700 -1.90000 42.86900
C  2.53300 -4.15100 44.09000
N  2.91300 0.98400 43.02600
C  4.24800 1.19500 43.42000
C  4.69000 2.59100 43.07200
C  3.30100 3.31400 42.91100
C  2.29700 2.14500 42.63700
C  2.96300 4.21300 44.17700
C  5.56400 2.74700 41.78800
C  5.63100 1.72600 40.52500
H  5.45600 2.29300 39.09300
N  -0.05500 0.08100 42.68000
C  -0.15300 1.38300 42.23100
C  -1.57700 1.66100 41.84000
C  -2.28900 0.48000 42.05400
C  -1.29600 -0.50700 42.58800
C  -2.06000 2.97300 41.25300
C  -3.74000 0.30100 41.64600
O  -4.35400 1.20300 41.03800
C  -4.51100 -0.97900 41.90100
N  0.62000 -2.74300 43.48800
C  -0.68600 -2.92800 43.24800
C  -1.17600 -4.39900 43.40500
C  0.18400 -4.99000 43.85500
C  1.23200 -3.92600 43.69800
C  -2.42900 -4.53300 44.36200
C  0.54400 -6.28900 43.15000
C  0.95200 -7.39900 44.04100
N  3.29000 -1.85900 44.08900
C  3.55000 -3.21500 44.29000
C  4.90500 -3.39500 44.70000
C  5.55300 -2.16500 44.56200
C  4.49400 -1.29200 44.14100
C  5.56400 -4.70400 44.99700
C  6.77100 -1.38500 44.77000
O  7.88900 -1.80200 44.99200
C  6.40200 0.13100 44.46400
C  6.62400 0.96500 45.74800
O  5.69800 1.43900 46.35700
O  7.93800 1.10200 45.97600
C  8.20800 2.26700 46.80800
H  0.55500 3.26800 42.07600
H  -2.55800 -2.30500 42.79200
H  2.80600 -5.17200 44.36600
H  5.28100 3.03600 43.87300
H  3.31300 3.90800 41.99800
H  2.40700 3.61200 44.89800
H  2.36600 5.07900 43.89200
H  3.84200 4.56500 44.71600
H  6.54700 2.90900 42.23000
H  5.44400 3.68500 41.24600
H  4.97900 0.86200 40.65600
H  6.67100 1.40200 40.55900
H  -2.32400 3.04300 40.19800
H  -1.30400 3.74800 41.38100
H  -2.91200 3.25500 41.87200
H  -5.50300 -0.73500 41.52000
H  -4.47800 -1.28600 42.94600
H  -3.99800 -1.63000 41.19400
H  -1.40000 -4.68800 42.37800
H  0.10700 -5.18900 44.92300
H  -2.65600 -3.48400 44.55000
H  -2.15000 -5.09400 45.25400
H  -3.23800 -4.98400 43.78700
H  1.37900 -6.03800 42.49700
H  -0.27700 -6.54500 42.48000
H  0.84200 -7.12200 45.08900
H  1.86600 -7.94000 43.79600
H  0.12900 -8.10200 43.91000
H  6.50400 -4.75100 44.44700
H  4.92600 -5.53700 44.70100
H  5.68100 -4.72200 46.08100
H  7.11600 0.52900 43.74300
H  7.53000 2.27200 47.66100
H  8.02400 3.15700 46.20700
H  9.24000 2.32200 47.15500
Mg 43.79500 4.57400 47.09700
C  41.83900 7.60000 46.54300
C  41.02300 2.82900 46.23000
C  45.84800 1.97000 46.77700
C  46.67700 6.78600 47.08000
N  41.68600 5.18100 46.38100
C  41.09900 6.39100 46.55600
C  39.59800 6.23600 46.49100
C  39.42200 4.67600 46.54500
C  40.81100 4.15600 46.38700
C  38.66800 4.17200 47.78700
C  38.82700 6.94200 45.25100
C  39.59600 7.08200 43.98600
H  39.07800 6.22800 42.81800
N  43.44300 2.60600 46.70200
C  42.24800 2.05500 46.34100
C  42.47900 0.70000 46.05800
C  43.78100 0.41000 46.45800
C  44.42700 1.66600 46.71500
C  41.40300 -0.25700 45.53600
C  44.46000 -1.01500 46.54800
O  43.90600 -1.93900 46.01200
C  45.71300 -1.16700 47.34300
N  45.94300 4.38000 46.87500
C  46.50900 3.16100 46.93000
C  48.07900 3.25900 46.95900
C  48.34900 4.81000 46.98500
C  46.89900 5.40800 47.01900
C  48.67900 2.51300 48.26300
C  49.23900 5.34300 45.76100
C  50.43200 4.54700 45.30700
N  44.25600 6.74100 46.93400
C  45.45400 7.44700 46.96700
C  45.18500 8.86900 46.76400
C  43.77300 8.97200 46.62700
C  43.26600 7.67000 46.69800
C  46.14400 10.05100 46.68700
C  42.62500 9.91200 46.62500
O  42.65000 11.11400 46.66900
C  41.38000 9.05800 46.46800
C  40.42300 9.25900 47.60800
O  40.59500 8.72200 48.71900
O  39.41200 10.05800 47.21400
C  38.32300 10.13900 48.17100
H  40.12800 2.20300 46.21400
H  46.57800 1.16800 46.64800
H  47.53200 7.46500 47.08100
H  39.21300 6.64900 47.42400
H  38.77800 4.33100 45.73600
H  39.31600 3.85900 48.60500
H  38.12100 3.29900 47.43000
H  38.08500 4.98300 48.22400
H  38.48900 7.86800 45.71700
H  37.85000 6.49500 45.06700
H  40.62000 6.72400 44.08400
H  39.55900 8.13800 43.72100
H  40.41500 0.20100 45.50100
H  41.30900 -1.11000 46.20900
H  41.72700 -0.56400 44.54200
H  45.87400 -0.57900 48.24700
H  46.57800 -1.03400 46.69400
H  45.73100 -2.18300 47.73700
H  48.48800 2.75700 46.08200
H  48.82200 5.01100 47.94500
H  47.83600 2.14500 48.84800
H  49.41000 3.03000 48.88400
H  49.17000 1.62200 47.87100
H  49.61500 6.33100 46.02500
H  48.50900 5.43300 44.95600
H  50.27300 4.05200 44.34900
H  50.63000 3.73800 46.01000
H  51.37600 5.09300 45.29300
H  45.74400 10.66300 47.49500
H  46.14900 10.64900 45.77600
H  47.15100 9.71100 46.93000
H  41.01900 9.33700 45.47800
H  38.56800 9.73100 49.15200
H  37.40600 9.93200 47.61800
H  38.12800 11.18300 48.41700

