158

Mg 47.37800 44.41600 44.03100
C  43.96600 43.90500 43.65600
C  47.73600 41.09200 42.86500
C  50.72000 44.86400 43.71000
C  46.85700 47.82000 44.27000
N  46.02000 42.63400 43.65300
C  44.70500 42.74600 43.37600
C  44.08800 41.53900 42.65000
C  45.27700 40.56700 42.77900
C  46.45400 41.46500 43.14900
C  45.17700 39.39300 43.78100
C  43.51600 41.88700 41.18700
C  42.09100 41.36800 40.89700
H  41.84100 40.95300 39.49500
N  49.01700 43.09100 43.56900
C  48.94900 41.80600 43.15200
C  50.28100 41.36200 42.80700
C  51.16800 42.37800 43.21900
C  50.31600 43.54800 43.53800
C  50.59200 39.94000 42.31600
C  52.64600 42.18700 43.28100
O  53.20800 41.14000 42.93900
C  53.63500 43.26500 43.67600
N  48.61000 46.13900 43.84500
C  49.99500 46.02300 43.87900
C  50.65500 47.40200 43.98400
C  49.39200 48.40900 44.07700
C  48.21700 47.44400 44.05700
C  51.66100 47.54200 45.21100
C  49.40800 49.51500 42.96200
C  49.17100 50.96200 43.42100
N  45.76700 45.61400 43.99100
C  45.71100 47.02400 44.23900
C  44.29300 47.37800 44.27400
C  43.57900 46.14000 44.06800
C  44.54400 45.15100 43.92300
C  43.67600 48.78000 44.42800
C  42.29000 45.59600 43.90100
O  41.18300 46.13500 43.84700
C  42.49400 44.07400 43.56300
C  41.74900 43.21000 44.50800
O  40.83200 42.47000 44.17900
O  42.33400 43.30700 45.74200
C  41.53800 42.60900 46.75000
H  47.96800 40.07600 42.53800
H  51.78000 45.04600 43.52200
H  46.67700 48.89700 44.31000
H  43.25100 41.14200 43.22400
H  45.50600 40.26700 41.75600
H  44.14400 39.30500 44.11900
H  45.71500 39.68500 44.68300
H  45.66300 38.50000 43.38800
H  44.23500 41.59200 40.42300
H  43.46900 42.96800 41.05500
H  41.32900 42.13200 41.05000
H  41.88000 40.51900 41.54800
H  49.78600 39.39000 41.82900
H  50.83200 39.40300 43.23300
H  51.55600 39.82900 41.81900
H  53.53000 44.00500 42.88200
H  54.61600 42.80100 43.57100
H  53.45100 43.57600 44.70500
H  51.27400 47.57000 43.10300
H  49.22000 48.84300 45.06200
H  51.48500 46.78300 45.97300
H  51.65000 48.54500 45.63700
H  52.66300 47.40200 44.80600
H  48.73800 49.21000 42.15700
H  50.36600 49.47700 42.44500
H  48.13900 51.26800 43.25000
H  49.80000 51.55900 42.76100
H  49.52700 51.27500 44.40200
H  44.23500 49.58500 44.90500
H  42.74400 48.73900 44.99300
H  43.40100 49.01200 43.40000
H  42.14300 43.96000 42.53700
H  41.54800 41.53100 46.58600
H  40.52300 43.00400 46.78700
H  41.98000 42.84700 47.71800
Mg 41.02600 41.23800 27.56200
C  40.14800 43.71200 29.79300
C  41.72400 39.26200 30.12700
C  41.83900 38.73000 25.21100
C  40.60100 43.35000 24.89900
N  40.84500 41.49500 29.78100
C  40.34400 42.53100 30.50100
C  40.07300 42.21200 31.97400
C  40.63600 40.72300 31.98100
C  41.08700 40.42300 30.53400
C  41.68100 40.37000 33.06100
C  38.59300 42.37500 32.41800
C  38.41500 41.93500 33.82300
H  38.75400 42.83500 35.06900
N  41.67300 39.27100 27.70400
C  41.92900 38.62300 28.91600
C  42.34400 37.28900 28.63400
C  42.41600 37.19000 27.20900
C  41.95200 38.46000 26.59500
C  42.58800 36.26400 29.78200
C  42.96300 36.03500 26.39500
O  43.22100 36.05500 25.22800
C  43.20700 34.66500 27.08600
N  41.17900 41.05000 25.39700
C  41.41800 39.91400 24.66100
C  41.36000 40.12300 23.13200
C  40.71200 41.54200 23.07200
C  40.79900 42.03400 24.55300
C  42.73100 40.04900 22.46800
C  39.24700 41.63500 22.52800
C  38.12500 41.13700 23.48300
N  40.52500 43.17600 27.35100
C  40.47200 43.92200 26.19300
C  40.14600 45.31000 26.57500
C  40.02800 45.25100 27.99400
C  40.24900 43.94800 28.40200
C  39.92500 46.51400 25.59500
C  39.79200 46.02000 29.19800
O  39.71400 47.23000 29.29500
C  39.78100 45.07100 30.37000
C  40.87800 45.46600 31.29200
O  42.04900 45.26800 31.15800
O  40.35700 46.08900 32.40100
C  41.30700 46.24800 33.54300
H  41.86100 38.69700 31.05100
H  42.24500 38.02600 24.48100
H  40.61600 44.01900 24.03600
H  40.68100 42.84100 32.62300
H  39.74100 40.10400 32.03800
H  41.24500 39.65200 33.75600
H  41.99200 41.27600 33.58200
H  42.58200 39.88200 32.69000
H  37.86800 41.82600 31.81600
H  38.41500 43.44800 32.47900
H  39.00000 41.03400 34.00400
H  37.35500 41.71500 33.95100
H  43.62400 35.94900 29.90600
H  41.91500 35.41900 29.63300
H  42.39400 36.71900 30.75300
H  42.35100 34.46400 27.73100
H  44.14700 34.92400 27.57200
H  43.36000 33.87200 26.35300
H  40.67900 39.41900 22.65300
H  41.37500 42.21700 22.53000
H  42.95500 40.71800 21.63700
H  42.88700 39.06200 22.03300
H  43.43800 40.08200 23.29700
H  39.22900 41.13400 21.56000
H  39.02100 42.67500 22.29000
H  38.61500 40.83400 24.40900
H  37.55500 40.30000 23.08000
H  37.46600 41.95300 23.77800
H  39.81900 46.17800 24.56300
H  40.70900 47.22500 25.85300
H  38.99700 46.93200 25.98400
H  38.83100 45.07300 30.90400
H  42.16900 46.76600 33.12300
H  41.59200 45.26800 33.92600
H  40.81300 46.74500 34.37800

