158

Mg 7.91600 3.23600 27.25900
C  8.94900 1.50500 30.10800
C  5.74900 4.93900 29.18100
C  6.61000 4.50500 24.37100
C  10.01400 1.12500 25.37700
N  7.31600 3.07900 29.47800
C  7.89900 2.37800 30.45200
C  7.52400 2.97300 31.85800
C  6.37700 3.92000 31.50000
C  6.45800 4.00400 29.96900
C  4.92100 3.57600 31.98700
C  8.70000 3.69500 32.62300
C  8.36700 4.12900 34.03800
H  9.40100 4.02100 35.15700
N  6.48100 4.67400 26.88300
C  5.70400 5.27700 27.85200
C  4.92800 6.23900 27.15900
C  5.09200 6.09400 25.73900
C  6.04400 4.99700 25.55900
C  4.02700 7.24700 27.89800
C  4.47300 6.84700 24.57300
O  4.63200 6.59700 23.38400
C  3.73500 8.09200 24.91100
N  8.29400 2.87300 25.20500
C  7.68000 3.58000 24.23900
C  8.22700 3.18700 22.86000
C  9.42700 2.30400 23.18500
C  9.31600 2.08600 24.66400
C  7.13800 2.58200 22.01200
C  10.85400 2.94000 22.86900
C  11.35600 2.34600 21.54800
N  9.17300 1.52200 27.59800
C  10.01500 0.85600 26.73000
C  10.84400 -0.04400 27.53300
C  10.55800 0.21500 28.88200
C  9.45000 1.14000 28.84500
C  11.73200 -1.17000 27.04400
C  10.82900 -0.11700 30.24600
O  11.65500 -0.88100 30.69800
C  9.83400 0.79200 31.07500
C  9.12500 -0.02600 32.03200
O  8.28300 -0.88000 31.80700
O  9.64000 0.30300 33.27100
C  9.28000 -0.57900 34.42800
H  5.10200 5.52300 29.83900
H  6.17400 4.76800 23.40500
H  10.53800 0.51800 24.63600
H  7.08500 2.15700 32.43200
H  6.59300 4.85400 32.01800
H  4.14900 3.78500 31.24600
H  4.71800 4.26700 32.80600
H  4.82200 2.57300 32.40200
H  9.05100 4.57400 32.08200
H  9.58100 3.05400 32.59600
H  7.54700 3.50200 34.38800
H  8.13900 5.19500 34.01000
H  2.99000 6.91200 27.89400
H  4.07600 8.26500 27.51000
H  4.33800 7.30000 28.94100
H  2.85300 7.85800 25.50800
H  3.45000 8.62100 24.00200
H  4.48500 8.72900 25.38000
H  8.58600 4.13900 22.47000
H  9.41700 1.28100 22.80900
H  6.12700 2.67500 22.41000
H  7.33300 1.52800 21.81300
H  7.03400 3.04100 21.02900
H  11.56300 2.61900 23.63100
H  10.83500 4.02900 22.82200
H  12.03600 1.53400 21.80600
H  11.86100 3.05600 20.89200
H  10.52600 2.04500 20.90900
H  11.12400 -1.67100 26.29100
H  11.97500 -1.88500 27.83000
H  12.68900 -0.86200 26.62200
H  10.57500 1.42000 31.56900
H  8.54400 -0.08300 35.06100
H  10.20700 -0.72700 34.98200
H  8.95300 -1.59300 34.19900
Mg -1.73000 33.76300 27.53800
C  -3.32800 32.17700 30.03800
C  -0.15700 35.77100 29.87100
C  -0.33500 35.62700 25.01200
C  -3.50100 31.83700 25.23000
N  -1.98300 34.16600 29.73900
C  -2.52200 33.23600 30.55200
C  -2.09400 33.50200 31.97700
C  -1.20600 34.82000 31.94000
C  -1.10100 34.97500 30.44300
C  -1.77000 36.11300 32.72200
C  -1.35200 32.24000 32.56500
C  -1.81500 31.64600 33.86600
H  -1.02900 31.86200 35.16700
N  -0.42000 35.51500 27.51600
C  0.21200 36.09900 28.56100
C  1.18800 37.01400 28.08900
C  1.06200 37.11100 26.69100
C  0.11600 36.00200 26.33400
C  1.98100 37.89500 29.05000
C  1.74700 38.10400 25.73800
O  1.47000 38.11100 24.57000
C  2.88400 38.95700 26.30400
N  -1.82100 33.75900 25.47700
C  -1.17300 34.61600 24.67900
C  -1.41700 34.19400 23.21200
C  -2.42500 33.02400 23.23400
C  -2.59200 32.81800 24.75700
C  -1.88300 35.39100 22.20000
C  -1.86400 31.72700 22.51700
C  -0.67000 31.07800 23.16600
N  -3.14900 32.27000 27.57500
C  -3.72000 31.51400 26.61000
C  -4.58500 30.42400 27.24300
C  -4.47100 30.68900 28.57900
C  -3.63200 31.84900 28.74900
C  -5.41500 29.33600 26.45500
C  -4.99700 30.32800 29.81600
O  -5.82200 29.44300 30.08400
C  -4.28400 31.18500 30.79700
C  -5.28800 31.87700 31.65800
O  -5.80700 32.93200 31.34500
O  -5.50800 31.20800 32.80200
C  -6.60200 31.64700 33.61100
H  0.31100 36.31200 30.69500
H  0.15200 36.14200 24.18100
H  -4.00000 31.27600 24.43700
H  -2.87500 33.75800 32.69400
H  -0.20400 34.51400 32.24100
H  -2.38900 36.82000 32.17000
H  -0.95300 36.76500 33.03300
H  -2.27200 35.73300 33.61200
H  -0.32300 32.49400 32.82000
H  -1.34600 31.42600 31.84000
H  -1.96000 30.56900 33.78300
H  -2.82100 31.97000 34.13200
H  2.14600 37.46200 30.03700
H  1.56800 38.88600 29.24000
H  2.99400 38.02400 28.66700
H  2.64500 39.66600 27.09600
H  3.20300 39.48100 25.40300
H  3.59100 38.17500 26.58400
H  -0.44700 33.84700 22.85700
H  -3.37100 33.21400 22.72600
H  -2.97200 35.37100 22.24700
H  -1.42700 35.36000 21.21100
H  -1.65100 36.39700 22.55000
H  -1.50800 32.00700 21.52600
H  -2.64300 30.97500 22.39700
H  -0.35300 31.57500 24.08300
H  0.15900 31.13300 22.46000
H  -0.83400 30.02400 23.39100
H  -5.32500 28.46100 27.09900
H  -5.06100 29.19600 25.43400
H  -6.47000 29.60600 26.42400
H  -3.60900 30.48200 31.28600
H  -6.97100 32.61300 33.26500
H  -6.24800 31.85100 34.62100
H  -7.45900 30.98100 33.51300

