158

Mg 17.06800 -1.93100 28.17400
C  16.30900 0.00900 31.05600
C  19.04600 -3.91900 30.34700
C  18.52400 -3.30300 25.53400
C  15.48100 0.36600 26.24100
N  17.51400 -2.02600 30.42000
C  17.07300 -1.14000 31.39100
C  17.45300 -1.58300 32.79300
C  18.53500 -2.71100 32.57000
C  18.34800 -2.91900 31.00100
C  19.93500 -2.48900 33.17100
C  16.20100 -1.96100 33.77400
C  16.34600 -1.58600 35.29100
H  17.84800 -1.49100 35.95500
N  18.37300 -3.63700 27.96800
C  19.07600 -4.32000 28.95600
C  19.84600 -5.36700 28.36100
C  19.58300 -5.30600 26.95900
C  18.82400 -4.04400 26.70700
C  20.75000 -6.34000 29.11000
C  20.06200 -6.16100 25.88000
O  19.60500 -6.07900 24.75500
C  21.00600 -7.37200 26.25100
N  17.04000 -1.49600 26.17200
C  17.78400 -2.21400 25.22400
C  17.45500 -1.77100 23.76200
C  16.35200 -0.70500 24.04800
C  16.23200 -0.57600 25.56300
C  18.71900 -1.38900 22.88500
C  15.05100 -0.80200 23.21700
C  13.76400 -1.34400 23.85700
N  16.04300 -0.17400 28.48900
C  15.43500 0.64300 27.64700
C  14.73500 1.66300 28.30300
C  15.06700 1.45300 29.62000
C  15.88600 0.32000 29.71600
C  13.84900 2.64200 27.64300
C  14.90900 2.00400 30.98700
O  14.32400 2.95500 31.41500
C  15.71200 1.08400 31.95900
C  16.80500 1.96900 32.67700
O  17.90100 2.27900 32.17400
O  16.23200 2.50100 33.77700
C  17.05400 3.53200 34.45300
H  19.70500 -4.44100 31.04400
H  18.94500 -3.74600 24.62900
H  14.91900 1.05500 25.60800
H  18.03900 -0.79900 33.27300
H  18.31600 -3.66100 33.05900
H  20.16900 -3.31800 33.83900
H  19.95000 -1.55000 33.72400
H  20.67300 -2.47000 32.36900
H  16.10800 -3.04600 33.74600
H  15.27300 -1.59500 33.33600
H  15.88900 -2.35200 35.91800
H  15.81300 -0.64400 35.41500
H  21.79100 -6.51200 28.83700
H  20.23700 -7.30200 29.13800
H  20.82200 -6.18500 30.18700
H  22.00800 -7.08700 26.57200
H  21.13100 -7.86300 25.28600
H  20.49700 -7.95100 27.02100
H  16.92600 -2.61900 23.32800
H  16.87700 0.20800 23.76600
H  19.61500 -1.61800 23.46100
H  18.70000 -0.31600 22.68900
H  18.52500 -1.91800 21.95200
H  15.36900 -1.53000 22.47000
H  14.96100 0.19500 22.78400
H  13.06200 -1.78000 23.14600
H  13.16500 -0.56000 24.32100
H  14.03900 -2.17800 24.50100
H  14.20800 2.72900 26.61700
H  14.00000 3.56100 28.20800
H  12.84000 2.23200 27.70300
H  15.09900 0.60700 32.72400
H  18.08600 3.19100 34.52300
H  16.72100 3.77400 35.46300
H  16.83400 4.47000 33.94300
Mg -11.68800 15.98100 42.00600
C  -8.46800 14.89800 41.09900
C  -10.93600 19.02100 40.47900
C  -14.93900 16.50000 41.64900
C  -12.40900 12.69200 42.99500
N  -9.89200 16.81400 40.71200
C  -8.69300 16.21500 40.53600
C  -7.71200 17.11900 39.73600
C  -8.41100 18.50600 39.93600
C  -9.84900 18.13600 40.38400
C  -7.67200 19.45800 40.98000
C  -7.63100 16.65900 38.20700
C  -6.26000 16.59200 37.59900
H  -6.01800 17.17900 36.22700
N  -12.81900 17.62500 41.22100
C  -12.32900 18.79200 40.72000
C  -13.44000 19.64500 40.49900
C  -14.62100 18.96200 40.86800
C  -14.18000 17.57300 41.28600
C  -13.27500 21.01000 39.99200
C  -16.07200 19.53900 40.76100
O  -16.33700 20.64100 40.21000
C  -17.31700 18.80700 41.30100
N  -13.48100 14.65000 42.08500
C  -14.68600 15.19900 42.09700
C  -15.77400 14.19500 42.48300
C  -14.89200 13.01000 42.86600
C  -13.49300 13.56300 42.74500
C  -16.67500 14.66400 43.63600
C  -15.21800 11.78400 41.90800
C  -15.49200 10.46700 42.63600
N  -10.66700 14.21300 42.34300
C  -11.06700 12.98600 42.67800
C  -9.92800 12.07300 42.67300
C  -8.87800 12.85900 42.20600
C  -9.39400 14.09400 41.84900
C  -9.98500 10.66700 43.19600
C  -7.45800 12.79700 41.91900
O  -6.62000 11.93800 42.16000
C  -7.16300 14.08100 41.02200
C  -6.05800 14.83400 41.63800
O  -6.07400 15.21700 42.78600
O  -5.12600 15.07300 40.69500
C  -4.01800 15.86700 41.19800
H  -10.81300 20.03900 40.10500
H  -16.01500 16.67100 41.73400
H  -12.64100 11.65700 43.25800
H  -6.74200 17.23400 40.21900
H  -8.59000 19.12000 39.05400
H  -8.39000 20.10800 41.48000
H  -6.99200 20.01900 40.33900
H  -7.14000 18.84500 41.70700
H  -8.20400 17.37600 37.62000
H  -8.00400 15.64200 38.07900
H  -5.95300 15.54700 37.54700
H  -5.54300 17.13800 38.21200
H  -12.26600 21.42100 39.95000
H  -13.89100 21.63900 40.63500
H  -13.79700 21.02600 39.03600
H  -18.18800 19.46200 41.30000
H  -17.11300 18.46700 42.31700
H  -17.43700 17.98600 40.59400
H  -16.38900 13.90300 41.63300
H  -15.05000 12.86400 43.93500
H  -16.44100 14.47500 44.68400
H  -17.68000 14.28100 43.45400
H  -16.73800 15.74700 43.52900
H  -14.32700 11.56800 41.31800
H  -16.09800 11.95700 41.28900
H  -14.86900 9.63900 42.29800
H  -16.55300 10.22800 42.70800
H  -15.17600 10.51300 43.67900
H  -10.77900 10.09200 42.71900
H  -10.32400 10.68600 44.23100
H  -9.00300 10.21600 43.04800
H  -6.90700 13.62000 40.06700
H  -3.21900 15.17300 41.46100
H  -4.29800 16.61300 41.94200
H  -3.81800 16.50300 40.33500

