158

Mg 2.11100 -1.98500 44.39300
C  5.46200 -1.27000 43.72600
C  1.29400 0.75800 42.33300
C  -1.08000 -3.02200 44.42000
C  3.20000 -4.90000 46.06600
N  3.22100 -0.43900 43.16400
C  4.58400 -0.40700 43.00400
C  5.00700 0.73300 42.08200
C  3.62900 1.46200 41.75700
C  2.63500 0.54300 42.50400
C  3.55900 2.91200 42.07400
C  5.75800 0.32500 40.80500
C  7.11000 1.07600 40.59800
H  7.08600 1.99100 39.36400
N  0.32900 -1.23500 43.41400
C  0.18300 -0.07100 42.70800
C  -1.20500 0.08700 42.42900
C  -1.95600 -0.94600 43.09800
C  -0.87600 -1.78400 43.64600
C  -1.77300 1.19600 41.55800
C  -3.44600 -1.15300 43.10300
O  -4.14200 -0.45500 42.39600
C  -4.11800 -2.27700 43.82700
N  1.17000 -3.69300 45.19100
C  -0.11500 -3.91900 45.02700
C  -0.42600 -5.26100 45.62900
C  0.96800 -5.89600 45.97900
C  1.85100 -4.74700 45.73100
C  -1.33700 -5.14400 46.84000
C  1.35200 -7.10100 45.01600
C  1.07600 -8.54900 45.42600
N  3.98500 -2.91100 44.92300
C  4.31900 -4.07200 45.61900
C  5.72900 -4.16100 45.88600
C  6.23800 -3.04400 45.17100
C  5.09500 -2.36100 44.50400
C  6.46900 -5.34200 46.58200
C  7.43600 -2.33500 44.81600
O  8.55000 -2.63500 45.12400
C  6.99400 -1.21100 43.81500
C  7.58100 0.15200 44.28500
O  7.35300 0.68400 45.37400
O  8.42200 0.67000 43.32700
C  9.09000 1.91400 43.82100
H  0.88100 1.65900 41.87400
H  -2.05800 -3.43800 44.67100
H  3.51600 -5.78100 46.62700
H  5.60200 1.45500 42.64300
H  3.36700 1.36600 40.70400
H  2.57300 3.00600 42.52900
H  3.65500 3.53100 41.18200
H  4.36300 3.19600 42.75200
H  5.15800 0.43300 39.90200
H  5.82800 -0.75000 40.97400
H  7.89900 0.32700 40.53400
H  7.41300 1.81600 41.33900
H  -0.92500 1.63500 41.03300
H  -2.38300 1.94600 42.06200
H  -2.33900 0.75000 40.74000
H  -3.82800 -2.31500 44.87700
H  -3.77700 -3.20100 43.35900
H  -5.20500 -2.34500 43.77900
H  -0.90000 -5.86800 44.85700
H  1.13500 -6.22300 47.00500
H  -1.65300 -4.10100 46.87400
H  -0.80500 -5.46900 47.73400
H  -2.21000 -5.78000 46.68900
H  2.40600 -7.18600 44.75300
H  0.78200 -6.86100 44.11900
H  2.04100 -9.03200 45.58400
H  0.66000 -9.18600 44.64500
H  0.53000 -8.48400 46.36700
H  5.93800 -5.46500 47.52500
H  7.47200 -5.00700 46.84900
H  6.37100 -6.19800 45.91400
H  7.37100 -1.47100 42.82600
H  10.02100 2.11400 43.29000
H  9.17400 2.01400 44.90300
H  8.39600 2.70100 43.52600
Mg 40.46900 9.06500 29.27800
C  42.14800 10.47500 32.10800
C  38.23800 7.62700 31.54500
C  38.86600 8.02900 26.63300
C  43.03000 10.45600 27.20700
N  40.28300 9.06500 31.67300
C  40.95600 9.82100 32.56200
C  40.38800 9.76700 33.98600
C  39.10600 8.87800 33.75800
C  39.21900 8.43100 32.27900
C  38.89200 7.61700 34.64600
C  40.17100 11.16300 34.60800
C  39.16400 11.31500 35.73100
H  39.52300 12.02700 37.03200
N  38.78000 8.04700 29.09900
C  38.03900 7.40700 30.18100
C  37.05600 6.55200 29.52500
C  37.18500 6.75500 28.13300
C  38.30800 7.63200 27.90200
C  36.12000 5.69700 30.27700
C  36.40300 6.06800 27.00300
O  36.49100 6.46300 25.88000
C  35.54700 4.93000 27.36200
N  40.86500 9.33100 27.21900
C  39.97600 8.76500 26.28800
C  40.38400 9.09000 24.85100
C  41.72900 9.92800 25.11900
C  41.88900 9.91000 26.58700
C  40.49600 7.81100 23.99000
C  41.70700 11.40700 24.50000
C  41.58200 12.68900 25.40700
N  42.30900 10.06500 29.58000
C  43.26200 10.51600 28.63300
C  44.29600 11.11000 29.34200
C  43.92900 11.11400 30.70100
C  42.69200 10.47200 30.78500
C  45.49800 11.74000 28.88900
C  44.38100 11.59900 32.07100
O  45.31100 12.28600 32.42500
C  43.14100 11.18400 32.96300
C  43.58600 10.28300 34.10200
O  43.98700 9.16600 33.99600
O  43.55700 10.98900 35.26500
C  43.90200 10.34300 36.51300
H  37.55600 7.08500 32.20200
H  38.24200 7.84200 25.75600
H  43.73000 10.88300 26.48700
H  41.15900 9.28600 34.59000
H  38.20800 9.49000 33.84300
H  37.94900 7.97000 35.06400
H  39.63300 7.56200 35.44300
H  38.80000 6.66200 34.12800
H  39.97800 11.92300 33.85100
H  41.12500 11.49100 35.02000
H  38.71200 10.35500 35.98100
H  38.25800 11.79100 35.35700
H  35.12600 5.97600 29.92900
H  36.19300 5.79600 31.36000
H  36.30100 4.63700 30.09800
H  35.21800 4.53300 26.40100
H  34.61200 5.11100 27.89200
H  36.17600 4.15900 27.80700
H  39.55000 9.70000 24.50300
H  42.52700 9.37700 24.62100
H  39.79700 7.86200 23.15500
H  40.30300 6.90300 24.56300
H  41.49100 7.85800 23.54900
H  40.97700 11.71900 23.75400
H  42.64700 11.57700 23.97500
H  41.36200 12.40200 26.43600
H  40.77000 13.35500 25.11500
H  42.54400 13.20000 25.46000
H  45.33400 12.27000 27.95100
H  46.11000 10.90400 28.54900
H  45.95800 12.35600 29.66100
H  42.74200 12.11800 33.36000
H  43.49100 9.35500 36.72300
H  43.52200 10.99400 37.30100
H  44.98200 10.21700 36.58200

