158

Mg 9.09900 3.84600 27.38300
C  10.42400 2.34500 30.18600
C  7.08900 5.80700 29.48700
C  7.73900 5.25700 24.61400
C  10.73500 1.53000 25.39300
N  8.67700 3.86500 29.61300
C  9.46000 3.33200 30.59400
C  8.96900 3.64500 31.97600
C  7.69900 4.52200 31.60400
C  7.89300 4.84800 30.12100
C  6.27400 3.94200 31.88900
C  10.07500 4.35500 32.72600
C  10.31500 3.91900 34.21000
H  10.66600 5.01400 35.21300
N  7.66900 5.33000 27.11100
C  7.00300 6.07100 28.09000
C  6.25800 7.13600 27.39800
C  6.33000 6.89700 25.99500
C  7.29000 5.83500 25.84900
C  5.46200 8.18100 28.17400
C  5.58900 7.57800 24.91400
O  5.71600 7.33700 23.70200
C  4.77100 8.80400 25.22400
N  9.12400 3.33200 25.26700
C  8.48400 4.10000 24.33000
C  8.84700 3.62400 22.93500
C  9.66100 2.30400 23.17000
C  9.86300 2.38500 24.71500
C  7.66100 3.41900 21.93700
C  11.03500 2.23300 22.38800
C  11.19700 1.13000 21.33400
N  10.37400 2.21800 27.66700
C  10.91000 1.36700 26.82600
C  11.72700 0.37200 27.47900
C  11.58800 0.74800 28.84000
C  10.74800 1.85300 28.90000
C  12.61300 -0.57600 26.84200
C  12.01300 0.48800 30.18600
O  12.82300 -0.33200 30.57100
C  11.32100 1.53300 31.10100
C  10.52500 0.69300 32.07800
O  9.36100 0.37700 31.98800
O  11.09200 0.63100 33.31600
C  10.25400 0.18400 34.44300
H  6.59500 6.55700 30.11000
H  7.44200 5.78800 23.70700
H  11.27900 0.77000 24.82800
H  8.55200 2.73400 32.40600
H  7.69800 5.53400 32.00900
H  6.23600 3.02400 32.47500
H  5.78200 3.67600 30.95300
H  5.62900 4.68900 32.35100
H  9.97000 5.43700 32.64400
H  11.01300 4.24300 32.18100
H  11.11900 3.18300 34.20300
H  9.40700 3.42500 34.55800
H  5.58900 9.22600 27.88900
H  5.66900 8.09400 29.24100
H  4.41300 7.92800 28.02000
H  5.50700 9.56900 25.47200
H  4.11000 8.61000 26.07000
H  4.03800 9.09900 24.47300
H  9.60600 4.35500 22.65600
H  9.05400 1.42700 22.94500
H  6.75900 3.74100 22.45700
H  7.50700 2.38300 21.63600
H  7.77900 4.05600 21.06100
H  11.84900 2.12400 23.10500
H  11.04900 3.14700 21.79400
H  10.31100 0.54500 21.08500
H  12.00500 0.45100 21.60600
H  11.50600 1.47800 20.34900
H  11.99900 -1.42200 26.53100
H  13.34600 -1.00300 27.52700
H  13.17800 -0.20000 25.99000
H  11.98000 2.22300 31.62800
H  9.76800 -0.77100 34.24200
H  9.40700 0.82300 34.69000
H  10.70900 -0.10400 35.39100
Mg 17.47000 -1.47100 27.22000
C  16.33400 0.58300 29.78100
C  19.47900 -3.15200 29.35800
C  18.77600 -2.95300 24.43100
C  15.96000 0.90900 24.93000
N  17.87200 -1.32700 29.34200
C  17.23600 -0.47500 30.18100
C  17.60100 -0.87200 31.65700
C  18.86400 -1.85200 31.50300
C  18.82900 -2.10300 29.99300
C  20.24800 -1.44300 32.02700
C  16.36300 -1.33600 32.47200
C  16.16200 -0.56400 33.70900
H  17.33600 -0.12800 34.63900
N  18.83200 -3.05800 26.92600
C  19.51800 -3.59800 27.99200
C  20.38700 -4.60300 27.33900
C  20.19200 -4.62900 25.96800
C  19.23000 -3.52700 25.71000
C  21.31400 -5.44400 28.22100
C  20.87800 -5.47700 24.95100
O  20.68700 -5.24100 23.74900
C  21.90700 -6.48900 25.36800
N  17.26200 -1.15900 24.86900
C  17.97300 -1.84100 24.04100
C  17.83300 -1.35500 22.58000
C  16.88500 -0.16100 22.79900
C  16.68300 -0.07800 24.31600
C  19.21900 -0.92500 22.00500
C  15.49200 -0.38200 22.10500
C  15.24100 0.52000 20.88800
N  16.22000 0.18900 27.28400
C  15.71400 1.06700 26.31200
C  14.94300 2.10200 26.94600
C  15.20400 1.93700 28.30500
C  15.94100 0.79600 28.47200
C  14.11800 3.22800 26.38100
C  14.88600 2.52500 29.51600
O  14.07700 3.41500 29.84200
C  15.72500 1.70000 30.59100
C  16.69000 2.44900 31.41000
O  17.89600 2.61200 31.13500
O  15.95800 2.99800 32.45500
C  16.70500 3.87600 33.35700
H  20.03400 -3.62300 30.17200
H  19.13700 -3.50100 23.55800
H  15.54200 1.69300 24.29400
H  18.10300 -0.04000 32.15100
H  18.60600 -2.80800 31.95700
H  21.04500 -1.42000 31.28400
H  20.55800 -2.22000 32.72700
H  20.22900 -0.48800 32.55200
H  16.34300 -2.41400 32.63100
H  15.46100 -1.19500 31.87700
H  15.49400 -1.09900 34.38300
H  15.64600 0.31600 33.32400
H  20.95500 -5.33700 29.24400
H  22.37800 -5.23300 28.11600
H  21.20400 -6.50300 27.98500
H  22.76400 -5.88900 25.67700
H  21.99700 -7.07800 24.45600
H  21.54400 -7.19800 26.11100
H  17.47900 -2.07000 21.83800
H  17.27600 0.82200 22.53700
H  19.45500 0.12300 21.82200
H  19.49200 -1.46600 21.09800
H  19.98700 -1.17600 22.73700
H  14.74700 -0.08000 22.84100
H  15.22900 -1.38500 21.76700
H  15.11000 -0.09400 19.99600
H  16.06100 1.17800 20.60100
H  14.36700 1.13500 21.10300
H  14.85800 3.93400 26.00400
H  13.57200 3.71700 27.18800
H  13.41600 2.85300 25.63700
H  14.91500 1.32500 31.21700
H  16.48300 4.91800 33.12500
H  17.78000 3.84500 33.18500
H  16.54500 3.85100 34.43500

