158

Mg 40.42400 10.08300 29.94100
C  42.59400 11.26500 32.44500
C  38.38800 8.72900 32.27300
C  38.42900 8.90400 27.53600
C  42.72400 11.05300 27.57900
N  40.48600 10.09500 32.10800
C  41.47200 10.60300 32.93600
C  41.03200 10.44300 34.42500
C  39.69300 9.56000 34.36800
C  39.56600 9.39900 32.84700
C  39.80600 8.16900 35.09100
C  40.84500 11.79400 35.04200
C  40.22000 11.97300 36.42200
H  40.89500 12.89300 37.42100
N  38.65300 8.88000 29.87600
C  37.94000 8.48200 30.98100
C  36.76700 7.70200 30.59100
C  36.75300 7.83000 29.22600
C  37.97700 8.55600 28.77900
C  35.70700 7.08500 31.62200
C  35.77000 7.23500 28.20700
O  35.82100 7.34600 27.01400
C  34.51800 6.50700 28.68800
N  40.63500 9.79600 27.77700
C  39.58600 9.47100 26.99100
C  39.83100 9.74500 25.51900
C  41.21400 10.60000 25.55200
C  41.63500 10.45500 27.08100
C  39.89700 8.43700 24.66900
C  41.10800 12.05000 25.12300
C  40.00500 12.89300 25.74100
N  42.35400 10.81400 29.98000
C  43.12500 11.21900 28.93000
C  44.29900 11.77000 29.39900
C  44.11500 11.87900 30.81700
C  42.93500 11.23100 31.08300
C  45.37900 12.29000 28.58200
C  44.62700 12.48300 31.98800
O  45.66000 13.12000 32.13300
C  43.70800 12.01800 33.19000
C  44.45500 11.11400 34.17800
O  44.93500 10.03800 33.94800
O  44.47700 11.75100 35.35700
C  45.09200 11.18400 36.52700
H  37.63000 8.33500 32.95400
H  37.69000 8.58900 26.79600
H  43.29800 11.66200 26.87700
H  41.79600 9.87100 34.95100
H  38.78200 10.05300 34.70600
H  39.32800 7.37900 34.51200
H  39.25600 8.35900 36.01200
H  40.85000 8.13400 35.40200
H  40.34000 12.40700 34.29500
H  41.84200 12.22800 35.12000
H  40.30900 11.03400 36.97000
H  39.17500 12.26100 36.30700
H  36.14500 7.11900 32.62000
H  35.37900 6.06700 31.41300
H  34.82900 7.72900 31.57000
H  34.57600 5.66600 29.37800
H  33.91500 6.26300 27.81400
H  34.05200 7.37200 29.16100
H  38.99900 10.37200 25.19900
H  41.99600 10.13100 24.95500
H  39.50500 8.59200 23.66300
H  39.38600 7.59500 25.13600
H  40.93400 8.10200 24.64900
H  40.75200 12.10800 24.09500
H  42.07700 12.52500 25.27800
H  40.49800 13.64100 26.36200
H  39.22600 12.39700 26.31900
H  39.41800 13.46900 25.02500
H  44.96200 13.13800 28.03900
H  45.57700 11.55600 27.80100
H  46.32200 12.60500 29.02800
H  43.33700 12.95600 33.60500
H  45.53900 11.94000 37.17300
H  45.93600 10.59800 36.16300
H  44.44800 10.46700 37.03600
Mg -12.84700 16.17000 41.38100
C  -9.88400 14.37800 40.70100
C  -11.45600 18.81800 39.70700
C  -15.79800 17.62700 41.74200
C  -14.17200 13.02600 42.36800
N  -10.96900 16.47000 40.14500
C  -9.94400 15.63800 40.16300
C  -8.66000 16.31400 39.53700
C  -9.09600 17.80900 39.20500
C  -10.57200 17.75300 39.72700
C  -8.31400 18.92000 39.90900
C  -8.10700 15.63500 38.23300
C  -6.55500 15.36900 38.23500
H  -5.62600 16.06200 37.26100
N  -13.55900 17.99000 40.86100
C  -12.78800 18.98800 40.30700
C  -13.55100 20.16100 40.27000
C  -14.82000 19.81900 40.86700
C  -14.76800 18.43100 41.25200
C  -13.10300 21.47800 39.69500
C  -15.95100 20.84500 40.95600
O  -15.83800 21.91400 40.36500
C  -17.24600 20.65200 41.75000
N  -14.75300 15.37600 41.62400
C  -15.81400 16.25200 41.91400
C  -17.03900 15.46400 42.33600
C  -16.43200 14.09100 42.73800
C  -15.01700 14.14800 42.16900
C  -17.73500 16.16600 43.55100
C  -17.33200 12.87700 42.33100
C  -17.61000 11.86800 43.42800
N  -12.18000 14.03200 41.55500
C  -12.79200 12.91200 42.06900
C  -11.86300 11.82200 42.23000
C  -10.71000 12.34300 41.59700
C  -10.96300 13.69000 41.27000
C  -12.12400 10.50600 42.89900
C  -9.32600 12.05400 41.33900
O  -8.68300 11.08300 41.66800
C  -8.66600 13.33700 40.61600
C  -7.44000 13.78700 41.40400
O  -7.42100 14.52200 42.39900
O  -6.35500 12.96800 41.04800
C  -4.98700 13.03300 41.62400
H  -10.99500 19.66200 39.19000
H  -16.75100 18.15900 41.76800
H  -14.60500 12.08800 42.72300
H  -7.86300 16.29000 40.28100
H  -9.10900 18.06900 38.14600
H  -8.81000 19.81700 40.28100
H  -7.52700 19.30200 39.26000
H  -7.79200 18.37700 40.69700
H  -8.16300 16.27300 37.35100
H  -8.53300 14.66400 37.97900
H  -6.42900 14.30100 38.05900
H  -6.17400 15.41400 39.25500
H  -13.53100 21.58900 38.69900
H  -12.02600 21.52500 39.53000
H  -13.34900 22.22800 40.44700
H  -16.87900 20.40700 42.74700
H  -17.91200 19.89100 41.34200
H  -17.68600 21.65000 41.76800
H  -17.69500 15.37300 41.47000
H  -16.29500 14.20000 43.81400
H  -17.97600 15.43500 44.32200
H  -18.67200 16.62200 43.23300
H  -17.09500 17.01300 43.79800
H  -16.78800 12.43700 41.49500
H  -18.23800 13.26400 41.86400
H  -16.97400 10.99600 43.27600
H  -18.60900 11.45000 43.31100
H  -17.67000 12.32300 44.41700
H  -11.26100 10.33200 43.54100
H  -12.26400 9.65300 42.23400
H  -12.97800 10.56500 43.57400
H  -8.45600 13.14400 39.56400
H  -4.67300 12.02000 41.87700
H  -5.01800 13.61800 42.54400
H  -4.28800 13.49400 40.92600

