158

Mg 44.89000 4.54800 46.44800
C  42.92300 7.47300 46.84300
C  41.91000 2.90000 45.95700
C  46.72900 1.87100 45.80900
C  47.72100 6.53800 46.62000
N  42.67800 5.22000 46.38400
C  42.07900 6.41600 46.60300
C  40.58200 6.37600 46.57200
C  40.29100 4.82400 46.60200
C  41.72200 4.26500 46.30300
C  39.51900 4.28800 47.78400
C  39.98700 7.28800 45.42200
C  40.45900 7.23600 43.98400
H  39.74800 6.38700 42.94400
N  44.39100 2.64700 45.86600
C  43.08300 2.13400 45.78900
C  43.20800 0.71600 45.54200
C  44.60000 0.37800 45.41300
C  45.29700 1.67000 45.64300
C  41.99700 -0.22100 45.27500
C  45.16100 -1.02700 45.11600
O  44.44200 -2.03600 45.17600
C  46.44400 -1.22200 44.52400
N  46.99600 4.33900 45.91300
C  47.53700 3.09500 45.86900
C  48.98700 3.09900 46.24600
C  49.36000 4.66500 46.14200
C  47.90000 5.24100 46.24900
C  49.35300 2.55700 47.65100
C  49.96500 5.20300 44.79100
C  51.44600 5.79200 44.90600
N  45.32300 6.60600 46.67900
C  46.54400 7.26700 46.78600
C  46.34500 8.64500 47.12400
C  44.92700 8.78600 47.12800
C  44.35000 7.52100 46.84600
C  47.38800 9.76500 47.08600
C  43.85800 9.68800 47.30700
O  43.78500 10.86600 47.42400
C  42.52200 8.82000 47.21200
C  41.76000 8.96000 48.42900
O  41.98800 8.29300 49.42200
O  40.58000 9.69700 48.24000
C  39.59000 9.54700 49.33800
H  40.90700 2.46900 45.96000
H  47.30800 0.95900 45.65300
H  48.64800 7.04800 46.89100
H  40.40300 6.83600 47.54300
H  39.58700 4.57900 45.80600
H  39.24000 4.98200 48.57700
H  40.12300 3.45100 48.13500
H  38.62200 3.68800 47.63600
H  40.02700 8.33900 45.70700
H  38.95500 6.97100 45.57500
H  41.45000 6.78600 43.93300
H  40.35600 8.24900 43.59400
H  41.81800 -0.33100 44.20500
H  41.00900 0.04700 45.65000
H  42.31200 -1.21400 45.59800
H  46.38700 -1.85800 43.64200
H  47.15300 -1.73900 45.17000
H  46.92100 -0.29700 44.20100
H  49.45800 2.51000 45.45800
H  49.85600 5.14200 46.98700
H  48.41000 2.34600 48.15500
H  49.88700 3.29000 48.25500
H  50.02300 1.70100 47.56100
H  49.24700 5.92300 44.39900
H  49.95200 4.45400 43.99900
H  51.53500 6.59400 44.17300
H  52.11600 4.96900 44.65700
H  51.63400 6.15700 45.91600
H  46.94000 10.67400 46.68400
H  48.31500 9.57300 46.54500
H  47.63300 10.06000 48.10600
H  41.83900 9.30600 46.51500
H  38.62900 9.67400 48.83900
H  39.74200 10.30700 50.10500
H  39.59500 8.57100 49.82300
Mg 17.16800 52.58800 26.47700
C  19.01600 50.88800 29.08700
C  14.76300 53.20400 28.95200
C  15.46500 54.31400 24.22600
C  19.37200 51.43200 24.13300
N  16.87900 52.03100 28.77800
C  17.80300 51.46400 29.63900
C  17.35400 51.67600 31.13900
C  15.80900 52.12700 30.94700
C  15.78000 52.39100 29.45800
C  14.76600 51.19800 31.59100
C  18.17600 52.75100 31.81800
C  18.09300 52.89900 33.35900
H  17.11800 52.05800 34.17200
N  15.49400 53.83900 26.64500
C  14.63500 53.90000 27.70800
C  13.48000 54.72900 27.30600
C  13.73200 55.11700 25.93100
C  14.88000 54.40000 25.53600
C  12.30200 54.98900 28.17800
C  12.94900 56.05400 24.98800
O  13.29700 56.44100 23.88600
C  11.79800 56.83600 25.59100
N  17.29000 52.70800 24.42900
C  16.51700 53.56700 23.73600
C  16.74100 53.28100 22.17400
C  18.26500 52.86200 22.23800
C  18.34100 52.27500 23.65000
C  15.88300 52.21800 21.38700
C  19.24000 54.06600 22.12800
C  20.00900 54.16100 20.81400
N  18.80100 51.38000 26.44900
C  19.66200 51.03000 25.43900
C  20.65900 50.21300 25.98400
C  20.51000 50.14100 27.32200
C  19.33900 50.85400 27.64700
C  21.79500 49.52100 25.24500
C  21.12400 49.69100 28.65500
O  22.23000 49.17400 28.85800
C  20.15400 50.28000 29.81000
C  19.84900 49.23000 30.81900
O  19.44800 48.07900 30.58900
O  20.16400 49.64400 32.05900
C  19.75000 48.75700 33.14900
H  13.96100 53.47000 29.64400
H  14.91100 54.72800 23.38200
H  20.01700 50.98900 23.37100
H  17.48700 50.71400 31.63300
H  15.66800 53.04800 31.51400
H  15.18000 50.63300 32.42600
H  14.45700 50.42000 30.89400
H  13.85600 51.75600 31.81100
H  17.93300 53.71800 31.37800
H  19.22600 52.54300 31.61500
H  17.91400 53.94600 33.60200
H  19.05400 52.69500 33.83000
H  11.44700 55.03800 27.50400
H  12.53400 55.94800 28.64200
H  12.14300 54.18200 28.89200
H  10.91400 56.22500 25.77300
H  11.52800 57.56400 24.82600
H  12.16400 57.35400 26.47700
H  16.59200 54.22700 21.65400
H  18.50000 52.09000 21.50600
H  16.60400 51.67000 20.78000
H  15.05000 52.57800 20.78500
H  15.45600 51.49500 22.08200
H  19.90500 54.12300 22.99000
H  18.64100 54.97000 22.23700
H  19.85600 55.22800 20.65200
H  19.68500 53.51600 19.99700
H  21.05900 53.93600 20.99800
H  22.57000 50.28700 25.26200
H  21.54000 49.25800 24.21900
H  22.06100 48.59100 25.74800
H  20.70900 51.07400 30.30900
H  20.56400 48.03600 33.21800
H  18.73300 48.38200 33.03200
H  19.81900 49.42500 34.00800

