158

Mg 0.02500 7.71800 24.64100
C  1.09500 9.55700 27.43500
C  0.00300 4.95400 26.58300
C  -0.77800 5.95100 21.89900
C  0.62500 10.62800 22.62600
N  0.51400 7.31200 26.87200
C  0.86200 8.22100 27.76400
C  0.99600 7.55000 29.12200
C  0.68100 6.01500 28.81900
C  0.40500 6.05100 27.33500
C  1.68700 4.94300 29.31700
C  0.05400 8.02500 30.27400
C  0.65400 8.35000 31.63800
H  1.90600 7.50600 32.06700
N  -0.32700 5.69800 24.29000
C  -0.27400 4.73000 25.21900
C  -0.58200 3.44000 24.58100
C  -0.78300 3.70400 23.19500
C  -0.67800 5.16300 23.08100
C  -0.46700 2.08000 25.30800
C  -1.03100 2.69700 22.09200
O  -1.21500 2.96800 20.88000
C  -0.90100 1.28800 22.34100
N  -0.02100 8.26800 22.62000
C  -0.40600 7.33900 21.70300
C  -0.57400 8.04300 20.30900
C  0.03900 9.42500 20.56900
C  0.24000 9.43900 22.02900
C  -0.00100 7.22300 19.09900
C  -0.94400 10.60800 20.02000
C  -2.10400 11.11200 20.91700
N  0.69100 9.70200 24.91000
C  0.87400 10.80500 24.06900
C  1.24100 11.96700 24.76800
C  1.31500 11.55800 26.13300
C  1.02500 10.16500 26.11800
C  1.49200 13.30000 24.22100
C  1.62700 12.00400 27.47000
O  1.90100 13.16800 27.79200
C  1.48500 10.69000 28.39700
C  2.71600 10.50500 29.18000
O  3.58000 9.72700 28.83300
O  2.71600 11.20900 30.32100
C  4.03500 11.04700 31.02900
H  -0.19600 4.11500 27.25300
H  -0.97900 5.41800 20.96700
H  0.72400 11.55300 22.05400
H  2.05900 7.54800 29.35900
H  -0.29400 5.76300 29.23600
H  2.20900 4.47400 28.48300
H  1.26800 4.05900 29.79900
H  2.50100 5.33200 29.92800
H  -0.83600 7.40100 30.35100
H  -0.27500 8.99600 29.90500
H  -0.02800 8.06200 32.43700
H  0.88100 9.39700 31.84000
H  -0.15300 2.11000 26.35200
H  0.21100 1.43400 24.75200
H  -1.42700 1.56200 25.29700
H  -1.01400 0.70300 21.42800
H  -1.63500 0.89700 23.04600
H  0.09400 0.94600 22.62600
H  -1.65800 8.07100 20.19600
H  1.03500 9.55900 20.14600
H  0.25400 6.22400 19.45200
H  0.81400 7.81000 18.67600
H  -0.64800 7.08600 18.23300
H  -1.40900 10.18400 19.13100
H  -0.30600 11.43500 19.70800
H  -1.77700 12.08700 21.27700
H  -2.35700 10.50800 21.78700
H  -2.99600 11.25900 20.30900
H  1.35000 13.22400 23.14300
H  2.43400 13.75400 24.52900
H  0.72200 13.93300 24.66100
H  0.68800 10.92600 29.10200
H  4.86600 11.57700 30.56400
H  4.35300 10.00700 31.10800
H  3.95700 11.36800 32.06700
Mg 26.11400 0.45300 29.31900
C  27.67500 0.11900 32.46500
C  23.26000 1.16500 30.92000
C  24.70900 0.85700 26.31600
C  29.13300 -0.26800 27.81900
N  25.48200 0.46600 31.42100
C  26.34400 0.46500 32.48600
C  25.61000 0.84000 33.75300
C  24.15700 1.10200 33.31200
C  24.27400 0.88500 31.78400
C  22.99100 0.27300 33.92800
C  26.17600 2.14200 34.49000
C  25.26800 2.70400 35.62800
H  25.79800 2.95800 36.99600
N  24.20000 0.88300 28.68400
C  23.11800 1.06100 29.50800
C  21.93700 1.25800 28.63400
C  22.37400 1.15000 27.33700
C  23.76200 0.90500 27.41400
C  20.57700 1.44200 29.23800
C  21.66100 1.26400 25.99200
O  22.18400 0.94700 24.95700
C  20.18200 1.64700 25.96900
N  26.90800 0.54200 27.33900
C  26.03100 0.63700 26.24100
C  26.77000 0.65400 24.92700
C  28.28700 0.39900 25.36900
C  28.13900 0.22800 26.95500
C  26.24900 -0.47100 23.86200
C  29.26900 1.54400 25.09500
C  29.39900 1.89400 23.65300
N  28.03400 -0.15300 29.98700
C  29.13900 -0.34800 29.24100
C  30.18500 -0.61900 30.14700
C  29.71700 -0.41500 31.42100
C  28.38800 -0.20500 31.32000
C  31.51700 -0.92100 29.69200
C  30.10700 -0.34100 32.78600
O  31.21100 -0.46300 33.26400
C  28.72500 0.10200 33.51000
C  28.45300 -0.84000 34.72200
O  27.90200 -1.91800 34.73300
O  28.94500 -0.28000 35.87700
C  28.85600 -1.01000 37.11400
H  22.45600 1.51800 31.56900
H  24.37400 0.97600 25.28400
H  30.08500 -0.38200 27.29600
H  25.68400 -0.00700 34.43400
H  24.00200 2.17700 33.39400
H  22.73900 -0.46100 33.16300
H  22.14100 0.91300 34.16800
H  23.31500 -0.20800 34.85100
H  26.41100 2.85900 33.70400
H  27.13600 1.84300 34.90900
H  24.40600 2.04200 35.70700
H  24.93500 3.66100 35.22500
H  20.46300 1.50300 30.32000
H  19.82200 0.68100 29.03900
H  20.23500 2.36500 28.76900
H  19.83800 1.68100 24.93500
H  20.07700 2.66600 26.34100
H  19.61400 0.90100 26.52400
H  26.66800 1.57500 24.35200
H  28.64800 -0.55400 24.98200
H  25.58500 -1.18700 24.34800
H  27.16100 -0.94900 23.50500
H  25.76600 -0.01000 23.00000
H  30.27100 1.19300 25.34300
H  29.03500 2.44900 25.65600
H  28.72100 1.36000 22.98700
H  30.40700 1.66000 23.30900
H  29.13300 2.92000 23.40100
H  32.14700 -0.45400 30.44900
H  31.72000 -0.46700 28.72200
H  31.71200 -1.97900 29.51900
H  29.00900 1.09400 33.86300
H  28.70000 -0.23200 37.86100
H  29.82000 -1.41000 37.43100
H  28.03700 -1.72900 37.07200

