158

Mg -1.52400 17.53200 27.01500
C  -2.29400 15.37200 29.60500
C  -2.52600 20.15400 29.11500
C  -1.21900 19.68700 24.41200
C  -1.49500 14.88200 24.75200
N  -2.39800 17.64800 29.07900
C  -2.47800 16.64200 30.02600
C  -2.83400 17.20800 31.38100
C  -3.42900 18.60400 30.99000
C  -2.64500 18.87900 29.73600
C  -4.97600 18.54500 30.72000
C  -1.60200 17.37800 32.31300
C  -1.86700 17.17500 33.75100
H  -0.62300 16.80700 34.56200
N  -1.70200 19.60400 26.84400
C  -2.04200 20.53200 27.84900
C  -1.87600 21.84500 27.33100
C  -1.39300 21.75300 26.00900
C  -1.44100 20.29400 25.69300
C  -2.28900 22.98300 28.17100
C  -1.01400 22.75700 25.04100
O  -0.67100 22.54700 23.90600
C  -1.06400 24.21400 25.48100
N  -1.49200 17.39000 24.91000
C  -1.39600 18.41200 24.03700
C  -1.22600 17.89900 22.52800
C  -1.07600 16.36800 22.72500
C  -1.33600 16.18600 24.23900
C  -2.49300 18.30700 21.64700
C  0.28600 15.71200 22.33400
C  1.53200 16.29600 22.99200
N  -1.83000 15.52800 27.12200
C  -1.76400 14.54600 26.09000
C  -1.89500 13.21000 26.69000
C  -2.04900 13.52300 28.06400
C  -2.03100 14.87600 28.26500
C  -1.84700 11.91700 26.03400
C  -2.21800 12.94700 29.37200
O  -2.26500 11.78900 29.78600
C  -2.42800 14.08600 30.38100
C  -1.50000 13.98000 31.55300
O  -0.32300 14.22400 31.57000
O  -2.20100 13.70200 32.64700
C  -1.49200 13.54200 33.96100
H  -2.90500 20.90000 29.81700
H  -1.08400 20.38100 23.58000
H  -1.50900 14.02900 24.07000
H  -3.53400 16.52900 31.86800
H  -3.21600 19.36400 31.74200
H  -5.20000 18.83000 29.69200
H  -5.40700 19.27300 31.40700
H  -5.29900 17.52200 30.91000
H  -1.25000 18.40900 32.28200
H  -0.82400 16.72500 31.91800
H  -2.50100 16.29000 33.79800
H  -2.40500 18.06700 34.07200
H  -1.44300 23.58300 28.50500
H  -2.70200 22.81200 29.16500
H  -3.06800 23.60500 27.72900
H  -0.25600 24.32900 26.20300
H  -2.08100 24.32900 25.85400
H  -0.86200 24.88400 24.64500
H  -0.36500 18.30700 21.99700
H  -1.79800 15.96100 22.01700
H  -3.28800 18.65900 22.30400
H  -2.68800 17.58100 20.85700
H  -2.30300 19.23300 21.10400
H  0.40400 15.83100 21.25700
H  0.16500 14.64300 22.50700
H  1.28000 16.95200 23.82500
H  2.11800 16.85900 22.26700
H  2.14400 15.44000 23.27700
H  -1.25300 11.36000 26.76000
H  -1.41800 11.83100 25.03600
H  -2.83400 11.45800 26.07700
H  -3.43800 14.08400 30.79000
H  -2.01400 14.02300 34.78800
H  -0.47600 13.93500 33.94800
H  -1.45800 12.47700 34.19400
Mg 53.24800 23.54700 44.50700
C  50.67100 25.86000 43.66400
C  51.12900 20.95000 43.54100
C  55.99200 21.54700 44.39900
C  55.38300 26.30300 44.99900
N  51.19300 23.51100 43.44700
C  50.32500 24.50300 43.37600
C  48.98900 23.98500 42.84800
C  49.00100 22.47800 43.21800
C  50.57800 22.23200 43.43400
C  48.27100 21.99500 44.51500
C  48.58700 24.28400 41.33500
C  49.70300 24.00500 40.33500
H  49.43900 24.22000 38.82300
N  53.47800 21.44100 44.25700
C  52.49100 20.61600 43.85700
C  53.08500 19.25500 43.79600
C  54.48400 19.39100 44.06100
C  54.75500 20.81200 44.23500
C  52.13800 18.12200 43.54200
C  55.42200 18.18000 43.95500
O  55.05200 17.11200 43.37900
C  56.89800 18.37100 44.37600
N  55.43600 23.91800 44.55900
C  56.24100 22.87800 44.63900
C  57.72500 23.35300 44.93600
C  57.48600 24.86000 45.35700
C  56.06400 25.10000 44.87100
C  58.48400 22.50500 46.06200
C  58.49500 25.83400 44.65400
C  59.98500 25.49000 44.72500
N  53.13300 25.61100 44.33600
C  54.08700 26.63800 44.60200
C  53.46700 27.91600 44.50000
C  52.14200 27.68700 44.19100
C  51.95900 26.27700 44.04300
C  54.09900 29.19200 44.94100
C  50.91100 28.31600 43.88100
O  50.71000 29.51500 43.75700
C  49.81700 27.17800 43.52500
C  49.38300 27.41000 42.11000
O  50.12800 27.58300 41.16700
O  48.03400 27.49900 42.00400
C  47.45000 27.91000 40.70900
H  50.47800 20.12700 43.23600
H  56.87800 20.91000 44.37600
H  56.04200 27.14500 45.22000
H  48.28500 24.46500 43.52800
H  48.63400 21.83700 42.41700
H  48.91700 21.33800 45.09800
H  47.40300 21.42800 44.17900
H  48.11000 22.93200 45.04700
H  48.13100 25.26900 41.23200
H  47.73900 23.70800 40.96400
H  49.87700 22.92900 40.33800
H  50.66600 24.46300 40.55900
H  52.68100 17.21100 43.29200
H  51.39200 18.38000 42.79000
H  51.61500 17.93700 44.48100
H  57.41300 19.07900 43.72700
H  57.25800 17.34300 44.42600
H  56.88500 18.73500 45.40300
H  58.26000 23.23900 43.99300
H  57.61800 24.90600 46.43800
H  57.76700 21.71100 46.27000
H  58.80900 23.07500 46.93200
H  59.24000 21.94300 45.51200
H  58.27900 26.83500 45.02500
H  58.19100 25.70300 43.61500
H  60.19300 24.58800 45.30000
H  60.41400 26.38100 45.18500
H  60.48100 25.38600 43.76000
H  53.41300 30.03800 44.95800
H  54.95000 29.50600 44.33700
H  54.44400 29.09300 45.97000
H  49.00500 27.17300 44.25200
H  46.82100 28.77300 40.92900
H  46.90400 27.16500 40.13100
H  48.17500 28.20200 39.94900

