158

Mg 17.51400 -0.87700 27.64600
C  16.56400 1.07800 30.41600
C  19.60800 -2.66600 29.68200
C  18.81600 -2.33600 24.85800
C  15.90200 1.49700 25.53400
N  17.93100 -0.79800 29.84200
C  17.50700 0.07600 30.79500
C  17.91500 -0.44500 32.19300
C  19.03600 -1.48400 31.89800
C  18.87200 -1.66400 30.31500
C  20.37500 -0.91200 32.18600
C  16.77800 -1.02800 32.93700
C  16.54600 -0.54600 34.42400
H  17.65600 0.23400 35.16500
N  18.83600 -2.45300 27.27200
C  19.56900 -3.05800 28.29300
C  20.36200 -4.13200 27.71000
C  20.20300 -3.99600 26.24800
C  19.20600 -2.92900 26.06300
C  21.24400 -5.05900 28.57800
C  20.73500 -4.85900 25.14900
O  20.48700 -4.69200 23.89700
C  21.57600 -6.01300 25.54200
N  17.42400 -0.41300 25.53700
C  18.11500 -1.17600 24.59000
C  17.97400 -0.56400 23.11600
C  16.78200 0.45000 23.32400
C  16.69600 0.51300 24.84900
C  19.23300 0.19400 22.67400
C  15.44000 -0.15400 22.76400
C  14.76300 0.94700 21.80700
N  16.41300 0.89800 27.89200
C  15.72300 1.67700 26.95100
C  14.96700 2.72000 27.63900
C  15.21100 2.45800 28.98700
C  16.15500 1.39000 29.10600
C  13.99600 3.80000 27.05000
C  14.86100 2.85600 30.41100
O  14.10300 3.63600 30.95900
C  15.79200 2.04100 31.36600
C  16.73100 2.99200 32.09800
O  17.75800 3.40900 31.58800
O  16.31200 3.17900 33.35200
C  16.97900 4.14300 34.16000
H  20.30300 -3.23000 30.30900
H  19.12800 -2.82500 23.93200
H  15.45500 2.22200 24.85000
H  18.25300 0.42500 32.75600
H  18.87400 -2.43500 32.40600
H  20.77600 -1.78400 32.70300
H  20.42300 -0.10500 32.91700
H  20.89200 -0.72500 31.24500
H  16.90800 -2.09800 33.09300
H  15.86700 -0.99800 32.33900
H  16.35800 -1.43100 35.03300
H  15.60700 0.00100 34.51000
H  22.31900 -5.03400 28.39600
H  20.80500 -6.05200 28.67200
H  21.29300 -4.69100 29.60300
H  21.83400 -6.76600 24.79700
H  21.02500 -6.49500 26.34900
H  22.41500 -5.52900 26.04000
H  17.74700 -1.28900 22.33400
H  16.95400 1.41100 22.84000
H  20.16000 -0.07700 23.18000
H  19.04500 1.26200 22.77600
H  19.50700 -0.05700 21.65000
H  14.67200 -0.38400 23.50300
H  15.66700 -1.04800 22.18300
H  15.05500 1.88400 22.28100
H  13.68800 0.79600 21.71600
H  15.13600 1.09200 20.79300
H  13.44200 4.00200 27.96700
H  13.30900 3.41500 26.29600
H  14.37800 4.69800 26.56500
H  15.08500 1.51700 32.01000
H  18.00200 4.42300 33.90700
H  17.15800 3.73900 35.15700
H  16.31600 5.00800 34.18200
Mg 47.52300 25.40900 28.24800
C  48.23300 27.54900 30.95900
C  46.96300 22.79000 30.55200
C  47.24000 23.32400 25.61600
C  48.90900 27.84600 26.16300
N  47.55800 25.24800 30.44500
C  47.69600 26.29100 31.30900
C  47.38700 25.92900 32.72300
C  47.17500 24.33700 32.61600
C  47.25600 24.02100 31.10700
C  48.02000 23.38000 33.51200
C  46.24200 26.73200 33.30400
C  45.90400 26.54900 34.76100
H  45.83800 27.86100 35.63400
N  47.01700 23.37600 28.04900
C  46.85800 22.45000 29.13000
C  46.41200 21.27700 28.57100
C  46.43700 21.41700 27.09600
C  46.90700 22.75400 26.84200
C  46.00800 20.08200 29.36700
C  46.01500 20.46300 26.01200
O  46.07400 20.70600 24.77100
C  45.44200 19.14600 26.38600
N  48.16800 25.56900 26.19200
C  47.79200 24.61500 25.29100
C  48.01000 25.03300 23.90400
C  48.61600 26.40500 24.04300
C  48.57000 26.68900 25.52400
C  48.73700 23.92400 23.01500
C  47.87400 27.48400 23.24200
C  48.66100 28.77800 22.82500
N  48.33100 27.34700 28.40100
C  48.86600 28.19300 27.50600
C  49.44600 29.41000 28.17400
C  49.15700 29.22400 29.51900
C  48.50900 27.95300 29.59600
C  50.22600 30.50600 27.59500
C  49.24900 29.81400 30.86700
O  49.81600 30.82200 31.22900
C  48.50200 28.83100 31.81600
C  49.48600 28.55500 32.93000
O  50.61200 28.17300 32.83700
O  48.80200 28.76800 34.01300
C  49.53800 28.53500 35.27500
H  46.77900 22.06100 31.34500
H  47.10400 22.72800 24.71100
H  49.32200 28.58500 25.47200
H  48.30100 26.20800 33.24700
H  46.14100 24.23600 32.94700
H  47.42200 22.54800 33.88400
H  48.62000 23.93700 34.23200
H  48.73800 22.77600 32.95700
H  45.32700 26.44700 32.78600
H  46.42400 27.80000 33.17600
H  46.46000 25.76900 35.28300
H  44.92200 26.07800 34.78200
H  46.72000 19.28500 29.15600
H  44.96900 19.78900 29.21400
H  46.06900 20.22300 30.44600
H  44.50700 19.18900 26.94400
H  46.18000 18.51700 26.88400
H  45.26700 18.70900 25.40300
H  46.96500 25.03800 23.59400
H  49.66700 26.40800 23.75400
H  48.96300 23.20100 23.79800
H  49.69800 24.23200 22.60300
H  48.02300 23.59400 22.26100
H  46.96700 27.78600 23.76600
H  47.40500 27.06700 22.35100
H  49.73600 28.66100 22.96600
H  48.24700 29.60600 23.39900
H  48.59700 29.01400 21.76200
H  51.26000 30.56000 27.93600
H  49.62000 31.35500 27.91200
H  50.40000 30.49900 26.51900
H  47.56500 29.29300 32.12900
H  49.12700 29.18700 36.04600
H  50.56800 28.88700 35.33000
H  49.35100 27.50100 35.56400

