158

Mg 43.10900 41.74300 27.94700
C  42.31000 44.11100 30.42300
C  43.95000 39.56700 30.54700
C  44.35600 39.73800 25.67100
C  42.51700 44.21700 25.49200
N  42.92700 41.76700 30.15800
C  42.66500 42.84600 30.96300
C  42.57300 42.44500 32.41200
C  43.49000 41.25400 32.43200
C  43.41100 40.79000 30.96100
C  44.98700 41.44000 33.04300
C  41.15500 42.31800 33.08200
C  40.80100 43.35300 34.17300
H  40.39400 42.83500 35.58600
N  43.89000 39.82000 28.04400
C  44.12800 39.05500 29.23400
C  44.64700 37.77100 28.90700
C  44.84600 37.82100 27.49800
C  44.31100 39.11600 26.97300
C  44.93000 36.62300 29.94800
C  45.40300 36.73700 26.56200
O  45.42800 36.88900 25.32800
C  45.80700 35.36100 27.04500
N  43.53800 42.08700 25.85900
C  44.07400 41.00100 25.17500
C  44.19300 41.39600 23.67000
C  43.35000 42.66600 23.63800
C  43.12200 43.03300 25.06300
C  45.67300 41.43700 23.12300
C  41.98700 42.44800 22.85300
C  41.04300 41.35800 23.51100
N  42.53500 43.75500 27.88700
C  42.27500 44.61000 26.81000
C  41.73400 45.85000 27.27500
C  41.73000 45.71200 28.69500
C  42.23200 44.43700 28.97600
C  41.21200 46.92500 26.36000
C  41.37900 46.34000 29.95000
O  40.92000 47.41700 30.23100
C  41.61800 45.30900 31.10200
C  42.49100 46.05100 32.05800
O  43.62200 46.49700 31.82200
O  41.80200 46.38000 33.20900
C  42.49900 47.11200 34.18600
H  44.34900 38.86500 31.28300
H  44.82200 39.11900 24.90100
H  42.10600 44.86500 24.71500
H  43.11200 43.24500 32.92000
H  42.99600 40.40400 32.90100
H  45.67500 41.27300 32.21500
H  45.16100 40.73200 33.85300
H  45.17300 42.41700 33.48900
H  41.01500 41.24800 33.23500
H  40.51100 42.67500 32.27800
H  39.98400 44.00400 33.86100
H  41.64200 44.03300 34.30900
H  46.00100 36.49100 30.10100
H  44.62800 35.62300 29.63700
H  44.36300 36.80200 30.86200
H  46.41000 35.43600 27.95000
H  46.50400 35.01400 26.28300
H  44.91200 34.73900 27.04400
H  43.66500 40.64100 23.08800
H  43.87400 43.51900 23.20700
H  46.09900 42.43400 23.23600
H  45.69000 41.10000 22.08600
H  46.26500 40.76100 23.74000
H  42.21200 42.26500 21.80200
H  41.50600 43.42500 22.81800
H  40.70700 40.58400 22.82000
H  40.10900 41.72600 23.93400
H  41.65400 40.80500 24.22400
H  42.02900 47.34300 25.77100
H  40.72500 47.64600 27.01700
H  40.50300 46.56300 25.61500
H  40.67800 45.02500 31.57500
H  42.47200 46.51800 35.10000
H  42.04600 48.10100 34.25100
H  43.54600 47.33700 33.98300
Mg 36.37800 49.46000 26.20100
C  36.63600 47.47900 29.07800
C  34.75100 51.80300 28.19300
C  35.86700 51.32000 23.39600
C  37.60600 46.77500 24.32500
N  35.57400 49.52700 28.42500
C  35.96000 48.65900 29.40100
C  35.47300 49.26100 30.75200
C  34.74900 50.56600 30.44300
C  34.99900 50.66700 28.93000
C  33.17000 50.49900 30.80200
C  36.66500 49.49100 31.69400
C  36.38300 49.33400 33.28200
H  34.88800 49.53700 33.71900
N  35.48300 51.25900 25.82800
C  35.00600 52.14800 26.85400
C  34.71500 53.41900 26.18700
C  35.20500 53.40500 24.82500
C  35.50900 51.97300 24.61100
C  34.02000 54.59200 27.02000
C  35.44700 54.51500 23.84000
O  35.97600 54.24300 22.75600
C  35.28200 55.97400 24.20300
N  36.58300 49.11400 24.16800
C  36.39200 50.01400 23.20100
C  36.77600 49.43800 21.84400
C  37.44700 48.05400 22.26100
C  37.25800 48.01800 23.71000
C  35.66500 49.31100 20.77900
C  38.96900 47.89800 21.79100
C  39.99300 48.66900 22.69600
N  37.06500 47.49700 26.58500
C  37.48700 46.49400 25.71200
C  37.89100 45.32400 26.50500
C  37.55200 45.70600 27.82400
C  37.01100 47.00400 27.80800
C  38.50800 44.04400 25.95100
C  37.44600 45.17900 29.14400
O  37.73000 44.05600 29.60700
C  37.00400 46.36200 30.00600
C  35.92100 45.68000 30.82900
O  34.85600 45.32600 30.36700
O  36.25100 45.48800 32.13000
C  35.28900 44.91600 33.05000
H  34.32300 52.61000 28.79100
H  35.66100 51.83500 22.45600
H  38.01600 46.01600 23.65400
H  34.73300 48.47700 30.91400
H  35.10200 51.47700 30.92600
H  32.67000 50.26300 29.86300
H  32.85000 51.47700 31.15900
H  32.92900 49.74200 31.54900
H  37.18300 50.44400 31.59400
H  37.46300 48.79900 31.42500
H  37.21200 49.79000 33.82200
H  36.62600 48.27300 33.34100
H  34.81400 55.29300 27.27800
H  33.59200 54.29000 27.97600
H  33.38100 55.17800 26.35900
H  34.23600 56.28000 24.22200
H  35.88100 56.49600 23.45700
H  35.60700 56.09200 25.23600
H  37.54200 50.01500 21.32600
H  36.87300 47.22300 21.85000
H  34.94000 48.54300 21.04700
H  36.10800 49.31300 19.78300
H  35.09700 50.24100 20.79700
H  39.03000 48.21400 20.74900
H  39.20500 46.84100 21.67000
H  40.49300 49.40700 22.06800
H  40.63200 47.92400 23.17100
H  39.47100 49.21000 23.48500
H  37.67000 43.48500 25.53400
H  38.91200 43.48800 26.79800
H  39.17500 44.32600 25.13600
H  37.77200 46.54000 30.75900
H  35.10200 43.85600 32.87700
H  34.37600 45.51100 33.09100
H  35.78600 44.92100 34.02000

