158

Mg 0.56400 7.72000 27.52500
C  1.49000 9.76400 30.07700
C  0.37400 5.03800 29.72300
C  -0.13100 5.59400 24.88500
C  0.97800 10.34900 25.33000
N  1.02100 7.42000 29.59900
C  1.25500 8.45300 30.51200
C  1.10300 7.88600 31.92900
C  1.18900 6.30100 31.66600
C  0.85500 6.22800 30.20800
C  2.48500 5.60900 32.04100
C  -0.25500 8.34300 32.66800
C  -0.35100 8.02000 34.18000
H  1.02300 7.89700 34.90000
N  0.32300 5.53600 27.35200
C  0.15200 4.63100 28.42700
C  -0.34000 3.39200 27.83000
C  -0.38100 3.52500 26.45200
C  -0.09900 4.95600 26.19400
C  -0.61200 2.23700 28.72500
C  -0.76700 2.48900 25.39000
O  -0.78000 2.73000 24.20400
C  -1.13900 1.04600 25.82900
N  0.51200 7.98400 25.36900
C  0.19100 6.97900 24.51300
C  0.24700 7.44300 23.10600
C  0.63400 8.92600 23.20000
C  0.67000 9.17000 24.71700
C  1.37000 6.64100 22.38800
C  -0.16000 9.93400 22.34200
C  -1.40000 10.49200 22.91400
N  1.06700 9.73700 27.60700
C  1.18400 10.71800 26.63500
C  1.54000 11.97600 27.30000
C  1.69100 11.67600 28.66800
C  1.32400 10.29500 28.78300
C  1.91800 13.33300 26.57300
C  2.08100 12.10100 29.99700
O  2.55300 13.13500 30.38700
C  1.89000 10.96100 30.97800
C  3.01600 10.75200 31.95900
O  3.92000 9.95100 32.02800
O  2.68400 11.57800 32.99500
C  3.50800 11.53100 34.24900
H  0.15400 4.27800 30.47600
H  -0.44100 4.99400 24.02700
H  1.08400 11.23200 24.69700
H  1.91700 8.31500 32.51300
H  0.44500 5.73900 32.23100
H  2.93200 5.09200 31.19200
H  2.33600 4.90500 32.86000
H  3.17100 6.41700 32.29500
H  -1.12600 7.94900 32.14400
H  -0.30300 9.43200 32.64300
H  -0.92200 7.09200 34.22600
H  -0.88100 8.75100 34.79000
H  -1.63200 1.98500 28.43500
H  -0.63200 2.52700 29.77600
H  0.10000 1.44400 28.49700
H  -0.42400 0.54900 26.48600
H  -1.30600 0.46300 24.92400
H  -2.16100 0.97300 26.19900
H  -0.71000 7.20900 22.63900
H  1.66000 9.02500 22.84800
H  2.00500 6.10000 23.08900
H  2.00500 7.26200 21.75600
H  0.88300 5.90000 21.75400
H  -0.36500 9.54500 21.34500
H  0.58300 10.73000 22.39200
H  -1.15400 11.45000 23.37200
H  -1.80400 9.74700 23.60000
H  -2.10400 10.64700 22.09600
H  2.54200 13.02600 25.73400
H  2.40000 14.12500 27.14600
H  0.95800 13.74600 26.26100
H  1.05800 11.24100 31.62400
H  2.89200 11.08700 35.03100
H  3.82700 12.50900 34.60800
H  4.43700 10.97400 34.13200
Mg 47.24200 16.15100 28.10400
C  45.26600 15.75600 30.96200
C  49.32400 18.30100 29.83000
C  48.82900 17.03700 25.15100
C  44.60600 14.73100 26.24900
N  47.10600 17.05300 30.11300
C  46.40400 16.62400 31.16400
C  46.94700 17.21300 32.54700
C  48.02400 18.19600 32.09800
C  48.21000 17.85300 30.56600
C  47.73000 19.72100 32.37800
C  47.52400 16.15800 33.62500
C  46.60800 16.10900 34.93100
H  46.61100 17.47700 35.64000
N  48.97800 17.37400 27.61300
C  49.64700 18.16100 28.48500
C  50.78700 18.71500 27.83400
C  50.71500 18.28600 26.48400
C  49.46900 17.47700 26.35200
C  51.75500 19.61800 28.42300
C  51.60600 18.58600 25.29800
O  51.36600 18.21300 24.18200
C  52.78200 19.41700 25.47300
N  46.78800 15.83100 26.05600
C  47.58000 16.30700 25.07300
C  47.13200 15.88100 23.70900
C  45.88100 14.91100 24.07500
C  45.76000 15.18500 25.56600
C  46.78300 16.99800 22.68300
C  46.07800 13.38700 23.67600
C  45.18200 12.88200 22.52500
N  45.38300 15.22300 28.42900
C  44.46600 14.62300 27.61900
C  43.35900 14.02900 28.41500
C  43.65900 14.41600 29.74300
C  44.89600 15.14200 29.71800
C  42.23600 13.16900 27.90900
C  43.20900 14.38600 31.08600
O  42.24600 13.81900 31.54500
C  44.19200 15.18900 31.95800
C  43.27600 16.27500 32.51800
O  42.65500 17.04500 31.80200
O  43.31900 16.27800 33.94400
C  42.70900 17.41700 34.64100
H  50.00200 18.90800 30.43400
H  49.23500 17.25200 24.16000
H  43.88100 14.31600 25.54600
H  46.10100 17.76400 32.95500
H  49.00500 17.96000 32.51000
H  48.65300 20.16700 32.75000
H  46.87800 19.84700 33.04500
H  47.47700 20.24500 31.45600
H  48.61400 16.14200 33.63900
H  47.28400 15.18300 33.19900
H  47.05100 15.38600 35.61600
H  45.61700 15.77100 34.62900
H  51.95500 20.48600 27.79500
H  52.60700 19.08200 28.84000
H  51.36100 20.07400 29.33100
H  53.46800 19.25100 24.64300
H  53.37500 19.01400 26.29300
H  52.47300 20.44600 25.66000
H  47.89000 15.21300 23.30000
H  44.95700 15.30400 23.65200
H  45.73100 16.98700 22.39700
H  47.33100 16.99000 21.74100
H  47.07200 17.97700 23.06700
H  45.71900 12.77600 24.50400
H  47.09100 13.04300 23.46900
H  45.70700 12.90700 21.57000
H  44.25300 13.42600 22.35200
H  44.90700 11.84100 22.69200
H  42.36700 12.88200 26.86600
H  41.30600 13.73800 27.89600
H  42.04000 12.35200 28.60400
H  44.58400 14.52700 32.73000
H  43.01300 18.35800 34.18000
H  42.82900 17.32100 35.72000
H  41.65000 17.32000 34.40300

