158

Mg 8.79400 2.59500 27.69700
C  10.31500 1.09800 30.48100
C  6.81400 4.48300 29.74800
C  7.45000 3.87500 24.96400
C  10.63500 0.25100 25.63900
N  8.68900 2.74900 29.81900
C  9.49600 2.22000 30.79400
C  9.10900 2.70800 32.17800
C  7.94300 3.65200 31.90600
C  7.72000 3.59300 30.38300
C  6.68500 3.41300 32.81400
C  10.34800 3.27300 33.00300
C  10.19600 4.25200 34.17700
H  10.95400 3.99000 35.44000
N  7.20600 3.98300 27.42700
C  6.51300 4.64400 28.37900
C  5.59700 5.51100 27.72300
C  5.93200 5.48900 26.30600
C  6.93200 4.45600 26.11700
C  4.59200 6.40400 28.50700
C  5.44200 6.34700 25.20500
O  5.85700 6.36500 24.10200
C  4.30200 7.37800 25.57300
N  8.81900 1.88600 25.58900
C  8.21600 2.69200 24.65300
C  8.73900 2.29800 23.21600
C  9.58700 1.01700 23.40100
C  9.78200 1.10100 24.98000
C  7.64900 2.19500 22.17800
C  10.99200 1.08700 22.63400
C  11.23400 -0.20500 21.83400
N  10.26800 1.14500 27.90900
C  10.86000 0.24100 27.01300
C  11.77800 -0.67000 27.72200
C  11.57800 -0.35800 29.07800
C  10.72100 0.77900 29.12400
C  12.58300 -1.85000 27.14900
C  11.99600 -0.72700 30.42500
O  12.78200 -1.56500 30.81400
C  11.22300 0.24200 31.36000
C  10.60100 -0.59800 32.36500
O  9.39200 -0.86600 32.56000
O  11.53000 -0.92200 33.35100
C  11.00600 -1.20700 34.66900
H  6.23500 5.13800 30.40300
H  7.19400 4.44700 24.06900
H  11.21000 -0.38600 24.96400
H  8.75100 1.79700 32.65800
H  8.23000 4.64800 32.24500
H  5.81000 2.97700 32.33300
H  6.32800 4.34400 33.25500
H  6.91700 2.79300 33.68000
H  10.93000 3.72900 32.20200
H  10.88600 2.37200 33.29800
H  9.14100 4.41700 34.39500
H  10.52100 5.21000 33.77100
H  3.58800 6.48800 28.09200
H  5.16700 7.30300 28.72800
H  4.44100 5.87000 29.44600
H  4.65200 8.04000 26.36500
H  3.51400 6.68400 25.86400
H  3.90300 7.99900 24.77100
H  9.37900 3.12900 22.91900
H  9.01200 0.09400 23.32700
H  6.81400 2.83100 22.47200
H  7.33900 1.15200 22.23700
H  7.98900 2.50600 21.19000
H  11.77300 1.28300 23.36900
H  10.96400 1.91400 21.92500
H  11.63000 -0.01700 20.83600
H  10.35200 -0.81400 21.63400
H  12.04500 -0.70900 22.35800
H  13.65500 -1.67900 27.04900
H  12.13300 -2.14400 26.20000
H  12.52000 -2.72800 27.79100
H  12.01800 0.80200 31.85200
H  10.08800 -0.64600 34.84600
H  11.77100 -0.84600 35.35600
H  10.75900 -2.26100 34.79700
Mg -6.51600 24.92400 25.06300
C  -4.62400 26.22500 27.58100
C  -8.31300 23.00500 27.39500
C  -8.22300 23.48800 22.43300
C  -4.36200 26.47000 22.72300
N  -6.33500 24.60500 27.24500
C  -5.48600 25.25900 28.06900
C  -5.79800 24.93000 29.50100
C  -6.75200 23.64600 29.37300
C  -7.19200 23.73900 27.90000
C  -6.23400 22.24700 29.81200
C  -6.47500 26.11100 30.26100
C  -5.98600 26.31000 31.71600
H  -5.41300 25.07800 32.47900
N  -8.14600 23.48900 24.91100
C  -8.75300 22.86800 26.03600
C  -9.84700 22.14100 25.47700
C  -9.89100 22.30700 24.00000
C  -8.70100 23.09900 23.73100
C  -10.74800 21.51100 26.45900
C  -10.98000 21.90700 23.02200
O  -11.01500 22.37100 21.87300
C  -11.96500 20.87300 23.30200
N  -6.17000 24.85400 22.83800
C  -7.18600 24.36800 21.98100
C  -6.68300 24.62100 20.48700
C  -5.76500 25.82200 20.75200
C  -5.34000 25.65700 22.16400
C  -6.06800 23.39500 19.86600
C  -6.40800 27.21700 20.51600
C  -5.73500 28.02800 19.32900
N  -4.87500 26.13900 25.04800
C  -4.10700 26.69900 24.08500
C  -3.10900 27.61800 24.71900
C  -3.27000 27.43900 26.08000
C  -4.38200 26.58900 26.21900
C  -2.20100 28.46400 23.93100
C  -2.85400 27.87000 27.33300
O  -2.07100 28.76200 27.66400
C  -3.55400 26.95100 28.34800
C  -2.56000 26.08000 29.01500
O  -2.33800 24.91400 28.71400
O  -2.09000 26.68000 30.17000
C  -1.32600 25.90600 31.19200
H  -8.87700 22.48600 28.17300
H  -8.70100 22.94100 21.61800
H  -3.71400 26.82700 21.91900
H  -4.81100 24.74500 29.92500
H  -7.59700 23.80200 30.04300
H  -6.01300 21.73100 28.87700
H  -7.06100 21.67800 30.23600
H  -5.35900 22.25300 30.46200
H  -7.56400 26.10700 30.20600
H  -6.11100 26.97600 29.70700
H  -6.65400 26.77900 32.43800
H  -5.18600 27.04400 31.61700
H  -11.04800 20.58000 25.97900
H  -11.64600 22.12900 26.46800
H  -10.45500 21.20800 27.46400
H  -12.83300 21.38200 23.72000
H  -11.51400 20.14800 23.98000
H  -12.38500 20.37200 22.43000
H  -7.47300 25.05400 19.87400
H  -4.96300 25.70600 20.02300
H  -6.11600 22.48300 20.46100
H  -5.03400 23.57200 19.56900
H  -6.59500 23.20200 18.93200
H  -6.34900 27.92400 21.34300
H  -7.47300 27.06100 20.34100
H  -5.88400 29.10500 19.24900
H  -6.18300 27.56900 18.44800
H  -4.64900 27.93500 19.32000
H  -2.21700 28.42800 22.84100
H  -1.26500 28.10000 24.35400
H  -2.32500 29.51100 24.20700
H  -3.94500 27.67000 29.06800
H  -1.67200 24.87400 31.12600
H  -1.54000 26.35900 32.16100
H  -0.30400 25.90600 30.81600

