158

Mg 9.35700 3.23900 27.23000
C  10.52800 1.69000 30.16000
C  7.33800 5.17300 29.28500
C  7.57000 4.04400 24.51300
C  10.82000 0.57300 25.46700
N  9.06000 3.43500 29.49700
C  9.62900 2.64500 30.48100
C  9.27700 3.14900 31.85600
C  8.07000 4.09600 31.57300
C  8.21400 4.31000 30.04500
C  6.69400 3.57100 31.92200
C  10.56000 3.81800 32.46900
C  10.37300 4.80100 33.66500
H  10.86500 4.15600 34.97700
N  7.84900 4.55000 26.96200
C  7.20000 5.33500 27.91000
C  6.24700 6.22600 27.28500
C  6.35200 5.96400 25.89800
C  7.29400 4.81000 25.69500
C  5.32400 7.13700 28.02100
C  5.66200 6.67000 24.74400
O  5.96600 6.36300 23.57900
C  4.51500 7.54400 24.97300
N  9.11200 2.42300 25.26900
C  8.32800 2.96100 24.28500
C  8.44700 2.20200 23.02600
C  9.73500 1.31400 23.28700
C  9.98300 1.46900 24.73300
C  7.28800 1.35200 22.50000
C  11.01100 1.67600 22.53200
C  11.67700 0.49500 21.89500
N  10.56700 1.59600 27.69300
C  11.07600 0.57700 26.86000
C  11.98100 -0.28700 27.60500
C  11.79800 0.14000 28.92500
C  10.92600 1.23000 28.88800
C  12.89100 -1.20800 27.06300
C  12.22000 -0.12600 30.25500
O  12.93100 -0.99900 30.71500
C  11.33400 0.82900 31.13900
C  10.44600 -0.03400 32.01300
O  9.37400 -0.55600 31.66500
O  11.06700 -0.14700 33.22700
C  10.28900 -0.72800 34.28700
H  6.66400 5.67200 29.98400
H  6.98300 4.24200 23.61400
H  11.25700 -0.29500 24.96900
H  9.12200 2.29400 32.51300
H  8.06700 5.01000 32.16700
H  6.80700 2.56400 32.32600
H  6.09100 3.44800 31.02200
H  6.19600 4.21800 32.64400
H  11.06400 4.31900 31.64300
H  11.09500 2.92400 32.79000
H  9.34200 5.14200 33.76100
H  10.98100 5.69100 33.50500
H  5.73500 8.14100 27.91300
H  5.33500 6.85500 29.07300
H  4.27800 7.05800 27.72700
H  3.70600 7.14000 25.58100
H  4.07700 7.55400 23.97500
H  4.85600 8.56500 25.14100
H  8.58900 2.90900 22.20800
H  9.44800 0.26400 23.24200
H  6.78900 0.95500 23.38400
H  7.83600 0.57300 21.97000
H  6.68900 1.98800 21.84800
H  11.75100 2.09300 23.21500
H  10.83400 2.32700 21.67600
H  11.93800 0.72700 20.86300
H  10.95700 -0.32100 21.84700
H  12.50600 0.11900 22.49500
H  12.28100 -1.96200 26.56600
H  13.61700 -1.59200 27.77900
H  13.34500 -0.54400 26.32700
H  12.09400 1.36000 31.71200
H  9.29400 -0.31100 34.44300
H  10.76800 -0.37600 35.20100
H  10.21600 -1.81500 34.31500
Mg 47.16000 34.97400 28.30800
C  45.25100 33.04100 30.72200
C  47.39300 37.37100 30.65000
C  48.50800 36.85400 25.86500
C  46.68400 32.32300 26.01100
N  46.32700 35.10600 30.43400
C  45.81600 34.21400 31.26400
C  45.82600 34.68200 32.72500
C  46.19400 36.13300 32.59300
C  46.68700 36.22900 31.12700
C  45.03300 37.09900 32.79500
C  46.86100 33.74700 33.49300
C  46.92800 33.65000 35.05500
H  46.00800 34.59600 35.90700
N  47.93300 36.80100 28.32300
C  47.99300 37.66800 29.38200
C  48.76100 38.83300 29.01000
C  49.15200 38.70200 27.66600
C  48.60000 37.37000 27.22000
C  48.72400 40.02000 29.89400
C  49.76200 39.71400 26.78200
O  50.09000 39.48400 25.62500
C  50.06400 41.12300 27.28200
N  47.67400 34.61600 26.23100
C  48.02400 35.60600 25.37500
C  47.92700 35.20800 23.90900
C  47.69100 33.63700 24.05100
C  47.34600 33.50400 25.52900
C  46.78700 35.91300 23.15000
C  48.95900 32.68300 23.66200
C  50.34400 32.81500 24.45400
N  46.14900 33.13900 28.35400
C  46.01700 32.20800 27.27900
C  45.22700 31.05400 27.64800
C  44.87000 31.39400 28.99700
C  45.48700 32.63800 29.37200
C  44.96400 29.82900 26.82900
C  44.14600 30.90100 30.18100
O  43.61200 29.79300 30.36200
C  44.23900 31.98400 31.28400
C  44.50700 31.53000 32.65600
O  45.43500 30.84800 33.01200
O  43.41500 31.97900 33.42700
C  43.44300 31.57200 34.83900
H  47.61700 38.06800 31.46000
H  48.70400 37.58400 25.07600
H  46.37100 31.56500 25.28900
H  44.80100 34.52300 33.06100
H  47.00400 36.30500 33.30100
H  44.99100 37.86600 32.02300
H  45.19800 37.59900 33.75000
H  44.08900 36.55600 32.83100
H  47.77500 34.17100 33.07800
H  46.84800 32.72900 33.10400
H  47.92200 33.92300 35.40800
H  46.87900 32.59700 35.33400
H  48.16200 40.79900 29.38000
H  49.74400 40.40400 29.87300
H  48.33800 39.86100 30.90100
H  50.30600 41.62800 26.34700
H  50.87100 41.11100 28.01400
H  49.20100 41.56400 27.78200
H  48.88000 35.53200 23.49100
H  46.79600 33.26900 23.55000
H  47.18900 36.34100 22.23200
H  46.44300 36.73300 23.78200
H  45.95900 35.23600 22.94500
H  49.09800 32.96500 22.61800
H  48.56700 31.66600 23.68000
H  50.28700 33.55100 25.25700
H  51.11800 33.09200 23.73900
H  50.61600 31.86400 24.91200
H  45.70800 29.05000 26.99300
H  45.03000 30.11200 25.77900
H  43.98700 29.39400 27.03900
H  43.35000 32.59600 31.43500
H  44.06700 30.72700 35.13000
H  42.41900 31.25100 35.03300
H  43.74400 32.41200 35.46500

