158

Mg 48.93500 35.30100 27.21500
C  47.01500 33.87400 29.94600
C  49.20800 38.10000 29.23800
C  49.87300 37.07600 24.50000
C  48.13800 32.51500 25.27700
N  48.23700 35.86100 29.39800
C  47.59600 35.06500 30.27800
C  47.86100 35.63300 31.64800
C  48.14700 37.14900 31.35700
C  48.60100 37.03000 29.89100
C  46.98300 38.08300 31.58100
C  49.11300 34.93600 32.35500
C  48.93200 34.68500 33.86000
H  49.75200 35.48700 34.81000
N  49.61900 37.23400 26.94300
C  49.64400 38.26700 27.94700
C  50.25200 39.45100 27.35300
C  50.56600 39.17300 25.91600
C  50.03300 37.78000 25.77000
C  50.57900 40.75600 28.17300
C  51.19200 40.03200 24.93600
O  51.31300 39.64000 23.79900
C  51.76400 41.47600 25.25600
N  49.00900 34.82100 25.24400
C  49.46300 35.79100 24.30000
C  49.65100 35.06800 22.89600
C  49.25200 33.57500 23.28800
C  48.71300 33.65700 24.71800
C  48.95500 35.61900 21.65100
C  50.57300 32.67300 23.27000
C  50.37400 31.30500 22.54900
N  47.86900 33.44200 27.55700
C  47.62900 32.41700 26.64400
C  46.99700 31.34500 27.38400
C  46.60100 31.88100 28.59500
C  47.25100 33.17100 28.69800
C  46.70100 29.91800 26.88400
C  45.87200 31.63200 29.79000
O  45.11600 30.71300 30.11300
C  45.98000 32.99700 30.68500
C  46.43900 32.53000 32.02300
O  47.46800 31.86500 32.23900
O  45.51500 32.89900 32.98500
C  45.89800 32.51300 34.39600
H  49.37500 38.95900 29.89100
H  50.39100 37.42400 23.60300
H  48.03200 31.58400 24.71500
H  46.91100 35.49600 32.16400
H  49.01900 37.45500 31.93500
H  47.18700 39.12800 31.81300
H  46.45100 37.66600 32.43700
H  46.37400 38.08100 30.67700
H  50.02000 35.52400 32.21800
H  49.33100 34.00800 31.82700
H  49.02900 33.61600 34.05200
H  47.90600 34.99300 34.06100
H  50.15400 41.62900 27.67800
H  51.63100 41.00300 28.31600
H  50.03100 40.90500 29.10400
H  52.12100 41.95000 24.34200
H  52.52400 41.46500 26.03800
H  50.90300 42.12600 25.41200
H  50.72800 35.18700 22.77300
H  48.47300 33.15000 22.65500
H  49.53200 36.41400 21.17900
H  48.07400 36.13900 22.02900
H  48.66300 34.95900 20.83400
H  50.96700 32.39600 24.24800
H  51.36200 33.15200 22.69000
H  50.93700 31.30400 21.61600
H  49.32500 31.07300 22.36300
H  50.72100 30.42300 23.08600
H  45.85100 29.93900 26.20100
H  46.45700 29.31200 27.75600
H  47.59800 29.60000 26.35200
H  44.99700 33.42300 30.88500
H  46.35800 33.36400 34.89800
H  46.60200 31.68200 34.44100
H  44.98600 32.26400 34.93700
Mg 36.50200 48.58100 24.78200
C  36.70400 46.63500 27.76100
C  34.93200 51.11600 26.55000
C  35.61500 49.96000 21.88300
C  37.33600 45.56900 22.97500
N  35.92900 48.80300 26.92800
C  36.19400 47.96700 27.96700
C  35.66500 48.61800 29.21000
C  35.23200 50.06500 28.87700
C  35.36100 50.01100 27.35800
C  33.78300 50.48000 29.32400
C  36.49200 48.40900 30.47600
C  36.37700 49.43700 31.69300
H  35.15400 49.36700 32.61100
N  35.67300 50.37700 24.31600
C  35.02800 51.25700 25.15500
C  34.49200 52.41300 24.39200
C  34.81800 52.06400 23.05300
C  35.38100 50.76100 23.05800
C  33.87200 53.59200 25.11300
C  34.56200 52.84100 21.79200
O  34.84000 52.42700 20.67000
C  33.89700 54.20600 21.78400
N  36.40000 47.89400 22.80800
C  36.14400 48.71700 21.76800
C  36.52000 48.11500 20.39200
C  37.48700 46.99900 20.88700
C  37.06600 46.79300 22.30800
C  35.31000 47.65700 19.59900
C  38.98700 47.34600 20.67000
C  39.58100 47.08100 19.30600
N  36.95800 46.51800 25.26600
C  37.21900 45.43400 24.39900
C  37.53900 44.28600 25.19400
C  37.36000 44.68800 26.48100
C  37.03500 46.09000 26.52400
C  37.79700 42.96100 24.63000
C  37.27600 44.14400 27.82500
O  37.42900 43.02900 28.27000
C  36.82700 45.43600 28.70700
C  35.45700 45.05400 29.26700
O  34.40400 45.19300 28.67800
O  35.61300 44.52800 30.50600
C  34.36200 44.35700 31.28900
H  34.40700 51.89900 27.10100
H  35.42700 50.38400 20.89400
H  37.86000 44.85200 22.34000
H  34.75600 48.07400 29.46700
H  35.99400 50.80200 29.12900
H  33.97300 51.44500 29.79300
H  33.47100 49.77500 30.09500
H  33.05100 50.46600 28.51700
H  37.53800 48.11700 30.38500
H  36.09500 47.53400 30.98900
H  36.49600 50.43500 31.27100
H  37.26300 49.29900 32.31400
H  33.14600 54.12100 24.49700
H  34.62300 54.36000 25.29600
H  33.42200 53.18600 26.01900
H  34.46000 54.86800 22.44200
H  32.89500 53.92000 22.10400
H  33.84800 54.69200 20.81000
H  37.03400 48.91100 19.85300
H  37.11400 46.13600 20.33600
H  34.43200 47.57000 20.23900
H  35.57000 46.73100 19.08600
H  35.08600 48.31600 18.76000
H  39.69500 46.94600 21.39600
H  39.02400 48.41200 20.89700
H  38.77100 46.81400 18.62700
H  40.38300 46.35600 19.43900
H  40.08200 47.89200 18.77700
H  38.60900 42.95700 23.90400
H  36.97800 42.49500 24.08200
H  38.09000 42.35000 25.48500
H  37.49000 45.68100 29.53700
H  34.48600 43.72100 32.16600
H  33.57700 43.83000 30.74600
H  33.97700 45.34100 31.55500

