158

Mg -1.81400 17.17400 26.21400
C  -1.93500 14.82000 28.65900
C  -1.96500 19.80000 28.45700
C  -1.79700 19.39800 23.66100
C  -2.10900 14.57800 23.85500
N  -2.06000 17.27500 28.27500
C  -1.98900 16.16200 29.10300
C  -1.98100 16.68800 30.61500
C  -2.18600 18.25200 30.47800
C  -2.03300 18.49400 28.97400
C  -3.45900 18.74200 31.14600
C  -0.76500 16.24700 31.61500
C  -0.43100 17.15300 32.75800
H  -0.28800 16.62800 34.19000
N  -1.88600 19.33600 26.08900
C  -1.96900 20.21900 27.09400
C  -2.06200 21.52200 26.59500
C  -2.03100 21.45100 25.11700
C  -1.86600 20.02300 24.88900
C  -2.29500 22.70700 27.59300
C  -2.18600 22.47400 24.05100
O  -2.28400 22.25100 22.88100
C  -2.25600 23.84100 24.52200
N  -2.08100 17.07000 24.05000
C  -1.89100 18.12900 23.23200
C  -1.83600 17.76300 21.71800
C  -1.79000 16.16100 21.87900
C  -2.00700 15.88600 23.34600
C  -3.04100 18.24800 20.96400
C  -0.49100 15.54500 21.34000
C  -0.56400 14.77000 20.05700
N  -1.97500 15.16000 26.25600
C  -2.07300 14.21600 25.22700
C  -2.18100 12.87500 25.78200
C  -2.03300 13.05400 27.17700
C  -1.88500 14.42300 27.37100
C  -2.53600 11.74300 24.94900
C  -2.10400 12.32600 28.38700
O  -2.00000 11.13700 28.66500
C  -2.10700 13.54800 29.50700
C  -0.99500 13.32000 30.46000
O  0.19900 13.47200 30.17000
O  -1.51900 12.73600 31.60000
C  -0.55100 12.24000 32.54000
H  -1.98500 20.56200 29.23900
H  -1.62500 20.00700 22.77200
H  -2.06400 13.77600 23.11600
H  -2.90600 16.30300 31.04400
H  -1.38400 18.80800 30.96300
H  -4.19600 17.98500 31.41400
H  -3.92400 19.37400 30.39000
H  -3.19400 19.33700 32.02000
H  0.20200 16.13100 31.12400
H  -1.17700 15.35200 32.08100
H  -1.31900 17.77400 32.88200
H  0.44900 17.77900 32.60900
H  -2.74900 22.48400 28.55800
H  -2.83800 23.59000 27.25800
H  -1.33000 23.13900 27.85800
H  -3.13600 23.98500 25.14900
H  -2.43500 24.36700 23.58400
H  -1.34200 24.11800 25.04800
H  -0.98800 18.22500 21.21200
H  -2.55400 15.65900 21.28500
H  -3.80200 18.68900 21.60700
H  -3.51100 17.37600 20.50900
H  -2.83500 18.98700 20.18900
H  0.10100 14.99300 22.07100
H  0.26400 16.32200 21.22000
H  -0.08600 15.48000 19.38200
H  -1.59600 14.55900 19.77900
H  0.02000 13.86100 20.19900
H  -1.75200 11.04100 24.66600
H  -3.07400 12.02700 24.04500
H  -3.16900 11.16800 25.62400
H  -3.07800 13.60500 30.00000
H  -0.28600 11.23000 32.22800
H  -1.03400 12.35600 33.51000
H  0.36000 12.83400 32.61600
Mg 26.78800 50.26000 26.51700
C  24.65500 51.04700 29.24000
C  29.09500 49.37100 28.95500
C  28.77800 49.59200 24.13400
C  24.57600 51.85900 24.35900
N  26.72700 50.05000 28.88700
C  25.73100 50.42200 29.71300
C  26.19800 50.32500 31.14700
C  27.76700 50.05200 31.07600
C  27.93400 49.84600 29.54700
C  28.70900 51.06700 31.82600
C  25.36100 49.19800 31.82800
C  25.09500 49.34400 33.29400
H  25.97800 50.21800 34.21300
N  28.67400 49.41800 26.50400
C  29.43900 49.10700 27.59000
C  30.67200 48.57200 27.11900
C  30.64700 48.67500 25.70100
C  29.32100 49.18900 25.36000
C  31.79600 47.95700 28.07000
C  31.68300 48.31300 24.65700
O  31.50600 48.58200 23.51300
C  32.95700 47.60300 25.09900
N  26.75200 50.76200 24.55100
C  27.66900 50.31000 23.72900
C  27.29600 50.49900 22.30500
C  25.98500 51.30000 22.30600
C  25.76000 51.43400 23.82900
C  28.29300 51.25700 21.46200
C  24.84800 50.57200 21.56400
C  23.95500 51.57000 20.90000
N  24.98500 51.31400 26.66000
C  24.13100 51.84300 25.69500
C  22.96300 52.43600 26.31200
C  23.12100 52.12900 27.69800
C  24.36600 51.41200 27.85900
C  21.89800 53.20400 25.68500
C  22.54600 52.34300 29.02800
O  21.50500 52.83900 29.32500
C  23.43700 51.65300 30.09400
C  23.85300 52.77000 30.99900
O  24.75700 53.59300 30.83500
O  23.02300 52.68800 32.08200
C  23.21500 53.72900 33.13900
H  29.75400 49.09000 29.77900
H  29.40400 49.26900 23.30000
H  23.86700 52.31200 23.66300
H  26.08600 51.30100 31.62100
H  27.92300 49.06400 31.51000
H  29.09300 50.56500 32.71300
H  28.18800 51.97000 32.14400
H  29.52700 51.37000 31.17300
H  25.82600 48.22600 31.66500
H  24.34400 49.17100 31.43700
H  25.24400 48.34100 33.69200
H  24.05500 49.64900 33.41200
H  31.63100 46.88800 28.20600
H  31.67800 48.22700 29.12000
H  32.75000 48.28400 27.65800
H  33.71200 48.28100 25.49800
H  33.30000 47.25500 24.12500
H  32.79300 46.76000 25.77000
H  27.20700 49.50400 21.86800
H  26.14400 52.34300 22.03200
H  28.99700 51.63400 22.20300
H  27.91400 52.01200 20.77300
H  28.85700 50.55600 20.84600
H  24.28600 49.99000 22.29500
H  25.29000 49.92700 20.80500
H  22.98900 51.09000 20.74700
H  24.31500 51.82800 19.90400
H  23.77800 52.40300 21.58000
H  21.83600 54.20400 26.11300
H  20.92200 52.75800 25.87500
H  22.17700 53.22600 24.63100
H  22.85600 50.87700 30.59300
H  22.30400 53.65300 33.73300
H  23.38400 54.67900 32.63400
H  24.21300 53.63000 33.56400

