158

Mg 2.37100 -1.55600 44.97200
C  5.80600 -1.15000 44.06200
C  1.65500 1.07600 42.82800
C  -0.78900 -2.48900 44.93400
C  3.25800 -4.69900 46.35200
N  3.59000 -0.18000 43.71900
C  5.00600 -0.19600 43.49300
C  5.34300 0.80900 42.43900
C  4.06100 1.71400 42.37000
C  3.03000 0.81400 43.03100
C  4.18400 3.10200 43.08900
C  5.82100 0.12000 41.11200
C  5.02000 -0.18000 39.83000
H  5.17100 0.79500 38.61900
N  0.60900 -0.70000 44.16600
C  0.53100 0.38000 43.34400
C  -0.87700 0.64100 43.06000
C  -1.72000 -0.34500 43.73200
C  -0.64500 -1.24600 44.30500
C  -1.32100 1.83700 42.26000
C  -3.27700 -0.35500 43.69600
O  -3.98100 0.56600 43.21500
C  -3.90100 -1.56400 44.23300
N  1.34900 -3.33300 45.41600
C  0.04000 -3.44800 45.43600
C  -0.58000 -4.76500 45.97000
C  0.77100 -5.45800 46.49800
C  1.86700 -4.48000 46.07200
C  -1.51300 -4.55600 47.13400
C  1.04200 -6.87700 45.92600
C  0.72800 -7.96500 46.92800
N  4.15800 -2.69200 45.30800
C  4.32300 -3.88800 45.95400
C  5.79900 -4.22300 46.01000
C  6.37000 -3.08100 45.33200
C  5.32000 -2.21400 44.94100
C  6.46000 -5.47600 46.55500
C  7.62000 -2.56400 44.90200
O  8.75800 -2.93300 45.11800
C  7.34100 -1.23200 44.12200
C  8.07300 -0.13000 44.87200
O  7.89800 0.21200 45.98700
O  8.78000 0.63500 43.93000
C  9.46600 1.79600 44.56600
H  1.45600 2.06600 42.41400
H  -1.73800 -3.00600 44.78300
H  3.46600 -5.66200 46.82300
H  6.12400 1.37700 42.94500
H  3.79100 1.85400 41.32300
H  5.20400 3.44500 43.26400
H  3.57800 3.19700 43.99000
H  3.66000 3.66200 42.31600
H  6.13600 -0.89900 41.33500
H  6.63900 0.75400 40.76900
H  3.98400 -0.18700 40.16900
H  5.21100 -1.21400 39.53900
H  -1.68700 1.70500 41.24200
H  -0.48900 2.54200 42.25200
H  -2.03200 2.35500 42.90300
H  -3.49400 -2.40900 43.67800
H  -4.98200 -1.41900 44.22300
H  -3.65300 -1.67700 45.28900
H  -1.08900 -5.40500 45.24900
H  0.76800 -5.45200 47.58800
H  -0.98800 -4.34400 48.06500
H  -2.12000 -5.44800 47.29200
H  -2.18800 -3.71700 46.96800
H  2.06100 -6.87100 45.54000
H  0.28500 -6.98200 45.14900
H  0.40800 -7.54000 47.88000
H  1.58100 -8.62600 47.07800
H  -0.05400 -8.60000 46.51300
H  7.21600 -5.83600 45.85800
H  5.67100 -6.21600 46.69200
H  6.92300 -5.33000 47.53000
H  7.86000 -1.35000 43.17100
H  8.87400 2.44600 45.21100
H  9.93500 2.36000 43.75900
H  10.19600 1.51500 45.32500
Mg 0.44100 42.86900 25.87700
C  2.88800 42.49900 28.69000
C  -1.99800 42.22000 28.21300
C  -1.73000 42.82800 23.42200
C  3.16500 43.22000 23.76400
N  0.48900 42.33100 28.14500
C  1.50700 42.34700 29.05800
C  0.96300 42.20200 30.47700
C  -0.44300 41.52700 30.24000
C  -0.69900 42.05200 28.77200
C  -0.30700 39.99400 30.39400
C  0.79900 43.48100 31.23500
C  0.99800 43.42700 32.73900
H  1.03200 42.10200 33.53400
N  -1.60900 42.60600 25.79300
C  -2.41200 42.40100 26.81800
C  -3.76300 42.46100 26.39300
C  -3.73900 42.51300 25.01200
C  -2.33500 42.66200 24.68500
C  -4.92600 42.46600 27.39700
C  -4.89800 42.58800 24.02300
O  -4.80200 42.83200 22.79300
C  -6.27200 42.14900 24.57300
N  0.69300 43.03100 23.92100
C  -0.36500 43.00000 23.06200
C  0.11800 42.99700 21.59700
C  1.69000 43.15400 21.73600
C  1.87100 43.16700 23.22100
C  -0.24300 41.61800 20.91400
C  2.37900 44.41500 21.15300
C  2.09700 45.75700 21.90800
N  2.58200 42.88000 26.07800
C  3.51200 43.12700 25.13600
C  4.81300 43.03300 25.72600
C  4.66600 42.81000 27.12100
C  3.29200 42.77800 27.31200
C  6.11000 43.22500 24.97300
C  5.36800 42.60800 28.38700
O  6.52600 42.56100 28.74200
C  4.16300 42.42400 29.46500
C  4.29400 41.24100 30.35700
O  4.00300 40.05800 30.10700
O  4.92400 41.57800 31.54200
C  5.30000 40.52900 32.46700
H  -2.75700 42.07000 28.98400
H  -2.37800 42.78200 22.54500
H  4.09300 43.35100 23.20300
H  1.69900 41.54200 30.93600
H  -1.32400 41.83400 30.80400
H  -1.02600 39.62300 31.12400
H  0.69900 39.67800 30.67200
H  -0.56200 39.48000 29.46800
H  -0.22200 43.78400 31.00100
H  1.40800 44.21800 30.71200
H  0.26400 44.07000 33.22500
H  1.92700 43.95500 32.95100
H  -5.58900 43.30600 27.18700
H  -4.50800 42.76600 28.35800
H  -5.53700 41.57600 27.55000
H  -6.66800 42.87200 25.28600
H  -6.12800 41.18400 25.05900
H  -6.93500 42.11400 23.70800
H  -0.37300 43.75300 20.98400
H  2.20000 42.31800 21.25900
H  -0.67300 41.00600 21.70700
H  0.50700 41.00300 20.41600
H  -0.95800 41.92700 20.15200
H  1.90100 44.52800 20.18000
H  3.40300 44.14200 20.89500
H  2.13700 46.55800 21.17000
H  2.93100 45.94900 22.58300
H  1.13300 45.77700 22.41600
H  6.43900 44.26500 24.96900
H  6.02300 42.70500 24.02000
H  6.88100 42.70600 25.54200
H  4.29500 43.23500 30.18200
H  6.35000 40.52400 32.76200
H  5.02800 39.49400 32.26000
H  4.78300 40.88200 33.35900

