158

Mg 41.38200 9.26700 30.24300
C  42.96000 10.39200 33.10600
C  39.01400 7.66400 32.20900
C  39.64200 8.37500 27.47100
C  43.85200 10.61000 28.42500
N  41.06900 9.01700 32.35300
C  41.82500 9.58100 33.34100
C  41.08900 9.51700 34.67700
C  40.02400 8.35100 34.42500
C  40.04900 8.29200 32.90200
C  40.46400 6.99600 34.98400
C  40.45200 10.89300 35.01200
C  40.17500 11.08900 36.57100
H  40.89100 12.01300 37.51400
N  39.62600 8.20000 29.88400
C  38.77400 7.62600 30.84000
C  37.59600 7.00700 30.10500
C  37.68200 7.31700 28.71900
C  39.03000 7.98300 28.63600
C  36.45600 6.31000 30.81700
C  36.67900 7.10400 27.62100
O  36.84600 7.56300 26.49200
C  35.40400 6.25800 27.89400
N  41.68500 9.44800 28.29400
C  40.89000 8.98200 27.35700
C  41.56100 9.06800 25.95100
C  42.83100 9.96700 26.24400
C  42.80800 10.02100 27.74300
C  41.82900 7.71700 25.27500
C  42.85000 11.37900 25.55300
C  41.62900 12.32200 25.85700
N  43.08300 10.25700 30.63000
C  44.07100 10.73700 29.83600
C  45.07900 11.42700 30.57200
C  44.71200 11.31400 31.89500
C  43.51300 10.64500 31.87200
C  46.38100 12.01900 30.01500
C  45.07300 11.60100 33.28100
O  45.92000 12.27600 33.77000
C  43.87900 11.09500 34.08900
C  44.42500 10.21200 35.12700
O  44.99100 9.11400 34.87900
O  44.25600 10.80100 36.35900
C  44.57000 10.09100 37.59500
H  38.27500 7.13800 32.81700
H  39.15900 8.23700 26.50100
H  44.66500 11.11300 27.89700
H  41.62100 9.25500 35.59100
H  39.04400 8.58900 34.83900
H  39.55100 6.71000 35.50600
H  41.33000 6.85100 35.63000
H  40.74400 6.21100 34.28200
H  39.49200 10.96200 34.50000
H  40.95800 11.77400 34.61400
H  40.25800 10.13400 37.09000
H  39.18500 11.52700 36.69300
H  35.57400 6.88700 30.53700
H  36.59600 6.33400 31.89800
H  36.51600 5.28900 30.44000
H  34.81300 6.18800 26.98000
H  34.77000 6.80400 28.59200
H  35.72200 5.27500 28.24100
H  40.86100 9.75100 25.46900
H  43.66000 9.36200 25.87600
H  41.43400 6.88300 25.85300
H  42.90200 7.52300 25.24400
H  41.46100 7.75400 24.24900
H  42.79100 11.16800 24.48600
H  43.80800 11.86000 25.74800
H  41.96500 13.30500 26.18700
H  41.01900 11.92900 26.67000
H  41.00500 12.36100 24.96400
H  46.99700 11.20400 29.63500
H  46.92300 12.71700 30.65200
H  46.17300 12.62400 29.13300
H  43.48400 11.95300 34.63300
H  45.39700 10.58300 38.10700
H  44.90300 9.11800 37.23400
H  43.71700 9.94200 38.25600
Mg 1.20600 42.99200 26.40200
C  3.29700 43.09600 29.20100
C  -1.39300 42.11600 28.50700
C  -0.62100 42.34400 23.72900
C  3.89100 43.72500 24.32300
N  1.00700 42.76000 28.61500
C  2.02600 42.75800 29.55200
C  1.46800 42.47300 31.01000
C  0.00400 41.89000 30.66400
C  -0.07900 42.16400 29.13600
C  -0.23900 40.45500 30.99600
C  1.52800 43.72900 31.91800
C  1.60800 43.40500 33.42400
H  1.22700 41.98300 33.95700
N  -0.72500 42.49200 26.19500
C  -1.67000 42.31300 27.18400
C  -2.98000 42.09500 26.53200
C  -2.72400 42.08300 25.09500
C  -1.34200 42.32200 24.96500
C  -4.33200 41.91600 27.37800
C  -3.73200 41.96100 24.03500
O  -3.48300 42.04000 22.81500
C  -5.18500 41.65900 24.43800
N  1.67000 42.82400 24.32500
C  0.67400 42.54700 23.44100
C  1.29800 42.45600 22.05600
C  2.56500 43.34800 22.16400
C  2.71000 43.30600 23.67300
C  1.70100 40.99200 21.84700
C  2.46600 44.73700 21.54800
C  2.30200 45.96600 22.51700
N  3.19300 43.38800 26.63600
C  4.19200 43.60900 25.71300
C  5.46100 43.79500 26.45300
C  5.11800 43.65000 27.80800
C  3.75600 43.29000 27.85900
C  6.73600 44.08800 25.81200
C  5.70200 43.62800 29.03300
O  6.88100 43.74000 29.35700
C  4.49800 43.39600 30.04600
C  4.88000 42.34500 31.05200
O  5.05700 41.16700 30.86500
O  4.89200 43.01900 32.26800
C  5.04900 42.08600 33.38200
H  -2.25100 41.72800 29.06000
H  -1.23700 42.19100 22.84100
H  4.71800 43.95800 23.65000
H  1.96800 41.69200 31.58300
H  -0.76000 42.49100 31.15700
H  -0.09900 39.85400 30.09700
H  -1.21100 40.36700 31.48100
H  0.35700 40.15300 31.85700
H  0.66700 44.28400 31.54500
H  2.38900 44.33800 31.64200
H  0.90800 44.08700 33.90500
H  2.58300 43.68700 33.82100
H  -5.04300 42.63500 26.97000
H  -4.21300 42.14700 28.43700
H  -4.68000 40.88500 27.31600
H  -5.59200 42.53500 24.94200
H  -5.19200 40.83400 25.15000
H  -5.84300 41.45200 23.59400
H  0.64500 42.83300 21.26900
H  3.48200 42.85400 21.84100
H  2.68000 40.83700 21.39300
H  1.08600 40.74200 20.98200
H  1.56500 40.33300 22.70500
H  1.70000 44.76600 20.77300
H  3.43300 44.88100 21.06700
H  3.27200 46.46400 22.52200
H  2.13700 45.69400 23.55900
H  1.55900 46.69600 22.19500
H  7.30000 43.97900 26.73800
H  6.57100 45.11000 25.46900
H  6.87200 43.38700 24.98800
H  4.37600 44.33000 30.59400
H  4.79700 41.04400 33.18400
H  4.25400 42.25400 34.11000
H  6.04200 42.21900 33.81200

