158

Mg -1.52700 17.27000 26.16200
C  -1.83300 14.94500 28.86500
C  -2.05100 19.77800 28.32600
C  -1.46900 19.24000 23.49800
C  -1.55200 14.37700 23.96300
N  -2.19900 17.28800 28.42100
C  -1.97100 16.34100 29.30200
C  -2.01600 16.82300 30.68200
C  -2.18100 18.37500 30.52800
C  -2.19300 18.52400 29.02300
C  -3.51000 18.99200 31.03300
C  -0.81400 16.24200 31.62400
C  -0.45000 17.17100 32.78200
H  -0.28300 16.55900 34.19100
N  -1.76400 19.29600 25.90200
C  -1.81200 20.18500 26.97100
C  -1.78000 21.50500 26.40400
C  -1.45500 21.33800 25.01300
C  -1.59100 19.93500 24.72200
C  -2.10400 22.72300 27.30300
C  -1.10200 22.39700 23.97000
O  -0.81900 22.06000 22.79500
C  -0.98700 23.88300 24.44800
N  -1.52000 16.88600 24.06100
C  -1.52700 17.89100 23.15700
C  -1.61800 17.37200 21.65000
C  -1.35400 15.82800 21.93600
C  -1.53200 15.68000 23.41200
C  -3.01200 17.73100 20.83100
C  -0.03100 15.24200 21.37600
C  1.20000 15.67100 22.22200
N  -1.65000 15.10000 26.32300
C  -1.63800 14.10500 25.31100
C  -1.70300 12.79100 25.93300
C  -1.72100 13.02800 27.30000
C  -1.77400 14.47600 27.49400
C  -1.75700 11.43700 25.27400
C  -1.83600 12.43100 28.62900
O  -1.80000 11.26400 28.92600
C  -1.87300 13.59300 29.64300
C  -0.82800 13.34500 30.63700
O  0.39200 13.52800 30.48100
O  -1.31100 12.76300 31.80200
C  -0.31000 12.44300 32.86100
H  -2.10000 20.63700 28.99900
H  -1.58500 19.83700 22.59000
H  -1.44600 13.53000 23.28200
H  -2.89700 16.35100 31.11900
H  -1.39700 18.99400 30.96400
H  -4.24100 18.68400 30.28500
H  -3.41500 20.07200 31.13700
H  -3.72500 18.60200 32.02800
H  0.06600 16.16400 30.98500
H  -1.11400 15.28700 32.05600
H  -1.21600 17.92900 32.94300
H  0.52200 17.62600 32.59200
H  -1.37100 23.50900 27.12000
H  -1.97400 22.63500 28.38100
H  -3.13300 23.03700 27.12400
H  -0.02300 24.03000 24.93400
H  -1.90000 24.25500 24.91400
H  -0.94700 24.39500 23.48700
H  -0.74500 17.63500 21.05200
H  -2.20900 15.29700 21.51600
H  -3.40100 18.66300 21.24200
H  -3.75300 16.93900 20.93900
H  -2.86300 17.93800 19.77100
H  0.23300 15.75800 20.45200
H  -0.13000 14.17500 21.17700
H  0.96100 16.47800 22.91400
H  2.02000 15.99200 21.58000
H  1.54100 14.84800 22.85000
H  -0.86300 11.00200 24.82700
H  -2.50800 11.42700 24.48500
H  -2.15600 10.84300 26.09600
H  -2.84100 13.59300 30.14500
H  0.72600 12.27900 32.56400
H  -0.64500 11.55000 33.38900
H  -0.34300 13.28400 33.55400
Mg 2.31000 -0.58500 44.25900
C  5.53300 0.34900 43.74900
C  1.27300 2.18400 42.50900
C  -0.87200 -1.95400 44.20200
C  3.52100 -3.72600 45.46500
N  3.29200 1.08400 43.15500
C  4.67100 1.20300 43.03100
C  4.95700 2.55400 42.25400
C  3.59700 3.21700 42.08100
C  2.63100 2.09800 42.56100
C  3.40100 4.57400 42.76900
C  5.62200 2.30400 40.79100
C  6.57000 3.35600 40.20200
H  6.08200 4.01700 38.90300
N  0.49700 0.11600 43.66400
C  0.27100 1.32200 42.98100
C  -1.16000 1.55600 42.92300
C  -1.82400 0.37000 43.29600
C  -0.74000 -0.58600 43.73100
C  -1.67300 2.92300 42.45500
C  -3.32100 0.19000 43.23400
O  -4.11400 1.06600 42.83500
C  -3.90500 -1.15600 43.63100
N  1.47600 -2.61700 44.61700
C  0.14800 -2.83600 44.65100
C  -0.19200 -4.16400 45.39500
C  1.23300 -4.74400 45.63600
C  2.16600 -3.72400 45.09800
C  -1.14800 -4.15500 46.67800
C  1.49000 -6.15500 44.93900
C  0.91500 -7.32800 45.72100
N  4.15800 -1.50600 44.64800
C  4.48900 -2.74200 45.15000
C  5.86800 -2.81400 45.29900
C  6.37600 -1.60100 44.80900
C  5.28700 -0.88800 44.33300
C  6.64000 -3.97300 45.80900
C  7.58100 -0.84200 44.50400
O  8.76600 -1.08200 44.79200
C  7.08700 0.44300 43.76900
C  7.52800 1.71500 44.47700
O  7.15300 2.16400 45.56900
O  8.48700 2.40000 43.76000
C  9.17000 3.58300 44.39900
H  0.96600 3.12000 42.03800
H  -1.84700 -2.24500 44.60100
H  3.99300 -4.59900 45.92100
H  5.65100 3.17900 42.81600
H  3.53100 3.37900 41.00500
H  3.59800 5.46700 42.17600
H  4.06900 4.55600 43.63100
H  2.52800 4.80800 43.37800
H  4.82900 2.02700 40.09600
H  6.20800 1.38600 40.76000
H  7.56500 2.93800 40.04700
H  6.66500 4.07700 41.01400
H  -0.98800 3.74700 42.65800
H  -2.72400 3.12700 42.66300
H  -1.71100 2.92500 41.36500
H  -4.97400 -1.17000 43.41900
H  -3.84100 -1.22900 44.71700
H  -3.45400 -2.03600 43.17300
H  -0.74800 -4.77900 44.68800
H  1.38000 -4.93500 46.69900
H  -1.42900 -3.12300 46.88900
H  -0.79800 -4.60700 47.60600
H  -2.10100 -4.63500 46.45200
H  2.56100 -6.22800 44.75100
H  0.94000 -6.19700 43.99900
H  1.60400 -8.06800 46.12800
H  0.21000 -7.82100 45.05100
H  0.29500 -7.02000 46.56200
H  7.08000 -4.50400 44.96500
H  5.97500 -4.70900 46.26100
H  7.35900 -3.72500 46.58900
H  7.49300 0.38500 42.75900
H  9.35700 3.34100 45.44500
H  8.53700 4.47000 44.37500
H  10.17600 3.63200 43.98300

