158

Mg 1.90900 -2.91200 44.70000
C  5.13000 -1.76300 43.93000
C  0.75400 -0.54100 42.38200
C  -1.28600 -4.19900 44.96000
C  3.15500 -5.53100 46.44800
N  2.91400 -1.36300 43.23200
C  4.21300 -1.13100 43.15100
C  4.48600 0.01100 42.15000
C  3.05400 0.62900 42.04800
C  2.17500 -0.53100 42.52800
C  2.72300 1.83600 42.93700
C  5.19900 -0.54300 40.90700
C  6.53100 0.12400 40.56600
H  6.64200 1.07600 39.34100
N  -0.04300 -2.38700 43.83800
C  -0.25800 -1.35200 42.91400
C  -1.70800 -1.21400 42.70200
C  -2.30400 -2.26300 43.47300
C  -1.21300 -2.99700 44.21600
C  -2.32700 -0.11700 41.87200
C  -3.85700 -2.49600 43.56700
O  -4.65000 -1.78700 42.99800
C  -4.38700 -3.64900 44.21400
N  1.09100 -4.68300 45.43600
C  -0.31300 -4.95400 45.52800
C  -0.53400 -6.31000 46.23500
C  0.92300 -6.67300 46.77500
C  1.79100 -5.55200 46.14900
C  -1.76800 -6.32500 47.21600
C  1.37600 -8.13800 46.38300
C  2.04600 -9.00300 47.44000
N  3.76300 -3.54100 45.14200
C  4.12300 -4.60800 45.94300
C  5.61800 -4.63600 46.04900
C  6.04100 -3.50600 45.28500
C  4.89000 -2.79400 44.80000
C  6.47500 -5.71600 46.61400
C  7.18400 -2.71400 44.88100
O  8.38100 -2.85300 45.13400
C  6.62600 -1.55400 43.96700
C  6.92700 -0.28800 44.57200
O  6.26400 0.24200 45.46500
O  8.00700 0.26400 43.93000
C  8.33400 1.66400 44.30700
H  0.38400 0.38100 41.92700
H  -2.21700 -4.75800 45.07300
H  3.52300 -6.39400 47.00500
H  5.14800 0.70100 42.67300
H  2.85900 0.79300 40.98800
H  3.64800 2.38500 43.10700
H  2.19300 1.46000 43.81200
H  2.11600 2.51700 42.33900
H  4.48100 -0.43400 40.09500
H  5.53800 -1.56500 41.07400
H  7.23200 -0.68000 40.33900
H  6.83500 0.66800 41.46100
H  -1.68900 0.76500 41.92400
H  -3.31500 0.22700 42.18100
H  -2.43000 -0.56800 40.88500
H  -4.25500 -3.63100 45.29500
H  -3.83000 -4.51400 43.85300
H  -5.43300 -3.79800 43.94400
H  -0.72100 -7.00900 45.42000
H  0.98000 -6.40300 47.82900
H  -1.44300 -6.30000 48.25600
H  -2.42000 -7.16900 46.99300
H  -2.41800 -5.49200 46.94600
H  2.20000 -8.02700 45.67800
H  0.58800 -8.69600 45.87700
H  1.77700 -10.05900 47.44100
H  1.83400 -8.63600 48.44500
H  3.12400 -8.88900 47.33100
H  6.34400 -5.65300 47.69400
H  7.50300 -5.58800 46.27400
H  6.26100 -6.70500 46.21000
H  6.96700 -1.65000 42.93600
H  7.51000 2.37700 44.26600
H  9.15800 2.13300 43.76900
H  8.72300 1.71000 45.32400
Mg 35.02100 2.24800 30.19800
C  32.64400 3.30200 32.45500
C  37.44800 2.60500 32.55800
C  37.17400 1.63900 27.72600
C  32.41300 2.24900 27.81700
N  35.02500 2.87700 32.22700
C  33.94200 3.10200 32.99900
C  34.26400 3.36700 34.40900
C  35.83600 3.31900 34.47600
C  36.16000 3.00300 32.93000
C  36.49100 4.62100 35.03900
C  33.54200 2.47300 35.50800
C  33.02200 3.22100 36.75500
H  33.83800 4.33000 37.43100
N  37.00200 2.04500 30.13500
C  37.86400 2.12900 31.26600
C  39.22900 1.87800 30.85400
C  39.19900 1.59700 29.47400
C  37.75400 1.76800 29.01800
C  40.37600 1.76900 31.81800
C  40.37100 1.32600 28.48800
O  40.22800 1.26900 27.29400
C  41.71500 1.42200 28.98800
N  34.85300 2.15500 27.99200
C  35.89200 1.73800 27.25900
C  35.41500 1.36500 25.72400
C  33.88800 1.43700 25.91700
C  33.73200 1.96500 27.34600
C  35.83700 2.21800 24.45700
C  33.16700 0.07200 25.67400
C  33.07200 -0.23200 24.15500
N  32.92300 2.57700 30.08300
C  32.00700 2.58200 28.99500
C  30.74200 2.99200 29.49900
C  30.95800 3.34200 30.84500
C  32.26900 3.00200 31.17600
C  29.57300 3.17900 28.69500
C  30.36700 4.00100 31.95800
O  29.25900 4.52300 32.11800
C  31.45000 3.80900 33.15900
C  31.52100 5.09800 33.92900
O  32.28500 6.03900 33.64100
O  30.62200 5.13900 34.97400
C  30.57400 6.36000 35.81500
H  38.15500 2.67200 33.38800
H  37.82300 1.21300 26.95800
H  31.57700 2.14900 27.12200
H  34.06800 4.42300 34.59400
H  36.10800 2.46100 35.09000
H  36.09700 5.57200 34.68000
H  37.53500 4.64600 34.72800
H  36.48700 4.58600 36.12800
H  34.23600 1.74600 35.93100
H  32.70700 2.02500 34.96900
H  32.69200 2.42700 37.42500
H  32.14100 3.66400 36.29000
H  39.91300 1.82200 32.80400
H  41.12800 2.52800 31.60000
H  40.79100 0.78500 31.59800
H  41.85100 2.46300 29.28200
H  42.54300 1.17200 28.32500
H  41.80400 0.76500 29.85300
H  35.70700 0.32400 25.58500
H  33.35000 2.17100 25.31700
H  36.61400 1.67000 23.92300
H  36.17100 3.08400 25.02800
H  34.99200 2.59300 23.88000
H  32.13500 0.19000 26.00600
H  33.68600 -0.72600 26.20500
H  33.42000 0.60000 23.54300
H  32.12600 -0.67800 23.84600
H  33.82500 -1.00200 23.98900
H  29.04600 4.05200 29.07900
H  28.93400 2.31900 28.89400
H  29.79300 3.29600 27.63400
H  31.08800 3.00600 33.80200
H  29.60500 6.79500 35.56800
H  31.31300 7.12900 35.59000
H  30.72500 6.04800 36.84900

