158

Mg 0.35800 7.45800 25.64400
C  1.07600 9.26400 28.49500
C  -0.48400 4.68900 27.66300
C  -0.07100 5.49200 22.83400
C  1.26400 10.11600 23.68800
N  0.57500 7.01800 27.78300
C  0.64100 7.92300 28.79000
C  0.35700 7.39700 30.13900
C  0.09500 5.80600 29.89300
C  0.13200 5.80000 28.29900
C  1.11200 4.80000 30.51900
C  -0.87700 8.00400 30.84500
C  -0.64700 8.55100 32.32200
H  0.46000 7.88300 33.19900
N  -0.16300 5.43300 25.29800
C  -0.62200 4.53100 26.28800
C  -1.21100 3.41300 25.67700
C  -0.99500 3.47000 24.29100
C  -0.42600 4.90600 24.03600
C  -2.09300 2.42100 26.39400
C  -1.23800 2.50100 23.19600
O  -0.94400 2.69100 22.05800
C  -1.82500 1.07800 23.48700
N  0.76800 7.73800 23.56500
C  0.44000 6.77300 22.62400
C  0.60900 7.23900 21.23900
C  0.82100 8.79900 21.48300
C  1.00100 8.93800 23.04900
C  1.79300 6.49200 20.51400
C  -0.32100 9.70000 20.81100
C  -1.73800 9.58000 21.47000
N  1.02000 9.28900 26.01600
C  1.25300 10.31100 25.14200
C  1.63400 11.52300 25.87300
C  1.53100 11.19600 27.16300
C  1.19600 9.81000 27.24400
C  1.97900 12.88300 25.27700
C  1.62100 11.71400 28.51600
O  1.94900 12.80400 28.93700
C  1.20800 10.50300 29.39400
C  2.23200 10.21100 30.48700
O  3.30700 9.60300 30.44300
O  1.75400 10.86200 31.60900
C  2.44800 10.90200 32.89500
H  -0.66800 3.77800 28.23600
H  -0.25500 4.91000 21.92900
H  1.55200 11.02700 23.15900
H  1.30500 7.54500 30.65700
H  -0.89900 5.55300 30.26200
H  1.34500 3.94000 29.89200
H  0.66000 4.31200 31.38200
H  1.94300 5.46500 30.75500
H  -1.72200 7.33100 30.98400
H  -1.19400 8.82300 30.20000
H  -1.62600 8.59300 32.79900
H  -0.30700 9.58600 32.32800
H  -1.67300 1.45600 26.68000
H  -3.00100 2.22400 25.82500
H  -2.49400 2.84100 27.31600
H  -1.17500 0.40900 24.05100
H  -2.00700 0.51700 22.57000
H  -2.77600 1.29100 23.97300
H  -0.33700 7.02200 20.74200
H  1.71100 9.03200 20.89800
H  2.31600 5.89700 21.26300
H  2.38800 7.26700 20.03000
H  1.30100 5.77300 19.85900
H  -0.43100 9.33500 19.78900
H  0.04100 10.70200 20.58400
H  -1.66500 9.12500 22.45800
H  -2.36800 8.99600 20.79800
H  -2.18000 10.57200 21.56900
H  2.49100 13.53900 25.98100
H  1.09300 13.44300 24.98000
H  2.57900 12.86500 24.36800
H  0.26900 10.74500 29.89300
H  1.75500 10.68600 33.70800
H  2.90600 11.88500 33.00200
H  3.22700 10.14300 32.82400
Mg 1.09300 42.06500 26.10600
C  2.84800 41.92800 29.18500
C  -1.86700 41.10600 27.85100
C  -0.52900 41.80800 23.21000
C  4.04500 42.61600 24.49700
N  0.59500 41.57400 28.24200
C  1.45000 41.76500 29.32800
C  0.68800 41.62100 30.71300
C  -0.78300 41.32300 30.27800
C  -0.70900 41.32200 28.72100
C  -1.45200 40.06500 30.98300
C  0.81100 42.89000 31.61900
C  1.24000 42.74300 33.15200
H  0.85100 41.47700 33.83500
N  -0.84600 41.47700 25.56700
C  -1.88600 41.19200 26.42700
C  -3.07600 40.88900 25.66700
C  -2.69100 40.98800 24.26000
C  -1.30700 41.37800 24.26500
C  -4.53800 40.77600 26.21200
C  -3.51300 40.69500 23.00900
O  -3.11200 40.72900 21.89800
C  -4.94900 40.23600 23.14600
N  1.60100 42.29200 24.19600
C  0.81500 42.09400 23.08900
C  1.54500 42.25400 21.76600
C  2.95200 42.73400 22.22100
C  2.88600 42.51600 23.77000
C  1.54800 40.91400 21.01500
C  3.39000 44.13500 21.91900
C  3.59200 44.40200 20.40300
N  3.08800 42.20100 26.63700
C  4.19400 42.47600 25.87000
C  5.42000 42.51300 26.70200
C  4.91000 42.28100 27.95200
C  3.49300 42.06100 27.89000
C  6.72800 42.99200 26.24800
C  5.29800 42.30100 29.29600
O  6.40400 42.40400 29.74100
C  4.01500 42.12700 30.18400
C  4.24800 41.03000 31.27100
O  4.03400 39.87300 31.06200
O  4.65200 41.62700 32.41800
C  5.07300 40.74000 33.48900
H  -2.84900 41.02900 28.32200
H  -0.96100 41.81800 22.20700
H  4.99500 42.75000 23.97500
H  1.15800 40.76100 31.19000
H  -1.51500 42.11300 30.44300
H  -1.88500 39.37700 30.25600
H  -2.26200 40.39700 31.63200
H  -0.94300 39.38300 31.66400
H  -0.14000 43.42300 31.61400
H  1.49900 43.58600 31.13900
H  0.82800 43.60100 33.68300
H  2.31700 42.89800 33.21900
H  -5.21700 41.48200 25.73300
H  -4.53000 41.04100 27.27000
H  -4.96500 39.78000 26.09400
H  -5.37100 40.04100 22.16000
H  -5.65700 40.93000 23.59900
H  -4.96200 39.26500 23.64100
H  1.06200 43.05500 21.20600
H  3.80500 42.13200 21.90700
H  2.50900 40.43100 21.19600
H  1.39800 41.07000 19.94600
H  0.79100 40.24400 21.42100
H  4.40500 44.26500 22.29500
H  2.61500 44.84600 22.20500
H  2.82600 45.12400 20.11900
H  3.55300 43.45300 19.86800
H  4.59600 44.80100 20.25600
H  6.71000 43.22400 25.18300
H  7.57100 42.32700 26.43700
H  6.81500 43.98800 26.68400
H  3.87200 43.04900 30.74700
H  4.37000 39.95100 33.75900
H  5.25600 41.37100 34.35800
H  6.02400 40.25300 33.27400

