158

Mg 48.11500 16.31100 28.39000
C  45.93900 16.01900 31.01800
C  50.39100 18.10700 30.35500
C  49.74000 17.33100 25.57800
C  45.51900 14.81900 26.29800
N  48.14100 16.90800 30.40100
C  47.15300 16.65100 31.34900
C  47.63200 17.02100 32.78900
C  48.89800 17.86900 32.52400
C  49.23700 17.57700 31.00400
C  48.80500 19.38100 32.85500
C  47.70500 15.74300 33.74600
C  47.45900 16.04600 35.25500
H  47.69100 17.45200 35.79600
N  49.97500 17.33200 28.08300
C  50.76800 17.91200 29.02900
C  52.01700 18.21700 28.41500
C  51.85300 18.09900 26.99800
C  50.42800 17.57700 26.79700
C  53.19500 18.77900 29.15700
C  52.80200 18.24800 25.85400
O  52.45000 17.91000 24.70700
C  54.07800 18.88900 26.07900
N  47.62500 16.14700 26.19100
C  48.53300 16.66700 25.23800
C  48.08600 16.24500 23.78400
C  46.96900 15.21800 24.13000
C  46.64900 15.34500 25.65600
C  47.49600 17.42400 22.97700
C  47.32300 13.77900 23.65200
C  46.61800 13.29400 22.38400
N  46.14800 15.56100 28.56800
C  45.25100 14.96300 27.64100
C  44.06500 14.47900 28.41100
C  44.30400 14.87500 29.75900
C  45.55500 15.58100 29.79200
C  42.86500 13.79700 27.82200
C  43.80200 14.85300 31.13300
O  42.77600 14.26500 31.60500
C  44.76200 15.61200 31.96000
C  43.97900 16.72700 32.59000
O  43.97400 17.86900 32.15400
O  43.48600 16.38700 33.82500
C  43.01200 17.45600 34.67900
H  51.13900 18.57000 31.00200
H  50.15900 17.70300 24.64100
H  44.82000 14.16300 25.77400
H  46.94000 17.75200 33.20700
H  49.80300 17.46100 32.97400
H  49.83000 19.66500 33.09400
H  48.18400 19.59300 33.72500
H  48.49200 20.02500 32.03200
H  48.73600 15.41800 33.60900
H  47.06600 14.90900 33.45600
H  48.20800 15.44600 35.77200
H  46.44800 15.71800 35.49700
H  53.34200 18.61000 30.22400
H  53.42300 19.83400 29.00900
H  54.01000 18.14900 28.80200
H  54.35700 19.10500 25.04800
H  54.74800 18.15000 26.51700
H  53.95400 19.73400 26.75600
H  48.85000 15.76900 23.17000
H  46.03300 15.46600 23.63000
H  48.29600 17.62700 22.26500
H  47.29200 18.28900 23.60700
H  46.51500 17.16800 22.57800
H  47.09700 13.18500 24.53700
H  48.40800 13.87100 23.60900
H  46.45000 14.02100 21.58900
H  45.64800 12.96200 22.75200
H  47.14600 12.45000 21.94000
H  42.21700 13.33800 28.56900
H  43.16200 13.06900 27.06700
H  42.25200 14.55200 27.32900
H  44.97800 15.03000 32.85600
H  42.25800 18.00100 34.11200
H  43.88800 18.06800 34.89800
H  42.62400 17.08600 35.62800
Mg 41.64800 40.51300 26.74800
C  41.04700 42.84300 29.15500
C  42.44700 38.21400 29.13100
C  42.25900 38.33800 24.19800
C  40.67400 42.85700 24.31200
N  41.97600 40.60600 28.90300
C  41.53100 41.63100 29.70900
C  41.51000 41.27100 31.20400
C  41.95300 39.72600 31.12700
C  42.15100 39.48900 29.62900
C  43.20800 39.40200 32.00500
C  40.14700 41.41900 31.89600
C  39.83200 40.66500 33.20600
H  39.28100 41.42800 34.43700
N  42.38200 38.61600 26.70200
C  42.68200 37.80900 27.78800
C  43.17800 36.49100 27.33000
C  43.12600 36.47200 25.90300
C  42.55700 37.87100 25.53100
C  43.55500 35.43500 28.29500
C  43.51800 35.29000 24.98300
O  43.20100 35.22300 23.79900
C  44.24500 34.15800 25.57900
N  41.65200 40.64000 24.53100
C  41.74900 39.57400 23.79400
C  41.58000 39.88600 22.28500
C  40.83000 41.27200 22.31800
C  41.09000 41.63500 23.81700
C  42.90900 39.83600 21.40800
C  39.43800 41.33800 21.83100
C  38.32300 40.71100 22.69600
N  41.04300 42.43300 26.65000
C  40.67700 43.31800 25.59400
C  40.36600 44.61800 26.15800
C  40.50300 44.45600 27.51600
C  40.87500 43.13100 27.79300
C  39.99700 45.88800 25.41000
C  40.39100 45.15600 28.76100
O  40.04600 46.30700 29.01800
C  40.59000 44.09100 29.89900
C  41.58100 44.52000 30.93600
O  42.76400 44.66200 30.64500
O  41.02500 44.72300 32.21500
C  42.00600 45.17400 33.30200
H  42.72400 37.47400 29.88500
H  42.41800 37.49600 23.52200
H  40.21600 43.52000 23.57500
H  42.14600 41.83800 31.88300
H  41.08800 39.12000 31.39300
H  42.89400 39.06500 32.99300
H  43.83900 40.28500 32.10300
H  43.83900 38.59900 31.62600
H  39.38700 41.35100 31.11800
H  40.22300 42.47300 32.16500
H  40.61000 39.96300 33.50900
H  39.08800 39.89100 33.01600
H  42.77800 34.67100 28.30500
H  43.58000 35.81300 29.31800
H  44.47200 34.93400 27.98500
H  43.74900 33.59500 26.37100
H  45.17500 34.52900 26.01000
H  44.51300 33.30000 24.96200
H  40.94900 39.11700 21.84000
H  41.38700 41.93600 21.65700
H  42.98000 38.92500 20.81500
H  43.81000 39.96900 22.00600
H  42.93700 40.68600 20.72500
H  39.40000 40.73700 20.92200
H  39.25500 42.40600 21.71300
H  38.61700 40.29100 23.65800
H  37.67800 40.08400 22.08100
H  37.61200 41.51200 22.89700
H  39.62900 45.68000 24.40500
H  40.85300 46.56200 25.39300
H  39.25800 46.44000 25.99000
H  39.64300 43.95900 30.42100
H  41.63600 46.01500 33.88900
H  42.99200 45.50500 32.97400
H  42.14500 44.36200 34.01500

