158

Mg 9.79900 47.36900 26.29200
C  7.60700 47.71900 28.92100
C  12.33300 48.35300 28.43000
C  11.86400 47.43500 23.68400
C  7.07000 47.27800 24.03900
N  9.85600 48.16500 28.32600
C  8.87200 48.06700 29.24900
C  9.41800 48.23400 30.70300
C  10.81200 48.87400 30.43600
C  11.04700 48.43700 28.97800
C  10.77200 50.42600 30.57400
C  9.47400 46.93400 31.53600
C  10.47800 46.96200 32.75800
H  10.08400 46.08100 34.00800
N  11.89000 47.64500 26.10000
C  12.75600 47.98500 27.10500
C  14.08300 48.11300 26.58200
C  13.95900 47.71200 25.18700
C  12.53400 47.60700 24.94300
C  15.34400 48.56000 27.35800
C  15.06300 47.47500 24.23200
O  14.87500 47.01300 23.13800
C  16.49300 47.50900 24.69100
N  9.47800 47.40000 24.19200
C  10.51600 47.39700 23.31800
C  10.14500 47.38000 21.87000
C  8.60200 47.12600 21.97500
C  8.35200 47.22000 23.46600
C  10.47000 48.61200 21.06100
C  8.13800 45.79200 21.27300
C  7.48500 45.92600 19.86100
N  7.72300 47.49700 26.35100
C  6.66800 47.51000 25.40300
C  5.41500 47.39800 26.09300
C  5.72200 47.34900 27.47900
C  7.16200 47.51500 27.58400
C  4.18200 47.43300 25.35600
C  5.18700 47.27000 28.76600
O  4.03400 47.24300 29.19800
C  6.37700 47.39400 29.78500
C  6.61700 46.04900 30.42200
O  7.11200 45.10000 29.81300
O  6.18300 46.01100 31.80600
C  6.49700 44.71400 32.51300
H  13.17100 48.54100 29.10400
H  12.57700 47.44200 22.85800
H  6.17300 47.07200 23.45100
H  8.85000 48.96800 31.27500
H  11.60000 48.42200 31.03800
H  10.10200 50.72000 31.38200
H  10.46500 51.00100 29.70000
H  11.76600 50.72600 30.90400
H  9.63400 46.05500 30.91200
H  8.49200 46.67200 31.93100
H  10.47400 47.99600 33.10400
H  11.42200 46.65200 32.31000
H  15.13800 48.82600 28.39500
H  15.75900 49.44000 26.86600
H  16.12100 47.80300 27.25300
H  16.65700 48.51000 25.09000
H  17.01200 47.30000 23.75500
H  16.73000 46.67500 25.35100
H  10.57900 46.46400 21.46900
H  7.97500 47.93400 21.59900
H  9.58000 49.22000 20.89900
H  11.04300 48.46000 20.14600
H  11.05800 49.25200 21.71900
H  7.35300 45.42200 21.93300
H  8.94600 45.06400 21.34800
H  7.44800 46.97600 19.57000
H  6.50700 45.45300 19.76900
H  8.13300 45.49400 19.09900
H  3.75100 46.43300 25.31000
H  4.31900 47.66200 24.29900
H  3.46000 48.01800 25.92600
H  6.14000 48.24700 30.42100
H  6.45300 44.75900 33.60100
H  7.50500 44.31800 32.39100
H  5.72900 43.98800 32.24600
Mg -11.39700 37.08800 42.19900
C  -9.05800 34.51000 41.27200
C  -9.60100 39.26600 40.24900
C  -14.11900 39.16700 41.89300
C  -13.48100 34.59800 43.29400
N  -9.57500 36.90300 40.94400
C  -8.82200 35.77400 40.64400
C  -7.68000 36.08500 39.66300
C  -7.69300 37.69800 39.53700
C  -8.98200 38.01500 40.35600
C  -6.40900 38.41500 39.96600
C  -7.73900 35.21800 38.31800
C  -6.41900 34.44300 37.93800
H  -5.50600 35.30800 37.01800
N  -11.71400 39.05200 41.45400
C  -10.80700 39.76900 40.80500
C  -11.30800 41.08400 40.70100
C  -12.62200 41.14900 41.21400
C  -12.87800 39.78700 41.54900
C  -10.59200 42.25500 40.16500
C  -13.53000 42.33700 41.34400
O  -13.28900 43.44400 41.01600
C  -14.82200 42.26500 42.13800
N  -13.50300 36.92800 42.38300
C  -14.46800 37.89700 42.21000
C  -15.88500 37.41500 42.46500
C  -15.60900 35.92000 42.87800
C  -14.09900 35.79500 42.98400
C  -16.77300 38.21400 43.45600
C  -16.31000 34.86500 41.98900
C  -16.04600 35.02200 40.46600
N  -11.24400 35.04400 42.61100
C  -12.16900 34.14400 43.12400
C  -11.47700 32.93400 43.35400
C  -10.25800 32.93400 42.58500
C  -10.15900 34.31900 42.19800
C  -11.92200 31.86000 44.28800
C  -9.05700 32.25300 42.14300
O  -8.65800 31.12300 42.28500
C  -8.16100 33.28700 41.37800
C  -6.82600 33.44100 42.02400
O  -5.92100 32.55500 41.91800
O  -6.76600 34.65300 42.70300
C  -5.46700 35.00900 43.26600
H  -9.02800 40.01500 39.69900
H  -15.01300 39.79300 41.87100
H  -14.12500 33.83600 43.73800
H  -6.80300 35.84500 40.26300
H  -7.96100 38.05900 38.54400
H  -5.69700 37.75800 40.46500
H  -6.51800 39.19200 40.72300
H  -6.00600 38.82700 39.04100
H  -8.00400 35.94800 37.55300
H  -8.58000 34.52500 38.29900
H  -6.63100 33.46300 37.51200
H  -5.84900 34.27100 38.85100
H  -9.51200 42.11200 40.12600
H  -10.69500 43.10900 40.83400
H  -10.97000 42.55000 39.18600
H  -15.35000 43.20500 42.30000
H  -14.65900 41.67400 43.03900
H  -15.52900 41.70400 41.52700
H  -16.46100 37.36500 41.54000
H  -15.92100 35.90800 43.92300
H  -17.29700 37.56400 44.15700
H  -17.48500 38.72300 42.80600
H  -16.21900 38.93300 44.05900
H  -17.38500 34.90400 42.16500
H  -15.91200 33.91400 42.34300
H  -17.02400 35.17500 40.01000
H  -15.60800 34.16900 39.94800
H  -15.48900 35.90800 40.16000
H  -11.08000 31.51400 44.88800
H  -12.38200 31.04900 43.72300
H  -12.47700 32.37600 45.07100
H  -7.79700 33.07100 40.37400
H  -5.58100 36.05900 43.53700
H  -4.72600 35.00900 42.46700
H  -5.17200 34.24200 43.98200

