158

Mg 7.99800 1.28300 28.83300
C  9.73200 0.12200 31.68100
C  6.07200 3.19600 30.82300
C  6.25600 2.21700 26.03500
C  9.63300 -1.21000 26.93000
N  8.00400 1.63900 31.07000
C  8.86800 1.17600 32.02800
C  8.65400 1.91500 33.41000
C  7.35400 2.76000 33.09700
C  7.14600 2.57900 31.52700
C  6.08600 2.21800 33.79900
C  9.98700 2.65400 33.88200
C  10.58800 2.32500 35.27400
H  9.64200 2.32300 36.50300
N  6.45000 2.49600 28.50800
C  5.80700 3.23300 29.44600
C  4.69800 3.90400 28.88100
C  4.85200 3.77700 27.43200
C  5.91200 2.78200 27.24200
C  3.64300 4.70400 29.71400
C  3.99600 4.37000 26.28100
O  3.99600 3.96300 25.15700
C  3.05000 5.46000 26.60900
N  8.07200 0.67800 26.82600
C  7.26900 1.27100 25.84700
C  7.47000 0.66600 24.45400
C  8.65500 -0.37100 24.74300
C  8.74400 -0.39500 26.26100
C  6.16700 -0.07200 23.88200
C  10.00600 0.01300 24.14500
C  10.78500 1.30000 24.42400
N  9.38800 -0.21700 29.20500
C  9.96800 -1.13200 28.32000
C  10.98900 -1.86800 28.99800
C  10.90200 -1.46000 30.32600
C  9.87400 -0.48200 30.37300
C  11.66900 -3.05100 28.57300
C  11.46500 -1.62500 31.63900
O  12.34000 -2.40000 32.01400
C  10.72500 -0.57600 32.57100
C  9.99200 -1.26200 33.79200
O  8.82700 -1.70400 33.71900
O  10.76000 -1.31400 34.96000
C  10.05100 -1.78600 36.09300
H  5.54900 4.00900 31.33100
H  5.69200 2.51600 25.14900
H  10.21000 -1.93900 26.35800
H  8.40500 1.14000 34.13600
H  7.48800 3.82100 33.31000
H  6.01000 2.80300 34.71600
H  6.20300 1.14700 33.96000
H  5.18100 2.38300 33.21500
H  9.75500 3.69500 34.10700
H  10.77900 2.65400 33.13300
H  11.25300 3.17200 35.44400
H  11.21600 1.43500 35.25800
H  4.07500 5.62900 30.09600
H  3.41400 4.23200 30.66900
H  2.67100 4.87500 29.25100
H  2.64000 6.01100 25.76300
H  3.77000 6.12000 27.09400
H  2.17000 5.16100 27.17800
H  7.72000 1.37500 23.66600
H  8.39600 -1.39500 24.47300
H  5.38500 0.15800 24.60600
H  6.37100 -1.14300 23.84800
H  5.80900 0.34200 22.93900
H  9.88700 0.00500 23.06200
H  10.63500 -0.86300 24.30000
H  10.44700 1.87400 25.28600
H  10.90100 1.84700 23.48800
H  11.75700 0.96500 24.78800
H  11.28600 -3.35700 27.59900
H  11.67500 -3.90500 29.25000
H  12.71800 -2.75600 28.56900
H  11.35400 0.18400 33.03500
H  8.97600 -1.60700 36.09900
H  10.54600 -1.30600 36.93800
H  10.05100 -2.87600 36.12500
Mg 48.95500 35.48000 27.25200
C  47.09700 33.97000 29.73600
C  49.38200 38.25700 29.39100
C  50.34800 37.20600 24.72200
C  47.94400 33.04300 24.86700
N  48.27400 36.09000 29.27700
C  47.69800 35.17100 30.14200
C  47.84200 35.59800 31.62300
C  48.22900 37.13700 31.44100
C  48.68900 37.24800 29.96900
C  46.96600 38.02800 31.68000
C  49.01600 34.90400 32.37600
C  48.91300 34.89500 33.93000
H  48.03900 36.03000 34.47900
N  49.85000 37.39400 27.10600
C  49.90500 38.37900 28.10700
C  50.73400 39.48900 27.66000
C  51.15700 39.18600 26.30300
C  50.47000 37.86200 26.00800
C  50.98400 40.75600 28.43500
C  52.12500 39.95800 25.38600
O  52.46300 39.50400 24.29100
C  52.67600 41.32400 25.73600
N  49.08200 35.19700 25.08500
C  49.74900 36.05300 24.24200
C  49.67000 35.69900 22.80500
C  49.14700 34.23800 22.92100
C  48.59800 34.13100 24.36900
C  48.85300 36.59400 21.93600
C  50.24100 33.21900 22.52700
C  50.08200 32.25200 21.40100
N  47.83900 33.83400 27.25100
C  47.59900 32.85500 26.21500
C  46.75100 31.83300 26.80400
C  46.50300 32.23800 28.18300
C  47.19600 33.49400 28.37100
C  46.36100 30.50700 26.13700
C  45.84100 31.86800 29.40100
O  45.20100 30.82300 29.62900
C  45.97100 33.11900 30.31700
C  46.16000 32.71400 31.74800
O  47.22400 32.30200 32.24500
O  45.01000 32.93000 32.46200
C  45.09200 33.01800 33.96200
H  49.60800 39.07000 30.08500
H  50.73800 37.67600 23.81700
H  47.68100 32.30400 24.10700
H  46.86600 35.54800 32.10400
H  49.06600 37.46800 32.05600
H  46.77200 38.43900 32.67100
H  46.12900 37.44800 31.29000
H  47.01400 38.86600 30.98500
H  49.98000 35.39100 32.22300
H  49.12100 33.89500 31.97800
H  49.94700 34.97100 34.26700
H  48.54100 33.92900 34.26900
H  51.07900 41.63300 27.79500
H  51.88500 40.87500 29.03600
H  50.11100 40.91900 29.06800
H  51.88000 42.01600 25.46100
H  53.60400 41.53700 25.20500
H  52.88500 41.32500 26.80600
H  50.65900 35.79200 22.35800
H  48.26300 34.08200 22.30200
H  48.03300 36.10000 21.41300
H  49.53300 36.91800 21.14800
H  48.38400 37.43500 22.44500
H  50.45500 32.67400 23.44600
H  51.11800 33.77900 22.20300
H  50.85800 32.26100 20.63600
H  49.14000 32.43500 20.88400
H  50.02500 31.25100 21.82900
H  45.35600 30.53900 25.71600
H  46.48900 29.65400 26.80400
H  47.01000 30.30500 25.28400
H  45.09500 33.75500 30.19300
H  46.04400 33.45700 34.25900
H  45.14700 32.02200 34.40000
H  44.20900 33.48200 34.40300

