158

Mg 53.60100 24.41200 45.05700
C  51.08400 26.67700 44.28400
C  51.60100 21.85700 43.86800
C  56.30500 22.35800 45.20800
C  55.54300 27.01400 46.19400
N  51.60500 24.27600 44.10400
C  50.73600 25.36600 43.88700
C  49.47000 24.85500 43.26700
C  49.47300 23.32300 43.36800
C  50.95600 23.10100 43.82100
C  48.51900 22.78100 44.52100
C  49.22800 25.30400 41.82200
C  50.59200 25.42500 40.91600
H  51.45500 24.17800 40.60600
N  53.89400 22.32700 44.64600
C  52.93500 21.49000 44.28000
C  53.50600 20.18000 44.25500
C  54.84100 20.31500 44.72400
C  55.08600 21.70700 44.88500
C  52.73700 18.98300 43.81600
C  55.83400 19.11400 44.96400
O  55.49900 17.95500 44.83000
C  57.29300 19.43800 45.42400
N  55.72100 24.71500 45.45200
C  56.63100 23.68500 45.44900
C  58.02500 24.19700 45.73100
C  57.79300 25.72500 45.95700
C  56.24500 25.82000 45.88400
C  58.76800 23.37500 46.82000
C  58.37900 26.69200 44.90200
C  59.53200 27.50900 45.42000
N  53.41800 26.41200 45.27900
C  54.20500 27.32800 45.86400
C  53.53000 28.60200 45.99000
C  52.29400 28.41900 45.39100
C  52.29900 27.04000 44.94400
C  53.96400 29.94600 46.64800
C  51.03700 29.07300 45.04000
O  50.60800 30.18300 45.12300
C  50.27800 27.96500 44.25000
C  50.06700 28.47200 42.85700
O  50.92000 28.47200 42.01100
O  48.76700 28.84000 42.67200
C  48.27000 29.07200 41.30800
H  51.03300 20.93900 43.70200
H  57.21600 21.75900 45.14800
H  56.19500 27.77700 46.62300
H  48.81500 25.43800 43.91500
H  49.26300 22.88200 42.39400
H  48.80700 21.75600 44.75700
H  47.47400 22.71600 44.22000
H  48.64300 23.46900 45.35700
H  48.75300 26.28200 41.75000
H  48.58900 24.55600 41.35100
H  51.34500 26.17100 41.17300
H  50.22500 25.73200 39.93600
H  52.04500 19.34800 43.05700
H  52.21200 18.52600 44.65400
H  53.23400 18.20400 43.23800
H  57.74300 18.45500 45.56600
H  57.27900 20.03800 46.33400
H  57.85200 19.97000 44.65400
H  58.54300 24.00100 44.79200
H  58.12000 25.95500 46.97100
H  58.95500 23.98500 47.70400
H  59.62900 22.83600 46.42300
H  58.19800 22.50400 47.14300
H  57.64100 27.32100 44.40400
H  58.88200 26.16900 44.08800
H  59.34400 27.52100 46.49400
H  59.58100 28.50400 44.97800
H  60.45300 26.96900 45.20000
H  53.71800 30.72700 45.92800
H  54.96300 29.94800 47.08400
H  53.22800 30.09100 47.43900
H  49.36400 27.64800 44.75200
H  49.06300 29.53300 40.71800
H  47.46100 29.76800 41.53100
H  47.83500 28.17600 40.86700
Mg 49.79000 45.24500 43.21200
C  46.23700 45.62500 42.52000
C  49.53100 42.10400 42.22000
C  53.07400 45.22600 43.40500
C  49.89000 48.85300 43.32500
N  48.04200 44.06400 42.39600
C  46.73500 44.36900 42.26300
C  45.93500 43.08500 41.96600
C  47.02300 41.97300 42.05600
C  48.28700 42.71200 42.24900
C  46.79400 40.92700 43.21300
C  45.10400 43.00800 40.67400
C  45.63200 43.78100 39.45700
H  45.68400 42.90500 38.17000
N  51.09100 43.84500 42.96500
C  50.87000 42.51800 42.58200
C  52.07100 41.76900 42.64100
C  53.13400 42.65800 43.05800
C  52.46400 43.97000 43.14600
C  52.08600 40.29300 42.22800
C  54.58700 42.25500 43.28900
O  54.99800 41.13900 42.94000
C  55.64200 43.20200 43.85100
N  51.26100 46.80900 43.25900
C  52.53400 46.51200 43.52700
C  53.40800 47.74400 43.85200
C  52.48000 48.89700 43.51200
C  51.13700 48.19700 43.39200
C  54.04200 47.79500 45.38500
C  52.91400 49.57500 42.14500
C  52.37700 51.00000 41.82800
N  48.39200 46.90600 43.15800
C  48.59700 48.24500 43.08900
C  47.32000 48.94600 43.08000
C  46.40200 47.98500 42.77700
C  47.08000 46.72600 42.83500
C  47.07300 50.45600 43.27100
C  44.96200 47.75000 42.56400
O  44.03000 48.55100 42.46300
C  44.75900 46.19100 42.42000
C  43.74100 45.70800 43.37600
O  42.75700 45.16500 42.99600
O  44.08700 45.74800 44.70700
C  43.09900 45.12400 45.64900
H  49.38300 41.08600 41.85300
H  54.16300 45.20900 43.32200
H  49.98500 49.94100 43.32400
H  45.18700 42.96900 42.75000
H  47.04300 41.38200 41.14000
H  46.21600 40.12700 42.75000
H  46.37900 41.41400 44.09500
H  47.75400 40.46700 43.44700
H  44.13200 43.43100 40.93000
H  44.96700 41.94300 40.49100
H  46.62300 44.17800 39.68000
H  44.87700 44.56400 39.38300
H  53.04900 39.78600 42.17200
H  51.76500 40.12800 41.20000
H  51.38400 39.76800 42.87600
H  56.16800 43.69400 43.03300
H  56.41400 42.52700 44.21800
H  55.29200 43.84900 44.65500
H  54.27200 47.55900 43.21400
H  52.43300 49.57300 44.36600
H  55.05800 47.40000 45.39100
H  53.36000 47.16000 45.94900
H  53.95400 48.78200 45.83800
H  52.58300 48.91000 41.34700
H  53.98000 49.42700 41.97100
H  53.21800 51.61100 41.50200
H  51.77100 51.39300 42.64400
H  51.76300 50.85800 40.93900
H  47.53300 50.82600 44.18800
H  46.03800 50.79800 43.26800
H  47.62600 51.02500 42.52300
H  44.28600 46.03000 41.45100
H  43.20900 44.04200 45.71400
H  42.09300 45.46200 45.40000
H  43.35200 45.55300 46.61900

