158

Mg 6.89000 54.47500 41.18300
C  4.59200 51.83800 41.01100
C  9.15900 52.54600 39.82500
C  8.64600 57.26100 40.90000
C  4.02500 56.56200 41.94400
N  6.71100 52.49000 40.25100
C  5.75100 51.50500 40.35200
C  6.22700 50.19500 39.72200
C  7.75300 50.42000 39.58800
C  7.91000 51.93500 39.91200
C  8.61100 49.52500 40.52000
C  5.54700 49.92200 38.34000
C  5.23400 48.47600 38.03200
H  5.71900 47.80800 36.66300
N  8.74400 54.83600 40.53100
C  9.51900 53.89000 40.02000
C  10.81200 54.41400 39.85000
C  10.69200 55.84000 40.04500
C  9.30500 56.08100 40.51100
C  12.05700 53.70600 39.45600
C  11.77100 56.86700 39.72300
O  12.83700 56.46400 39.27000
C  11.50400 58.31900 39.70400
N  6.34000 56.64400 41.36900
C  7.35800 57.56500 41.26900
C  6.87600 59.04300 41.43000
C  5.33900 58.78900 41.49600
C  5.17400 57.21100 41.60200
C  7.53800 59.81500 42.67400
C  4.55400 59.27300 40.26300
C  3.48000 60.39200 40.36500
N  4.75600 54.25000 41.54000
C  3.80000 55.20800 41.86400
C  2.50200 54.53800 42.04800
C  2.82000 53.16500 41.84300
C  4.15700 53.03700 41.45900
C  1.21900 55.10900 42.53300
C  2.26000 51.80500 41.89100
O  1.13400 51.40000 42.19200
C  3.42400 50.90200 41.40500
C  2.84900 49.96100 40.32900
O  2.32600 50.19800 39.26400
O  2.89300 48.68700 40.93900
C  2.44100 47.53400 40.06100
H  9.93200 51.85500 39.48200
H  9.21100 58.19200 40.81800
H  3.21200 57.27800 42.07700
H  6.03700 49.42000 40.46400
H  8.06800 50.22900 38.56200
H  9.34900 48.98700 39.92500
H  7.96100 48.83000 41.05200
H  9.14000 50.17400 41.21800
H  6.18800 50.36500 37.57700
H  4.62300 50.49800 38.39300
H  4.15100 48.58700 37.97900
H  5.50900 47.84200 38.87500
H  12.26300 53.70600 38.38600
H  12.03400 52.68500 39.83900
H  12.89200 54.12700 40.01700
H  10.57900 58.53900 39.17100
H  12.30600 58.80100 39.14500
H  11.54400 58.62700 40.74900
H  7.14100 59.59500 40.52800
H  4.98700 59.23300 42.42700
H  6.79200 60.27400 43.32300
H  8.08700 60.60700 42.16600
H  8.24600 59.18000 43.20700
H  4.15000 58.41100 39.73200
H  5.29700 59.67000 39.57200
H  3.78300 61.25400 39.77100
H  3.30800 60.61800 41.41700
H  2.60200 59.93700 39.90500
H  0.35000 54.71800 42.00200
H  1.34900 56.18700 42.44300
H  1.08200 54.88800 43.59100
H  3.69800 50.28100 42.25800
H  3.26800 46.82900 39.97300
H  2.07700 47.87900 39.09300
H  1.56900 47.14000 40.58400
Mg -5.26200 25.12400 26.24500
C  -3.64100 26.39300 29.01200
C  -7.04500 23.00500 28.15600
C  -6.33800 23.55700 23.42400
C  -3.19000 27.03600 24.32800
N  -5.13500 24.54300 28.31700
C  -4.52700 25.32900 29.35300
C  -5.10000 24.86300 30.69900
C  -5.98500 23.60700 30.34900
C  -6.18700 23.76300 28.83300
C  -5.30400 22.22500 30.66200
C  -5.88300 25.96600 31.50800
C  -5.82900 25.94100 33.05200
H  -5.30400 24.67300 33.80900
N  -6.67500 23.63700 25.82700
C  -7.34800 23.01100 26.80400
C  -8.27300 22.03500 26.17700
C  -8.07500 22.13900 24.72100
C  -6.98500 23.08400 24.57600
C  -9.22800 21.11300 26.86200
C  -8.74500 21.41800 23.53100
O  -8.37400 21.68800 22.40200
C  -9.90400 20.35100 23.73200
N  -4.99200 25.39800 24.20800
C  -5.43100 24.57900 23.23200
C  -4.73800 24.89100 21.86500
C  -3.95600 26.21200 22.15900
C  -4.08400 26.29500 23.65200
C  -3.80600 23.69800 21.50500
C  -4.27700 27.59400 21.30800
C  -3.10400 28.60300 20.91300
N  -3.74600 26.50800 26.54100
C  -3.06100 27.26800 25.70800
C  -2.18100 28.15800 26.41000
C  -2.39300 27.87100 27.77200
C  -3.37500 26.89600 27.78700
C  -1.16300 29.12800 25.79900
C  -2.00700 28.21100 29.10100
O  -1.38300 29.20100 29.48800
C  -2.86500 27.28800 30.06400
C  -1.92700 26.59100 30.99200
O  -0.78800 26.25000 30.74500
O  -2.50000 26.53800 32.28400
C  -1.64700 26.23500 33.40500
H  -7.58400 22.25200 28.73400
H  -6.56200 23.01400 22.50300
H  -2.53500 27.54700 23.61900
H  -4.18600 24.56000 31.20900
H  -7.00200 23.60600 30.74100
H  -4.86800 21.84700 29.73700
H  -6.03300 21.61500 31.19500
H  -4.53500 22.28900 31.43200
H  -6.91900 25.86600 31.18500
H  -5.62200 26.96300 31.15300
H  -6.84300 26.14900 33.39500
H  -5.17500 26.76800 33.32900
H  -10.24000 21.50800 26.94200
H  -8.85300 20.90700 27.86500
H  -9.24100 20.19500 26.27300
H  -9.59400 19.52800 24.37600
H  -10.08700 19.96800 22.72800
H  -10.77500 20.80400 24.20600
H  -5.50900 25.09000 21.12100
H  -2.89100 26.03600 22.01100
H  -2.76300 23.99000 21.38300
H  -4.11200 23.30700 20.53500
H  -3.90800 22.84000 22.16900
H  -4.84600 28.25200 21.96500
H  -4.95900 27.28300 20.51700
H  -3.43100 29.63100 21.06800
H  -2.76000 28.52600 19.88200
H  -2.17300 28.34100 21.41700
H  -1.42400 29.45000 24.79100
H  -0.16000 28.70300 25.80300
H  -1.22400 30.00500 26.44200
H  -3.64700 27.78700 30.63600
H  -0.86100 26.98700 33.46700
H  -1.21000 25.24800 33.25300
H  -2.20300 26.11700 34.33600

