158

Mg 0.29000 7.21200 26.09500
C  0.89400 9.25700 28.93800
C  0.65800 4.41900 28.21700
C  0.25000 5.25500 23.37500
C  0.33700 10.09300 24.02600
N  0.76600 6.86900 28.40000
C  0.97300 7.89400 29.26000
C  1.08300 7.26500 30.66500
C  1.31700 5.67300 30.40900
C  0.91200 5.64300 28.94900
C  2.80100 5.22000 30.73400
C  -0.14800 7.57300 31.49900
C  0.08600 7.86800 32.96300
H  1.32700 7.23700 33.59100
N  0.36400 5.08900 25.79000
C  0.43400 4.17900 26.82000
C  0.33900 2.87500 26.20700
C  0.41300 3.06000 24.79200
C  0.33300 4.47500 24.57600
C  0.13600 1.58300 26.98700
C  0.39400 2.04300 23.66200
O  0.37900 2.31800 22.46600
C  0.47100 0.52200 23.98200
N  0.26900 7.62200 24.01200
C  0.14800 6.62300 23.10900
C  -0.25400 7.24100 21.70200
C  -0.21900 8.70900 21.92600
C  0.04700 8.83100 23.44100
C  0.73100 6.81400 20.60200
C  -1.43200 9.52700 21.51300
C  -1.14500 10.49300 20.33900
N  0.62200 9.21100 26.39800
C  0.56500 10.29800 25.45100
C  0.80000 11.50100 26.13800
C  0.91000 11.18400 27.54100
C  0.79600 9.76800 27.63500
C  0.90700 12.89500 25.49200
C  1.05600 11.71900 28.90800
O  1.30500 12.84300 29.22400
C  0.99000 10.49200 29.88100
C  2.14700 10.61600 30.73300
O  3.32500 10.53200 30.32300
O  1.77200 10.93400 32.05600
C  2.82600 10.96700 33.06800
H  0.73400 3.54800 28.87100
H  0.13600 4.61800 22.49500
H  0.32400 11.02400 23.45600
H  2.06100 7.61400 30.99500
H  0.66100 5.09000 31.05500
H  3.38800 5.95300 31.28700
H  3.35000 4.88900 29.85200
H  2.64700 4.37200 31.40100
H  -0.82200 6.72700 31.63600
H  -0.67200 8.41900 31.05500
H  -0.78500 7.46700 33.48000
H  0.19700 8.94100 33.11900
H  -0.76600 1.07300 26.64700
H  -0.07600 1.65700 28.05400
H  1.05100 1.00400 26.86700
H  0.91000 0.01800 23.12100
H  -0.58000 0.24300 24.06100
H  1.12600 0.38400 24.84200
H  -1.29200 6.95000 21.54600
H  0.64300 9.20600 21.48100
H  1.71800 6.74800 21.06000
H  0.64600 7.58200 19.83400
H  0.55900 5.77700 20.31400
H  -1.73800 10.07400 22.40500
H  -2.26400 8.91200 21.16900
H  -2.08000 10.71500 19.82500
H  -0.55000 10.02900 19.55200
H  -0.66400 11.42000 20.65200
H  -0.15200 13.14900 25.43500
H  1.42500 12.87100 24.53400
H  1.36800 13.61900 26.16400
H  0.17100 10.68300 30.57400
H  2.84800 12.00800 33.39100
H  3.76800 10.52500 32.74200
H  2.36900 10.33100 33.82600
Mg 41.91100 41.93900 27.40400
C  40.74700 44.34500 29.86100
C  42.58100 39.74800 29.95300
C  43.12200 39.78600 25.15500
C  41.46400 44.46100 25.05000
N  41.36000 41.90300 29.57700
C  41.01600 42.98200 30.41400
C  41.03000 42.66100 31.88700
C  41.55500 41.16800 31.85900
C  41.83100 40.91600 30.38100
C  42.83700 40.92100 32.76400
C  39.72200 42.99700 32.58200
C  39.37900 42.21900 33.83100
H  39.01600 43.15300 35.01000
N  42.66900 40.02100 27.52700
C  42.89200 39.29700 28.64300
C  43.54800 38.06700 28.27500
C  43.61700 38.07500 26.90800
C  43.10200 39.33100 26.48800
C  43.87100 37.00600 29.34100
C  44.13800 36.94000 26.02300
O  44.16700 36.98900 24.78200
C  44.59700 35.62500 26.59800
N  42.30300 42.13000 25.31800
C  42.59400 40.98800 24.58300
C  42.48000 41.29100 23.08800
C  42.00100 42.80900 23.06800
C  41.85900 43.17900 24.57300
C  43.69600 40.98300 22.17100
C  40.66400 43.05700 22.33800
C  39.51400 42.31600 22.84800
N  41.32900 43.99200 27.38100
C  41.23200 44.85700 26.33700
C  40.87400 46.18500 26.80500
C  40.62300 45.98200 28.17900
C  40.97600 44.64200 28.49800
C  40.70700 47.36600 26.01500
C  40.26200 46.58900 29.42100
O  39.96200 47.75600 29.67700
C  40.26500 45.58100 30.51500
C  41.32300 46.11200 31.52400
O  42.46800 46.31400 31.25900
O  40.78600 46.12400 32.82300
C  41.57900 46.48700 33.90500
H  42.57300 38.91700 30.66100
H  43.45900 39.03400 24.43900
H  41.27900 45.23400 24.30200
H  41.76900 43.37800 32.24500
H  40.65400 40.58300 32.04100
H  43.04200 41.77800 33.40500
H  43.65000 40.63700 32.09700
H  42.57600 40.09400 33.42500
H  39.01100 42.92100 31.75900
H  39.70100 44.04100 32.89500
H  40.22900 41.62000 34.15600
H  38.53500 41.55200 33.65300
H  44.86700 36.62000 29.12400
H  43.19900 36.16200 29.18900
H  43.75100 37.25900 30.39400
H  43.83400 35.03500 27.10500
H  45.48300 35.55500 27.23000
H  44.75000 34.91300 25.78800
H  41.66000 40.73200 22.63500
H  42.72700 43.47200 22.59500
H  43.42500 40.05300 21.67100
H  44.55900 40.80900 22.81300
H  43.95500 41.83800 21.54600
H  40.76200 42.77400 21.29000
H  40.39300 44.11000 22.26800
H  39.57500 42.11200 23.91700
H  39.33000 41.37700 22.32600
H  38.65200 42.96700 22.70100
H  39.71300 47.78500 26.17300
H  40.85000 47.17000 24.95200
H  41.47400 48.10800 26.23600
H  39.22800 45.59600 30.85000
H  40.97900 46.36500 34.80700
H  41.85100 47.53100 33.74800
H  42.42700 45.80100 33.90500

