158

Mg 2.56600 -3.25500 45.51300
C  5.93000 -2.25600 44.86900
C  1.60000 -0.90200 43.41400
C  -0.42800 -4.76100 45.58500
C  3.98000 -6.10900 47.13700
N  3.67700 -1.93700 44.05400
C  5.00500 -1.56600 44.04200
C  5.25100 -0.45800 42.98800
C  3.83400 0.10600 42.74300
C  2.94500 -0.98100 43.44300
C  3.63800 1.48400 43.51800
C  6.02700 -0.96900 41.75500
C  7.32800 -0.30900 41.34000
H  7.58300 0.06100 39.85400
N  0.83100 -2.84800 44.65900
C  0.59700 -1.72700 43.91500
C  -0.85200 -1.72100 43.59200
C  -1.49000 -2.88100 44.09300
C  -0.31900 -3.57000 44.79500
C  -1.46900 -0.63700 42.79400
C  -2.99000 -3.33100 44.02100
O  -3.84800 -2.64700 43.44200
C  -3.41000 -4.71700 44.48800
N  1.74600 -5.19000 46.37900
C  0.53600 -5.50100 46.30700
C  0.33700 -6.91100 46.93400
C  1.75900 -7.24900 47.44300
C  2.55800 -6.11900 46.94700
C  -0.74800 -6.98500 48.09200
C  2.13900 -8.67900 46.94900
C  2.15400 -9.75300 48.02800
N  4.51700 -3.99600 46.00300
C  4.94600 -5.06400 46.77600
C  6.35200 -4.99500 46.95300
C  6.75100 -3.82700 46.19200
C  5.64800 -3.36000 45.61700
C  7.15400 -5.89200 47.83400
C  7.93600 -3.05100 45.90900
O  9.07600 -3.18100 46.32700
C  7.43300 -1.92500 45.01200
C  7.53900 -0.66100 45.81000
O  6.82100 -0.45100 46.78600
O  8.29800 0.26000 45.15500
C  8.32400 1.63600 45.69900
H  1.22000 -0.07500 42.81000
H  -1.39900 -5.23900 45.72900
H  4.40000 -7.02400 47.56000
H  5.82800 0.35500 43.42900
H  3.60200 0.04800 41.68000
H  4.35200 1.57800 44.33600
H  2.65200 1.73200 43.91000
H  4.03200 2.34400 42.97600
H  5.44300 -0.98100 40.83500
H  6.19900 -1.99600 42.07600
H  8.16500 -0.92900 41.65800
H  7.46900 0.63400 41.86800
H  -1.96800 0.13100 43.38500
H  -2.18400 -1.02300 42.06700
H  -0.73400 -0.16100 42.14500
H  -2.78500 -5.39000 43.90200
H  -4.43200 -4.90400 44.15900
H  -3.40800 -4.73800 45.57800
H  -0.09500 -7.58500 46.19400
H  1.77900 -7.19800 48.53100
H  -1.42600 -6.13800 47.99000
H  -0.38100 -7.01500 49.11800
H  -1.38700 -7.85800 47.96200
H  3.11700 -8.66000 46.46800
H  1.55500 -9.00100 46.08600
H  2.98500 -10.43000 47.82800
H  1.24900 -10.35600 47.96600
H  2.27700 -9.30600 49.01400
H  6.55200 -6.01700 48.73400
H  8.15500 -5.52100 48.05200
H  7.13900 -6.87600 47.36600
H  7.98000 -1.90400 44.07000
H  8.34100 2.32600 44.85600
H  9.14800 1.90200 46.36100
H  7.40800 1.91800 46.22000
Mg -1.95600 33.80900 26.96300
C  -3.76500 32.06200 29.45500
C  -0.73300 35.90000 29.31700
C  -0.67500 35.54700 24.47100
C  -3.93700 31.97800 24.62000
N  -2.42000 34.12600 29.17400
C  -2.90100 33.11400 29.92300
C  -2.70500 33.45000 31.43500
C  -1.98900 34.79700 31.39200
C  -1.65600 34.95700 29.88200
C  -2.82700 35.92100 31.97900
C  -1.87000 32.28400 32.18300
C  -2.52600 31.89500 33.60600
H  -1.49700 31.95200 34.77700
N  -0.76400 35.37100 26.92700
C  -0.31700 36.07400 27.96200
C  0.69500 37.02100 27.49700
C  0.69200 36.97300 26.10100
C  -0.27400 35.87800 25.75500
C  1.46600 37.91200 28.48600
C  1.47100 37.78600 25.09100
O  1.47800 37.51800 23.92700
C  2.29700 39.04000 25.52300
N  -2.25000 33.72600 24.80100
C  -1.56200 34.52300 23.99500
C  -2.13600 34.44200 22.57100
C  -2.99800 33.13500 22.62200
C  -3.09700 32.89100 24.10500
C  -2.96600 35.66900 22.13700
C  -2.30000 31.99300 21.79800
C  -1.27200 31.04900 22.50200
N  -3.49400 32.36600 26.97600
C  -4.09600 31.64400 25.95900
C  -4.87700 30.53600 26.46600
C  -4.77200 30.63600 27.90800
C  -3.93500 31.76100 28.09600
C  -5.49000 29.42900 25.59400
C  -5.26500 30.18700 29.23200
O  -6.11200 29.37500 29.51300
C  -4.44200 31.00600 30.27100
C  -5.39500 31.54200 31.19300
O  -6.16300 32.45700 30.98900
O  -5.46800 30.74100 32.34100
C  -6.47700 30.90200 33.40000
H  -0.23500 36.55300 30.03700
H  -0.33600 36.28900 23.74400
H  -4.50600 31.57100 23.78200
H  -3.70100 33.63900 31.83300
H  -1.04300 34.89900 31.92500
H  -3.65800 35.57900 32.59500
H  -3.32500 36.41200 31.14300
H  -2.16300 36.60200 32.51100
H  -0.83900 32.63400 32.24900
H  -1.75500 31.36300 31.61100
H  -2.78300 30.83800 33.68300
H  -3.34800 32.57200 33.84000
H  1.31900 38.96600 28.25100
H  2.51600 37.62100 28.46500
H  1.13800 37.70700 29.50500
H  2.89000 39.41800 24.69000
H  2.96000 38.62000 26.28000
H  1.71000 39.83100 25.98800
H  -1.28100 34.32800 21.90400
H  -4.04100 33.31600 22.36300
H  -2.59300 36.12900 21.22300
H  -3.08200 36.47700 22.86000
H  -4.01000 35.45800 21.90200
H  -1.95000 32.42200 20.85900
H  -3.10300 31.38000 21.38800
H  -1.62500 30.82500 23.50800
H  -0.26800 31.47500 22.48600
H  -1.39700 30.09000 21.99900
H  -4.76500 29.23100 24.80400
H  -6.37700 29.86100 25.13000
H  -5.65800 28.47300 26.09100
H  -3.74800 30.31900 30.75500
H  -7.19000 31.71900 33.29200
H  -5.97400 31.12000 34.34200
H  -6.98200 29.96100 33.62200

