158

Mg 41.26500 8.46800 30.14400
C  43.26200 10.01200 32.76500
C  39.21400 7.27000 32.42400
C  39.75700 6.92500 27.67000
C  43.88100 9.50900 27.94500
N  41.17400 8.75400 32.32400
C  42.02500 9.36400 33.20600
C  41.44800 9.42500 34.62900
C  40.26200 8.29600 34.48600
C  40.17000 8.10500 32.98400
C  40.47400 6.96100 35.20900
C  41.01500 10.84000 35.06600
C  40.45800 11.06400 36.47000
H  41.25900 11.92400 37.41100
N  39.69600 7.25200 30.03400
C  38.88200 6.91600 31.08200
C  37.75800 6.22500 30.57000
C  37.90300 6.16500 29.19100
C  39.13300 6.74000 28.90700
C  36.66100 5.76600 31.44300
C  36.89700 5.49100 28.19700
O  37.03700 5.60400 26.93900
C  35.58900 4.85700 28.70800
N  41.82800 8.18400 28.14200
C  40.91100 7.58300 27.27200
C  41.33100 7.74400 25.78900
C  42.66500 8.52600 25.87700
C  42.82900 8.75000 27.43000
C  41.20700 6.43800 25.02500
C  42.90000 9.77700 25.01400
C  41.94600 11.00600 25.36400
N  43.17100 9.51100 30.26200
C  44.07400 9.79600 29.29600
C  45.23000 10.48300 29.79800
C  44.95100 10.59300 31.17800
C  43.67000 9.95700 31.42300
C  46.36400 11.01000 28.99300
C  45.44300 11.10200 32.39600
O  46.51600 11.67100 32.61700
C  44.38000 10.74100 33.47900
C  45.09000 9.89700 34.52100
O  45.55700 8.80300 34.36900
O  44.77700 10.37900 35.73500
C  45.14200 9.46900 36.85800
H  38.46900 6.88200 33.12100
H  39.19800 6.45400 26.85900
H  44.55700 9.83100 27.15000
H  42.17200 9.08800 35.37000
H  39.31100 8.71200 34.81800
H  39.84000 6.81200 36.08300
H  41.48200 6.91700 35.62100
H  40.34900 6.07000 34.59400
H  40.30600 11.19600 34.31900
H  41.90800 11.46000 34.98900
H  40.33900 10.07700 36.91800
H  39.43400 11.42800 36.39200
H  36.87500 5.84100 32.50900
H  36.59400 4.69700 31.24200
H  35.75800 6.25700 31.08200
H  35.03200 5.57200 29.31300
H  35.88700 3.99900 29.31100
H  35.08500 4.47000 27.82200
H  40.69400 8.39800 25.19400
H  43.37900 7.77800 25.53100
H  40.51400 5.76600 25.53000
H  42.18300 5.96500 24.92000
H  40.83700 6.63500 24.01900
H  42.77000 9.54400 23.95800
H  43.94400 10.07300 25.11500
H  41.14500 10.75700 26.06000
H  41.30700 11.34200 24.54700
H  42.55300 11.84400 25.70700
H  46.34800 10.83300 27.91800
H  47.30000 10.55000 29.30800
H  46.54400 12.05200 29.25600
H  44.09600 11.68500 33.94400
H  46.22300 9.36600 36.94900
H  44.85900 8.44600 36.61300
H  44.77200 9.77300 37.83700
Mg 30.17800 57.59600 39.89700
C  27.17100 55.97000 39.07400
C  31.95300 54.71300 39.11700
C  33.12300 59.46700 40.08200
C  28.41500 60.63300 40.41000
N  29.57900 55.64400 39.06000
C  28.31500 55.12200 38.81600
C  28.42200 53.70100 38.11900
C  29.76300 53.29400 38.76400
C  30.54300 54.63100 39.01400
C  29.62800 52.35400 40.03600
C  28.51000 53.86900 36.52200
C  27.32800 53.07700 35.87100
H  26.95600 53.44300 34.42400
N  32.30200 57.17400 39.71900
C  32.75100 55.88700 39.39500
C  34.25600 55.95600 39.40100
C  34.57300 57.26800 39.80500
C  33.32000 58.02100 39.94400
C  35.15100 54.77900 39.07300
C  36.03600 57.73800 40.08100
O  36.99600 56.96000 39.99200
C  36.32800 59.07800 40.68900
N  30.64300 59.74300 40.55200
C  31.94100 60.18300 40.35000
C  31.96900 61.66900 40.53200
C  30.49300 62.09300 40.77000
C  29.77900 60.73900 40.66300
C  32.89700 62.08100 41.69800
C  30.04200 63.24600 39.81800
C  29.38200 64.54200 40.40800
N  28.15300 58.20100 39.87200
C  27.61600 59.47000 40.11000
C  26.12500 59.33500 39.99100
C  25.94500 58.02600 39.53500
C  27.17300 57.36100 39.46900
C  25.01100 60.37200 40.12700
C  24.93900 56.96700 39.19800
O  23.67900 57.01800 39.13200
C  25.68600 55.59400 38.88800
C  25.22700 54.41200 39.71700
O  25.66200 54.02700 40.79600
O  24.12800 53.79200 39.04600
C  23.39300 52.83200 39.91900
H  32.48900 53.76200 39.15200
H  34.05200 60.03900 40.03600
H  27.91300 61.58900 40.56700
H  27.66100 52.96400 38.37600
H  30.29800 52.67800 38.04100
H  30.24200 51.48700 39.79100
H  28.56000 52.14500 39.98900
H  29.97600 52.81400 40.96000
H  29.52200 53.64400 36.18600
H  28.29700 54.90500 36.25700
H  26.40700 53.20800 36.43900
H  27.64100 52.03300 35.90700
H  35.88500 54.95700 38.28800
H  34.54400 53.87500 39.02900
H  35.76800 54.77200 39.97100
H  35.99500 59.86700 40.01500
H  37.41600 59.13700 40.70300
H  35.81500 58.98000 41.64600
H  32.33000 62.05800 39.58100
H  30.29500 62.32200 41.81600
H  33.32600 61.20500 42.18500
H  32.39400 62.61500 42.50500
H  33.73100 62.67500 41.32400
H  29.44700 62.83000 39.00600
H  30.88300 63.63400 39.24400
H  29.58300 64.55800 41.47900
H  28.32300 64.36100 40.22400
H  29.68500 65.41700 39.83300
H  24.06600 59.89200 40.38200
H  25.11000 60.96200 39.21600
H  25.37500 60.97200 40.96000
H  25.50600 55.39500 37.83100
H  22.36100 53.08300 39.67500
H  23.55700 52.95300 40.98900
H  23.40600 51.79200 39.59500

