158

Mg 1.80400 8.20300 26.29200
C  2.36400 10.31800 28.91700
C  2.92200 5.42100 28.41000
C  1.64600 6.15000 23.60700
C  1.63600 10.94800 24.19700
N  2.54400 7.92800 28.36600
C  2.48500 8.91600 29.33000
C  2.65000 8.33200 30.73900
C  3.04100 6.89600 30.51600
C  2.91900 6.75600 29.00000
C  4.35600 6.41700 31.14900
C  1.42600 8.62300 31.66600
C  1.62700 8.68800 33.20000
H  2.86400 7.90600 33.84600
N  2.19100 6.11500 26.00400
C  2.57800 5.15800 27.01900
C  2.63200 3.87800 26.37900
C  2.22200 3.94800 25.01600
C  1.93800 5.40100 24.82300
C  3.15200 2.63900 27.10300
C  2.02000 2.91000 23.99200
O  1.70100 3.14000 22.81500
C  2.17900 1.41800 24.32400
N  1.67100 8.53900 24.22700
C  1.64400 7.54600 23.32500
C  1.66900 8.05600 21.85200
C  1.39800 9.58600 22.12800
C  1.61500 9.72500 23.61500
C  2.98200 7.74600 21.00600
C  -0.00300 10.13700 21.56100
C  0.09400 11.24500 20.55200
N  1.86200 10.18700 26.49300
C  1.86900 11.19600 25.55300
C  1.97400 12.47000 26.14700
C  2.11100 12.18100 27.54800
C  2.16900 10.78900 27.62900
C  2.08900 13.79900 25.52700
C  2.40700 12.71200 28.85300
O  2.58400 13.84800 29.25700
C  2.31300 11.53300 29.77900
C  3.34500 11.60100 30.81900
O  4.57600 11.48700 30.55900
O  2.82000 11.57400 32.09600
C  3.93200 11.47400 33.12500
H  3.15200 4.61200 29.10700
H  1.82500 5.61700 22.67100
H  1.51400 11.71600 23.43000
H  3.46700 8.81300 31.27800
H  2.18600 6.37100 30.94100
H  4.95500 6.03500 30.32200
H  4.18000 5.57100 31.81300
H  4.89400 7.20800 31.67200
H  0.61900 7.92600 31.43700
H  0.90000 9.50100 31.29100
H  0.75600 8.10200 33.49400
H  1.53800 9.67700 33.64900
H  2.29300 2.09500 27.49600
H  3.69500 3.11400 27.92000
H  3.74700 1.97700 26.47500
H  1.52500 1.18000 25.16300
H  3.24000 1.18600 24.41000
H  1.94700 0.82700 23.43800
H  0.87200 7.55400 21.30400
H  2.27600 10.14000 21.79500
H  2.84400 7.29900 20.02100
H  3.61000 7.14600 21.66500
H  3.47200 8.70900 20.86100
H  -0.52900 10.57000 22.41200
H  -0.65600 9.34700 21.18900
H  -0.59500 10.99500 19.74500
H  1.11100 11.51700 20.26800
H  -0.38600 12.13600 20.95600
H  1.99800 13.64200 24.45300
H  3.02000 14.32000 25.74700
H  1.22100 14.34900 25.89300
H  1.35300 11.47400 30.29100
H  4.48100 10.54600 32.96700
H  3.49200 11.47200 34.12200
H  4.58200 12.34900 33.16400
Mg 40.84800 41.33500 26.90500
C  39.82200 43.80000 29.14100
C  41.21600 39.14000 29.71100
C  42.01500 39.05400 24.76400
C  40.83700 43.69100 24.36200
N  40.61400 41.47500 29.20800
C  40.19300 42.61400 29.84800
C  39.97300 42.34100 31.35700
C  40.63100 40.88100 31.55600
C  40.83400 40.42600 30.09600
C  41.96300 40.85700 32.36200
C  38.50400 42.57700 31.80200
C  38.14500 41.93000 33.19300
H  37.49900 42.79800 34.28000
N  41.51100 39.39600 27.17500
C  41.58300 38.66500 28.42500
C  42.05300 37.36100 28.11700
C  42.26400 37.29800 26.67800
C  41.90400 38.59700 26.14400
C  42.21100 36.22500 29.13300
C  42.74300 36.11300 25.90500
O  42.72000 36.00700 24.71400
C  43.22500 34.87400 26.51400
N  41.49200 41.41700 24.89900
C  41.85800 40.27400 24.18400
C  41.89300 40.57200 22.69900
C  41.61500 42.07600 22.60400
C  41.23800 42.40500 24.03300
C  43.15800 39.97900 21.97600
C  40.51100 42.43700 21.56200
C  39.02200 42.26700 22.00900
N  40.37400 43.30900 26.71000
C  40.52600 44.11900 25.68100
C  40.09100 45.49000 26.10300
C  39.83700 45.39600 27.45900
C  40.01300 44.06200 27.80400
C  39.89400 46.71700 25.18400
C  39.37000 46.16900 28.60200
O  39.15100 47.41600 28.74500
C  39.41300 45.16000 29.78300
C  40.36300 45.58200 30.84900
O  41.61100 45.36700 30.80800
O  39.68300 46.01700 31.97500
C  40.41900 45.85000 33.31100
H  41.05900 38.40200 30.49900
H  42.47000 38.33400 24.08100
H  40.77600 44.49400 23.62500
H  40.56400 43.09000 31.88300
H  39.86200 40.19900 31.91900
H  42.06700 41.88500 32.70800
H  42.83500 40.58000 31.77000
H  41.99300 40.21400 33.24100
H  37.90100 42.08300 31.04100
H  38.41500 43.62800 32.07900
H  38.99700 41.45500 33.68000
H  37.63400 40.99400 32.96900
H  41.49400 35.42400 28.95500
H  42.05400 36.58700 30.14900
H  43.24900 35.90200 29.20600
H  44.14000 35.06200 27.07600
H  43.46600 34.15400 25.73200
H  42.51200 34.46400 27.22900
H  41.05100 39.99800 22.31300
H  42.52800 42.57500 22.28100
H  43.90700 39.48900 22.59900
H  43.62200 40.82500 21.47000
H  42.71700 39.33700 21.21400
H  40.59200 41.75300 20.71800
H  40.68900 43.44300 21.18300
H  38.80200 42.40700 23.06700
H  38.54100 41.34900 21.67300
H  38.53100 43.05600 21.43800
H  39.30700 46.43500 24.31000
H  40.90200 47.03100 24.91400
H  39.39000 47.45800 25.80400
H  38.47000 45.16500 30.33000
H  39.84000 45.27800 34.03500
H  40.49700 46.87900 33.66500
H  41.47100 45.56400 33.33100

