158

Mg 42.93400 4.49600 47.89900
C  40.99300 7.42300 48.01100
C  40.08000 2.56700 47.73100
C  44.80800 1.86200 47.07600
C  45.79200 6.56500 47.63000
N  40.83300 5.03300 47.64900
C  40.25300 6.29500 47.81000
C  38.75000 6.22200 47.91700
C  38.57300 4.70700 48.16400
C  39.89700 4.02600 47.71500
C  38.36100 4.37800 49.63400
C  37.99300 6.72000 46.66100
C  38.73500 6.62400 45.26900
H  38.98900 7.67500 44.28300
N  42.47500 2.51600 47.49000
C  41.32000 1.89800 47.60600
C  41.42600 0.45100 47.43200
C  42.82200 0.19900 47.23500
C  43.44100 1.57900 47.25000
C  40.22900 -0.42000 47.46400
C  43.41700 -1.14800 47.10000
O  42.69600 -2.14100 47.16700
C  44.92700 -1.39400 46.85100
N  45.01600 4.29000 47.42100
C  45.49900 3.07100 47.04500
C  46.99600 3.11000 46.93200
C  47.37000 4.59500 47.23400
C  45.99500 5.21300 47.43100
C  47.70100 2.07900 47.85300
C  48.28500 5.25700 46.13700
C  49.60700 5.81400 46.60000
N  43.38500 6.54600 47.92100
C  44.62100 7.24900 47.86000
C  44.30800 8.69100 47.95600
C  42.94500 8.76000 47.97100
C  42.42900 7.49000 47.98200
C  45.41700 9.78200 47.99900
C  41.89500 9.74000 48.17300
O  41.92200 10.97300 48.32900
C  40.58500 8.86900 48.11100
C  39.78100 9.10500 49.28900
O  40.09900 8.71700 50.40600
O  38.75600 9.94400 48.98100
C  37.94900 10.32700 50.15100
H  39.19800 1.93400 47.85100
H  45.47100 1.02200 46.85700
H  46.69200 7.18200 47.58000
H  38.54400 6.94400 48.70600
H  37.75200 4.17300 47.68400
H  37.76200 5.14000 50.13300
H  39.31100 4.27300 50.15800
H  37.70600 3.50800 49.68700
H  37.85300 7.79700 46.75600
H  37.00200 6.27300 46.73200
H  38.18400 5.82000 44.78200
H  39.77400 6.30100 45.33200
H  39.48300 -0.15600 46.71400
H  39.65100 -0.32100 48.38300
H  40.38100 -1.48600 47.29700
H  45.59300 -1.05500 47.64400
H  45.21700 -0.83500 45.96100
H  44.93300 -2.46000 46.62000
H  47.25900 2.78400 45.92500
H  47.81100 4.72500 48.22200
H  47.03000 1.45900 48.44700
H  48.37600 2.70500 48.43700
H  48.29700 1.38200 47.26300
H  47.70200 6.09100 45.74600
H  48.41500 4.51600 45.34800
H  49.61700 6.81000 46.15700
H  50.49600 5.38900 46.13400
H  49.66800 5.88200 47.68700
H  46.42500 9.38200 47.88500
H  45.34000 10.35900 48.92000
H  45.33000 10.40500 47.10900
H  39.99200 9.08800 47.22400
H  36.89600 10.04900 50.12200
H  37.82100 11.40700 50.22200
H  38.30800 10.01800 51.13300
Mg -11.40500 37.49400 43.25900
C  -8.98800 35.24400 42.41300
C  -9.20200 40.01000 41.92500
C  -13.85100 39.91800 43.36500
C  -13.63400 35.01400 43.78000
N  -9.37400 37.56200 42.07100
C  -8.53900 36.51500 41.98200
C  -7.10600 36.85300 41.49600
C  -7.22500 38.42700 41.66600
C  -8.70700 38.69300 41.89300
C  -6.31600 39.08500 42.73700
C  -6.88100 36.29500 40.03900
C  -5.47800 35.62400 39.76600
H  -4.96100 35.45300 38.36900
N  -11.48800 39.64100 42.67800
C  -10.53700 40.43600 42.14900
C  -10.94600 41.78100 42.04900
C  -12.31700 41.83400 42.48600
C  -12.61900 40.43500 42.86100
C  -10.06700 42.88300 41.55800
C  -13.18100 43.13700 42.66000
O  -12.80900 44.22500 42.22300
C  -14.57200 43.12500 43.18400
N  -13.46700 37.47900 43.35600
C  -14.22700 38.59600 43.64600
C  -15.60600 38.25500 44.31800
C  -15.56400 36.66600 44.16200
C  -14.11200 36.34200 43.71400
C  -15.82200 38.78200 45.76000
C  -16.52100 36.06900 43.07400
C  -17.83800 35.43600 43.69800
N  -11.36500 35.48600 43.24800
C  -12.31500 34.54400 43.45000
C  -11.77200 33.26200 43.41000
C  -10.43500 33.41700 43.00100
C  -10.23000 34.86500 42.93100
C  -12.49100 31.96000 43.64700
C  -9.20000 32.75600 42.69400
O  -8.82500 31.56200 42.69200
C  -8.19300 33.92500 42.30300
C  -6.99800 33.93000 43.19800
O  -5.88300 33.92500 42.70800
O  -7.24700 34.01500 44.54800
C  -6.10500 33.90400 45.50200
H  -8.46100 40.77500 41.68100
H  -14.59900 40.66800 43.62800
H  -14.24200 34.24900 44.26700
H  -6.40600 36.43300 42.21800
H  -6.94600 38.86400 40.70800
H  -6.82500 39.47300 43.62000
H  -5.63000 39.73600 42.19400
H  -5.66500 38.35200 43.21300
H  -6.98800 37.16900 39.39600
H  -7.51000 35.45900 39.73300
H  -5.68900 34.60400 40.08700
H  -4.66100 36.01900 40.36900
H  -10.14000 42.92300 40.47100
H  -9.03500 42.69800 41.85500
H  -10.24900 43.92700 41.81400
H  -15.09500 44.07300 43.30900
H  -14.46200 42.64900 44.15900
H  -15.10800 42.53000 42.44400
H  -16.47600 38.56700 43.74100
H  -15.62600 36.19600 45.14400
H  -14.89100 39.22200 46.11600
H  -16.03600 37.89600 46.35800
H  -16.62500 39.51100 45.65300
H  -16.08300 35.28500 42.45600
H  -16.73700 36.76000 42.26000
H  -18.69000 35.83000 43.14300
H  -17.90200 35.68200 44.75800
H  -17.81900 34.36600 43.48800
H  -13.48800 32.13100 44.05200
H  -11.95900 31.31700 44.34800
H  -12.65100 31.34000 42.76500
H  -8.05200 33.79400 41.23000
H  -6.39100 33.18500 46.27000
H  -6.00500 34.94700 45.80400
H  -5.18700 33.58300 45.00900

