158

Mg 42.31200 40.93100 27.63000
C  41.09100 43.06600 30.07500
C  42.71400 38.61400 29.96000
C  43.21300 39.06400 25.13300
C  41.70900 43.52100 25.22700
N  42.03300 40.86200 29.77600
C  41.46900 41.83400 30.59900
C  41.53800 41.50300 32.02500
C  42.34800 40.15500 31.98100
C  42.37400 39.83000 30.52700
C  43.65700 40.10200 32.74500
C  40.13300 41.38100 32.67700
C  39.87700 42.38600 33.89800
H  39.24300 41.83300 35.13500
N  42.93600 39.05600 27.62400
C  43.01500 38.17400 28.67300
C  43.44200 36.88500 28.11000
C  43.78000 37.10200 26.74400
C  43.30700 38.44100 26.42500
C  43.60800 35.70400 28.99000
C  44.40900 36.07400 25.70800
O  44.68400 36.47600 24.56600
C  44.77600 34.65100 26.09600
N  42.61300 41.32000 25.50100
C  42.89300 40.30300 24.67900
C  42.88400 40.63800 23.19900
C  42.10200 42.00300 23.26100
C  42.19400 42.32200 24.74900
C  44.29900 40.61700 22.46300
C  40.67300 41.84300 22.67800
C  39.79600 40.65500 23.20700
N  41.65500 42.86200 27.60600
C  41.49300 43.79000 26.52400
C  41.01600 45.05300 27.09200
C  40.78100 44.79200 28.47300
C  41.24200 43.49900 28.74500
C  40.96800 46.31500 26.36100
C  40.30100 45.33600 29.76100
O  39.74000 46.42400 30.02900
C  40.57300 44.31600 30.83700
C  41.61700 44.97100 31.66500
O  42.71400 45.30900 31.37400
O  41.05300 45.13100 32.91200
C  41.83100 45.75000 34.05600
H  42.75700 37.79300 30.67800
H  43.35400 38.39000 24.28500
H  41.33000 44.31900 24.58500
H  42.19700 42.18200 32.56500
H  41.73200 39.38600 32.44700
H  43.99500 39.06600 32.78100
H  43.55000 40.46800 33.76600
H  44.41600 40.69800 32.23700
H  40.08800 40.37700 33.09800
H  39.36800 41.54400 31.91700
H  39.17700 43.21000 33.76500
H  40.85600 42.76100 34.19300
H  43.76300 36.01800 30.02200
H  44.51800 35.15800 28.74300
H  42.76000 35.01800 28.96300
H  45.76300 34.71500 26.55500
H  45.00800 34.11600 25.17500
H  44.11100 34.09800 26.76000
H  42.39000 39.85100 22.62900
H  42.64100 42.77300 22.70800
H  44.23000 40.27900 21.42900
H  44.95100 40.03800 23.11800
H  44.77800 41.59500 22.51100
H  40.77100 41.72300 21.59900
H  40.07900 42.74200 22.84100
H  40.35900 39.89900 23.75500
H  39.34400 40.10800 22.38000
H  39.03700 41.10300 23.84800
H  41.50300 46.33900 25.41100
H  41.13600 47.06300 27.13500
H  39.94500 46.34000 25.98700
H  39.69500 44.25200 31.48000
H  41.90300 45.02700 34.86900
H  41.19400 46.56600 34.39700
H  42.78300 46.18700 33.75300
Mg 35.83900 48.99400 25.88000
C  35.77100 47.22500 28.93200
C  34.37700 51.67100 27.41700
C  35.84800 50.58700 22.90100
C  37.10100 46.03600 24.31500
N  35.26300 49.35700 28.00600
C  35.42600 48.60300 29.08100
C  35.24200 49.48400 30.38600
C  34.62500 50.81500 29.84200
C  34.74200 50.56400 28.26100
C  33.21600 51.20100 30.31900
C  36.49900 49.56000 31.25300
C  36.33500 48.98400 32.70800
H  34.97600 48.87100 33.35700
N  35.11300 50.87200 25.25000
C  34.59000 51.83100 26.02900
C  34.36600 52.97700 25.22700
C  34.55800 52.55600 23.84000
C  35.23900 51.35500 23.92300
C  33.79300 54.23000 25.87200
C  34.27600 53.21100 22.56300
O  34.76900 52.96900 21.44700
C  33.24200 54.40800 22.61200
N  36.28800 48.39700 23.89800
C  36.34200 49.31600 22.92300
C  36.98700 48.69800 21.63000
C  37.37200 47.27100 22.05600
C  36.87600 47.16700 23.51200
C  36.03800 48.59900 20.44700
C  38.98400 47.07300 21.96000
C  39.77300 47.73600 23.13200
N  36.36900 47.12000 26.44400
C  36.90500 46.05300 25.71300
C  37.13200 44.91700 26.59600
C  36.67500 45.35700 27.83900
C  36.21600 46.66500 27.70900
C  37.62500 43.61400 26.16000
C  36.58200 44.86700 29.19800
O  36.77400 43.79100 29.71300
C  36.00500 46.10000 29.95600
C  34.89100 45.66500 30.82600
O  33.75000 45.60400 30.49700
O  35.37500 45.30500 32.09900
C  34.35000 44.55800 32.83600
H  33.89700 52.54800 27.85400
H  35.95900 51.16400 21.98000
H  37.64400 45.17500 23.91900
H  34.50900 48.97900 31.01500
H  35.23100 51.65900 30.17100
H  32.66900 51.43300 29.40600
H  33.17900 52.09600 30.94100
H  32.75100 50.36700 30.84400
H  36.82000 50.59000 31.40900
H  37.32400 48.98300 30.83400
H  36.98000 49.50200 33.41800
H  36.77000 47.98500 32.73300
H  33.85800 55.11400 25.23700
H  34.41100 54.57200 26.70300
H  32.78000 54.05400 26.23400
H  33.54900 55.30200 23.15500
H  32.33500 53.99300 23.05200
H  33.07000 54.79200 21.60700
H  37.87100 49.29000 21.39600
H  36.76900 46.55700 21.49400
H  35.34300 47.77200 20.59200
H  36.65900 48.37100 19.58000
H  35.57800 49.58300 20.35200
H  39.30100 47.59600 21.05700
H  39.27700 46.02500 21.90200
H  40.63600 48.33900 22.85000
H  40.13900 46.87300 23.68800
H  39.08000 48.27400 23.77900
H  38.67900 43.68500 25.89300
H  37.04300 43.28600 25.29800
H  37.61400 43.02700 27.07800
H  36.75500 46.50200 30.63700
H  34.83800 43.97200 33.61500
H  33.70500 43.94200 32.21000
H  33.65600 45.18700 33.39400

