158

Mg -0.21600 42.91900 25.96400
C  1.91300 42.95800 28.69400
C  -2.92400 42.51400 28.11500
C  -2.19000 42.66700 23.27100
C  2.57800 43.09300 23.92000
N  -0.38700 42.89600 28.11100
C  0.55600 42.90800 29.09900
C  0.01700 42.96900 30.49200
C  -1.55300 42.70300 30.22900
C  -1.60800 42.56900 28.68600
C  -2.18000 41.38500 30.79400
C  0.36500 44.39900 31.14800
C  0.90700 44.35800 32.54700
H  0.64400 43.15400 33.41500
N  -2.24300 42.57000 25.72200
C  -3.20100 42.46700 26.73000
C  -4.52300 42.46900 26.08600
C  -4.22400 42.26600 24.72000
C  -2.84200 42.44400 24.53100
C  -5.79000 42.43600 26.90600
C  -5.24800 41.85200 23.71400
O  -4.91100 41.70700 22.58300
C  -6.71400 41.62100 24.15300
N  0.17000 42.84500 23.94800
C  -0.79600 42.67800 23.01700
C  -0.24200 42.73600 21.53500
C  1.27200 43.00000 21.79600
C  1.36500 42.89500 23.26800
C  -0.50600 41.53200 20.57700
C  1.74600 44.42900 21.33500
C  3.06300 44.47800 20.65300
N  1.87000 42.92500 26.17300
C  2.85800 43.04600 25.28200
C  4.15600 43.00900 25.93300
C  3.83500 43.05400 27.25300
C  2.40600 43.01700 27.36200
C  5.53900 42.96900 25.20900
C  4.44300 43.17400 28.51000
O  5.60200 43.34400 28.82500
C  3.20300 43.02100 29.50600
C  3.33300 41.77800 30.37000
O  3.09600 40.56900 30.09800
O  4.00200 42.13100 31.54200
C  4.41900 40.99500 32.32700
H  -3.74100 42.46100 28.83800
H  -2.81700 42.82600 22.39100
H  3.49900 43.03600 23.33600
H  0.44600 42.09900 30.99000
H  -2.18200 43.52000 30.58200
H  -2.60800 40.78400 29.99200
H  -2.97500 41.62600 31.49900
H  -1.55900 40.81100 31.48100
H  -0.44900 45.12200 31.09300
H  1.11100 44.78300 30.45300
H  0.39800 45.15200 33.09400
H  1.99500 44.39800 32.60300
H  -6.60400 43.12400 26.67700
H  -5.47500 42.49600 27.94800
H  -6.13600 41.41200 26.76600
H  -6.84300 40.69300 24.71000
H  -7.17600 41.60300 23.16600
H  -7.25400 42.41100 24.67400
H  -0.71100 43.62600 21.11400
H  1.87500 42.22700 21.32000
H  -0.87000 40.62200 21.05400
H  0.44800 41.22700 20.14600
H  -1.09200 41.78300 19.69300
H  1.75100 45.10400 22.19100
H  1.03400 44.85800 20.63000
H  3.82000 43.71400 20.82900
H  3.55600 45.43700 20.81200
H  2.72200 44.51300 19.61800
H  6.12100 42.08000 25.45000
H  6.01000 43.92300 25.44800
H  5.40800 42.93500 24.12700
H  3.27600 43.81000 30.25400
H  4.68500 41.33400 33.32800
H  5.38400 40.66800 31.94000
H  3.75400 40.14800 32.49300
Mg -6.56900 24.89700 25.90900
C  -5.34100 26.26800 29.05200
C  -8.46400 22.76200 27.75100
C  -7.24500 23.26600 23.05600
C  -4.46100 27.05600 24.28000
N  -6.79700 24.46800 28.15400
C  -6.32900 25.22300 29.18200
C  -6.95500 24.78500 30.52100
C  -7.78000 23.57000 30.16700
C  -7.69800 23.58000 28.62400
C  -7.34400 22.24200 30.88700
C  -7.73400 26.07300 31.17000
C  -7.84500 26.06900 32.70700
H  -7.38000 24.92700 33.71700
N  -7.73900 23.28000 25.43000
C  -8.50400 22.55600 26.33000
C  -9.26400 21.56500 25.65700
C  -8.93500 21.68700 24.24500
C  -7.93100 22.76300 24.18800
C  -10.24600 20.63400 26.29100
C  -9.48000 20.81800 22.95900
O  -9.08700 20.84200 21.82000
C  -10.61500 19.83400 23.24900
N  -5.82000 25.05200 23.95400
C  -6.23700 24.24800 22.93300
C  -5.43000 24.59100 21.69100
C  -4.94300 26.04400 21.97600
C  -5.14400 26.14000 23.50000
C  -4.45600 23.46900 21.37100
C  -5.57900 27.20300 21.15800
C  -4.66500 27.77500 20.06800
N  -5.08500 26.35500 26.52700
C  -4.39600 27.21100 25.71100
C  -3.63200 28.08900 26.54800
C  -3.96000 27.83200 27.86200
C  -4.91800 26.78300 27.79600
C  -2.80500 29.15900 26.05200
C  -3.76900 28.19200 29.22600
O  -3.03100 29.01200 29.72300
C  -4.73600 27.24600 30.12300
C  -3.84900 26.80200 31.24200
O  -3.10500 25.80800 31.27300
O  -3.95400 27.70900 32.29800
C  -3.10400 27.49100 33.52100
H  -9.10000 22.10300 28.34600
H  -7.66900 22.82300 22.15200
H  -3.83100 27.75900 23.73100
H  -6.08900 24.49100 31.11400
H  -8.78700 23.88800 30.43900
H  -6.56100 22.39700 31.62900
H  -7.02100 21.46900 30.18900
H  -8.18400 21.89100 31.48600
H  -8.72600 25.99300 30.72700
H  -7.43100 27.06800 30.84600
H  -8.93000 26.01700 32.79700
H  -7.66400 27.04100 33.16400
H  -10.81500 21.29400 26.94600
H  -9.79800 19.77200 26.78600
H  -10.99700 20.24600 25.60300
H  -10.45600 19.02500 23.96200
H  -10.89700 19.51900 22.24500
H  -11.44900 20.43300 23.61400
H  -6.10200 24.70600 20.84100
H  -3.85300 26.07800 21.97700
H  -4.36200 22.92300 22.31000
H  -3.51900 23.88400 21.00000
H  -4.86800 22.79300 20.62100
H  -5.81200 28.03800 21.81900
H  -6.56100 26.97600 20.74300
H  -5.25700 28.24100 19.28100
H  -4.03800 27.08500 19.50400
H  -4.04500 28.52900 20.55400
H  -2.52300 29.04200 25.00600
H  -1.95000 29.12500 26.72600
H  -3.39200 30.02700 26.35000
H  -5.46200 27.85700 30.65900
H  -2.08200 27.73400 33.23100
H  -3.09900 26.46300 33.88100
H  -3.52300 28.15300 34.27900

