158

Mg 9.45100 4.21500 28.08500
C  10.66200 2.64000 30.92600
C  7.58700 6.33000 30.18800
C  8.17900 5.75200 25.38500
C  10.73400 1.69700 26.11600
N  9.15500 4.39500 30.29000
C  9.77300 3.66000 31.26100
C  9.38700 4.05500 32.71200
C  8.54100 5.37700 32.38500
C  8.42700 5.39500 30.83100
C  7.17700 5.52400 33.17000
C  10.55300 4.34000 33.71300
C  10.29200 5.26200 34.87100
H  10.76200 4.79500 36.22500
N  7.96800 5.82100 27.84100
C  7.33900 6.52800 28.81700
C  6.39600 7.40000 28.18900
C  6.66600 7.32300 26.82400
C  7.59800 6.25700 26.62100
C  5.48600 8.31200 29.00400
C  6.12800 8.21000 25.80000
O  6.38500 8.04400 24.59800
C  5.00500 9.17000 26.07900
N  9.48200 3.77300 26.01800
C  8.96000 4.61700 25.09700
C  9.37700 4.16500 23.70000
C  10.09100 2.78800 23.92400
C  10.17800 2.77500 25.44400
C  8.19100 4.14400 22.68500
C  11.50700 2.61500 23.18600
C  11.50800 1.55300 22.16500
N  10.50500 2.49200 28.42800
C  11.00200 1.58200 27.51000
C  11.88000 0.63600 28.18000
C  11.67500 0.98900 29.53500
C  10.88000 2.17900 29.62400
C  12.54300 -0.60200 27.56200
C  12.03600 0.58300 30.85400
O  12.65200 -0.34100 31.19900
C  11.38700 1.62500 31.87600
C  10.47500 0.91400 32.82200
O  9.37400 0.38000 32.56500
O  11.02900 0.97800 34.07300
C  10.28900 0.33600 35.12100
H  7.20000 7.03200 30.92900
H  7.88200 6.26800 24.46900
H  11.09300 0.88900 25.47500
H  8.82800 3.19700 33.08700
H  9.16500 6.23000 32.65200
H  6.93400 4.69800 33.83900
H  6.37300 5.55200 32.43500
H  7.23300 6.49900 33.65200
H  11.41300 4.63300 33.11100
H  10.89500 3.41500 34.17900
H  9.25700 5.60000 34.91400
H  10.91600 6.12100 34.62100
H  5.49400 7.98200 30.04300
H  4.48600 8.25600 28.57300
H  5.90800 9.31400 28.92600
H  4.09000 8.76500 26.51000
H  4.86900 9.61400 25.09200
H  5.30100 10.03200 26.67800
H  10.13900 4.92900 23.54900
H  9.36400 2.03200 23.62600
H  7.26500 4.00200 23.24300
H  8.21800 3.38000 21.90800
H  8.12400 5.07900 22.13000
H  12.35600 2.44600 23.84800
H  11.61200 3.56700 22.66600
H  11.25300 1.93100 21.17500
H  10.76200 0.77400 22.32400
H  12.45800 1.02000 22.12300
H  12.77700 -0.46900 26.50600
H  11.93500 -1.50600 27.60300
H  13.52100 -0.82300 27.99000
H  12.09700 2.22200 32.44800
H  10.23800 1.07900 35.91600
H  10.96200 -0.46400 35.43000
H  9.30700 -0.09700 34.93000
Mg -9.17700 17.82600 41.57600
C  -5.74400 17.96000 42.13000
C  -9.08400 21.28700 40.97000
C  -12.42900 17.77400 40.59100
C  -9.06000 14.38800 41.71400
N  -7.63300 19.30400 41.39000
C  -6.23900 19.13100 41.69400
C  -5.48400 20.47500 41.41100
C  -6.66200 21.39900 41.75700
C  -7.92400 20.63000 41.36100
C  -6.65400 21.60800 43.31100
C  -5.11400 20.64100 39.91800
C  -3.74400 20.11700 39.54600
H  -3.65500 19.06800 38.49700
N  -10.57500 19.31500 40.84500
C  -10.32400 20.64200 40.70600
C  -11.46100 21.30200 40.13800
C  -12.47800 20.32700 39.99900
C  -11.84800 19.06200 40.51400
C  -11.49200 22.76500 39.88200
C  -13.92900 20.53700 39.44300
O  -14.32100 21.64500 39.16000
C  -14.93800 19.48000 39.25800
N  -10.54200 16.33200 41.16000
C  -11.86300 16.54400 41.02000
C  -12.61400 15.18100 41.11400
C  -11.56100 14.25600 41.59900
C  -10.24800 15.03500 41.42100
C  -13.80600 15.20400 42.02600
C  -11.53700 12.88100 40.78400
C  -12.35700 11.70300 41.39300
N  -7.68300 16.35800 41.83300
C  -7.80600 14.98400 41.80800
C  -6.55000 14.44800 42.05300
C  -5.68700 15.60200 42.22200
C  -6.42400 16.66600 42.11100
C  -6.10100 12.95500 42.17800
C  -4.34000 16.09800 42.48100
O  -3.33800 15.48200 42.74600
C  -4.33700 17.65800 42.38700
C  -3.81200 18.37300 43.60100
O  -4.09000 18.13500 44.73400
O  -2.95300 19.39300 43.25200
C  -2.50400 20.28500 44.33600
H  -9.02200 22.37600 41.01800
H  -13.48900 17.59400 40.40400
H  -8.98800 13.30700 41.85400
H  -4.59800 20.73400 41.99000
H  -6.58900 22.37100 41.26900
H  -5.76400 21.15800 43.75000
H  -7.45100 21.08000 43.83500
H  -6.81000 22.65200 43.58100
H  -5.18700 21.68300 39.60500
H  -5.76000 20.00700 39.31200
H  -3.23300 19.86000 40.47400
H  -3.17200 20.99700 39.25000
H  -11.07200 22.98700 38.90100
H  -11.00700 23.30100 40.69700
H  -12.50600 23.15200 39.98100
H  -14.45500 18.67900 38.69800
H  -15.89900 19.72100 38.80400
H  -15.13500 19.12300 40.26800
H  -13.06200 14.92500 40.15400
H  -11.69300 13.94900 42.63700
H  -14.57100 14.73700 41.40700
H  -14.25100 16.13700 42.37000
H  -13.84400 14.54400 42.89300
H  -10.52500 12.51600 40.61200
H  -12.05900 13.13900 39.86300
H  -12.34900 10.92600 40.62900
H  -13.34500 12.01300 41.73500
H  -11.87200 11.22000 42.24200
H  -5.80600 12.83000 43.22000
H  -5.33100 12.86000 41.41200
H  -6.94700 12.30200 41.96400
H  -3.67000 17.91200 41.56400
H  -3.17500 20.50400 45.16700
H  -2.07300 21.13600 43.81000
H  -1.65800 19.79600 44.81800

