158

Mg 8.02600 2.43200 27.93200
C  9.34000 1.24300 31.00500
C  6.21800 4.68700 29.77000
C  6.66100 3.27300 25.10300
C  9.79600 -0.10900 26.29500
N  7.46100 2.72400 30.26400
C  8.35800 2.29800 31.26100
C  8.07300 2.98600 32.62000
C  6.84400 3.93400 32.28300
C  6.80200 3.83000 30.67700
C  5.38700 3.63000 32.92200
C  9.30800 3.77500 33.09100
C  9.13000 4.74500 34.22900
H  10.09800 4.60100 35.42300
N  6.59900 3.79700 27.48400
C  5.95500 4.64900 28.37900
C  4.98100 5.44100 27.60000
C  5.16900 5.08400 26.20900
C  6.15500 3.97200 26.21700
C  4.13400 6.47000 28.28100
C  4.48200 5.57300 24.95800
O  4.70000 5.25100 23.78800
C  3.34800 6.54300 25.13400
N  8.13500 1.66400 25.88700
C  7.48300 2.20100 24.89700
C  7.77400 1.55500 23.53800
C  9.04500 0.68900 23.82000
C  9.04500 0.75800 25.44000
C  6.49200 0.78900 23.20100
C  10.37000 1.27800 23.20400
C  11.24600 2.14100 24.11700
N  9.23400 0.90800 28.45400
C  9.89100 -0.02600 27.67700
C  10.88500 -0.78200 28.46600
C  10.71500 -0.31900 29.78700
C  9.67600 0.65800 29.73500
C  11.86500 -1.84600 27.96300
C  11.14900 -0.46300 31.06200
O  11.95500 -1.28600 31.48500
C  10.28700 0.53600 31.97300
C  9.78000 -0.21800 33.15200
O  9.36700 -1.36100 33.14100
O  9.78100 0.57800 34.26700
C  9.04000 0.02800 35.42300
H  5.87700 5.55700 30.33500
H  6.31100 3.58600 24.11700
H  10.53500 -0.76800 25.83700
H  7.72800 2.22100 33.31600
H  7.12100 4.97600 32.43800
H  4.71400 3.34000 32.11600
H  5.07000 4.42900 33.59200
H  5.43000 2.88900 33.72000
H  9.75300 4.33100 32.26500
H  10.19600 3.20500 33.36500
H  8.11100 4.67300 34.61100
H  9.20700 5.67600 33.66900
H  4.31400 7.42800 27.79400
H  4.29600 6.50900 29.35800
H  3.07700 6.25900 28.12300
H  2.75300 6.59400 24.22200
H  3.66600 7.56200 25.35200
H  2.75000 6.14200 25.95200
H  7.86300 2.27100 22.72200
H  8.84200 -0.27500 23.35400
H  5.77400 0.90200 24.01300
H  6.48100 -0.28100 22.99600
H  6.10100 1.32100 22.33400
H  10.08700 2.00600 22.44400
H  10.93000 0.48900 22.70200
H  11.60000 2.89900 23.41800
H  12.07400 1.50400 24.42900
H  10.78400 2.46900 25.04800
H  11.28100 -2.66600 27.54500
H  12.50000 -2.21500 28.76900
H  12.53900 -1.55600 27.15800
H  11.00900 1.24600 32.37700
H  7.95200 0.08900 35.40100
H  9.55900 0.62900 36.16900
H  9.39400 -1.00100 35.48400
Mg -1.49000 34.78000 26.76600
C  -3.19100 33.31900 29.49100
C  0.16700 36.85700 29.16100
C  -0.19900 36.52200 24.30100
C  -3.07700 32.64500 24.58500
N  -1.61900 35.13800 29.08600
C  -2.36600 34.33200 29.94400
C  -2.13400 34.80100 31.39900
C  -1.00000 35.91000 31.27500
C  -0.80800 35.97200 29.72600
C  -1.34100 37.31100 31.87600
C  -1.93100 33.60000 32.36500
C  -0.96900 33.70500 33.50700
H  -1.06900 32.75600 34.62500
N  -0.21600 36.40200 26.74400
C  0.48000 37.02800 27.77500
C  1.30400 38.03100 27.24900
C  1.10100 37.96600 25.83600
C  0.15500 36.97100 25.59000
C  2.05600 38.98800 28.22700
C  1.77100 38.85000 24.72300
O  1.54300 38.71200 23.52100
C  2.90400 39.75100 25.12500
N  -1.79000 34.72000 24.77800
C  -1.03200 35.42900 23.95800
C  -1.15700 34.87900 22.54400
C  -1.96700 33.60800 22.59900
C  -2.24900 33.61400 24.06100
C  -1.78600 35.93600 21.55500
C  -1.27900 32.28300 21.97100
C  -0.33600 31.43100 22.82200
N  -2.96300 33.30600 26.94800
C  -3.51300 32.49700 25.94400
C  -4.43600 31.52700 26.55700
C  -4.35500 31.82600 27.93400
C  -3.41700 32.94300 28.10800
C  -5.36900 30.52900 25.83200
C  -4.80700 31.47500 29.24900
O  -5.58500 30.62800 29.54800
C  -4.10200 32.33200 30.32700
C  -5.21100 32.97500 31.04700
O  -5.50200 34.19000 31.08100
O  -5.66800 32.17400 32.07700
C  -6.49000 32.76000 33.07400
H  0.69200 37.39600 29.95200
H  0.40600 36.80100 23.43700
H  -3.34400 31.86900 23.86500
H  -3.05000 35.29700 31.72000
H  -0.06900 35.59000 31.74300
H  -0.61000 37.65200 32.61000
H  -2.30600 37.28000 32.38300
H  -1.31100 38.11100 31.13700
H  -1.50400 32.84300 31.70700
H  -2.87200 33.23500 32.77700
H  -1.00900 34.69400 33.96400
H  0.06100 33.62000 33.16200
H  1.39600 39.85200 28.30300
H  3.00300 39.29200 27.78200
H  2.33700 38.54300 29.18200
H  3.81900 39.20300 25.35100
H  2.62600 40.40700 25.95000
H  3.12500 40.35500 24.24400
H  -0.18400 34.66300 22.10400
H  -2.97600 33.72400 22.20300
H  -2.08500 36.75500 22.20800
H  -2.57500 35.51100 20.93500
H  -1.01400 36.37800 20.92500
H  -0.84700 32.43000 20.98100
H  -2.14100 31.73100 21.59600
H  0.57500 31.17600 22.28100
H  -0.91900 30.51700 22.93400
H  -0.10300 31.81600 23.81500
H  -4.79000 29.88100 25.17400
H  -6.13300 31.12600 25.33400
H  -5.94900 30.07400 26.63600
H  -3.56700 31.63900 30.97600
H  -7.40500 33.19600 32.67300
H  -5.92800 33.54600 33.57800
H  -6.59600 31.96400 33.81200

