158

Mg 17.47400 -2.16600 27.18200
C  16.47800 -0.06700 29.76300
C  19.33400 -3.95800 29.41300
C  18.59700 -4.00400 24.56700
C  15.64500 -0.08900 24.97900
N  17.93300 -1.87500 29.28300
C  17.32800 -1.06300 30.19100
C  17.82100 -1.27200 31.56300
C  18.88400 -2.37900 31.37500
C  18.79000 -2.77300 29.91100
C  20.39500 -2.03500 31.70500
C  16.73700 -1.55800 32.67500
C  16.66800 -0.64500 33.95400
H  18.03700 -0.07400 34.39100
N  18.75800 -3.76600 26.99600
C  19.38000 -4.39700 28.00800
C  20.09200 -5.52700 27.55000
C  19.91300 -5.66300 26.11500
C  19.14300 -4.38800 25.77600
C  20.94500 -6.41700 28.41200
C  20.18100 -6.80500 25.13100
O  19.76500 -6.75100 23.96600
C  20.97100 -7.99500 25.54300
N  17.32200 -2.00300 25.04900
C  17.84000 -2.88300 24.21300
C  17.62000 -2.51500 22.77700
C  16.64500 -1.27900 22.89600
C  16.47100 -1.08500 24.41000
C  18.92900 -2.25800 21.92100
C  15.30300 -1.54800 22.13300
C  14.54000 -0.42100 21.56700
N  16.24000 -0.47100 27.26000
C  15.49600 0.17700 26.31800
C  14.61500 1.08500 26.98400
C  15.00800 1.09400 28.36100
C  15.93700 0.08500 28.46100
C  13.59500 1.96100 26.24300
C  14.79300 1.69300 29.64900
O  14.05000 2.65700 29.90300
C  15.72500 0.93200 30.62400
C  16.52000 1.92400 31.24200
O  17.56300 2.34500 30.71300
O  15.87400 2.42600 32.36100
C  16.56000 3.45800 33.18300
H  19.91400 -4.50300 30.16100
H  18.84900 -4.52600 23.64100
H  14.96900 0.51500 24.37000
H  18.26100 -0.31400 31.83900
H  18.55500 -3.26500 31.91800
H  20.83600 -2.87900 32.23500
H  20.51900 -1.19800 32.39200
H  21.02800 -1.85300 30.83700
H  17.02200 -2.53100 33.07700
H  15.71600 -1.48600 32.30200
H  16.32900 -1.23700 34.80400
H  15.92900 0.14400 33.81300
H  21.16200 -7.44900 28.13900
H  20.53600 -6.55000 29.41300
H  21.90900 -5.91900 28.51900
H  22.01200 -7.81200 25.81100
H  21.06800 -8.68200 24.70200
H  20.42100 -8.60400 26.26100
H  17.16900 -3.44700 22.43600
H  17.23000 -0.42400 22.55900
H  19.69200 -1.74700 22.50700
H  18.75900 -1.57200 21.09100
H  19.31500 -3.18700 21.50200
H  14.65300 -2.12700 22.79000
H  15.49200 -2.22700 21.30200
H  13.52700 -0.32700 21.95900
H  14.58400 -0.49800 20.48000
H  15.14800 0.48100 21.63200
H  12.82200 2.29000 26.93700
H  13.11700 1.39600 25.44300
H  13.93100 2.87000 25.74500
H  15.15000 0.46500 31.42300
H  16.20900 4.48900 33.14000
H  17.62300 3.39600 32.94700
H  16.31700 3.10300 34.18500
Mg -8.80400 40.45800 42.57900
C  -8.08200 36.97100 41.70700
C  -6.10200 41.35300 40.90000
C  -10.01500 43.52200 42.75300
C  -12.08600 39.16900 43.52000
N  -7.49700 39.28500 41.19400
C  -7.17700 37.91400 41.22400
C  -5.90100 37.61800 40.37900
C  -5.16900 39.02300 40.45900
C  -6.31900 39.96200 40.86000
C  -4.01700 39.20900 41.52500
C  -6.18300 37.03800 38.93900
C  -5.42700 35.76200 38.50900
H  -4.53400 35.81700 37.24700
N  -8.10700 42.27400 42.01600
C  -6.89800 42.41200 41.37500
C  -6.66400 43.82300 41.19100
C  -7.74800 44.53700 41.76000
C  -8.68000 43.47200 42.28900
C  -5.40800 44.26100 40.45400
C  -8.03000 46.04200 41.72400
O  -7.23400 46.77400 41.11500
C  -9.24200 46.62300 42.29700
N  -10.78200 41.16900 43.06100
C  -10.92100 42.51000 43.08100
C  -12.36500 42.90300 43.52400
C  -13.08200 41.50500 43.74500
C  -11.98100 40.54800 43.36800
C  -12.58900 43.85100 44.67700
C  -14.36100 41.25500 42.94100
C  -15.60900 40.58300 43.56500
N  -9.78900 38.48800 42.90900
C  -11.07100 38.19600 43.31200
C  -11.24800 36.75800 43.26300
C  -10.08400 36.26800 42.77500
C  -9.28200 37.33000 42.37800
C  -12.48700 36.08500 43.81100
C  -9.39300 35.03900 42.41200
O  -9.59000 33.84100 42.61900
C  -8.09000 35.53600 41.63500
C  -6.84000 35.00100 42.21800
O  -6.31100 35.37200 43.25500
O  -6.36400 33.98700 41.43700
C  -5.05700 33.50700 41.98900
H  -5.07000 41.60500 40.64800
H  -10.45600 44.49500 42.97900
H  -12.99100 38.70400 43.91600
H  -5.22100 36.93800 40.89200
H  -4.78000 39.18000 39.45300
H  -3.89800 38.31500 42.13800
H  -4.37000 39.89400 42.29600
H  -3.05900 39.49100 41.08700
H  -6.00400 37.86500 38.25100
H  -7.27200 37.01200 38.90100
H  -6.20100 35.03900 38.25200
H  -4.89900 35.35600 39.37100
H  -5.03500 45.13800 40.98300
H  -5.53700 44.65700 39.44700
H  -4.54400 43.60800 40.56900
H  -9.31700 47.71000 42.27000
H  -9.21500 46.26800 43.32700
H  -10.15000 46.34100 41.76300
H  -12.76400 43.37100 42.62400
H  -13.32600 41.39200 44.80100
H  -11.62000 44.24700 44.98000
H  -13.09000 43.39700 45.53200
H  -13.20000 44.71000 44.39600
H  -14.12700 40.76000 41.99900
H  -14.65800 42.20100 42.48700
H  -15.44200 40.47400 44.63700
H  -15.81300 39.60900 43.12100
H  -16.49400 41.21900 43.53200
H  -12.08300 35.11600 44.10300
H  -13.19800 36.05000 42.98500
H  -12.89400 36.59000 44.68700
H  -7.95500 35.13600 40.63000
H  -4.33200 34.30700 42.14400
H  -4.65300 32.94400 41.14700
H  -5.05700 32.83600 42.84700

