158

Mg 24.09500 -5.40300 45.33400
C  26.19100 -3.09200 43.76800
C  21.42800 -4.16100 43.47900
C  22.45500 -8.39500 45.78100
C  26.88700 -6.85800 46.86900
N  23.81500 -3.72400 43.88800
C  24.83800 -2.94100 43.39500
C  24.22700 -1.86200 42.51500
C  22.67900 -1.99200 42.85100
C  22.58100 -3.33000 43.52900
C  22.12100 -0.84500 43.74300
C  24.67700 -2.01600 40.99900
C  25.52500 -0.81700 40.45200
H  25.11800 -0.53500 39.01800
N  22.20400 -6.22600 44.68700
C  21.30000 -5.51000 43.88200
C  20.17300 -6.38200 43.63400
C  20.49300 -7.69900 44.22900
C  21.74900 -7.49400 44.92400
C  18.95500 -5.99500 42.84100
C  19.65000 -9.00400 43.95600
O  18.46600 -8.98600 43.54000
C  20.35400 -10.33700 44.19800
N  24.65700 -7.41400 46.15200
C  23.67900 -8.34800 46.41300
C  24.20100 -9.56600 47.25200
C  25.71500 -9.11400 47.53300
C  25.75000 -7.67100 46.88300
C  23.39900 -9.79600 48.55100
C  26.76300 -10.10300 47.09600
C  27.93700 -10.35100 47.94400
N  26.14500 -4.95000 45.46400
C  27.13800 -5.62800 46.05900
C  28.39000 -4.88200 45.90600
C  28.05900 -3.99100 44.85400
C  26.68900 -4.01100 44.68800
C  29.72900 -5.19700 46.48200
C  28.58200 -2.95800 43.94400
O  29.74300 -2.66100 43.75100
C  27.38400 -2.28100 43.31000
C  27.31900 -0.85700 43.68500
O  26.56900 -0.35300 44.51200
O  28.16600 -0.18200 42.86500
C  28.43900 1.20500 43.19100
H  20.61900 -3.70900 42.90200
H  21.84400 -9.22300 46.14700
H  27.75800 -7.33600 47.32000
H  24.62900 -0.93700 42.92700
H  22.02900 -2.08400 41.98100
H  21.32700 -0.27400 43.26100
H  22.89600 -0.13000 44.01900
H  21.72900 -1.28800 44.65900
H  23.81200 -2.23400 40.37400
H  25.41500 -2.81500 40.93500
H  26.57700 -1.10200 40.41500
H  25.36800 0.14700 40.93700
H  19.01100 -5.92400 41.75400
H  18.70500 -4.96200 43.08500
H  18.08900 -6.46700 43.30400
H  21.40900 -10.11200 44.04300
H  19.98400 -11.00600 43.42000
H  20.19800 -10.67000 45.22400
H  24.20400 -10.48800 46.67100
H  25.92400 -9.04700 48.60100
H  22.80500 -10.70700 48.48600
H  22.72400 -8.94100 48.52300
H  24.08100 -9.74400 49.40100
H  27.02600 -10.03200 46.04000
H  26.21100 -11.04300 47.04900
H  28.88400 -10.11100 47.46000
H  27.99700 -11.40500 48.21400
H  27.98700 -9.77400 48.86800
H  29.70400 -5.43600 47.54500
H  30.33000 -4.30100 46.33100
H  30.12700 -6.03300 45.90600
H  27.39000 -2.25600 42.22000
H  27.83500 1.70100 43.95100
H  28.41700 1.89300 42.34500
H  29.47600 1.22400 43.52700
Mg 25.18700 1.06600 28.97300
C  27.24900 0.75900 31.73100
C  22.53000 1.80700 31.27100
C  23.21600 1.73600 26.48700
C  27.76300 0.20700 26.76700
N  24.89900 1.11200 31.14900
C  25.93000 1.16200 32.06200
C  25.50500 1.56300 33.46600
C  24.03000 1.84000 33.25400
C  23.79800 1.66400 31.75600
C  22.95900 0.91700 33.97100
C  26.31300 2.75400 34.10600
C  26.73100 2.75700 35.59300
H  26.06800 3.77800 36.51700
N  23.15200 1.45700 28.90500
C  22.23300 1.69400 29.91500
C  20.90400 1.90700 29.33400
C  21.13200 2.08600 27.91000
C  22.55900 1.72400 27.72700
C  19.62200 2.05000 30.25400
C  20.10400 2.45100 26.87500
O  20.30600 2.31900 25.65600
C  18.69000 3.01600 27.11900
N  25.41200 0.83100 26.89700
C  24.42600 1.24700 26.07200
C  24.84600 1.31000 24.56600
C  26.36500 0.96100 24.69800
C  26.52800 0.61800 26.17400
C  24.19300 0.25700 23.71800
C  27.40900 1.95000 24.10600
C  27.75200 3.18100 25.02200
N  27.11200 0.42100 29.20800
C  28.08700 0.10000 28.19100
C  29.30300 -0.10800 28.89800
C  29.02100 0.11800 30.28100
C  27.69100 0.52600 30.36800
C  30.60100 -0.45300 28.29900
C  29.62600 0.07600 31.62100
O  30.71900 -0.19400 31.99900
C  28.44700 0.56400 32.58000
C  28.29600 -0.46100 33.65700
O  27.44100 -1.30400 33.53600
O  28.95500 -0.22300 34.80200
C  28.49700 -0.97400 35.97700
H  21.66800 1.99800 31.91400
H  22.69800 1.92400 25.54400
H  28.54500 0.12600 26.00800
H  25.53800 0.67000 34.09100
H  23.90700 2.89100 33.51500
H  22.65000 0.10200 33.31600
H  22.18600 1.63800 34.23600
H  23.36200 0.48300 34.88600
H  25.75700 3.66600 33.89100
H  27.17400 2.99800 33.48500
H  27.80900 2.79000 35.75300
H  26.41300 1.76800 35.92300
H  19.45100 3.09600 30.50900
H  19.75200 1.41700 31.13200
H  18.78100 1.68400 29.66500
H  18.74000 3.55700 28.06400
H  17.95100 2.21400 27.10600
H  18.35400 3.57600 26.24600
H  24.60700 2.29700 24.17100
H  26.68400 -0.01600 24.33400
H  24.83400 -0.36900 23.09800
H  23.65100 0.74200 22.90600
H  23.40200 -0.21400 24.30200
H  26.93800 2.49000 23.28500
H  28.34700 1.48900 23.79700
H  27.14500 3.20000 25.92800
H  27.71400 4.11500 24.46300
H  28.78700 3.10800 25.35700
H  30.27000 -1.04500 27.44500
H  31.15800 -1.14000 28.93500
H  31.28700 0.37700 28.13000
H  28.82000 1.49400 33.01100
H  27.44800 -0.70700 36.10000
H  29.09100 -0.89200 36.88700
H  28.48500 -2.02700 35.69600

