158

Mg 17.51000 -0.30000 27.41000
C  16.41800 1.53300 30.22700
C  19.54400 -2.11300 29.66000
C  18.97300 -1.60000 24.83300
C  15.79700 1.99300 25.42900
N  17.82000 -0.44200 29.74500
C  17.25000 0.43800 30.62700
C  17.58700 0.05200 32.02200
C  18.70500 -1.02000 31.84200
C  18.73600 -1.25900 30.34200
C  20.07200 -0.78400 32.50100
C  16.39400 -0.44900 32.89900
C  16.40300 -0.05800 34.43400
H  17.72400 0.47100 35.07700
N  18.92100 -1.73700 27.23500
C  19.55700 -2.46200 28.26800
C  20.44600 -3.45100 27.71200
C  20.43900 -3.31200 26.27000
C  19.41300 -2.21300 26.05300
C  21.22600 -4.48500 28.58400
C  21.06000 -4.05800 25.21500
O  20.87900 -3.84300 24.01300
C  21.98400 -5.12000 25.50700
N  17.36300 0.09600 25.38100
C  18.15300 -0.56200 24.50600
C  17.86700 -0.03700 23.03300
C  16.60700 0.96900 23.24200
C  16.54700 1.03200 24.77000
C  19.06400 0.57000 22.27300
C  15.29200 0.59800 22.58100
C  14.41800 -0.38500 23.45500
N  16.21900 1.35200 27.67100
C  15.61100 2.18400 26.73800
C  14.86200 3.23400 27.39400
C  15.16200 2.99300 28.80000
C  16.02600 1.84600 28.89000
C  14.06000 4.35300 26.87300
C  14.98700 3.50800 30.16300
O  14.34400 4.46800 30.51300
C  15.76700 2.56200 31.06200
C  16.70700 3.32500 32.02200
O  17.89600 3.58400 31.96000
O  15.89100 3.66300 33.08700
C  16.39200 4.60600 34.12800
H  20.10000 -2.77200 30.33000
H  19.43700 -1.99500 23.92700
H  15.28800 2.72600 24.79900
H  18.07700 0.89600 32.50500
H  18.34900 -1.87700 32.41300
H  20.05400 0.18300 33.00300
H  20.89900 -0.89900 31.80000
H  20.39400 -1.44700 33.30400
H  16.29100 -1.52500 32.75500
H  15.48900 -0.00600 32.48500
H  16.10900 -0.95300 34.98300
H  15.60400 0.67000 34.57400
H  21.40600 -5.43900 28.08900
H  20.63900 -4.78000 29.45400
H  22.17800 -4.05000 28.89100
H  22.83000 -4.79400 26.11100
H  22.52400 -5.48100 24.63100
H  21.39200 -5.90100 25.98600
H  17.52000 -0.95300 22.55500
H  16.90500 1.96300 22.90900
H  19.85100 1.12100 22.78800
H  18.67200 1.20300 21.47600
H  19.66200 -0.21800 21.81700
H  15.47400 0.07400 21.64200
H  14.81700 1.55500 22.36600
H  14.25500 0.20400 24.35800
H  15.00500 -1.28900 23.61500
H  13.45800 -0.59500 22.98200
H  12.98200 4.18700 26.86600
H  14.31000 4.66600 25.86000
H  14.31500 5.17300 27.54500
H  15.11100 2.03000 31.75100
H  15.77100 4.48300 35.01600
H  16.27000 5.67500 33.95500
H  17.43400 4.41700 34.38800
Mg 6.60500 53.81100 40.79600
C  6.66600 50.19000 40.71300
C  9.72900 53.65000 39.58600
C  6.26700 57.02800 39.82700
C  3.29300 53.60800 41.53300
N  7.95100 52.05300 40.06900
C  7.85700 50.69600 40.22000
C  9.18500 50.03500 39.86100
C  10.05000 51.19000 39.78200
C  9.20700 52.41900 39.79700
C  11.14900 51.37000 40.96100
C  9.28200 49.14700 38.60500
C  8.94800 49.72900 37.16500
H  7.85700 49.08000 36.47300
N  7.84400 55.21200 39.93200
C  9.12100 54.92700 39.54300
C  9.79700 56.12400 39.19100
C  8.86300 57.18300 39.34800
C  7.54900 56.48600 39.66200
C  11.22800 56.06800 38.76800
C  9.11000 58.71700 39.09700
O  10.24400 59.07500 38.73200
C  8.09300 59.73600 39.37500
N  4.87600 55.15500 40.55500
C  5.02300 56.50100 40.29200
C  3.78100 57.28800 40.75400
C  2.90100 56.19200 41.38600
C  3.72100 54.90800 41.22600
C  4.18300 58.50900 41.71500
C  1.54100 56.14600 40.73300
C  0.29700 56.02600 41.65100
N  5.29500 52.29600 41.30700
C  3.99300 52.36900 41.58200
C  3.40600 51.08100 41.94400
C  4.47900 50.19900 41.66200
C  5.63400 50.99300 41.21900
C  1.95100 50.78500 42.16600
C  4.84600 48.83100 41.47800
O  4.18000 47.80800 41.61200
C  6.28900 48.73600 41.04300
C  6.28400 47.85400 39.83500
O  5.87300 48.20300 38.76200
O  6.68000 46.63400 40.19300
C  6.69000 45.59100 39.09400
H  10.81100 53.65800 39.43700
H  5.99700 58.05200 39.56100
H  2.23700 53.59500 41.81200
H  9.44400 49.39800 40.70600
H  10.64900 51.22900 38.87300
H  11.14100 52.37800 41.37400
H  12.13000 51.22900 40.50700
H  10.98000 50.66900 41.77800
H  8.59900 48.31100 38.75600
H  10.26500 48.67700 38.64200
H  9.83200 49.87200 36.54400
H  8.58100 50.70100 37.49500
H  11.48000 56.83600 38.03700
H  11.39200 55.09900 38.29800
H  11.84700 56.18500 39.65700
H  7.35600 59.78200 38.57200
H  8.63500 60.67700 39.28400
H  7.53800 59.75000 40.31300
H  3.36200 57.68000 39.82700
H  2.80700 56.41500 42.44900
H  3.67500 58.46600 42.67800
H  3.84400 59.42200 41.22400
H  5.25400 58.65100 41.85900
H  1.55000 55.25100 40.11100
H  1.38800 56.94100 40.00300
H  -0.17800 57.00300 41.74400
H  0.50500 55.60200 42.63400
H  -0.46100 55.42100 41.15500
H  1.49500 51.60300 41.60800
H  1.69400 50.90600 43.21800
H  1.51500 49.86000 41.79100
H  6.98700 48.50500 41.84800
H  7.42900 44.87100 39.44500
H  6.79600 46.04700 38.10900
H  5.75300 45.03200 39.09100

