158

Mg 42.70000 41.35100 26.22100
C  41.92200 43.92200 28.55100
C  43.62800 39.38300 28.66300
C  43.78200 39.25500 23.77600
C  41.99500 43.77700 23.68000
N  42.57500 41.59200 28.37000
C  42.26900 42.68400 29.12200
C  42.21800 42.26600 30.61700
C  43.01700 40.92100 30.58900
C  43.11900 40.60700 29.11100
C  44.41000 40.94500 31.32100
C  40.76900 42.27400 31.26700
C  40.58800 43.18100 32.45400
H  40.19200 42.59900 33.78600
N  43.35500 39.58500 26.20000
C  43.73700 38.91700 27.34900
C  44.36400 37.59600 26.96100
C  44.02400 37.42800 25.59100
C  43.70300 38.79000 25.09000
C  44.96800 36.68400 28.06300
C  43.98800 36.24600 24.72000
O  43.37500 36.35300 23.66600
C  44.47900 34.91500 25.14900
N  42.95100 41.52900 24.00800
C  43.44600 40.53100 23.29300
C  43.32000 40.73300 21.73800
C  42.63600 42.13300 21.72600
C  42.46500 42.49300 23.21300
C  44.70500 40.57000 20.92900
C  41.20200 42.13500 21.13600
C  40.67100 43.32900 20.31000
N  42.00000 43.40000 26.11900
C  41.73200 44.19000 25.02200
C  41.11100 45.41300 25.48400
C  41.17200 45.36500 26.83100
C  41.74200 44.16300 27.17000
C  40.67000 46.55600 24.51700
C  40.87500 46.14300 28.05600
O  40.25200 47.15500 28.17300
C  41.32200 45.22200 29.25400
C  42.38600 45.77700 30.11800
O  43.59800 45.59300 29.96700
O  41.83400 46.60800 31.06200
C  42.80800 47.26000 31.83800
H  43.94000 38.71000 29.46500
H  44.08900 38.66400 22.91100
H  41.72000 44.56800 22.98000
H  42.87200 43.03800 31.02300
H  42.41200 40.19900 31.13600
H  44.44300 40.09400 32.00100
H  44.48400 41.85600 31.91500
H  45.22200 40.98800 30.59400
H  40.58600 41.24600 31.58000
H  39.97800 42.48500 30.54800
H  39.75700 43.78400 32.08900
H  41.33800 43.96100 32.58400
H  45.30300 37.25900 28.92600
H  45.86000 36.20900 27.65600
H  44.25500 35.92500 28.38400
H  45.54800 35.04700 25.31500
H  44.44000 34.15500 24.36900
H  44.05100 34.60600 26.10300
H  42.54300 40.05400 21.38900
H  43.05800 42.94200 21.12900
H  45.27400 39.72700 21.32200
H  45.28200 41.47700 20.75000
H  44.43900 40.21800 19.93300
H  40.53500 42.08000 21.99700
H  40.93700 41.36500 20.41200
H  40.24000 44.07400 20.98000
H  39.93600 42.85200 19.66000
H  41.48400 43.81700 19.77300
H  40.14200 46.24900 23.61400
H  41.55900 47.16500 24.34800
H  39.97400 47.20100 25.05200
H  40.46100 44.99600 29.88300
H  43.54500 47.77200 31.22000
H  43.33500 46.60900 32.53500
H  42.33700 48.06500 32.40200
Mg -11.97100 37.83800 42.13500
C  -10.07400 35.17900 41.04100
C  -9.60800 40.01200 40.60600
C  -14.12100 40.59300 42.51500
C  -14.27700 35.74000 43.37200
N  -10.14900 37.59300 40.82100
C  -9.53700 36.33300 40.61000
C  -8.22000 36.55000 39.86200
C  -8.01700 38.10000 40.04100
C  -9.31300 38.63700 40.59300
C  -6.81500 38.62600 40.85000
C  -8.33800 35.92700 38.39000
C  -7.23200 34.90300 37.89800
H  -6.46400 35.32400 36.61200
N  -11.82200 40.05400 41.74900
C  -10.71400 40.67300 41.16900
C  -11.07400 42.08700 41.00500
C  -12.39900 42.29800 41.69400
C  -12.88400 40.93000 42.00300
C  -10.08400 43.16400 40.36400
C  -13.00300 43.65600 41.89600
O  -12.50800 44.67100 41.37300
C  -14.24700 43.77100 42.65000
N  -13.91600 38.16500 42.74100
C  -14.57500 39.30200 42.96400
C  -16.01200 39.01500 43.52400
C  -15.85800 37.60200 44.10300
C  -14.63500 37.07000 43.32100
C  -16.52900 40.00000 44.48000
C  -17.07600 36.70300 44.01500
C  -17.40100 36.02600 45.40600
N  -12.23500 35.82400 42.26300
C  -13.17100 35.07700 42.82200
C  -12.86000 33.64100 42.81200
C  -11.65700 33.66500 42.04500
C  -11.36600 34.94600 41.76000
C  -13.67200 32.53500 43.30700
C  -10.67200 32.82000 41.45200
O  -10.51800 31.60300 41.42800
C  -9.65000 33.77800 40.75600
C  -8.29400 33.52400 41.36500
O  -7.33300 33.03600 40.82300
O  -8.40300 33.80600 42.76800
C  -7.14400 33.79500 43.50000
H  -8.84400 40.66800 40.18400
H  -14.87400 41.38100 42.58000
H  -14.86700 35.10200 44.03400
H  -7.47400 35.98500 40.42000
H  -7.80600 38.58800 39.09000
H  -6.10300 37.80000 40.86300
H  -7.18300 38.86400 41.84800
H  -6.33300 39.46800 40.35200
H  -8.46400 36.71000 37.64200
H  -9.26800 35.37400 38.26300
H  -7.74000 33.96700 37.66700
H  -6.49000 34.71800 38.67500
H  -9.37300 42.67400 39.69800
H  -9.67300 43.72500 41.20300
H  -10.71800 43.85900 39.81400
H  -15.00200 43.25400 42.05800
H  -14.58400 44.80500 42.71600
H  -14.17000 43.25000 43.60500
H  -16.71500 39.05500 42.69200
H  -15.66900 37.78300 45.16100
H  -17.41300 40.42700 44.00700
H  -15.78600 40.73200 44.79900
H  -16.86400 39.55200 45.41600
H  -16.99400 35.89200 43.29000
H  -17.99300 37.24100 43.77500
H  -18.45600 36.22000 45.60000
H  -16.76700 36.42600 46.19700
H  -17.13200 34.98000 45.25400
H  -13.05200 31.64800 43.43500
H  -14.45000 32.22500 42.60900
H  -14.07500 32.84600 44.27100
H  -9.53600 33.48000 39.71400
H  -6.61200 34.70500 43.22200
H  -6.58200 32.92100 43.16900
H  -7.46900 33.61700 44.52500

