158

Mg 27.27200 50.55200 26.62500
C  25.01500 51.80200 29.13500
C  29.49200 50.02100 29.42200
C  29.46000 49.77900 24.51300
C  24.90100 51.50700 24.30200
N  27.35400 51.12800 28.98800
C  26.20400 51.27500 29.72200
C  26.42600 51.17300 31.24500
C  27.98300 50.84400 31.32800
C  28.32200 50.72800 29.82800
C  28.86600 51.81200 32.22500
C  25.57200 50.05400 31.92400
C  24.62100 50.61800 32.98000
H  24.47300 49.75400 34.30200
N  29.21400 49.96200 26.93000
C  29.94000 49.71500 28.10800
C  31.22200 49.23500 27.71100
C  31.32500 49.20700 26.26300
C  29.95600 49.67000 25.84200
C  32.43800 49.00200 28.70600
C  32.58800 48.75400 25.34700
O  32.53500 48.88700 24.12100
C  33.89500 48.30200 25.92600
N  27.20000 50.70300 24.68100
C  28.26400 50.33500 23.99000
C  27.85000 50.01800 22.53000
C  26.41600 50.57700 22.35500
C  26.14200 51.06500 23.84100
C  28.76600 50.59400 21.49900
C  25.30400 49.63200 21.82900
C  24.44000 50.08700 20.66600
N  25.40000 51.44400 26.64600
C  24.55700 51.74800 25.60200
C  23.22700 52.13100 26.12800
C  23.41700 52.19700 27.48800
C  24.71800 51.78800 27.78100
C  22.08400 52.61200 25.23900
C  22.71700 52.55100 28.68900
O  21.58800 52.86800 28.90800
C  23.72800 52.24300 29.89800
C  23.91600 53.41600 30.83800
O  24.59800 54.41000 30.59300
O  23.15300 53.19200 31.93600
C  23.24100 54.24900 32.89700
H  30.07700 49.66000 30.27100
H  30.16600 49.35000 23.79900
H  24.21700 51.72300 23.47800
H  26.12700 52.19000 31.49800
H  28.10700 49.86000 31.78000
H  28.30200 52.70000 32.51100
H  29.84100 52.03600 31.79200
H  29.05800 51.31300 33.17500
H  26.20200 49.26200 32.32900
H  25.11800 49.52700 31.08500
H  23.62100 50.55400 32.55000
H  24.86800 51.64200 33.26100
H  32.37800 49.56100 29.64000
H  33.35800 49.31100 28.21000
H  32.32600 47.96100 29.00900
H  34.43000 47.56600 25.32700
H  33.64800 47.69100 26.79400
H  34.57400 49.12300 26.15400
H  27.85000 48.93500 22.40700
H  26.48800 51.46400 21.72500
H  29.63500 50.87000 22.09600
H  28.43700 51.53600 21.05900
H  29.08100 49.84100 20.77700
H  24.67100 49.37500 22.67800
H  25.70600 48.66300 21.53200
H  23.40000 50.12200 20.99200
H  24.50100 49.37000 19.84800
H  24.86100 51.00600 20.25900
H  22.12300 52.40300 24.17000
H  22.09800 53.69600 25.34400
H  21.11800 52.29800 25.63600
H  23.35200 51.42100 30.50600
H  23.24600 55.27700 32.53600
H  23.90000 54.06000 33.74400
H  22.32400 54.18000 33.48300
Mg 6.97300 53.47100 41.24500
C  6.31400 50.16100 40.43600
C  9.87000 53.27400 39.34100
C  7.18000 56.86100 41.39700
C  3.50500 53.76300 42.38000
N  7.89800 51.98400 40.05400
C  7.50700 50.66900 39.90000
C  8.52000 49.98200 38.83700
C  9.79800 50.80300 39.11000
C  9.15100 52.10300 39.52600
C  10.72900 50.33600 40.24100
C  7.94900 50.14800 37.31300
C  8.23200 48.95100 36.49000
H  7.42000 48.67200 35.26900
N  8.46700 54.82300 40.61000
C  9.52000 54.54200 39.81300
C  10.24500 55.71900 39.56600
C  9.59400 56.87100 40.28500
C  8.36000 56.22500 40.83400
C  11.42900 55.65900 38.55900
C  10.12500 58.30800 40.34800
O  11.12900 58.65200 39.74300
C  9.56300 59.37000 41.36500
N  5.51800 55.11300 41.73400
C  5.93500 56.37300 41.80600
C  4.73400 57.24100 42.18900
C  3.65000 56.25200 42.76600
C  4.24200 54.91800 42.21900
C  5.05900 58.45100 43.11400
C  2.13800 56.52600 42.26700
C  1.19200 56.45800 43.48200
N  5.28500 52.24100 41.44400
C  3.98500 52.43600 41.97900
C  3.32700 51.21200 42.05900
C  4.15700 50.24700 41.48800
C  5.32700 50.94500 41.11200
C  1.99300 50.88600 42.54400
C  4.33200 48.79900 41.19600
O  3.62700 47.83000 41.48700
C  5.79700 48.79800 40.45900
C  5.70800 48.00100 39.29100
O  4.80500 48.17200 38.44300
O  6.59100 46.90500 39.25600
C  6.43200 45.94900 38.18400
H  10.81100 53.16000 38.79800
H  7.12000 57.94600 41.28700
H  2.52200 53.92900 42.82700
H  8.71700 48.94300 39.10200
H  10.39900 50.90600 38.20700
H  10.69300 51.04100 41.07100
H  11.74100 50.21500 39.85500
H  10.36000 49.44000 40.74000
H  8.42400 51.00900 36.84300
H  6.88300 50.25000 37.51600
H  8.11400 48.04900 37.09000
H  9.22200 49.23000 36.12900
H  11.29000 54.98000 37.71800
H  12.26600 55.22400 39.10500
H  11.81600 56.59300 38.15000
H  9.04200 58.96400 42.23200
H  8.93200 60.03800 40.77800
H  10.43100 59.91400 41.73900
H  4.33600 57.63200 41.25300
H  3.71400 56.21600 43.85400
H  4.82800 59.38900 42.60900
H  6.13900 58.34900 43.21500
H  4.54600 58.43700 44.07500
H  1.80100 55.87600 41.45900
H  2.04000 57.52300 41.83700
H  1.70100 56.35000 44.44000
H  0.49200 55.63000 43.37600
H  0.65500 57.40000 43.37400
H  1.36200 50.28000 41.89300
H  1.35500 51.76900 42.50900
H  2.16900 50.49500 43.54600
H  6.50500 48.31200 41.13100
H  6.41100 45.00300 38.72400
H  7.33100 45.81300 37.58300
H  5.49200 46.00700 37.63500

