158

Mg 17.70600 -1.51300 26.84900
C  16.48100 0.50500 29.31300
C  19.61500 -3.31900 29.17900
C  18.99100 -3.21800 24.31700
C  16.21200 0.73600 24.30100
N  18.16400 -1.28700 28.90300
C  17.35700 -0.53800 29.76700
C  17.72000 -0.75300 31.20900
C  18.75700 -1.82200 31.12700
C  18.90300 -2.20400 29.68400
C  20.16500 -1.52000 31.73300
C  16.55000 -1.07500 32.06500
C  16.50900 -0.39100 33.52800
H  17.88700 0.12500 34.17200
N  18.98200 -3.18400 26.73500
C  19.70300 -3.79400 27.79600
C  20.42500 -4.91500 27.21500
C  20.15300 -4.93300 25.80200
C  19.24900 -3.80900 25.59600
C  21.27100 -5.80400 28.14000
C  20.67100 -5.88400 24.70700
O  20.44500 -5.75600 23.49200
C  21.61500 -6.98500 25.06700
N  17.39500 -1.40500 24.52800
C  18.20400 -2.17900 23.77600
C  18.21300 -1.77200 22.23200
C  17.31500 -0.55100 22.30800
C  16.88200 -0.36700 23.79200
C  19.66700 -1.49900 21.69900
C  16.14000 -0.57100 21.27700
C  14.70800 -0.94300 21.69400
N  16.51400 0.23600 26.74900
C  15.99400 1.00100 25.71700
C  15.22800 2.10300 26.30500
C  15.46400 1.99700 27.71700
C  16.16800 0.81100 27.96800
C  14.41300 3.13100 25.58600
C  15.28700 2.60800 28.95600
O  14.80300 3.64000 29.35300
C  15.82100 1.64300 30.08000
C  16.80600 2.52200 30.73900
O  17.90700 2.80300 30.31700
O  16.28600 2.95800 31.99000
C  17.14900 3.70700 32.86500
H  20.21300 -3.83200 29.93500
H  19.58800 -3.70600 23.54400
H  15.87900 1.43600 23.53200
H  18.12600 0.18400 31.59000
H  18.39200 -2.72300 31.61900
H  20.27100 -0.48300 32.05000
H  21.00200 -1.78900 31.08900
H  20.34500 -2.22700 32.54400
H  16.34300 -2.13400 32.21800
H  15.72400 -0.64600 31.49800
H  16.23700 -1.16800 34.24200
H  15.69300 0.33100 33.54600
H  21.55600 -5.22800 29.02000
H  22.14500 -6.20700 27.62800
H  20.64600 -6.64200 28.44800
H  21.21200 -7.80800 25.65700
H  22.41500 -6.58400 25.69000
H  21.90200 -7.41800 24.10900
H  17.55600 -2.48300 21.73200
H  17.88500 0.32200 21.98900
H  20.42300 -1.61900 22.47400
H  19.74800 -0.44900 21.41700
H  19.83500 -2.22000 20.89900
H  16.50800 -1.09300 20.39400
H  15.94500 0.43700 20.91100
H  14.36300 -0.15900 22.37000
H  14.66500 -1.88300 22.24400
H  14.19500 -1.02800 20.73600
H  14.00300 2.71700 24.66500
H  15.06200 3.93400 25.23500
H  13.64300 3.52200 26.25000
H  15.11700 1.26300 30.82000
H  18.19400 3.64800 32.56200
H  16.98000 3.36500 33.88500
H  16.94800 4.77400 32.76400
Mg 6.80600 54.55000 41.68000
C  5.76800 51.29200 41.23200
C  9.89900 53.67700 40.41400
C  7.53900 57.76200 41.48400
C  3.39200 55.45200 42.56600
N  7.63400 52.73900 40.82100
C  7.07000 51.44000 40.83200
C  8.06600 50.39300 40.17500
C  9.42200 51.17400 40.32900
C  8.95000 52.66100 40.52600
C  10.33100 50.59500 41.43800
C  7.71900 50.03600 38.62300
C  7.07600 51.08900 37.78600
H  6.67600 50.65400 36.35600
N  8.50300 55.57500 41.12300
C  9.66600 55.05300 40.50900
C  10.54600 56.11600 40.19100
C  9.94200 57.31500 40.57200
C  8.59100 56.93600 41.13100
C  11.93700 55.86600 39.57100
C  10.68600 58.72300 40.52600
O  11.86100 58.83000 40.09700
C  10.07900 59.92200 41.17500
N  5.61800 56.35000 42.09100
C  6.27200 57.56200 41.99300
C  5.26200 58.72700 42.13800
C  3.85400 57.98700 42.51000
C  4.24500 56.50100 42.39900
C  5.78600 59.78600 43.14200
C  2.62200 58.32800 41.53700
C  1.34700 58.77000 42.28200
N  4.99500 53.61500 42.03900
C  3.73100 54.07900 42.43900
C  2.87800 52.91400 42.61200
C  3.65400 51.80500 42.18200
C  4.90300 52.29900 41.71400
C  1.43000 52.80200 43.06400
C  3.63600 50.41500 42.08800
O  2.78800 49.62000 42.52500
C  4.98000 49.96700 41.39400
C  4.49500 49.39600 40.11000
O  3.76400 49.84400 39.25200
O  5.02300 48.12300 40.02300
C  4.43100 47.32900 38.92000
H  10.90800 53.35700 40.14800
H  7.86200 58.79200 41.32000
H  2.38100 55.70500 42.89400
H  7.97500 49.51200 40.81000
H  10.08800 51.16700 39.46700
H  11.27600 50.27000 41.00300
H  9.75800 49.75100 41.82300
H  10.41600 51.35200 42.21700
H  7.03600 49.19000 38.69900
H  8.56300 49.61200 38.07900
H  7.78900 51.91200 37.72200
H  6.15400 51.44100 38.25000
H  12.12300 56.72100 38.92100
H  12.04100 54.96700 38.96200
H  12.69600 55.78200 40.34800
H  9.16000 60.13100 40.62900
H  10.84500 60.69600 41.12700
H  9.91400 59.66900 42.22300
H  5.24900 59.21200 41.16200
H  3.51000 58.17200 43.52800
H  6.79500 59.64900 43.53000
H  5.00800 59.85300 43.90200
H  5.84600 60.73200 42.60400
H  2.34700 57.44400 40.96100
H  2.97100 59.15300 40.91700
H  0.53500 58.06800 42.09500
H  0.99000 59.72700 41.90200
H  1.48900 58.83100 43.36100
H  1.06400 53.82700 43.12200
H  1.37600 52.31100 44.03600
H  0.94700 52.18100 42.30900
H  5.54300 49.27000 42.01400
H  4.72800 46.30800 39.16000
H  5.22100 47.55100 38.20300
H  3.41500 47.62000 38.65300

