158

Mg 0.12100 7.67100 26.36300
C  0.83200 9.37700 29.21600
C  -0.12700 4.70000 28.11900
C  0.06000 5.95800 23.35400
C  0.87500 10.56700 24.44200
N  0.28300 7.08300 28.51200
C  0.40800 8.01600 29.49400
C  0.38900 7.32200 30.85200
C  -0.00900 5.82800 30.52700
C  0.05500 5.79100 28.97300
C  1.03600 4.72900 31.14400
C  -0.59400 8.15100 31.82500
C  -0.18400 8.43000 33.28300
H  0.85000 7.54100 33.90600
N  -0.10600 5.66100 25.78800
C  -0.18000 4.60300 26.69800
C  -0.46800 3.43900 25.95300
C  -0.40900 3.69400 24.53400
C  -0.22500 5.19300 24.49600
C  -0.76400 2.12100 26.66200
C  -0.64400 2.80100 23.31200
O  -0.78300 3.25600 22.20500
C  -0.79200 1.25500 23.52100
N  0.21700 8.23300 24.19700
C  0.23700 7.33900 23.22500
C  0.56600 7.92800 21.90500
C  0.35200 9.43300 22.18800
C  0.54900 9.47800 23.68900
C  1.99500 7.58100 21.48800
C  -1.04100 9.89500 21.86900
C  -1.09000 11.42600 21.94300
N  0.55900 9.61900 26.67700
C  0.90000 10.69500 25.83600
C  1.27800 11.87500 26.62100
C  1.31400 11.35200 27.96800
C  0.93900 9.97600 27.93900
C  1.66300 13.22600 26.10800
C  1.80100 11.72400 29.25900
O  2.36100 12.77600 29.62200
C  1.42700 10.54400 30.17500
C  2.59000 10.14700 30.99800
O  3.57400 9.46400 30.70700
O  2.45300 10.82700 32.20200
C  3.60100 10.85600 33.10000
H  -0.32300 3.73100 28.58300
H  0.20000 5.32200 22.47700
H  1.36200 11.34300 23.84800
H  1.41900 7.31700 31.21100
H  -0.97900 5.49800 30.89800
H  1.33300 4.10200 30.30300
H  0.50100 4.09400 31.85100
H  1.88000 5.18300 31.66300
H  -1.45500 7.48400 31.86100
H  -1.01700 9.05800 31.39300
H  -1.05800 8.27100 33.91400
H  0.07500 9.47900 33.43000
H  -1.38400 1.51000 26.00700
H  -1.38700 2.22400 27.55100
H  0.09700 1.52600 26.96700
H  -0.57600 0.77600 22.56600
H  -1.82700 0.97000 23.71000
H  -0.09800 0.81700 24.23900
H  -0.11800 7.61600 21.11700
H  1.11500 10.11300 21.80900
H  2.47100 6.74500 22.00100
H  2.74500 8.35100 21.66700
H  2.02200 7.53700 20.39900
H  -1.80500 9.70000 22.62200
H  -1.45400 9.41600 20.98100
H  -1.40300 11.78600 20.96300
H  -0.09900 11.87800 21.98800
H  -1.76700 11.79000 22.71700
H  0.91800 13.54600 25.37900
H  2.67000 13.13700 25.70000
H  1.60600 13.99700 26.87600
H  0.62400 10.75200 30.88100
H  3.25900 10.77200 34.13100
H  4.01900 11.86000 33.02300
H  4.45100 10.19700 32.92900
Mg 31.57400 59.02200 39.92600
C  29.05700 56.87500 38.82900
C  33.85700 56.88200 38.95200
C  33.78100 61.53900 40.36200
C  28.93400 61.51700 40.23100
N  31.48900 57.12800 38.85900
C  30.40200 56.36400 38.72700
C  30.74100 55.05000 38.13800
C  32.25500 54.89300 38.43100
C  32.58000 56.38000 38.77300
C  32.54000 53.95300 39.63100
C  30.29600 54.79000 36.63600
C  29.30100 53.64100 36.23600
H  28.22300 54.09800 35.29700
N  33.60200 59.21200 39.66400
C  34.35400 58.18600 39.22200
C  35.71300 58.64500 39.18100
C  35.72700 60.03900 39.52300
C  34.32700 60.34300 39.86700
C  36.88400 57.82500 38.75200
C  36.88600 60.99900 39.34300
O  37.95400 60.60200 38.81700
C  36.82700 62.46100 39.53900
N  31.38100 61.26300 40.20900
C  32.43000 62.00500 40.50500
C  32.11700 63.48900 40.80700
C  30.52900 63.40600 40.72200
C  30.29400 61.99900 40.27700
C  32.63700 63.88600 42.22500
C  29.80000 64.57400 39.91600
C  30.17900 66.10700 40.13400
N  29.36200 59.20100 39.64900
C  28.47300 60.24100 39.89000
C  27.17000 59.82900 39.60600
C  27.29800 58.47800 39.20100
C  28.64600 58.12500 39.23300
C  25.87700 60.56700 39.84500
C  26.57800 57.30000 38.77300
O  25.37400 57.12600 38.67900
C  27.68300 56.27300 38.40000
C  27.30100 55.01400 39.26700
O  27.65100 54.79100 40.37200
O  26.44000 54.32000 38.45300
C  25.87700 53.06800 38.89600
H  34.64800 56.16200 38.73400
H  34.51500 62.29900 40.63900
H  28.07900 62.18500 40.35300
H  30.18600 54.25900 38.64100
H  32.81000 54.58600 37.54500
H  31.93100 53.05000 39.60300
H  32.36100 54.42900 40.59500
H  33.59000 53.67800 39.52600
H  31.19500 54.71900 36.02500
H  29.87200 55.74400 36.32200
H  28.81500 53.20000 37.10600
H  29.69700 52.76600 35.72200
H  37.23900 58.06100 37.74900
H  36.78900 56.75100 38.59100
H  37.59200 58.03300 39.55500
H  35.88700 62.86900 39.16800
H  37.69400 62.96900 39.11600
H  36.82900 62.65300 40.61200
H  32.59800 64.17800 40.11200
H  30.13300 63.33900 41.73500
H  32.87400 63.01500 42.83600
H  31.92200 64.37700 42.88500
H  33.54600 64.46800 42.07600
H  28.72100 64.47900 40.03800
H  29.91800 64.27400 38.87500
H  29.26200 66.63600 40.39200
H  30.57500 66.59800 39.24500
H  30.92800 66.20400 40.92000
H  25.17400 60.25900 39.07200
H  26.02900 61.64600 39.80300
H  25.48300 60.42400 40.85100
H  27.61400 55.97500 37.35300
H  25.19500 53.37900 39.68800
H  26.65800 52.43100 39.30900
H  25.28700 52.61000 38.10200

