158

Mg 47.64500 34.94700 28.06300
C  45.95500 33.31500 30.64500
C  47.81500 37.75800 30.04700
C  48.69700 36.70500 25.42000
C  46.84800 32.24300 25.87500
N  46.95800 35.38700 30.06100
C  46.47400 34.48600 31.01600
C  46.43200 35.21700 32.42200
C  46.65300 36.68500 31.96100
C  47.17000 36.62600 30.56000
C  45.27100 37.48500 32.11000
C  47.53500 34.45800 33.38100
C  48.75400 35.18200 33.84700
H  48.52600 36.16400 35.05500
N  48.35600 36.85200 27.76000
C  48.31700 37.91200 28.68600
C  48.89900 39.14900 28.15300
C  49.16000 38.80200 26.73500
C  48.75800 37.42500 26.58100
C  48.89100 40.48900 28.84900
C  49.61100 39.77600 25.67700
O  49.54100 39.57200 24.47900
C  50.23300 41.11000 25.96000
N  47.91000 34.43200 26.00000
C  48.18100 35.40100 25.10900
C  48.14700 34.93900 23.62700
C  47.89900 33.40500 23.83600
C  47.44500 33.36900 25.30200
C  47.05200 35.64400 22.79600
C  49.14700 32.55800 23.54300
C  50.25600 32.38800 24.61400
N  46.57400 33.07200 28.17900
C  46.43300 32.10500 27.23000
C  45.61600 31.08000 27.87900
C  45.40500 31.49100 29.21000
C  45.97900 32.72200 29.36700
C  45.13600 29.83700 27.12400
C  44.84600 31.08700 30.48400
O  44.27400 30.10600 30.95000
C  44.99100 32.38800 31.33100
C  45.18900 32.11600 32.86900
O  46.15400 31.49400 33.32000
O  44.19100 32.65900 33.58200
C  44.28700 32.59700 35.05800
H  47.70800 38.60100 30.73300
H  49.11800 37.19900 24.54100
H  46.58100 31.45400 25.16900
H  45.50800 35.04200 32.97500
H  47.47200 37.11100 32.54100
H  44.76500 37.47300 33.07500
H  44.64400 37.21200 31.26100
H  45.52600 38.54000 32.00900
H  47.87600 33.62200 32.77000
H  47.01000 34.10700 34.27000
H  49.30200 35.76500 33.10800
H  49.52300 34.44900 34.08900
H  47.94900 40.98100 28.60300
H  49.77700 41.12200 28.80400
H  49.07100 40.28000 29.90300
H  49.44100 41.84100 26.12300
H  50.62500 41.43600 24.99600
H  51.03100 41.06400 26.70100
H  49.12300 35.29600 23.29700
H  47.07300 32.99200 23.25700
H  47.51300 35.96000 21.86000
H  46.72300 36.57400 23.26100
H  46.17500 35.00700 22.69100
H  49.55900 33.00000 22.63600
H  48.73000 31.60300 23.22300
H  49.99200 32.89800 25.54000
H  51.24300 32.71100 24.28300
H  50.46100 31.33300 24.80000
H  45.97300 29.14600 27.02300
H  44.85300 30.22300 26.14400
H  44.23300 29.37000 27.51700
H  44.00900 32.86200 31.32200
H  45.26800 32.89600 35.42500
H  44.02300 31.61200 35.44500
H  43.55200 33.25600 35.52000
Mg -2.82700 35.45600 26.55300
C  -4.53600 33.37100 28.82700
C  -1.41900 37.12900 29.10000
C  -1.44400 37.42100 24.26700
C  -4.70900 33.75800 23.98900
N  -3.11400 35.36700 28.60200
C  -3.70500 34.30600 29.39500
C  -3.43100 34.49400 30.86300
C  -2.55900 35.81900 30.92700
C  -2.34800 36.13400 29.40400
C  -3.15400 37.07500 31.72800
C  -2.68200 33.29200 31.50600
C  -3.47600 32.61500 32.69000
H  -2.69900 32.64700 33.97000
N  -1.43600 36.89300 26.69000
C  -0.89800 37.44400 27.84600
C  0.12500 38.45400 27.46100
C  0.10000 38.55400 26.02200
C  -0.96500 37.54500 25.58400
C  1.00000 39.11100 28.46700
C  0.96100 39.41900 25.07800
O  0.93000 39.43200 23.82300
C  1.98000 40.25700 25.76100
N  -3.24400 35.73900 24.53000
C  -2.46900 36.57800 23.77600
C  -2.87400 36.49600 22.28600
C  -3.75600 35.22700 22.19400
C  -4.02200 34.93800 23.66200
C  -3.50000 37.78300 21.71100
C  -3.01300 34.04600 21.34000
C  -1.86400 33.35600 22.12600
N  -4.44800 34.00700 26.36400
C  -5.05500 33.36600 25.27500
C  -5.94900 32.32200 25.76300
C  -5.76300 32.21500 27.10800
C  -4.89000 33.28100 27.41400
C  -6.85600 31.41900 24.90400
C  -6.19400 31.58600 28.30700
O  -6.98300 30.69300 28.49600
C  -5.35300 32.28800 29.43700
C  -6.42900 32.87600 30.34600
O  -7.24300 33.69100 30.02900
O  -6.42200 32.29500 31.59400
C  -7.42200 32.83100 32.55900
H  -0.97900 37.66000 29.94700
H  -0.90100 38.04000 23.55000
H  -5.25700 33.28400 23.17200
H  -4.40400 34.62400 31.33500
H  -1.56700 35.69700 31.36200
H  -2.87900 36.85100 32.75900
H  -4.21600 37.22600 31.53500
H  -2.56400 37.94800 31.44600
H  -1.71100 33.68100 31.80900
H  -2.62800 32.55500 30.70400
H  -3.66300 31.55200 32.53500
H  -4.43600 33.02800 33.00200
H  0.88200 38.74100 29.48500
H  0.84500 40.18900 28.51400
H  2.02100 38.87500 28.16600
H  2.48000 40.88000 25.01900
H  2.78800 39.72300 26.26000
H  1.41200 40.87200 26.46000
H  -1.89600 36.38000 21.81900
H  -4.66500 35.44800 21.63400
H  -4.54900 37.63900 21.45200
H  -3.00500 38.08700 20.78800
H  -3.37000 38.53400 22.49000
H  -2.60100 34.30500 20.36500
H  -3.78100 33.29600 21.15300
H  -2.20400 32.41600 22.56200
H  -1.60100 34.10000 22.87800
H  -0.97900 33.27600 21.49600
H  -7.20900 30.53300 25.43200
H  -6.19900 31.16300 24.07300
H  -7.65600 31.95000 24.38800
H  -4.77400 31.55500 29.99900
H  -7.92400 31.99500 33.04600
H  -8.23000 33.41400 32.11700
H  -6.96100 33.55200 33.23500

