158

Mg 7.27400 3.39800 27.14600
C  8.69100 1.79800 29.90500
C  5.59800 5.55200 29.30500
C  5.55700 4.51500 24.52300
C  8.53900 0.77300 25.07700
N  7.26100 3.68800 29.35600
C  7.87800 2.92300 30.24800
C  7.56100 3.38000 31.67000
C  6.52700 4.60600 31.57200
C  6.42600 4.61500 29.99100
C  5.25500 4.26300 32.31300
C  8.88600 3.82500 32.39100
C  8.73500 4.47400 33.75700
H  9.78100 4.23600 34.88900
N  5.89100 4.89100 26.95200
C  5.40600 5.71200 27.92300
C  4.47300 6.65400 27.30500
C  4.39500 6.31900 25.89800
C  5.32800 5.23600 25.72400
C  3.80500 7.72300 28.06200
C  3.42500 6.83600 24.79300
O  3.47200 6.37000 23.65300
C  2.45700 7.96300 25.12400
N  7.18800 2.77400 25.12800
C  6.34800 3.42400 24.22600
C  6.48500 2.84600 22.73000
C  7.55300 1.71900 22.97100
C  7.79800 1.76800 24.47100
C  5.08300 2.38100 22.15800
C  8.75800 1.93000 22.09300
C  9.24500 0.68700 21.34700
N  8.42100 1.64600 27.36900
C  8.91300 0.68400 26.44300
C  9.65300 -0.30800 27.16000
C  9.59100 0.13100 28.54700
C  8.81000 1.28200 28.56900
C  10.44000 -1.46100 26.54500
C  10.02900 -0.25100 29.82900
O  10.61600 -1.23700 30.24100
C  9.47100 0.85200 30.78300
C  8.55800 0.06400 31.65000
O  7.57900 -0.53300 31.33400
O  9.06100 0.10800 32.95000
C  8.35300 -0.54300 33.95900
H  5.09800 6.23000 30.00000
H  5.17700 4.86000 23.55900
H  9.12900 0.08100 24.47300
H  7.11600 2.54700 32.21500
H  6.98300 5.54000 31.90000
H  5.24400 3.24100 32.69200
H  4.39700 4.32600 31.64400
H  5.18100 4.93500 33.16800
H  9.28900 4.52300 31.65700
H  9.65400 3.05300 32.44500
H  7.74000 4.18900 34.09800
H  8.68600 5.54700 33.57100
H  3.89400 8.69200 27.57200
H  4.14600 7.96800 29.06800
H  2.76900 7.49600 28.31100
H  1.99100 8.35700 24.22100
H  3.01100 8.78900 25.57100
H  1.67700 7.73100 25.85000
H  6.95900 3.65000 22.16800
H  7.04700 0.85800 22.53400
H  4.39700 2.36800 23.00500
H  5.05500 1.44100 21.60700
H  4.63300 3.12500 21.49900
H  9.61300 2.15700 22.73000
H  8.73900 2.76700 21.39500
H  8.55600 -0.15800 21.35200
H  10.18100 0.30100 21.75200
H  9.43200 0.96400 20.31000
H  9.70300 -2.10500 26.06400
H  10.85600 -1.92100 27.44100
H  11.15000 -1.00300 25.85700
H  10.31400 1.28100 31.32500
H  7.62300 0.18600 34.31100
H  9.08900 -0.69200 34.75000
H  7.82100 -1.45300 33.68500
Mg 48.21800 24.84300 29.70600
C  49.32000 27.33200 31.96600
C  46.52800 23.23100 32.35300
C  47.70500 22.30800 27.64200
C  50.04100 26.52300 27.26800
N  48.16500 25.18000 31.92200
C  48.55700 26.33700 32.56500
C  48.14000 26.26600 34.03700
C  47.54500 24.83100 34.17000
C  47.34100 24.37200 32.75000
C  48.45200 23.81000 34.87200
C  47.15200 27.44200 34.44900
C  47.72800 28.36000 35.50600
H  46.87100 28.57300 36.73000
N  47.11800 23.05300 29.93600
C  46.50500 22.60700 31.05400
C  45.74600 21.40100 30.67300
C  46.09000 21.06300 29.32500
C  47.05800 22.15800 28.91100
C  44.99100 20.53000 31.70100
C  45.67500 19.90700 28.52900
O  46.14700 19.70200 27.43400
C  44.63800 19.10000 28.98300
N  48.96000 24.43000 27.79100
C  48.45000 23.32400 27.14300
C  48.82900 23.41700 25.63200
C  49.27300 24.93100 25.42700
C  49.43600 25.32400 26.88100
C  49.90400 22.34300 25.26800
C  48.20400 25.86600 24.88600
C  48.77700 27.04100 23.98000
N  49.31000 26.60400 29.53800
C  49.98000 27.11200 28.49900
C  50.71500 28.33400 28.86200
C  50.39700 28.50600 30.26600
C  49.54000 27.38900 30.57600
C  51.58300 29.12700 28.00500
C  50.72300 29.33900 31.44100
O  51.37500 30.36800 31.53100
C  50.04200 28.52500 32.63200
C  51.07100 28.22100 33.69500
O  51.89000 27.33700 33.63200
O  51.01700 29.10700 34.74100
C  51.99600 29.01300 35.82100
H  45.99200 22.74600 33.17100
H  47.40100 21.47700 27.00200
H  50.53200 27.07300 26.46200
H  49.05000 26.33300 34.63400
H  46.55400 24.79000 34.62200
H  48.65200 22.97600 34.19900
H  47.88200 23.26800 35.62700
H  49.40700 24.19500 35.23000
H  46.24300 26.91800 34.74300
H  46.93400 27.99200 33.53300
H  47.88900 29.35500 35.09100
H  48.75300 28.18000 35.83200
H  45.23600 20.74900 32.74000
H  45.31900 19.49100 31.73700
H  43.91400 20.52800 31.53100
H  43.80500 19.75500 29.23900
H  45.03800 18.60900 29.87000
H  44.30200 18.40000 28.21700
H  47.95800 23.23900 25.00000
H  50.21000 25.10600 24.89800
H  49.42300 21.36500 25.26500
H  50.59100 22.00500 26.04400
H  50.36900 22.41200 24.28500
H  47.73700 26.43000 25.69400
H  47.51600 25.25100 24.30500
H  49.58400 26.58900 23.40200
H  49.12500 27.83100 24.64600
H  47.96300 27.30900 23.30700
H  51.29000 28.97700 26.96600
H  52.62500 28.87700 28.20200
H  51.38700 30.14900 28.32900
H  49.39800 29.28700 33.07000
H  52.01000 29.98300 36.31800
H  52.98800 28.76900 35.43900
H  51.58300 28.28800 36.52200

