158

Mg 48.48300 34.77000 26.53500
C  46.60400 33.58300 29.19400
C  48.96500 37.62900 28.28500
C  50.17200 36.04300 23.84900
C  47.84300 31.88300 24.75500
N  47.92300 35.39700 28.56200
C  47.14100 34.82900 29.48700
C  46.86200 35.72900 30.74500
C  47.47500 37.10200 30.28800
C  48.19300 36.70500 28.98200
C  46.55200 38.30200 30.02800
C  47.35000 35.07900 32.05400
C  47.89300 35.89800 33.25900
H  47.01300 36.37800 34.36600
N  49.51800 36.58400 26.13300
C  49.60500 37.60000 27.03900
C  50.52200 38.59000 26.52200
C  50.98200 38.08100 25.24000
C  50.24100 36.87100 25.05900
C  50.91600 39.81100 27.29300
C  51.93600 38.62000 24.34500
O  52.32000 38.01600 23.33600
C  52.70900 39.97800 24.64600
N  48.78500 34.14700 24.56400
C  49.50200 34.89000 23.62400
C  50.02400 33.99500 22.45800
C  49.36200 32.58800 22.81500
C  48.60600 32.86600 24.12200
C  49.70600 34.58000 21.09800
C  50.41900 31.43800 22.95300
C  50.34500 30.29100 21.90900
N  47.46500 33.04500 26.88000
C  47.22900 31.92600 26.05100
C  46.43300 30.92500 26.87500
C  46.13200 31.60000 28.08200
C  46.78900 32.83200 28.04900
C  46.06200 29.60500 26.35700
C  45.39100 31.47800 29.32900
O  44.69700 30.57300 29.78900
C  45.54900 32.90800 30.04000
C  45.85000 32.46200 31.44800
O  46.78500 31.67000 31.67200
O  44.87900 32.87700 32.33900
C  44.83600 31.95800 33.53300
H  49.00100 38.58800 28.80800
H  50.82300 36.34100 23.02400
H  47.89500 30.91900 24.24500
H  45.78900 35.89900 30.82800
H  48.14400 37.50000 31.05100
H  45.61700 38.29300 30.58800
H  46.31200 38.28800 28.96500
H  47.09600 39.24300 30.11600
H  47.99700 34.21400 31.91000
H  46.49600 34.69500 32.61100
H  48.33500 36.85700 32.99100
H  48.76500 35.37500 33.65200
H  51.99200 39.80200 27.46700
H  50.36000 40.02200 28.20700
H  50.78800 40.72200 26.70900
H  51.90800 40.71400 24.71800
H  53.36100 40.18600 23.79700
H  53.34500 39.87200 25.52500
H  51.08300 33.80500 22.63200
H  48.51400 32.42400 22.15000
H  49.40100 33.71300 20.51200
H  50.49800 35.08600 20.54800
H  48.79500 35.17800 21.07100
H  50.31400 31.19600 24.01100
H  51.44300 31.81200 22.96300
H  51.15400 30.34400 21.18100
H  49.40200 30.30300 21.36300
H  50.40900 29.30800 22.37500
H  45.77800 29.68200 25.30700
H  45.24900 29.08000 26.85700
H  47.00100 29.05300 26.41300
H  44.64700 33.50000 30.19800
H  45.47500 32.41600 34.28900
H  45.10400 30.96300 33.17800
H  43.83200 31.93700 33.95600
Mg 0.39500 44.07100 25.86300
C  1.94600 44.27600 28.89600
C  -2.52300 43.13100 27.47300
C  -1.02900 43.33600 22.80000
C  3.41200 44.67800 24.24100
N  -0.16600 43.67600 27.87300
C  0.62500 43.86600 28.97200
C  -0.21900 43.82000 30.28700
C  -1.58400 43.15000 29.81700
C  -1.42800 43.34500 28.27600
C  -1.83500 41.67200 30.30500
C  -0.38200 45.22700 31.06500
C  -0.01100 45.30700 32.55900
H  0.02800 44.04000 33.41800
N  -1.57300 43.52200 25.25000
C  -2.57500 43.23100 26.04500
C  -3.71700 43.03900 25.20300
C  -3.29900 43.14800 23.83400
C  -1.91400 43.28400 23.93300
C  -5.05800 42.60700 25.73800
C  -4.06400 42.98500 22.50900
O  -3.55100 42.95900 21.39500
C  -5.57300 42.82200 22.56600
N  1.04500 44.08100 23.87300
C  0.28600 43.71300 22.80300
C  1.17500 43.62400 21.56100
C  2.45200 44.43500 21.89900
C  2.31700 44.35800 23.43300
C  1.34300 42.10600 21.08900
C  2.58300 45.82200 21.17800
C  3.81000 46.10100 20.20300
N  2.30500 44.36000 26.41200
C  3.40100 44.65400 25.69800
C  4.49800 44.85300 26.56700
C  4.02200 44.63100 27.87800
C  2.69500 44.44500 27.73400
C  5.96700 45.13900 26.11500
C  4.34400 44.62600 29.31400
O  5.38400 44.78800 29.93400
C  2.97500 44.37000 30.04400
C  3.20700 43.11000 30.82800
O  3.09700 42.01800 30.29300
O  3.71400 43.41300 32.06800
C  4.19600 42.24800 32.85600
H  -3.44700 42.77900 27.93700
H  -1.34100 43.10100 21.78000
H  4.42000 44.73200 23.82500
H  0.25200 43.10400 30.96000
H  -2.45200 43.72400 30.13900
H  -1.00600 41.45500 30.97900
H  -1.83100 41.01200 29.43800
H  -2.82500 41.69900 30.75900
H  -1.36100 45.66800 30.87800
H  0.27900 45.93700 30.56700
H  -0.76100 45.86700 33.11800
H  0.89500 45.90900 32.63200
H  -4.96100 42.19500 26.74200
H  -5.65000 41.94300 25.10700
H  -5.63000 43.48400 26.04200
H  -6.10300 43.28400 23.39900
H  -5.64100 41.75000 22.74800
H  -6.06600 42.99500 21.60900
H  0.65200 44.12400 20.74600
H  3.33300 43.82700 21.69300
H  2.39600 41.92500 20.87400
H  0.69900 41.79400 20.26700
H  1.15800 41.43300 21.92700
H  2.71300 46.52300 22.00400
H  1.72000 45.92000 20.52000
H  4.59000 46.60000 20.77800
H  3.58000 46.63300 19.28000
H  4.10600 45.12900 19.80900
H  5.93200 45.90500 25.34100
H  6.21600 44.15700 25.71300
H  6.63300 45.34700 26.95300
H  2.86000 45.28100 30.63100
H  5.24800 41.96900 32.79400
H  3.70600 41.31100 32.59100
H  3.91900 42.36900 33.90300

