158

Mg 9.55100 4.07900 27.35900
C  10.36200 2.47000 30.31300
C  7.75500 6.32400 29.07300
C  8.23700 5.25500 24.39900
C  10.63700 1.22000 25.54500
N  8.95400 4.24900 29.50300
C  9.63700 3.59100 30.51000
C  9.40700 4.27900 31.82900
C  8.29900 5.35500 31.49200
C  8.35200 5.36700 29.88800
C  6.91200 5.18600 32.05500
C  10.79000 4.86500 32.58900
C  10.80200 4.59900 34.08800
H  12.15700 4.59700 34.83600
N  8.30300 5.65700 26.76600
C  7.69100 6.51500 27.64700
C  6.99900 7.61700 26.92900
C  7.18200 7.25200 25.51500
C  7.95000 5.97300 25.53100
C  6.20300 8.73500 27.63400
C  6.72900 8.02300 24.26700
O  6.98900 7.69200 23.07400
C  5.86800 9.15500 24.40400
N  9.62400 3.45200 25.17600
C  8.94500 4.08900 24.20800
C  9.04100 3.35300 22.83900
C  10.01300 2.16100 23.21900
C  10.03500 2.23900 24.74600
C  7.64800 2.86200 22.37100
C  11.40500 2.02500 22.46400
C  11.25000 1.10300 21.21800
N  10.54600 2.32200 27.75600
C  10.95300 1.24800 26.92500
C  11.56200 0.25600 27.71900
C  11.33000 0.65500 29.04400
C  10.69500 1.92000 29.00800
C  12.33300 -0.95400 27.33400
C  11.64100 0.27000 30.42000
O  12.20700 -0.68000 30.92600
C  11.02800 1.49800 31.32100
C  10.04700 0.85400 32.21900
O  9.00600 0.29200 31.91100
O  10.62100 0.74200 33.52200
C  9.83600 0.04700 34.56300
H  7.20800 7.04300 29.68700
H  7.79700 5.70300 23.50600
H  10.75000 0.19700 25.18100
H  8.91000 3.54400 32.46200
H  8.62200 6.29600 31.93600
H  6.17000 5.37500 31.27900
H  6.63400 6.01700 32.70300
H  6.86900 4.23900 32.59300
H  10.75700 5.95000 32.49200
H  11.70000 4.54400 32.08200
H  10.19900 3.74800 34.40300
H  10.34800 5.46700 34.56600
H  6.81200 9.59900 27.90100
H  5.66300 8.22800 28.43400
H  5.37700 9.18100 27.08100
H  6.34700 10.05000 24.80300
H  4.99700 8.93000 25.02000
H  5.42000 9.48200 23.46600
H  9.36000 4.06500 22.07800
H  9.42900 1.25400 23.06300
H  7.21800 3.40100 21.52700
H  6.95000 2.98500 23.19900
H  7.75200 1.84100 22.00300
H  12.22200 1.74200 23.12800
H  11.73400 2.96700 22.02400
H  12.22200 0.66500 20.98700
H  10.84300 1.67500 20.38500
H  10.52200 0.31400 21.40500
H  13.01700 -0.71900 26.51800
H  11.72800 -1.82300 27.07400
H  13.05500 -1.32800 28.06000
H  11.71100 1.98900 32.01400
H  9.37000 -0.85500 34.16700
H  8.90300 0.54800 34.82300
H  10.51100 -0.03900 35.41400
Mg 48.96900 13.94000 27.96500
C  47.21500 14.44400 30.94100
C  51.57300 15.66100 29.19300
C  50.64200 13.47000 25.00900
C  46.24500 12.03800 26.71200
N  49.33300 14.99900 29.82100
C  48.48500 15.07800 30.90300
C  49.17700 15.52000 32.17700
C  50.40500 16.27600 31.43400
C  50.45800 15.63500 30.03500
C  50.28800 17.82800 31.34000
C  49.56200 14.34400 33.11700
C  49.13600 14.60900 34.62100
H  49.10100 16.09200 35.19000
N  50.84200 14.47600 27.18500
C  51.79200 15.14100 27.86000
C  52.90900 15.42500 27.04500
C  52.74800 14.55000 25.94600
C  51.39600 14.08200 26.02300
C  54.06100 16.40000 27.35300
C  53.81100 14.09600 24.89900
O  53.51900 13.33800 23.95700
C  55.27300 14.44800 24.98500
N  48.52400 12.97800 26.03300
C  49.35600 12.93500 24.92100
C  48.77300 12.09200 23.78800
C  47.43100 11.59500 24.42400
C  47.38000 12.28700 25.83700
C  48.66400 12.63900 22.40600
C  47.32300 10.02300 24.52900
C  48.27400 9.32300 25.55400
N  47.07500 13.45500 28.63100
C  46.07900 12.69100 28.03800
C  44.95900 12.54800 28.95300
C  45.33000 13.24600 30.09000
C  46.68200 13.74800 29.82500
C  43.77900 11.68900 28.77400
C  44.82800 13.53000 31.43000
O  43.76700 13.31500 31.99000
C  46.06600 14.38300 31.99700
C  45.38500 15.62900 32.33000
O  44.44900 16.14700 31.70900
O  45.94800 16.19200 33.44200
C  45.60400 17.52900 33.75400
H  52.44200 16.22300 29.54000
H  51.22900 13.37200 24.09400
H  45.41100 11.51700 26.23800
H  48.43700 16.23100 32.54400
H  51.32800 15.97200 31.92700
H  51.20000 18.18700 31.81700
H  49.43900 18.13200 31.95100
H  50.22700 18.23800 30.33100
H  50.62600 14.13000 33.21500
H  49.05300 13.41500 32.86200
H  49.80300 13.97800 35.20900
H  48.12200 14.28300 34.85600
H  54.90100 15.94600 27.87900
H  53.68300 17.33900 27.75700
H  54.55900 16.79300 26.46600
H  55.32300 15.53700 24.97000
H  55.69100 13.89900 24.14100
H  55.45300 13.97700 25.95100
H  49.41000 11.20800 23.75100
H  46.49900 11.92200 23.96200
H  49.23500 11.94400 21.79000
H  49.12300 13.62400 22.48900
H  47.64300 12.63600 22.02500
H  47.71200 9.65800 23.57900
H  46.28400 9.76700 24.73800
H  47.65100 8.80500 26.28300
H  48.87200 10.06300 26.08700
H  48.88200 8.69400 24.90300
H  43.13100 11.72400 29.65000
H  44.21600 10.70900 28.58500
H  43.20700 12.04600 27.91800
H  46.47100 13.92300 32.89800
H  44.52600 17.68200 33.71100
H  46.01700 18.21500 33.01400
H  46.00600 17.70900 34.75100

