158

Mg 24.42700 -4.93000 45.89500
C  26.88500 -2.62900 44.57600
C  22.34300 -3.86200 43.37800
C  22.45300 -7.59300 46.48300
C  27.07300 -6.26800 47.76900
N  24.73300 -3.55300 44.04600
C  25.75200 -2.68400 43.83000
C  25.45400 -1.87700 42.55900
C  23.96000 -2.00100 42.45300
C  23.63900 -3.21000 43.34300
C  23.14200 -0.81400 42.93400
C  26.15200 -2.41500 41.26700
C  26.44300 -1.31600 40.14800
H  25.80100 -1.48700 38.84400
N  22.56300 -5.51200 45.28100
C  21.88300 -4.89900 44.20200
C  20.58800 -5.48700 44.13400
C  20.58000 -6.71500 44.82900
C  21.85400 -6.61200 45.65000
C  19.43100 -4.90600 43.27100
C  19.57600 -7.82100 44.71300
O  18.56900 -7.67700 44.06900
C  19.75600 -9.22200 45.36200
N  24.82700 -6.77300 46.76100
C  23.76100 -7.66400 47.03700
C  24.25600 -8.94200 47.75500
C  25.66300 -8.37100 48.24300
C  25.89800 -6.99600 47.60000
C  23.25300 -9.48200 48.85000
C  26.77300 -9.42900 48.17100
C  27.94700 -9.32700 47.29000
N  26.56400 -4.52200 46.20600
C  27.50900 -5.21400 46.94700
C  28.82600 -4.58800 46.82400
C  28.56700 -3.48300 45.99600
C  27.21500 -3.58700 45.52100
C  30.04100 -5.00300 47.59400
C  29.14400 -2.39700 45.32200
O  30.29900 -2.04400 45.44600
C  28.14600 -1.91700 44.22900
C  28.16600 -0.44100 44.25200
O  27.46700 0.32800 44.86100
O  29.16600 -0.08900 43.38700
C  29.42300 1.34900 43.24200
H  21.55700 -3.57900 42.67400
H  21.85000 -8.47200 46.71700
H  27.77200 -6.57800 48.54900
H  25.77400 -0.84600 42.71000
H  23.66800 -2.21500 41.42500
H  22.43600 -0.27300 42.30400
H  23.70800 -0.02900 43.43600
H  22.55100 -1.16600 43.78000
H  25.61200 -3.31100 40.96400
H  27.13400 -2.78800 41.56000
H  27.53000 -1.31700 40.06600
H  26.04700 -0.36900 40.51400
H  18.44100 -5.24400 43.57800
H  19.54400 -5.25000 42.24300
H  19.45600 -3.81700 43.28300
H  19.79200 -9.01500 46.43100
H  20.65900 -9.61800 44.89800
H  18.91500 -9.85600 45.08300
H  24.51600 -9.64400 46.96200
H  25.46500 -8.23100 49.30500
H  22.25900 -9.05000 48.96000
H  23.74100 -9.36400 49.81700
H  23.03500 -10.53600 48.68000
H  26.35100 -10.39100 47.88000
H  27.26100 -9.59100 49.13200
H  27.63600 -8.91500 46.33000
H  28.43500 -10.28500 47.11400
H  28.67000 -8.65900 47.75900
H  30.69100 -5.25600 46.75600
H  29.83900 -5.88300 48.20500
H  30.32800 -4.11700 48.16000
H  28.50800 -2.21500 43.24500
H  29.03500 1.62100 42.26000
H  30.51000 1.41400 43.30100
H  29.05800 1.96400 44.06400
Mg 30.38900 57.96900 40.09300
C  27.67800 55.78200 39.29400
C  32.57600 55.39800 38.96900
C  32.93900 60.07500 40.22000
C  28.08300 60.39100 40.66700
N  30.13700 55.88600 39.13300
C  28.95400 55.20700 39.00700
C  29.23300 53.81700 38.48000
C  30.80800 53.72000 38.54100
C  31.19500 55.09700 38.94500
C  31.39800 52.66700 39.53900
C  28.69400 53.51900 37.05800
C  28.92200 54.56500 35.92000
H  27.71700 54.82600 34.93200
N  32.47000 57.67000 39.76800
C  33.12800 56.62700 39.28500
C  34.53200 56.95800 39.10500
C  34.69100 58.26000 39.62900
C  33.29700 58.73700 39.88800
C  35.62100 56.01400 38.63700
C  36.06300 59.00700 39.89400
O  37.13800 58.41000 39.91400
C  36.01000 60.50900 40.30500
N  30.47800 60.02400 40.35100
C  31.66200 60.73500 40.32300
C  31.40500 62.28800 40.48500
C  29.91900 62.34800 40.76100
C  29.42100 60.84000 40.56900
C  32.22500 62.90600 41.67800
C  29.15400 63.42900 39.97000
C  28.75500 64.64000 40.76300
N  28.28200 58.09500 40.17900
C  27.49700 59.14600 40.49100
C  26.09000 58.84900 40.35300
C  26.10800 57.50400 39.87800
C  27.47400 57.11000 39.80500
C  24.89900 59.79000 40.54000
C  25.29600 56.39600 39.38700
O  24.07700 56.33100 39.23900
C  26.22000 55.21400 39.09100
C  26.00800 54.08600 40.08000
O  26.76900 53.66900 40.87100
O  24.71400 53.60200 39.86500
C  24.33700 52.51700 40.79600
H  33.23800 54.58500 38.66400
H  33.65400 60.88200 40.39700
H  27.36900 61.20100 40.83200
H  28.88800 53.14300 39.26500
H  31.36200 53.61200 37.60800
H  32.03900 51.91200 39.08300
H  30.62400 52.03300 39.97300
H  31.86500 53.22400 40.35200
H  27.64100 53.23600 37.09300
H  29.25300 52.69700 36.61000
H  29.79800 54.19800 35.38500
H  29.20400 55.54300 36.30800
H  36.44200 56.46500 38.07900
H  35.34600 55.26600 37.89400
H  35.98200 55.42400 39.47900
H  35.46200 61.12700 39.59400
H  37.00000 60.87600 40.57300
H  35.44700 60.48500 41.23800
H  31.59400 62.80500 39.54400
H  29.69800 62.44700 41.82400
H  32.85500 63.69300 41.26400
H  32.80900 62.16900 42.22900
H  31.53500 63.35800 42.39100
H  28.25000 63.11000 39.45300
H  29.69200 63.69800 39.06100
H  29.55600 65.35300 40.95800
H  28.50100 64.23900 41.74400
H  27.95400 65.26500 40.36900
H  24.45000 59.96900 39.56400
H  25.24700 60.68700 41.05300
H  24.15200 59.28700 41.15400
H  26.07100 54.83700 38.07900
H  23.26000 52.35000 40.79300
H  24.60300 52.82700 41.80700
H  24.89300 51.63500 40.48000

