158

Mg 47.30600 24.77700 28.43100
C  48.27400 26.99400 30.98300
C  46.71400 22.41100 30.78200
C  47.15700 22.47500 25.91800
C  48.40900 27.21700 26.08800
N  47.73300 24.66300 30.62700
C  47.93800 25.70200 31.47700
C  47.72300 25.31100 32.91600
C  47.50200 23.75300 32.80500
C  47.24600 23.59300 31.31300
C  48.66400 22.91000 33.31600
C  46.58200 26.07200 33.70600
C  46.66900 26.00700 35.21900
H  45.40800 26.25200 36.08100
N  46.77300 22.82600 28.33500
C  46.62500 21.97000 29.45700
C  46.44700 20.60100 29.05600
C  46.54200 20.65700 27.63400
C  46.90800 22.03800 27.21800
C  46.03800 19.49900 30.03600
C  46.45300 19.49100 26.68900
O  46.60000 19.70800 25.44900
C  46.15400 18.07200 27.14900
N  47.76200 24.85400 26.29300
C  47.39500 23.79700 25.47500
C  47.53700 24.16300 23.97500
C  47.79000 25.64700 24.02900
C  47.98800 25.98700 25.53900
C  48.54000 23.24500 23.14400
C  46.65700 26.54500 23.38100
C  45.55300 27.00400 24.33500
N  48.31900 26.69700 28.50300
C  48.59500 27.63100 27.45600
C  49.02600 28.84100 27.99100
C  48.90500 28.65100 29.37700
C  48.46000 27.32000 29.60600
C  49.58000 29.99300 27.28700
C  49.13800 29.31900 30.67200
O  49.71800 30.33200 31.02400
C  48.60500 28.23700 31.74000
C  49.73600 27.95800 32.70900
O  50.81300 27.48000 32.54400
O  49.21000 28.35400 33.92900
C  50.10600 28.68000 34.99600
H  46.46000 21.70900 31.57900
H  46.99800 21.81500 25.06300
H  48.50300 27.96200 25.29500
H  48.71900 25.56300 33.27900
H  46.54800 23.56400 33.29800
H  49.37500 23.45800 33.93600
H  49.22700 22.51600 32.47100
H  48.23400 22.16300 33.98300
H  45.64200 25.64500 33.35500
H  46.40400 27.11400 33.44100
H  47.44000 26.68100 35.59200
H  47.00700 24.99900 35.46200
H  45.23900 19.00000 29.48900
H  45.65100 19.88300 30.98000
H  46.81300 18.73300 30.05900
H  46.23200 17.39400 26.29900
H  45.14700 18.03000 27.56200
H  46.88000 17.71200 27.87800
H  46.61600 23.92800 23.44200
H  48.67700 25.93500 23.46600
H  49.15300 22.79400 23.92400
H  49.17700 23.81900 22.47100
H  47.97800 22.47100 22.62100
H  46.10500 26.03900 22.58900
H  47.17800 27.40400 22.95800
H  45.76000 28.02200 24.66600
H  45.57700 26.22900 25.10200
H  44.64200 26.89900 23.74500
H  49.38300 29.91100 26.21800
H  50.63000 30.05400 27.57000
H  49.22200 30.95400 27.65600
H  47.70600 28.61500 32.22600
H  51.12200 28.87800 34.65700
H  50.20300 27.76500 35.58100
H  49.75900 29.53800 35.57200
Mg 35.99500 49.02500 24.91200
C  36.21200 47.53400 28.07700
C  34.63800 51.85300 26.25000
C  35.47900 50.06900 21.77700
C  36.94100 45.93300 23.49000
N  35.59500 49.57200 26.92700
C  35.77200 48.82300 28.11100
C  35.40200 49.66100 29.30200
C  34.75200 50.97500 28.69800
C  35.01200 50.81500 27.18200
C  33.31200 51.35300 29.01500
C  36.63600 49.87400 30.20200
C  36.39700 49.75700 31.74600
H  35.50800 50.80400 32.42500
N  35.14400 50.71900 24.08600
C  34.68000 51.80300 24.83400
C  34.24100 52.85700 23.91400
C  34.34900 52.27800 22.58000
C  35.03000 50.93600 22.76000
C  33.74700 54.18500 24.35000
C  33.94200 52.82800 21.24800
O  34.09200 52.26400 20.15900
C  33.25600 54.14200 21.25200
N  36.38300 48.20100 22.90000
C  36.05900 48.83500 21.74700
C  36.39300 47.97200 20.49700
C  37.00900 46.71600 21.15700
C  36.79500 46.94200 22.63600
C  35.14500 47.73100 19.58100
C  38.53600 46.54800 20.77200
C  39.58400 47.60400 21.10700
N  36.45200 47.13600 25.57900
C  36.79400 46.00600 24.91300
C  37.01700 44.86800 25.85600
C  36.74100 45.41700 27.06300
C  36.50200 46.77900 26.86600
C  37.56900 43.48600 25.53000
C  36.56100 45.11700 28.41900
O  36.68700 44.07800 29.02300
C  36.28400 46.50300 29.18200
C  34.98900 46.28900 29.74100
O  33.92500 46.24700 29.12100
O  35.09000 45.99200 31.13200
C  33.84100 45.69700 31.84300
H  34.26300 52.74400 26.75800
H  35.33300 50.50900 20.78900
H  37.19000 44.93500 23.12200
H  34.64600 49.16600 29.91200
H  35.39600 51.79900 29.00300
H  33.23900 52.35000 29.44900
H  32.94000 50.63800 29.74800
H  32.72400 51.37200 28.09800
H  37.00700 50.88200 30.01800
H  37.47400 49.22100 29.95800
H  37.30000 49.56000 32.32500
H  35.74000 48.88800 31.77700
H  33.92000 54.32300 25.41700
H  32.72300 54.23900 23.97900
H  34.30300 55.02200 23.92700
H  33.94700 54.89600 21.62800
H  32.34000 54.09600 21.84000
H  32.96700 54.29100 20.21100
H  37.06300 48.61100 19.92300
H  36.30700 45.90600 20.95700
H  34.97000 48.69300 19.09900
H  34.24400 47.58700 20.17700
H  35.27000 46.97100 18.80900
H  38.55000 46.54500 19.68200
H  38.92800 45.60600 21.15600
H  39.09800 48.29400 21.79800
H  39.88700 48.19300 20.24100
H  40.44500 47.24300 21.66900
H  37.98300 43.41800 24.52400
H  36.81500 42.72100 25.71600
H  38.45700 43.30900 26.13700
H  37.00300 46.74300 29.96500
H  32.95500 46.17600 31.42500
H  33.90000 45.93300 32.90600
H  33.69300 44.62200 31.74400

