158

Mg 35.81700 1.10000 29.63000
C  33.91700 3.04600 31.96900
C  38.38500 1.25400 31.83600
C  37.71500 -0.20800 27.20000
C  33.23600 1.54800 27.31700
N  36.09400 2.07300 31.65100
C  35.11000 2.64100 32.50100
C  35.61200 2.71800 33.92600
C  37.10600 2.33100 33.79400
C  37.16800 1.72300 32.37400
C  38.09900 3.46900 33.91100
C  34.64300 1.76800 34.74600
C  34.22800 2.12200 36.17900
H  34.68300 3.45300 36.91500
N  37.79600 0.51000 29.54900
C  38.67800 0.80800 30.55100
C  39.97600 0.33600 30.17400
C  39.86700 -0.07500 28.80000
C  38.43200 0.03700 28.42400
C  41.28100 0.49200 30.97400
C  41.00400 -0.45700 27.80500
O  40.66700 -0.72400 26.67700
C  42.48400 -0.58400 28.20600
N  35.55000 0.77800 27.58900
C  36.45900 0.13300 26.78200
C  35.98100 -0.00700 25.30800
C  34.47800 0.24400 25.56100
C  34.42100 0.91900 26.89900
C  36.60900 1.08300 24.38300
C  33.57700 -1.02100 25.46900
C  32.65800 -1.03000 24.23500
N  33.92400 2.04600 29.59600
C  32.99200 2.16100 28.59200
C  31.77200 2.75900 29.13500
C  32.12000 3.16200 30.40800
C  33.42100 2.70000 30.68700
C  30.43700 3.03000 28.41400
C  31.65000 3.94700 31.52500
O  30.53500 4.46200 31.65500
C  32.71900 3.76100 32.64800
C  33.13300 5.05400 33.18800
O  33.78000 5.88700 32.58900
O  32.51300 5.19400 34.34200
C  32.77100 6.52500 34.95000
H  39.14800 1.16300 32.61100
H  38.31900 -0.44200 26.32000
H  32.40800 1.49800 26.60700
H  35.52300 3.71900 34.34700
H  37.35300 1.54800 34.51100
H  37.69000 4.30100 34.48400
H  38.55400 3.65800 32.93900
H  38.91400 3.09100 34.52800
H  35.19000 0.83100 34.85300
H  33.75800 1.50600 34.16500
H  34.51800 1.29200 36.82500
H  33.13900 2.08200 36.15900
H  41.04900 0.82700 31.98500
H  41.71000 1.35300 30.46100
H  41.97300 -0.35000 30.97800
H  42.98400 -1.14300 27.41500
H  42.55800 -1.12600 29.14900
H  42.94300 0.40000 28.29400
H  36.25100 -0.98600 24.91300
H  34.24800 1.01700 24.82800
H  37.65800 0.83700 24.21800
H  36.58900 1.96900 25.01800
H  36.14000 1.24600 23.41300
H  32.85500 -1.09200 26.28300
H  34.15600 -1.93800 25.57200
H  32.52600 0.02100 23.97900
H  31.67900 -1.45000 24.46500
H  33.12700 -1.56200 23.40700
H  30.57100 3.80900 27.66300
H  29.68100 3.25500 29.16600
H  30.19500 2.03400 28.04400
H  32.25200 3.19100 33.45200
H  31.95200 7.20800 34.72300
H  33.69700 7.09500 34.87700
H  32.65200 6.40000 36.02700
Mg 40.69400 8.42000 28.90900
C  42.41200 9.79400 31.57600
C  38.75000 6.80500 31.06900
C  38.87500 7.53300 26.22300
C  43.21200 9.79400 26.78200
N  40.64300 8.17200 31.16100
C  41.37300 8.99500 31.94800
C  40.84000 8.78800 33.44500
C  39.75000 7.62900 33.30100
C  39.70000 7.48400 31.74300
C  39.90800 6.36100 34.07800
C  40.33400 10.17700 34.05400
C  40.43600 10.23300 35.59900
H  40.71600 11.54600 36.34100
N  39.14800 7.20600 28.69600
C  38.39800 6.68500 29.70900
C  37.23800 6.03400 29.16800
C  37.19200 6.34200 27.74800
C  38.43300 7.03300 27.46200
C  36.35700 5.18200 29.98900
C  36.12600 5.98000 26.77200
O  36.25000 6.30200 25.62100
C  34.80900 5.37400 27.18800
N  41.05800 8.47500 26.80400
C  40.10400 8.15200 25.90200
C  40.36400 8.63300 24.44200
C  41.84800 9.03400 24.65400
C  42.08200 9.15300 26.18600
C  40.20100 7.55500 23.36400
C  42.37800 10.18000 23.75800
C  41.71500 11.49500 24.14000
N  42.46600 9.43800 29.08500
C  43.30800 10.00300 28.13000
C  44.42300 10.56700 28.85200
C  44.13000 10.58700 30.16500
C  42.88900 9.91400 30.26300
C  45.49200 11.24200 28.26100
C  44.57400 11.09400 31.50700
O  45.58100 11.64000 31.85600
C  43.35700 10.69200 32.42200
C  43.95800 9.94700 33.61400
O  44.33700 8.78000 33.65600
O  43.98900 10.79000 34.76300
C  44.56500 10.27200 36.01200
H  38.11800 6.29800 31.80200
H  38.16200 7.44500 25.40100
H  44.02700 10.16500 26.15700
H  41.71200 8.35800 33.93800
H  38.72700 7.96200 33.47500
H  39.00200 6.22200 34.66900
H  40.64900 6.52500 34.85900
H  40.16300 5.51600 33.43800
H  39.26600 10.37600 34.14500
H  40.67400 11.07300 33.53400
H  41.12100 9.44300 35.90700
H  39.49100 9.94400 36.06000
H  35.81100 4.47100 29.36900
H  35.53600 5.72700 30.45300
H  36.87000 4.58100 30.74000
H  34.10500 5.49700 26.36500
H  34.53200 5.83800 28.13500
H  34.98900 4.31400 27.36600
H  39.72700 9.44600 24.09300
H  42.51800 8.20000 24.44700
H  40.93800 7.63900 22.56500
H  39.29600 7.55600 22.75700
H  40.19600 6.57000 23.83100
H  42.46100 9.91900 22.70300
H  43.44400 10.23300 23.97600
H  41.18300 11.84700 23.25700
H  42.41100 12.25600 24.49400
H  41.00100 11.45200 24.96300
H  45.22800 11.98000 27.50300
H  46.18000 10.45600 27.95200
H  45.99600 11.83400 29.02600
H  42.89200 11.62500 32.73900
H  43.69800 9.97600 36.60200
H  45.06800 11.03700 36.60300
H  45.28000 9.45100 35.96800

