158

Mg 26.20300 0.89700 28.98800
C  28.28600 0.74900 31.98600
C  23.48700 0.70200 31.24600
C  24.34600 0.93300 26.44300
C  29.02600 0.26900 27.11500
N  26.01900 0.80100 31.34900
C  26.93700 0.90900 32.31000
C  26.38100 0.98300 33.74700
C  24.81600 0.87700 33.48300
C  24.72000 0.91300 31.94800
C  24.04400 -0.32300 34.24200
C  26.83000 2.16300 34.60000
C  27.38400 1.93300 35.97100
H  27.05800 2.89100 37.13900
N  24.19200 0.86400 28.83400
C  23.22000 0.78200 29.87000
C  21.96700 1.02000 29.24900
C  22.13900 1.10200 27.84100
C  23.57600 0.91000 27.62800
C  20.66800 1.17900 30.00600
C  21.05300 1.44100 26.70100
O  21.42100 1.25500 25.57600
C  19.61700 1.76800 26.96500
N  26.65700 0.52400 27.09300
C  25.70400 0.72300 26.16200
C  26.27500 0.83700 24.73200
C  27.74000 0.51700 24.91800
C  27.84400 0.40600 26.45500
C  25.64800 -0.09800 23.61600
C  28.73900 1.55500 24.36100
C  28.76400 1.63000 22.88500
N  28.29700 0.55000 29.38000
C  29.30300 0.23800 28.50100
C  30.51400 0.13800 29.21500
C  30.25000 0.35100 30.56100
C  28.85700 0.64000 30.64000
C  31.79900 -0.25300 28.73900
C  30.79600 0.48000 31.91800
O  31.94900 0.31500 32.29200
C  29.53000 0.69800 32.93100
C  29.39500 -0.33400 33.96800
O  28.91800 -1.44000 33.85800
O  29.95100 0.08400 35.15800
C  29.97100 -0.81800 36.37400
H  22.59900 0.64300 31.87900
H  23.68800 0.94900 25.57200
H  29.90600 0.14600 26.48100
H  26.70500 0.13700 34.35400
H  24.30400 1.75200 33.88100
H  22.98500 -0.06900 34.27800
H  24.49000 -0.45500 35.22800
H  24.05100 -1.30400 33.76500
H  25.99000 2.82700 34.80200
H  27.53000 2.78300 34.04100
H  28.45500 1.74100 35.90400
H  26.91800 0.98000 36.22100
H  19.97200 0.37300 29.77300
H  20.20700 2.09300 29.63100
H  20.63800 1.34800 31.08300
H  19.46800 2.66200 27.57000
H  19.16300 0.86800 27.38000
H  19.10400 1.96400 26.02300
H  26.18900 1.88000 24.42600
H  27.95500 -0.45600 24.47700
H  24.96000 -0.69500 24.21500
H  26.32400 -0.83800 23.19000
H  25.07100 0.46800 22.88400
H  29.76700 1.39600 24.68700
H  28.45100 2.56600 24.65100
H  28.40000 2.59900 22.54600
H  28.13200 0.88300 22.40500
H  29.76700 1.42400 22.50900
H  31.68800 -1.32900 28.60400
H  32.56400 0.02800 29.46300
H  32.19600 0.22700 27.84500
H  29.67300 1.65100 33.44100
H  29.41000 -0.35100 37.18300
H  31.01200 -0.94900 36.67100
H  29.53200 -1.78800 36.13800
Mg 48.06300 16.10000 28.30900
C  46.12600 15.78000 31.04300
C  50.34300 17.93200 29.92100
C  49.78300 16.21000 25.36300
C  45.42300 14.55300 26.46000
N  48.08500 16.90600 30.31700
C  47.28700 16.49500 31.27200
C  47.98800 16.75900 32.65200
C  49.17600 17.77100 32.32200
C  49.23600 17.54600 30.74800
C  48.89000 19.24100 32.64100
C  48.32300 15.62400 33.56300
C  48.01200 15.84100 35.10400
H  47.90400 17.31500 35.59000
N  49.86800 16.93700 27.71700
C  50.68900 17.68900 28.51600
C  51.93100 17.98100 27.83500
C  51.84200 17.36800 26.53900
C  50.41100 16.83900 26.46000
C  53.14100 18.65400 28.44900
C  52.91800 17.18200 25.44600
O  52.76500 16.38300 24.46100
C  54.31800 17.83000 25.56300
N  47.61100 15.56000 26.23900
C  48.50900 15.65500 25.23500
C  48.01100 15.07400 23.89800
C  46.63900 14.49900 24.33500
C  46.51600 14.91000 25.75000
C  48.12600 16.15200 22.80000
C  46.53800 12.94000 24.06900
C  45.56500 12.49500 22.96200
N  46.13200 15.40200 28.65700
C  45.18800 14.82900 27.79100
C  44.00500 14.38500 28.62200
C  44.41500 14.66600 29.87500
C  45.61800 15.38800 29.83200
C  42.76900 13.85300 28.09700
C  44.00300 14.62700 31.33300
O  43.05900 14.09400 31.88000
C  45.12000 15.29100 32.09900
C  44.43400 16.34400 32.92700
O  44.14800 17.45300 32.56400
O  44.24600 15.91300 34.21500
C  43.37600 16.65400 35.15800
H  51.13600 18.37200 30.52900
H  50.25000 16.32700 24.38300
H  44.59400 14.09400 25.91700
H  47.24200 17.44100 33.06000
H  50.09700 17.29400 32.65900
H  47.96600 19.26100 33.21900
H  48.69200 19.85100 31.75900
H  49.78600 19.61100 33.14000
H  49.38500 15.38200 33.51400
H  47.77300 14.77700 33.15400
H  48.76900 15.39200 35.74700
H  47.08500 15.34200 35.38800
H  52.92300 19.30200 29.29800
H  53.58700 19.26900 27.66800
H  53.93400 17.95400 28.71200
H  54.69800 17.78100 26.58400
H  54.14600 18.88900 25.36800
H  55.00400 17.41100 24.82700
H  48.77400 14.31000 23.74400
H  45.89100 15.04600 23.76100
H  47.34400 15.91400 22.08000
H  49.05200 16.07000 22.23100
H  47.97500 17.14200 23.23200
H  46.35100 12.38200 24.98600
H  47.49700 12.58300 23.69300
H  46.13000 12.46100 22.03000
H  44.77800 13.20900 22.72100
H  45.14500 11.50400 23.13500
H  42.18600 14.26100 27.27100
H  42.04700 13.76900 28.90900
H  43.00300 12.81000 27.88600
H  45.58700 14.51500 32.70600
H  43.00900 15.81900 35.75500
H  42.54700 17.04500 34.56700
H  43.95300 17.37900 35.73200

