158

Mg 40.90500 9.06900 29.43400
C  42.56400 10.67800 32.06100
C  38.78600 7.55100 31.72200
C  39.44800 7.74200 26.94400
C  43.54100 10.37500 27.27300
N  40.71400 9.18700 31.67500
C  41.38900 10.02100 32.54700
C  40.89900 9.82400 34.00300
C  39.71700 8.69800 33.81500
C  39.81800 8.38000 32.36200
C  39.81000 7.42600 34.80000
C  40.42800 11.20100 34.57400
C  39.65000 11.10600 35.95200
H  40.29000 11.69800 37.20300
N  39.30800 7.82200 29.34200
C  38.51700 7.42700 30.36400
C  37.41600 6.65700 29.72400
C  37.46300 6.84900 28.30500
C  38.76000 7.56200 28.14000
C  36.35300 5.94900 30.59200
C  36.52000 6.51200 27.22900
O  36.76300 6.95900 26.07600
C  35.24600 5.75500 27.49700
N  41.37500 9.06700 27.34600
C  40.62400 8.35500 26.52800
C  41.08200 8.59900 25.08500
C  42.23500 9.66200 25.17400
C  42.41900 9.64500 26.67100
C  41.59700 7.33600 24.31300
C  41.74000 11.05700 24.68700
C  42.11500 11.57700 23.29500
N  42.71500 10.12000 29.56600
C  43.70800 10.58800 28.64400
C  44.66700 11.35200 29.31600
C  44.25800 11.40300 30.66800
C  43.10600 10.62500 30.70800
C  45.88400 11.77900 28.70200
C  44.62500 11.89600 31.99200
O  45.53600 12.64100 32.40500
C  43.55700 11.42200 32.96000
C  44.07900 10.44600 33.87500
O  44.56300 9.37300 33.53900
O  43.95400 10.91100 35.19800
C  44.55400 10.05500 36.19900
H  38.12500 6.93000 32.33100
H  38.93100 7.33800 26.07000
H  44.13500 10.86300 26.49700
H  41.73000 9.51000 34.63500
H  38.73600 9.16200 33.91600
H  38.79500 7.27800 35.16800
H  40.44900 7.68400 35.64500
H  40.23800 6.57000 34.27900
H  39.91700 11.65400 33.72400
H  41.26800 11.89500 34.60800
H  39.19900 10.13200 36.14300
H  38.84200 11.81300 35.76100
H  35.30200 6.19000 30.43000
H  36.56000 5.83500 31.65600
H  36.27900 4.90900 30.27500
H  34.85800 5.40900 26.53900
H  34.57000 6.50700 27.90600
H  35.42600 4.97900 28.24100
H  40.24300 8.91500 24.46400
H  43.08300 9.42200 24.53200
H  42.38900 6.91400 24.93300
H  42.09400 7.62400 23.38600
H  40.72700 6.68500 24.22800
H  42.30900 11.76800 25.28600
H  40.67600 11.24300 24.83200
H  42.48100 12.60100 23.22200
H  41.15300 11.56200 22.78400
H  42.84500 10.86400 22.91200
H  46.63900 11.97700 29.46300
H  45.65700 12.72700 28.21400
H  46.25600 11.03200 28.00000
H  43.18100 12.26300 33.54400
H  44.01000 9.11100 36.17100
H  44.30100 10.43900 37.18700
H  45.63500 9.95600 36.10800
Mg 26.85300 50.13100 26.09400
C  24.79900 51.26700 28.94500
C  29.28000 49.28100 28.39500
C  28.64200 49.14100 23.48400
C  24.46500 51.69800 24.08600
N  26.91100 50.08300 28.40600
C  25.94500 50.53600 29.35800
C  26.50900 50.28900 30.76700
C  28.01500 49.99400 30.58600
C  28.11100 49.78400 29.05700
C  29.06900 50.90500 31.32400
C  25.60400 49.19900 31.50800
C  25.00700 49.50900 32.88400
H  25.62800 50.39400 33.98800
N  28.68900 49.27000 25.94900
C  29.55000 49.02600 26.97800
C  30.67000 48.23500 26.43000
C  30.53100 48.21700 25.01100
C  29.26600 48.89500 24.74800
C  31.73900 47.54500 27.21700
C  31.38400 47.46300 23.87800
O  31.08700 47.53400 22.69000
C  32.45000 46.49200 24.20400
N  26.50700 50.43400 24.14500
C  27.45400 49.85100 23.27600
C  26.85500 49.91100 21.86000
C  25.57000 50.80600 21.91400
C  25.46800 51.00500 23.43300
C  27.78700 50.42500 20.71700
C  24.25100 50.30700 21.32800
C  23.73600 48.93000 21.76600
N  25.01300 51.19600 26.42200
C  24.22000 51.78600 25.45700
C  23.04400 52.36100 26.03900
C  23.26100 52.14900 27.44400
C  24.47400 51.41400 27.61800
C  21.97700 52.97500 25.19700
C  22.69900 52.50800 28.69700
O  21.71500 53.24100 28.92100
C  23.66200 51.84700 29.71200
C  24.02800 52.94400 30.63200
O  24.93300 53.77900 30.38500
O  23.32800 52.94400 31.81200
C  23.75100 54.02200 32.76100
H  30.01200 48.95200 29.13500
H  29.15800 48.76800 22.59800
H  23.69800 52.08600 23.41200
H  26.40500 51.29100 31.18500
H  28.21200 49.05300 31.09900
H  28.44500 51.75700 31.59500
H  29.81300 51.22400 30.59300
H  29.45700 50.33800 32.17000
H  26.23900 48.33500 31.70400
H  24.88900 48.95500 30.72300
H  24.94300 48.50400 33.30000
H  23.97700 49.83700 32.74400
H  31.95000 48.09500 28.13400
H  32.68100 47.76000 26.71200
H  31.56400 46.47200 27.30300
H  33.35000 47.06800 24.41800
H  32.55500 45.85000 23.32900
H  32.27300 45.89400 25.09700
H  26.53800 48.89600 21.61900
H  25.83300 51.80000 21.55100
H  28.70200 50.80200 21.17400
H  27.29800 51.22600 20.16300
H  28.10200 49.65500 20.01300
H  24.26300 50.09400 20.25900
H  23.52500 51.11600 21.40900
H  22.65800 49.04500 21.87400
H  24.21700 48.60500 22.68800
H  23.81100 48.18400 20.97400
H  21.34400 52.20400 24.75700
H  22.48300 53.59000 24.45300
H  21.50400 53.68500 25.87500
H  22.96700 51.12500 30.14100
H  24.17200 54.90000 32.27200
H  24.30900 53.59400 33.59500
H  22.78800 54.29300 33.19300

