158

Mg 30.53100 57.09000 39.99700
C  27.83000 55.04100 38.92500
C  32.59800 54.41200 39.25300
C  33.24800 59.17100 40.37300
C  28.43000 59.64700 40.28400
N  30.22200 55.07800 39.07500
C  29.06800 54.45300 38.67700
C  29.33700 53.07100 38.07200
C  30.65300 52.83200 38.80200
C  31.21800 54.19600 39.01900
C  30.43100 52.00100 40.14500
C  29.50300 53.14200 36.50200
C  28.22700 53.15500 35.60300
H  27.95500 54.50200 34.92300
N  32.61700 56.75400 39.99600
C  33.26000 55.63000 39.57900
C  34.68300 55.97500 39.50300
C  34.88300 57.32700 39.93600
C  33.52800 57.81200 40.13700
C  35.69200 54.98800 38.86700
C  36.26200 57.92300 40.19300
O  37.25400 57.21500 39.89900
C  36.56000 59.27500 40.89600
N  30.87800 59.11000 40.34800
C  32.06400 59.79900 40.59200
C  31.83900 61.33100 40.57700
C  30.23800 61.49400 40.57300
C  29.78800 59.98300 40.38000
C  32.64400 62.07100 41.77200
C  29.76600 62.56000 39.59600
C  28.66400 63.52900 40.13100
N  28.54200 57.30000 39.82800
C  27.83600 58.42400 40.03000
C  26.38700 58.15600 39.89600
C  26.40500 56.84900 39.48300
C  27.72400 56.35300 39.41700
C  25.28900 59.11100 39.95200
C  25.50300 55.81400 39.07200
O  24.28200 55.84300 38.98800
C  26.41500 54.60700 38.64100
C  26.02600 53.41900 39.36200
O  26.46800 52.92000 40.40100
O  24.96600 52.85200 38.65000
C  24.13800 51.86200 39.40800
H  33.20200 53.51000 39.13500
H  34.08600 59.87100 40.35300
H  27.76500 60.49800 40.12400
H  28.62400 52.36900 38.50400
H  31.31400 52.32400 38.09900
H  30.89000 52.54500 40.97000
H  30.93800 51.05100 39.97100
H  29.40600 51.76000 40.42700
H  30.26900 52.52900 36.02600
H  29.94800 54.13300 36.41500
H  27.33800 52.79400 36.11800
H  28.38500 52.31200 34.93000
H  36.10600 55.56700 38.04200
H  35.23500 54.15000 38.34100
H  36.46600 54.66900 39.56500
H  37.51400 59.04900 41.37200
H  35.87500 59.71800 41.61800
H  36.65900 60.09300 40.18200
H  32.32800 61.70100 39.67500
H  29.97000 61.73800 41.60100
H  33.41400 61.43300 42.20600
H  31.94700 62.48900 42.50000
H  33.18800 62.86900 41.26700
H  29.38200 62.11700 38.67700
H  30.59500 63.15500 39.21200
H  27.63600 63.18300 40.24200
H  28.58300 64.40500 39.48800
H  28.95400 64.00900 41.06600
H  25.59300 60.04800 39.48500
H  25.27300 59.40100 41.00200
H  24.37200 58.74900 39.48700
H  26.34100 54.40800 37.57200
H  23.59700 52.25400 40.26900
H  24.77100 51.09100 39.84700
H  23.40900 51.38400 38.75300
Mg -10.60500 38.74000 42.16000
C  -8.66700 36.00500 41.34700
C  -8.28800 40.83600 40.42800
C  -12.84600 41.31000 42.33900
C  -13.15400 36.55000 43.21500
N  -8.72200 38.44600 40.99800
C  -8.14200 37.22600 40.81100
C  -6.81500 37.31500 40.03600
C  -6.54200 38.88800 40.09600
C  -7.96100 39.46200 40.54300
C  -5.44500 39.26800 41.18200
C  -6.93500 36.70900 38.55800
C  -5.86800 35.70900 38.15900
H  -4.85800 36.14700 37.07400
N  -10.47300 40.87200 41.56600
C  -9.41700 41.51800 40.96100
C  -9.74300 42.94100 40.99500
C  -11.11100 43.11400 41.46500
C  -11.52400 41.71400 41.83200
C  -8.77900 43.98500 40.58300
C  -11.88900 44.43200 41.58200
O  -11.20100 45.43400 41.42800
C  -13.32900 44.45500 41.93800
N  -12.75200 38.88700 42.45100
C  -13.36200 40.06400 42.61700
C  -14.75700 39.94500 43.23200
C  -14.91600 38.38500 43.23400
C  -13.49400 37.88900 42.99500
C  -14.84500 40.70200 44.56300
C  -15.83400 37.65000 42.15000
C  -17.14000 36.87300 42.65600
N  -10.88300 36.69500 42.28500
C  -11.93100 35.89100 42.80100
C  -11.56000 34.51100 42.94200
C  -10.21600 34.49100 42.41600
C  -9.88500 35.85200 42.05100
C  -12.31900 33.46600 43.64900
C  -9.08300 33.69900 42.15500
O  -8.85200 32.48600 42.30200
C  -7.99100 34.68400 41.42800
C  -6.74700 34.64600 42.21500
O  -6.03100 33.67100 42.18200
O  -6.39700 35.79100 42.91800
C  -5.20300 35.70500 43.82700
H  -7.46900 41.44400 40.03800
H  -13.67000 42.00100 42.53200
H  -13.91500 35.93500 43.70000
H  -6.02400 36.72600 40.50000
H  -6.38500 39.33500 39.11500
H  -5.86600 39.51400 42.15700
H  -4.88000 40.11200 40.78600
H  -4.82500 38.39100 41.36900
H  -6.89600 37.58100 37.90600
H  -7.90100 36.24900 38.35200
H  -6.41600 34.83700 37.80200
H  -5.30400 35.52500 39.07300
H  -9.06100 44.46500 39.64500
H  -7.76800 43.59000 40.48400
H  -8.66900 44.80300 41.29400
H  -13.48800 44.18000 42.98100
H  -13.72600 43.62000 41.36100
H  -13.89200 45.33700 41.63400
H  -15.46500 40.35100 42.51000
H  -15.27700 37.98400 44.18100
H  -15.10600 41.73600 44.33800
H  -13.89300 40.56800 45.07800
H  -15.67700 40.33900 45.16500
H  -15.24100 37.00400 41.50300
H  -16.15700 38.42900 41.46000
H  -17.04600 36.87300 43.74200
H  -17.23400 35.86000 42.26500
H  -18.00100 37.47300 42.36000
H  -11.65600 32.82900 44.23500
H  -12.78000 32.90000 42.83900
H  -13.15900 33.70600 44.30100
H  -7.87900 34.37800 40.38700
H  -4.29400 35.98000 43.29300
H  -5.05300 34.83900 44.47200
H  -5.55900 36.40800 44.57900

