158

Mg 1.82700 -2.64100 44.34800
C  5.39700 -2.47000 43.82800
C  1.60000 0.19900 42.33900
C  -1.33500 -3.32700 44.05200
C  2.38600 -5.86900 45.71600
N  3.44100 -1.26700 43.26100
C  4.83900 -1.42700 43.14000
C  5.41000 -0.36800 42.15700
C  4.17400 0.50900 41.75200
C  2.94200 -0.19400 42.50100
C  4.31800 2.03700 42.05300
C  6.27600 -1.02900 40.94100
C  7.62900 -0.43000 40.58500
H  7.68800 0.86600 39.83000
N  0.22800 -1.61600 43.51300
C  0.38400 -0.43300 42.78000
C  -0.94000 0.03000 42.43800
C  -1.91000 -0.94100 42.83400
C  -1.03100 -1.97500 43.54000
C  -1.03500 1.44200 41.87300
C  -3.39900 -0.87700 42.66300
O  -3.96800 0.04200 42.10000
C  -4.30500 -1.79900 43.30000
N  0.75100 -4.35900 44.84000
C  -0.58100 -4.34600 44.67600
C  -1.16100 -5.67200 45.16600
C  0.04700 -6.57900 45.46600
C  1.11400 -5.57400 45.34000
C  -2.28700 -5.45100 46.32800
C  0.23900 -7.79300 44.52700
C  0.65800 -9.15000 45.28900
N  3.48200 -3.83600 44.93600
C  3.57400 -5.13000 45.35800
C  4.97000 -5.49900 45.59400
C  5.65800 -4.42700 45.13500
C  4.74900 -3.49300 44.55000
C  5.44400 -6.81200 46.15600
C  7.04500 -4.03800 44.91500
O  8.02000 -4.56500 45.23000
C  6.92500 -2.78200 43.85800
C  7.68900 -1.59100 44.31700
O  7.30600 -0.64300 44.97000
O  8.98200 -1.63100 43.80300
C  9.77700 -0.43700 43.91200
H  1.51400 1.04500 41.65500
H  -2.35700 -3.67900 43.89700
H  2.55200 -6.87600 46.10300
H  6.09300 0.28400 42.70200
H  3.84600 0.48700 40.71300
H  5.33800 2.29600 42.33700
H  3.61700 2.28000 42.85100
H  3.99800 2.63200 41.19800
H  5.64200 -1.02900 40.05400
H  6.46600 -2.07800 41.16700
H  8.12200 -1.18300 39.97000
H  8.27600 -0.30100 41.45200
H  -2.07100 1.64100 41.59800
H  -0.46300 1.42000 40.94600
H  -0.54100 2.18100 42.50500
H  -5.37900 -1.65200 43.19000
H  -3.91800 -1.98400 44.30300
H  -4.13500 -2.70700 42.72100
H  -1.64800 -6.04800 44.26600
H  0.00400 -6.90800 46.50400
H  -2.67100 -4.44000 46.19000
H  -1.86300 -5.35400 47.32700
H  -3.01600 -6.25100 46.19800
H  1.05500 -7.58700 43.83400
H  -0.69900 -8.01200 44.01700
H  -0.11800 -9.91500 45.24700
H  0.84600 -9.14300 46.36200
H  1.60500 -9.44200 44.83500
H  5.57700 -6.75400 47.23600
H  6.44800 -7.02400 45.78800
H  4.71200 -7.58000 45.90900
H  7.26000 -3.07700 42.86300
H  10.32900 -0.44900 44.85200
H  9.15800 0.45500 43.82500
H  10.61300 -0.46900 43.21200
Mg 35.85900 1.02300 30.02800
C  33.62700 2.47300 32.61600
C  38.41600 1.50300 32.34500
C  37.81800 0.28500 27.63700
C  33.14200 1.27200 27.83800
N  35.96200 1.83500 32.23700
C  34.93100 2.26500 33.07500
C  35.45400 2.44000 34.50900
C  37.02600 2.34700 34.32700
C  37.15200 1.83600 32.84000
C  37.64600 3.67100 34.43700
C  34.97600 1.25800 35.43000
C  34.44600 1.68500 36.77600
H  34.78700 3.03500 37.42700
N  37.87900 0.71000 30.01800
C  38.78400 1.03600 31.04900
C  40.16800 0.72000 30.56200
C  39.97300 0.25900 29.21900
C  38.53800 0.32000 28.88000
C  41.39500 0.83200 31.50000
C  41.09100 -0.15200 28.22900
O  40.80500 -0.44500 27.08800
C  42.42400 -0.40400 28.83500
N  35.49400 0.88400 28.07100
C  36.47500 0.50000 27.22100
C  35.95700 0.59700 25.81900
C  34.44500 0.27400 25.97600
C  34.31700 0.79600 27.36900
C  36.30100 1.92200 25.12000
C  33.99600 -1.18400 26.00300
C  33.46900 -1.67900 24.63200
N  33.86600 1.77500 30.09200
C  32.93900 1.78800 29.14100
C  31.67200 2.23300 29.58900
C  31.89100 2.50800 30.92300
C  33.26100 2.21800 31.23000
C  30.36700 2.35400 28.79400
C  31.20000 3.03800 32.14200
O  30.11100 3.55000 32.29500
C  32.35500 3.03800 33.24700
C  32.58000 4.46900 33.71900
O  33.38100 5.24000 33.17900
O  31.75900 4.80000 34.75000
C  31.92900 6.14500 35.33700
H  39.14200 1.63500 33.15000
H  38.46100 0.15000 26.76500
H  32.42200 1.44100 27.03500
H  35.06800 3.40700 34.83200
H  37.49800 1.64900 35.01900
H  36.94400 4.50400 34.49100
H  38.19200 3.92700 33.52900
H  38.29800 3.55600 35.30200
H  35.77400 0.55500 35.66800
H  34.19200 0.78600 34.83800
H  34.90900 0.97300 37.45900
H  33.37300 1.52000 36.87400
H  40.99900 0.87800 32.51400
H  41.89300 1.76200 31.22500
H  42.16000 0.05500 31.48600
H  42.32700 -1.13300 29.64000
H  42.84300 0.55700 29.13300
H  43.11000 -0.79100 28.08100
H  36.35800 -0.27800 25.30700
H  33.77400 0.87400 25.36100
H  35.61200 2.76200 25.02800
H  36.60900 1.66800 24.10600
H  37.19800 2.36300 25.55400
H  33.26200 -1.34800 26.79200
H  34.87400 -1.80800 26.16700
H  33.46900 -1.06300 23.73200
H  32.43600 -1.97200 24.82200
H  33.98700 -2.59200 24.33900
H  30.09800 3.37900 29.04800
H  29.62300 1.61000 29.07800
H  30.60400 2.40900 27.73100
H  31.96100 2.48800 34.10200
H  31.19300 6.57000 36.02100
H  32.03600 6.93900 34.59800
H  32.77700 6.00800 36.00900

