158

Mg 51.51500 46.28600 42.30200
C  48.40500 47.43500 40.60400
C  51.14800 43.52900 40.51400
C  54.77400 45.67200 43.16300
C  51.90100 49.71500 43.24600
N  49.95400 45.65300 40.66200
C  48.78800 46.16200 40.32200
C  47.92500 45.14100 39.54200
C  48.84300 43.85600 39.48200
C  50.11900 44.38600 40.23500
C  48.12600 42.53900 39.93200
C  47.32800 45.57700 38.12200
C  45.77800 45.33500 38.00100
H  45.48800 44.20600 37.02200
N  52.75300 44.76500 41.95300
C  52.33300 43.62600 41.21200
C  53.37200 42.65500 41.34500
C  54.48800 43.26700 42.08400
C  54.05800 44.61300 42.46400
C  53.28800 41.27900 40.75800
C  55.77000 42.57100 42.44000
O  56.00600 41.47900 41.89600
C  56.72500 43.03800 43.46300
N  53.04900 47.53700 43.11100
C  54.24300 46.96300 43.49500
C  55.09300 48.01500 44.27800
C  54.12500 49.20200 44.36700
C  52.98400 48.89200 43.42500
C  55.59000 47.53500 45.73100
C  54.79700 50.54900 44.09400
C  55.13500 51.39500 45.42100
N  50.40500 48.24100 42.11000
C  50.66800 49.52000 42.65200
C  49.53500 50.33600 42.44500
C  48.69200 49.61700 41.57300
C  49.19600 48.31400 41.44000
C  49.39200 51.76900 43.01300
C  47.35100 49.67100 40.96900
O  46.47100 50.50400 41.04200
C  47.12300 48.26700 40.26400
C  45.92900 47.77400 40.89900
O  45.80600 47.32100 42.01400
O  44.86300 47.89100 40.03900
C  43.48300 47.74600 40.54300
H  50.93900 42.52500 40.14000
H  55.83500 45.56000 43.39700
H  52.10100 50.73300 43.58600
H  47.12200 45.04600 40.27200
H  49.21300 43.75200 38.46200
H  48.17500 41.81100 39.12300
H  47.14100 42.74500 40.34900
H  48.59100 42.15900 40.84200
H  47.86400 45.00700 37.36300
H  47.54400 46.63100 37.94900
H  45.46600 46.33500 37.70100
H  45.20200 45.07500 38.88900
H  53.00200 41.24000 39.70700
H  52.42200 40.82000 41.23500
H  54.07700 40.55500 40.96500
H  56.21400 43.31500 44.38500
H  57.25000 43.85800 42.97400
H  57.42200 42.21000 43.60100
H  55.90600 48.29400 43.60700
H  53.69900 49.18800 45.37000
H  54.89800 47.74500 46.54800
H  56.50400 48.06200 46.00400
H  55.69100 46.46400 45.55800
H  54.24600 51.18200 43.39900
H  55.69100 50.43500 43.48100
H  55.84200 50.87800 46.07000
H  54.26500 51.62600 46.03600
H  55.64600 52.31900 45.15400
H  48.53000 52.20000 42.50400
H  50.30900 52.35800 43.01500
H  49.05700 51.49500 44.01400
H  47.09600 48.55100 39.21200
H  43.31100 46.90000 41.20800
H  42.78800 47.88500 39.71400
H  43.29600 48.61300 41.17600
Mg 0.50800 43.15400 25.84400
C  1.84000 43.04900 29.08000
C  -2.43600 42.01800 27.04200
C  -0.39900 42.65700 22.68300
C  3.81400 43.85900 24.68400
N  -0.19300 42.54000 27.86900
C  0.47300 42.77100 29.07400
C  -0.50900 42.66000 30.28300
C  -1.81600 42.26900 29.57000
C  -1.48000 42.38800 28.01900
C  -2.45900 40.85900 29.86400
C  -0.66000 43.95900 31.11000
C  -0.35900 43.77600 32.60700
H  -0.77300 42.50200 33.32400
N  -1.21600 42.43200 24.95600
C  -2.35400 42.00500 25.65500
C  -3.27100 41.58200 24.64200
C  -2.72800 41.84300 23.36000
C  -1.40500 42.39100 23.61200
C  -4.76000 41.09000 24.96000
C  -3.39900 41.66800 21.98300
O  -2.86400 41.97000 20.89600
C  -4.82400 41.16000 21.83600
N  1.63800 43.24900 23.92800
C  0.93700 43.03100 22.73800
C  1.95000 42.98700 21.54800
C  3.11300 43.84200 22.20400
C  2.91000 43.58600 23.71300
C  2.19300 41.53400 20.93700
C  2.91500 45.34100 21.86900
C  3.47300 45.96500 20.55100
N  2.41100 43.60300 26.63500
C  3.65700 43.87300 26.09900
C  4.57100 43.99400 27.12800
C  3.95800 43.71100 28.33000
C  2.59000 43.51300 27.97200
C  6.03300 44.39000 26.90200
C  4.16900 43.45000 29.66200
O  5.17400 43.39200 30.34100
C  2.73000 43.14800 30.28000
C  2.86900 41.89900 31.13500
O  2.95600 40.72600 30.76600
O  3.04000 42.20600 32.45100
C  3.06300 41.09400 33.35000
H  -3.41600 41.83900 27.49000
H  -0.77100 42.47200 21.67400
H  4.80600 44.05000 24.26900
H  -0.10000 41.86700 30.90900
H  -2.65600 42.87900 29.90500
H  -1.82000 40.18800 30.43700
H  -2.70300 40.19400 29.03600
H  -3.35200 41.00800 30.47100
H  -1.61700 44.45700 30.96100
H  0.10600 44.66100 30.77900
H  -1.04400 44.44900 33.12200
H  0.62900 44.15500 32.87000
H  -5.43900 41.89100 24.67100
H  -4.70100 41.01700 26.04600
H  -5.01200 40.13800 24.49200
H  -5.50000 41.67800 22.51700
H  -4.77700 40.07300 21.78500
H  -5.05900 41.43000 20.80700
H  1.62000 43.64400 20.74300
H  4.08300 43.57000 21.78600
H  1.56400 41.34700 20.06600
H  1.82600 40.78400 21.63700
H  3.27000 41.46600 20.78300
H  3.25500 45.96400 22.69600
H  1.82700 45.38500 21.81500
H  3.94300 45.16600 19.97900
H  4.29400 46.64900 20.76900
H  2.74200 46.60800 20.06000
H  6.23300 45.30900 26.35200
H  6.55400 43.64600 26.29900
H  6.53000 44.42700 27.87200
H  2.34800 43.98200 30.86800
H  4.03200 40.59400 33.33600
H  2.28600 40.37200 33.09800
H  2.83800 41.52000 34.32800

