158

Mg -11.59000 16.05600 42.04000
C  -8.27500 16.52200 42.51800
C  -12.06800 19.44500 41.55900
C  -14.81600 15.46200 41.19800
C  -11.06000 12.54600 42.31300
N  -10.33300 17.76800 41.93200
C  -8.98800 17.72300 42.11700
C  -8.33900 19.11900 41.93000
C  -9.60600 20.06800 42.15600
C  -10.77200 19.03800 41.79400
C  -9.80700 20.52300 43.61000
C  -7.71300 19.32600 40.52900
C  -6.34300 19.91000 40.49700
H  -5.27200 19.32000 39.52800
N  -13.21600 17.28900 41.26100
C  -13.23200 18.66100 41.19300
C  -14.53900 19.11900 40.66800
C  -15.30400 17.92300 40.44100
C  -14.47100 16.79200 40.92800
C  -14.91700 20.55400 40.38000
C  -16.62800 17.89700 39.77600
O  -17.28600 18.88900 39.56700
C  -17.33500 16.67700 39.38600
N  -12.65200 14.18800 41.56900
C  -14.02200 14.32600 41.49900
C  -14.72500 13.06600 42.03100
C  -13.54700 11.99500 42.06800
C  -12.34500 12.92300 41.96200
C  -15.38500 13.34600 43.39200
C  -13.52700 11.04800 40.85500
C  -13.41600 9.61200 41.31100
N  -10.08100 14.74600 42.47000
C  -9.96600 13.36400 42.54500
C  -8.62700 13.07500 42.90900
C  -7.94200 14.24500 42.80400
C  -8.82900 15.25600 42.56100
C  -8.18400 11.63000 43.03400
C  -6.61100 14.80600 42.78100
O  -5.55700 14.23100 42.87200
C  -6.76400 16.29300 42.70100
C  -6.18500 16.91200 43.86000
O  -6.40500 16.56800 44.98900
O  -5.33000 17.91300 43.42400
C  -4.66400 18.60200 44.51000
H  -12.28200 20.51400 41.49900
H  -15.88600 15.24100 41.19700
H  -10.85200 11.47800 42.40000
H  -7.56500 19.25100 42.68600
H  -9.74400 20.92100 41.49200
H  -8.86600 20.41100 44.14800
H  -10.57000 19.86500 44.02700
H  -10.03200 21.57100 43.80400
H  -8.30000 20.01400 39.92000
H  -7.79600 18.40500 39.95300
H  -5.92600 19.88600 41.50400
H  -6.50400 20.93500 40.16100
H  -15.92200 20.75400 40.75100
H  -14.98900 20.79500 39.32000
H  -14.32500 21.32500 40.87400
H  -17.91900 16.77900 38.47100
H  -18.12300 16.51400 40.12200
H  -16.68300 15.80400 39.36500
H  -15.50000 12.74400 41.33500
H  -13.54200 11.44400 43.00800
H  -14.77400 12.79300 44.10600
H  -16.34800 12.83600 43.36600
H  -15.41100 14.38400 43.72200
H  -12.75400 11.30200 40.13100
H  -14.44500 11.27700 40.31300
H  -14.32300 9.09100 41.00500
H  -13.14300 9.40600 42.34600
H  -12.65100 9.10600 40.72300
H  -8.99900 10.99200 43.37700
H  -7.39300 11.61800 43.78500
H  -7.96700 11.13600 42.08700
H  -6.39200 16.71700 41.76800
H  -5.41800 18.97400 45.20400
H  -4.10000 19.43100 44.08200
H  -3.88000 17.99500 44.96300
Mg -4.53400 25.82100 25.09800
C  -2.89500 27.10500 27.98200
C  -6.09900 23.60400 27.13500
C  -5.87500 24.58700 22.37900
C  -2.38800 27.86300 23.12100
N  -4.47900 25.41400 27.35300
C  -3.82300 26.14100 28.30200
C  -4.39700 25.80600 29.69400
C  -5.12300 24.40700 29.40400
C  -5.27000 24.46700 27.87500
C  -4.36700 23.10400 29.85500
C  -5.30600 26.95800 30.27900
C  -5.15900 27.33000 31.66700
H  -4.73900 26.15500 32.64500
N  -5.88400 24.42900 24.83500
C  -6.43500 23.51800 25.78300
C  -7.42000 22.68300 25.16400
C  -7.38300 22.96500 23.77700
C  -6.33400 24.00000 23.61500
C  -8.31900 21.68900 25.97600
C  -8.15800 22.39700 22.65900
O  -7.99600 22.68700 21.46500
C  -9.21900 21.40200 22.91800
N  -4.08800 26.12900 23.06300
C  -4.90400 25.54600 22.12000
C  -4.45000 25.97000 20.73700
C  -3.50100 27.12100 20.97300
C  -3.26700 27.03300 22.45000
C  -3.86900 24.80900 19.86700
C  -4.01000 28.57300 20.61300
C  -2.91600 29.48500 20.13200
N  -2.92500 27.09700 25.40500
C  -2.20700 27.96000 24.55000
C  -1.25400 28.78000 25.28600
C  -1.54000 28.43100 26.61800
C  -2.54600 27.45700 26.65500
C  -0.35700 29.81500 24.75000
C  -1.14800 28.75200 27.92100
O  -0.36300 29.52000 28.37100
C  -2.12200 27.95200 28.89100
C  -1.17700 27.34100 29.77200
O  -0.32700 26.53500 29.44100
O  -1.30900 27.69400 31.07500
C  -0.28400 27.23500 32.05100
H  -6.67800 22.96500 27.80400
H  -6.58600 24.42600 21.56600
H  -1.80400 28.46100 22.41800
H  -3.60900 25.60900 30.42100
H  -6.12400 24.46700 29.83100
H  -3.47100 23.25400 30.45600
H  -4.14400 22.43900 29.02000
H  -5.05900 22.63200 30.55300
H  -6.33900 26.62600 30.18300
H  -5.18500 27.87100 29.69600
H  -6.08500 27.72200 32.08800
H  -4.43700 28.14500 31.72400
H  -9.16800 22.28800 26.30500
H  -7.83900 21.45400 26.92600
H  -8.72900 20.83200 25.44000
H  -9.87100 21.34000 22.04600
H  -9.82500 21.80100 23.73200
H  -8.89000 20.37300 23.06200
H  -5.32900 26.40800 20.26500
H  -2.61900 26.85800 20.39000
H  -3.45000 23.96800 20.41800
H  -3.20600 25.06800 19.04200
H  -4.75100 24.42400 19.35500
H  -4.49900 29.05700 21.45800
H  -4.82600 28.57000 19.89000
H  -2.97400 30.39700 20.72600
H  -3.04700 29.65700 19.06300
H  -1.94500 28.99000 20.10600
H  0.61500 29.33900 24.61400
H  -0.24700 30.56600 25.53200
H  -0.82600 30.26500 23.87500
H  -2.72100 28.73800 29.35100
H  0.77300 27.27300 31.78600
H  -0.48700 26.28900 32.55500
H  -0.34200 27.98200 32.84300

