158

Mg 24.39700 -5.08700 45.73500
C  26.92100 -2.92600 44.70200
C  22.24700 -3.57500 43.53700
C  22.18100 -7.65400 46.23800
C  26.85100 -6.97900 47.34100
N  24.63200 -3.65100 44.04900
C  25.76300 -2.86400 43.91700
C  25.50000 -1.85000 42.79300
C  23.99900 -1.72600 42.76200
C  23.54500 -3.03000 43.42900
C  23.55900 -0.47200 43.52300
C  26.04700 -2.32200 41.44200
C  26.21800 -1.30200 40.45600
H  25.50400 -1.50100 39.07200
N  22.41200 -5.50300 45.10800
C  21.73100 -4.72700 44.22200
C  20.39100 -5.21900 44.01800
C  20.38300 -6.49000 44.72100
C  21.65600 -6.60900 45.48800
C  19.34100 -4.45000 43.30200
C  19.24200 -7.39400 44.56200
O  18.21000 -7.13100 44.04100
C  19.30500 -8.76900 45.19700
N  24.54800 -7.09400 46.62400
C  23.48900 -7.90500 46.78800
C  23.85200 -9.25800 47.40700
C  25.32500 -9.07900 47.82800
C  25.60300 -7.61100 47.20700
C  22.87700 -9.72000 48.60300
C  26.27900 -10.14300 47.14800
C  27.51900 -10.49300 47.95700
N  26.39300 -4.87100 46.20200
C  27.26800 -5.67500 46.96700
C  28.48200 -4.95500 47.15000
C  28.41000 -3.91300 46.21600
C  27.12300 -3.88700 45.68200
C  29.51700 -5.53600 48.05300
C  29.11900 -2.74200 45.59500
O  30.24800 -2.32500 45.82400
C  28.17800 -2.12700 44.52600
C  27.90300 -0.68300 44.84700
O  27.46400 -0.22400 45.88500
O  28.34700 0.11700 43.84200
C  28.06800 1.53700 43.93600
H  21.67100 -2.83600 42.97600
H  21.47200 -8.45700 46.45000
H  27.62200 -7.57400 47.83500
H  26.03400 -0.93300 43.03900
H  23.68400 -1.60300 41.72600
H  22.81100 0.15700 43.04000
H  24.39300 0.20200 43.71900
H  23.04800 -0.75400 44.44300
H  25.36700 -3.06400 41.02400
H  26.96000 -2.85800 41.70200
H  27.26400 -1.32100 40.15300
H  26.08900 -0.28100 40.81800
H  18.84700 -5.06000 42.54600
H  19.89000 -3.76100 42.66000
H  18.64300 -3.85000 43.88700
H  19.27100 -8.66900 46.28200
H  20.25700 -9.22600 44.92700
H  18.59200 -9.51400 44.84500
H  23.70700 -10.03900 46.66100
H  25.53600 -8.94700 48.89000
H  21.98700 -9.09300 48.54200
H  23.41900 -9.66500 49.54700
H  22.75400 -10.80200 48.65600
H  26.59800 -9.76600 46.17600
H  25.80300 -11.10100 46.94000
H  28.17200 -11.10700 47.33700
H  27.17900 -11.17000 48.74100
H  27.95600 -9.70700 48.57300
H  30.32900 -4.85400 48.30700
H  29.98400 -6.41200 47.60200
H  29.10000 -5.76700 49.03300
H  28.70400 -2.18900 43.57400
H  28.94900 2.01000 44.37100
H  27.29500 1.79900 44.65700
H  27.70800 1.78800 42.93800
Mg 54.95600 24.36300 44.17300
C  52.27000 26.27100 43.22300
C  53.37700 21.50100 43.27900
C  58.05700 22.68600 44.13900
C  56.90700 27.38000 44.50400
N  53.06200 24.00600 43.25400
C  52.03900 24.90800 43.01000
C  50.75800 24.18600 42.53200
C  51.11300 22.74000 43.08900
C  52.61700 22.71400 43.22800
C  50.34000 22.54700 44.44000
C  50.63200 24.12600 41.00600
C  49.24200 24.01500 40.44600
H  49.04100 23.73100 38.94300
N  55.58800 22.32600 43.79900
C  54.75500 21.30400 43.45700
C  55.44300 20.09900 43.51900
C  56.82100 20.40500 43.80300
C  56.86100 21.87800 43.96500
C  54.73700 18.86700 43.09000
C  57.86400 19.37500 43.90100
O  57.53800 18.23900 43.69500
C  59.27800 19.65200 44.35900
N  57.15900 24.92800 44.17900
C  58.16200 24.04600 44.23200
C  59.53300 24.71500 44.44900
C  59.21900 26.21000 44.57800
C  57.61600 26.17400 44.35000
C  60.38700 24.12800 45.55600
C  59.97800 27.05300 43.54100
C  60.69100 28.23800 44.10100
N  54.66200 26.45500 43.92000
C  55.48700 27.54100 44.23800
C  54.61500 28.68200 44.42000
C  53.31900 28.22400 43.98900
C  53.49000 26.86700 43.67000
C  54.98800 30.02900 44.90900
C  51.93700 28.63100 43.94400
O  51.36300 29.60600 44.30200
C  51.17200 27.39400 43.34400
C  50.69300 27.86700 42.03100
O  51.46000 28.27600 41.12100
O  49.32500 27.79000 41.84300
C  48.70200 28.24700 40.58200
H  52.85200 20.55200 43.40700
H  58.96600 22.08100 44.12600
H  57.50100 28.25000 44.79300
H  49.83900 24.62500 42.92000
H  50.77700 21.97800 42.38600
H  51.02200 22.24800 45.23500
H  49.63900 21.74100 44.22200
H  49.84200 23.44600 44.80200
H  51.16500 23.21700 40.72800
H  51.18900 24.93000 40.52400
H  48.73000 24.97600 40.48500
H  48.70200 23.30300 41.07100
H  54.34700 19.04700 42.08800
H  53.83500 18.82400 43.70100
H  55.25100 17.91700 43.23100
H  59.83400 20.23500 43.62500
H  59.74700 18.73600 44.72000
H  59.29600 20.18300 45.31100
H  60.09500 24.54800 43.53000
H  59.46300 26.61700 45.55900
H  60.60400 24.89400 46.30100
H  61.24600 23.57800 45.17300
H  59.67000 23.42500 45.98000
H  59.30400 27.42000 42.76800
H  60.78400 26.58300 42.97700
H  61.65800 28.34900 43.60900
H  60.86700 28.18600 45.17500
H  60.11400 29.15200 43.95700
H  55.57700 29.88100 45.81400
H  54.13400 30.69600 45.01900
H  55.58000 30.49700 44.12200
H  50.33900 27.12000 43.99100
H  48.76100 27.53100 39.76200
H  49.34900 29.08100 40.30900
H  47.66300 28.57500 40.58100

