158

Mg 23.85600 -5.66800 46.35400
C  26.26000 -3.78800 44.59600
C  21.55800 -4.75200 44.03900
C  21.97700 -8.31100 47.24200
C  26.56400 -7.11300 48.09300
N  23.92600 -4.46300 44.52500
C  24.96500 -3.70500 44.10100
C  24.61300 -2.81600 42.90800
C  23.01700 -2.95200 42.91400
C  22.82200 -4.11200 43.88100
C  22.15200 -1.70700 43.21100
C  25.32400 -3.17000 41.62100
C  26.07100 -2.02100 40.94200
H  25.24800 -1.29700 39.81500
N  21.93800 -6.42500 45.82300
C  21.12000 -5.82800 44.88700
C  19.80300 -6.45100 44.92100
C  19.86100 -7.50900 45.89400
C  21.32400 -7.50900 46.34200
C  18.71100 -6.00000 43.96200
C  18.67400 -8.37100 46.30400
O  17.54500 -8.16600 45.90100
C  18.81500 -9.49400 47.27400
N  24.27200 -7.56600 47.33000
C  23.23200 -8.31500 47.72600
C  23.61100 -9.55500 48.51700
C  25.09100 -9.09100 48.92800
C  25.36100 -7.77700 48.17900
C  22.63200 -10.01500 49.66900
C  26.19000 -10.17600 48.55500
C  26.83500 -10.16000 47.18700
N  25.99600 -5.40200 46.48400
C  26.97600 -6.04600 47.26200
C  28.26200 -5.44300 47.08800
C  28.02400 -4.50800 46.05400
C  26.65000 -4.58300 45.74000
C  29.52800 -5.86200 47.74100
C  28.70100 -3.47500 45.26000
O  29.82200 -2.99800 45.27200
C  27.55500 -3.00700 44.24300
C  27.41400 -1.53600 44.43800
O  26.73300 -1.02300 45.29800
O  28.15300 -0.86400 43.47600
C  28.02200 0.57000 43.57800
H  20.89000 -4.31100 43.29700
H  21.35200 -9.12400 47.61600
H  27.36000 -7.52800 48.71500
H  24.75900 -1.78900 43.24200
H  22.60400 -3.27700 41.95900
H  21.74400 -1.96100 44.19000
H  21.40400 -1.61000 42.42400
H  22.72400 -0.81000 43.44600
H  24.60100 -3.48300 40.86800
H  26.09200 -3.93500 41.73100
H  27.06600 -2.27400 40.57700
H  26.19400 -1.25000 41.70300
H  18.41100 -6.93300 43.48500
H  19.13500 -5.33600 43.20900
H  17.82100 -5.62600 44.46800
H  17.85100 -9.75100 47.71400
H  19.39400 -9.26900 48.16900
H  19.38000 -10.23600 46.71100
H  23.74100 -10.34200 47.77500
H  25.28000 -8.84300 49.97200
H  22.15600 -10.97400 49.46500
H  21.85300 -9.25700 49.74900
H  23.15800 -10.21900 50.60200
H  25.80300 -11.18400 48.70200
H  27.03400 -10.08400 49.23900
H  27.89500 -9.91100 47.23100
H  26.34700 -9.49400 46.47600
H  26.78800 -11.19200 46.83900
H  29.52100 -6.41900 48.67800
H  30.15100 -4.97200 47.82900
H  29.95900 -6.55000 47.01300
H  27.91700 -3.11800 43.22100
H  27.37700 0.95600 42.78900
H  28.98300 1.05800 43.41600
H  27.61000 0.97000 44.50400
Mg 40.70700 9.76400 29.26300
C  42.61900 10.82800 31.93600
C  38.63400 8.01200 31.42900
C  39.34800 7.87700 26.52700
C  43.24000 10.87700 27.07100
N  40.76000 9.35900 31.51700
C  41.50700 10.08100 32.41300
C  41.02400 9.82600 33.81100
C  39.64500 9.14200 33.58800
C  39.69600 8.74500 32.09300
C  39.37600 7.86600 34.49500
C  40.98200 10.99100 34.75600
C  41.46200 10.75600 36.21900
H  40.86500 11.47100 37.38200
N  39.14800 8.28500 29.00800
C  38.32500 7.78100 30.02300
C  37.29200 6.98700 29.45200
C  37.49900 6.92700 28.08400
C  38.70200 7.74300 27.81800
C  36.15600 6.30600 30.36400
C  36.63600 6.23900 27.00800
O  36.86800 6.40300 25.79900
C  35.44500 5.37800 27.37000
N  41.26100 9.33700 27.11100
C  40.49400 8.55600 26.22800
C  40.91300 8.87100 24.81800
C  42.19000 9.78800 25.03000
C  42.27100 10.00200 26.48800
C  41.19100 7.55900 24.06900
C  42.26500 10.98600 24.11500
C  41.75400 12.36200 24.61800
N  42.52400 10.82100 29.41100
C  43.45300 11.19900 28.43100
C  44.58200 11.85800 29.08200
C  44.28300 11.77700 30.44800
C  43.03200 11.07400 30.60300
C  45.68500 12.55000 28.39500
C  44.72300 12.18300 31.75400
O  45.67900 12.79000 32.17000
C  43.65000 11.57300 32.72200
C  44.39300 10.72100 33.77200
O  44.66700 9.54200 33.79200
O  44.82300 11.59600 34.74300
C  45.51700 11.14100 35.90100
H  37.85700 7.68900 32.12500
H  38.89400 7.35800 25.68100
H  43.91000 11.33800 26.34200
H  41.80700 9.17900 34.20600
H  38.79100 9.81200 33.69100
H  39.84600 7.00400 34.02100
H  38.33600 7.63200 34.72300
H  39.80500 7.93800 35.49400
H  39.91200 11.17700 34.84200
H  41.37600 11.90500 34.31100
H  42.48900 11.12100 36.24900
H  41.33800 9.73800 36.58800
H  36.24500 5.22000 30.32700
H  35.17700 6.53700 29.94400
H  36.14200 6.71200 31.37600
H  34.96100 5.16200 26.41700
H  34.80800 5.98700 28.01100
H  35.76400 4.53400 27.98200
H  40.11300 9.48000 24.39700
H  43.08500 9.21000 24.80100
H  42.18600 7.55900 23.62200
H  40.56100 7.33400 23.20900
H  41.21900 6.69200 24.72900
H  41.76900 10.73100 23.17900
H  43.29700 11.17200 23.81800
H  42.58600 13.03400 24.82900
H  41.19800 12.24600 25.54800
H  41.15100 12.81000 23.82800
H  45.47000 12.59100 27.32700
H  46.57100 11.92400 28.50000
H  45.86600 13.47300 28.94700
H  43.08100 12.33700 33.25200
H  44.86200 11.26400 36.76300
H  46.30900 11.87100 36.06800
H  45.83500 10.09800 35.89200

