158

Mg 2.18700 -2.08600 44.14900
C  5.68900 -1.52600 43.32900
C  1.48100 0.52400 42.06900
C  -0.89800 -3.14200 44.29200
C  3.31100 -5.23400 45.33800
N  3.48800 -0.67000 42.86900
C  4.84300 -0.71800 42.61300
C  5.22100 0.22500 41.49900
C  3.95500 1.11800 41.40200
C  2.87600 0.32000 42.14900
C  3.98200 2.60600 41.91700
C  5.57100 -0.54500 40.10200
C  6.75300 0.06000 39.37200
H  6.50900 0.57700 37.95300
N  0.45200 -1.34000 43.35200
C  0.32300 -0.27800 42.48800
C  -1.10100 0.03200 42.42800
C  -1.77500 -0.95500 43.17200
C  -0.75600 -1.82900 43.71700
C  -1.66600 1.14800 41.58900
C  -3.26200 -1.13600 43.17900
O  -3.95200 -0.37400 42.53600
C  -3.98800 -2.20900 43.99900
N  1.33000 -3.89800 44.93900
C  0.03600 -4.13400 44.63300
C  -0.36200 -5.59300 44.78300
C  1.00800 -6.27100 45.05800
C  1.95900 -5.08300 45.03000
C  -1.48200 -5.84700 45.92100
C  1.37600 -7.41100 44.06100
C  1.44200 -8.80200 44.66700
N  4.08100 -3.06900 44.60800
C  4.33400 -4.34200 45.07600
C  5.76600 -4.53500 45.20800
C  6.35900 -3.44900 44.56600
C  5.26300 -2.63200 44.09800
C  6.44400 -5.53900 46.07100
C  7.57200 -2.76800 44.19500
O  8.75800 -2.98600 44.43100
C  7.20300 -1.58100 43.26300
C  7.86800 -0.34100 43.77000
O  8.78500 0.23400 43.22800
O  7.28300 0.12000 44.92600
C  7.45100 1.58600 45.16100
H  1.24300 1.46800 41.57400
H  -1.91000 -3.55300 44.30200
H  3.64800 -6.23700 45.61000
H  6.10600 0.80300 41.76700
H  3.70500 1.20500 40.34500
H  3.63700 3.27400 41.12800
H  4.97200 2.91800 42.24900
H  3.29800 2.69700 42.76000
H  4.72200 -0.46500 39.42300
H  5.76000 -1.60200 40.29100
H  7.47500 -0.75600 39.39200
H  7.09300 0.93300 39.92900
H  -0.91000 1.86000 41.26100
H  -2.44600 1.72400 42.08700
H  -2.25500 0.67200 40.80500
H  -4.99800 -1.87600 44.23700
H  -3.44600 -2.35000 44.93400
H  -3.99800 -3.08200 43.34600
H  -0.80900 -5.88800 43.83400
H  0.81500 -6.66900 46.05500
H  -1.26400 -6.69600 46.57000
H  -2.47700 -5.89000 45.47800
H  -1.44200 -5.02500 46.63600
H  2.34600 -7.23800 43.59300
H  0.78700 -7.41000 43.14400
H  1.56200 -8.68200 45.74400
H  2.27400 -9.42800 44.34500
H  0.52000 -9.37700 44.58400
H  6.45000 -6.39500 45.39700
H  5.89900 -5.79500 46.98000
H  7.45800 -5.15500 46.18300
H  7.61500 -1.73700 42.26700
H  7.03800 1.92700 44.21100
H  8.48700 1.89600 45.29000
H  6.87500 2.07100 45.94900
Mg 40.88700 8.83600 29.37600
C  42.59500 10.18800 32.18600
C  38.51300 7.72600 31.54900
C  39.27200 7.81200 26.64200
C  43.48700 10.06400 27.39500
N  40.59600 8.97100 31.62200
C  41.34600 9.66700 32.55000
C  40.70700 9.58200 33.90200
C  39.44100 8.67300 33.68400
C  39.51300 8.43900 32.21900
C  39.37900 7.45200 34.59500
C  40.36400 10.99500 34.49600
C  39.87800 10.97300 35.95900
H  40.69600 11.78000 37.05900
N  39.17800 7.80500 29.13700
C  38.33200 7.45000 30.16200
C  37.05600 6.87100 29.48500
C  37.14100 7.01600 28.06300
C  38.55800 7.52600 27.90600
C  36.14500 6.00100 30.26800
C  36.13300 6.68300 27.01800
O  36.39100 6.76400 25.81600
C  34.78800 6.30800 27.46300
N  41.41900 8.62100 27.36100
C  40.54000 8.22900 26.42000
C  41.12100 8.43200 25.00600
C  42.22200 9.46100 25.26800
C  42.43200 9.37500 26.72800
C  41.64400 7.13200 24.39200
C  41.71600 10.84600 24.90000
C  42.10600 11.36400 23.53900
N  42.75600 9.69200 29.70300
C  43.64500 10.20500 28.76500
C  44.81700 10.75800 29.43000
C  44.49900 10.66900 30.79700
C  43.17300 10.14300 30.89200
C  46.07000 11.32700 28.91500
C  44.88500 11.11000 32.12000
O  45.91500 11.64800 32.51700
C  43.63200 10.84800 33.03100
C  44.14600 9.94800 34.08300
O  44.83400 8.96000 33.92000
O  43.78100 10.41900 35.31300
C  44.21500 9.70200 36.47300
H  37.70300 7.47500 32.23800
H  38.69700 7.50700 25.76600
H  44.13900 10.67000 26.76200
H  41.43400 9.14200 34.58400
H  38.48000 9.16000 33.85100
H  38.40600 7.45400 35.08500
H  40.12600 7.38900 35.38600
H  39.41200 6.66600 33.84100
H  39.61300 11.33200 33.78100
H  41.35800 11.42000 34.35500
H  40.02500 9.92300 36.21000
H  38.83600 11.29000 36.01200
H  36.44100 6.09100 31.31400
H  36.12200 4.95400 29.96700
H  35.13000 6.38900 30.36100
H  34.79200 5.34100 27.96600
H  34.11600 6.30800 26.60400
H  34.47700 7.06400 28.18500
H  40.25100 8.74800 24.43000
H  43.17100 9.23900 24.78000
H  42.71600 6.94700 24.45400
H  41.36200 6.95300 23.35400
H  41.17800 6.29000 24.90500
H  42.00600 11.53700 25.69200
H  40.63500 10.92800 25.01600
H  41.17200 11.56900 23.01600
H  42.59800 10.48100 23.12900
H  42.76800 12.22500 23.63000
H  46.81900 11.18700 29.69500
H  45.97000 12.36700 28.60500
H  46.49200 10.69900 28.13100
H  43.23800 11.78900 33.41500
H  45.25100 10.01700 36.59600
H  44.16800 8.63100 36.27700
H  43.56800 10.15200 37.22600

