158

Mg 41.80000 41.15500 26.87800
C  40.91200 43.31500 29.56000
C  42.85300 38.95800 29.36900
C  43.16800 39.27100 24.50400
C  40.84300 43.52100 24.65000
N  41.82500 41.20900 29.28500
C  41.42200 42.14300 30.16800
C  41.58300 41.78600 31.69300
C  42.31900 40.43100 31.47000
C  42.38100 40.19800 29.90300
C  43.72600 40.41100 32.13600
C  40.13400 41.78200 32.47100
C  40.05300 40.99800 33.84800
H  39.91700 41.77200 35.12900
N  42.85000 39.40000 26.96400
C  43.11700 38.64000 28.03900
C  43.74200 37.44000 27.62700
C  43.98200 37.56100 26.23900
C  43.32200 38.78300 25.83800
C  44.07600 36.33500 28.57900
C  44.66400 36.55400 25.33300
O  44.76900 36.75800 24.13300
C  45.30400 35.34500 25.92100
N  42.21500 41.42200 24.92700
C  42.54100 40.45200 24.11200
C  42.26700 40.82600 22.63400
C  41.20700 41.87500 22.78100
C  41.42800 42.29600 24.20000
C  43.53600 41.28600 21.85000
C  39.73300 41.63000 22.31000
C  39.00100 40.33400 22.77100
N  41.10700 43.08700 27.03800
C  40.80800 43.91200 26.00000
C  40.31800 45.11700 26.51000
C  40.37200 44.93600 27.92800
C  40.80400 43.64600 28.16700
C  39.87800 46.25800 25.74300
C  39.99500 45.56600 29.17300
O  39.50500 46.69300 29.46000
C  40.20200 44.49700 30.22100
C  41.13900 45.04100 31.27000
O  42.23600 45.57600 31.13000
O  40.51400 44.97900 32.48100
C  41.15000 45.62200 33.67500
H  43.00100 38.22900 30.16800
H  43.47200 38.65600 23.65400
H  40.38600 44.14200 23.87700
H  42.27800 42.55300 32.03500
H  41.70400 39.64400 31.90600
H  44.03400 41.22700 32.78900
H  44.42500 40.26200 31.31300
H  43.79700 39.58800 32.84600
H  39.37300 41.43000 31.77500
H  39.87400 42.81300 32.71400
H  41.03500 40.52800 33.89000
H  39.38200 40.14200 33.91400
H  45.14300 36.45600 28.76600
H  43.71700 35.38600 28.18000
H  43.53300 36.41800 29.52100
H  46.03700 35.70300 26.64500
H  45.86600 34.78400 25.17500
H  44.65500 34.61800 26.41000
H  41.79700 39.96100 22.16500
H  41.52900 42.67000 22.10900
H  44.36800 40.77300 22.33200
H  43.71500 42.33300 22.09500
H  43.56700 41.06700 20.78300
H  39.67100 41.62300 21.22100
H  39.16900 42.48000 22.69300
H  38.46600 39.86200 21.94600
H  38.24300 40.64200 23.49100
H  39.75200 39.76400 23.31800
H  39.57400 45.96600 24.73800
H  40.64800 47.01200 25.58100
H  38.95600 46.63700 26.18500
H  39.18000 44.32300 30.56000
H  41.68300 44.88400 34.27400
H  40.37800 46.14300 34.24100
H  41.78000 46.46900 33.40100
Mg 30.25200 58.27000 41.13000
C  27.50000 56.29800 40.05700
C  32.34800 55.53700 40.19400
C  32.80900 60.29200 41.10100
C  28.03000 60.87300 41.43100
N  30.01800 56.20100 40.12000
C  28.74500 55.63900 39.88000
C  28.95400 54.27100 39.21700
C  30.40900 53.89500 39.77200
C  30.98400 55.30300 40.00500
C  30.51800 53.02000 41.07100
C  28.94100 54.45700 37.61600
C  27.94600 53.56900 36.88800
H  26.95100 54.26600 35.96400
N  32.33600 57.97800 40.83600
C  32.95000 56.84100 40.38800
C  34.42900 57.02600 40.36200
C  34.63300 58.39600 40.60700
C  33.23200 58.98200 40.82300
C  35.42500 55.83300 40.09500
C  35.93000 59.13500 40.65600
O  36.97700 58.39300 40.61700
C  36.12100 60.60300 40.73500
N  30.37900 60.28500 41.12300
C  31.57300 60.88300 41.35600
C  31.39600 62.38100 41.59100
C  29.94200 62.50500 41.87900
C  29.40100 61.14800 41.37900
C  32.35300 63.10500 42.61300
C  29.22400 63.77600 41.29300
C  28.18200 64.39600 42.19400
N  28.14300 58.55400 40.92300
C  27.40200 59.67300 41.14000
C  25.99400 59.41300 40.88700
C  25.97500 58.04600 40.65500
C  27.31800 57.62900 40.48700
C  24.85900 60.35800 40.90500
C  25.13700 56.89800 40.36200
O  23.88000 56.85100 40.40300
C  26.06800 55.70500 39.83100
C  25.87400 54.54300 40.71200
O  26.49300 54.26800 41.77400
O  24.89200 53.76500 40.14900
C  24.63600 52.49100 40.85800
H  32.88900 54.60100 40.03800
H  33.62000 60.97800 41.35300
H  27.42300 61.77900 41.49000
H  28.17300 53.59700 39.57000
H  30.98700 53.36800 39.01300
H  30.86400 53.57600 41.94200
H  31.25500 52.24500 40.86000
H  29.54400 52.60600 41.33300
H  29.90500 54.11600 37.23900
H  28.72500 55.47300 37.28400
H  27.36100 53.03400 37.63600
H  28.48600 52.79100 36.34900
H  35.84100 55.97300 39.09700
H  35.08500 54.81500 39.90500
H  36.16800 55.66000 40.87400
H  35.74900 60.84100 41.73200
H  35.58300 60.92600 39.84400
H  37.15800 60.92100 40.63100
H  31.60200 62.83300 40.62100
H  29.72900 62.41500 42.94400
H  33.19100 63.70600 42.25700
H  32.79100 62.31100 43.21700
H  31.70600 63.63400 43.31300
H  28.85900 63.54000 40.29300
H  30.02500 64.49900 41.13900
H  28.68800 65.20300 42.72500
H  27.95900 63.75400 43.04600
H  27.20900 64.68600 41.79900
H  25.31800 61.30300 40.61300
H  24.43200 60.46200 41.90300
H  24.15400 60.01200 40.15000
H  25.74200 55.44200 38.82500
H  24.33200 52.74200 41.87400
H  25.55400 51.91800 40.98000
H  23.85500 52.07500 40.22200

