158

Mg 6.00500 52.50500 41.19700
C  5.06000 48.98900 41.41600
C  9.14100 51.37800 40.21500
C  6.78900 55.73600 40.42400
C  2.65300 53.27300 41.64600
N  6.93500 50.39000 40.80300
C  6.31800 49.15200 40.92200
C  7.36200 48.08000 40.55500
C  8.72900 48.88000 40.63100
C  8.25300 50.34100 40.56200
C  9.65400 48.51000 41.82500
C  7.03200 47.36300 39.18500
C  6.39300 48.10700 38.01300
H  6.47500 47.55400 36.53200
N  7.66500 53.49800 40.30300
C  8.87100 52.80900 40.11200
C  9.89900 53.74900 39.75800
C  9.23400 55.06400 39.72100
C  7.80900 54.80200 40.17800
C  11.32200 53.40600 39.33400
C  9.94400 56.39600 39.38100
O  11.10300 56.35600 38.94300
C  9.37400 57.75000 39.47200
N  4.81900 54.19300 40.99700
C  5.46300 55.44400 40.83300
C  4.49100 56.50600 41.38000
C  3.10500 55.77300 41.21200
C  3.50200 54.28700 41.20900
C  4.82300 57.07100 42.76200
C  2.52200 56.08700 39.79600
C  1.13300 56.70100 39.97900
N  4.20800 51.41700 41.50100
C  2.93100 51.90000 41.80100
C  1.96500 50.81900 42.11700
C  2.83100 49.69400 42.13700
C  4.14300 50.11100 41.60700
C  0.56400 50.88400 42.56600
C  2.88800 48.33500 42.31100
O  1.96700 47.60200 42.70200
C  4.23700 47.80600 41.72400
C  3.83900 47.09900 40.46900
O  3.20600 47.51700 39.54600
O  4.30100 45.84900 40.64200
C  4.00400 44.77100 39.64900
H  10.17400 51.03800 40.12200
H  7.01300 56.80500 40.40800
H  1.66200 53.61400 41.95200
H  7.34000 47.32700 41.34200
H  9.21200 48.69300 39.67200
H  9.23100 47.83700 42.57100
H  9.75900 49.43400 42.39300
H  10.64300 48.16100 41.52800
H  6.42600 46.48400 39.40800
H  7.91500 46.85200 38.80100
H  6.83300 49.10100 37.93200
H  5.34400 48.36000 38.16800
H  11.28400 53.92800 38.37800
H  11.66500 52.37200 39.30300
H  12.08900 53.85300 39.96600
H  10.14300 58.49900 39.27800
H  8.98500 57.81100 40.48800
H  8.42000 57.92600 38.97500
H  4.55500 57.32100 40.66000
H  2.44900 55.94100 42.06700
H  5.73500 56.56100 43.07100
H  3.99600 56.87800 43.44600
H  5.12100 58.11900 42.72900
H  2.30700 55.18100 39.22900
H  3.18000 56.67400 39.15600
H  1.10800 57.75000 39.68400
H  0.77200 56.73200 41.00700
H  0.47300 56.14100 39.31700
H  0.09000 51.82900 42.29800
H  0.52700 50.73400 43.64500
H  -0.03700 50.07400 42.15400
H  4.69300 47.08900 42.40600
H  4.03500 43.77500 40.09000
H  4.81600 44.66700 38.93000
H  3.09500 44.81100 39.05000
Mg -13.07800 16.50400 41.82300
C  -10.00600 14.85600 41.22900
C  -11.91900 19.06500 39.83000
C  -16.16500 17.72100 41.78500
C  -14.40200 13.29900 42.69600
N  -11.08800 16.99500 40.82800
C  -10.02900 16.19600 40.71200
C  -8.89200 16.88600 39.89800
C  -9.47500 18.31900 39.63800
C  -10.93700 18.10500 40.12300
C  -8.65100 19.47500 40.30600
C  -8.44700 16.07500 38.61700
C  -6.92800 15.92800 38.64400
H  -6.21900 15.51200 37.31800
N  -13.89800 18.26100 41.15200
C  -13.29600 19.12600 40.26900
C  -14.10500 20.30800 40.12600
C  -15.35000 19.92800 40.74900
C  -15.20900 18.56800 41.21900
C  -13.69800 21.53500 39.28700
C  -16.53500 20.80800 40.69000
O  -16.52700 21.82900 40.04800
C  -17.83700 20.36000 41.41300
N  -15.04000 15.59200 42.14400
C  -16.11600 16.37600 42.20100
C  -17.35100 15.62400 42.68000
C  -16.81100 14.27200 43.12700
C  -15.33500 14.36400 42.67800
C  -18.25100 16.33900 43.75200
C  -17.61600 13.08700 42.61700
C  -17.55300 12.83700 41.09400
N  -12.35800 14.58900 42.11900
C  -13.02300 13.42100 42.42900
C  -12.04700 12.34500 42.40400
C  -10.89800 12.86700 41.98000
C  -11.13800 14.21600 41.82800
C  -12.25600 10.92100 42.80900
C  -9.54300 12.49100 41.63600
O  -8.94400 11.40800 41.54500
C  -8.86900 13.81200 41.28300
C  -7.75200 14.06200 42.23100
O  -7.89400 14.50600 43.37500
O  -6.46400 13.84000 41.70900
C  -5.32700 13.99200 42.58000
H  -11.59600 19.89100 39.19400
H  -17.15700 18.17800 41.81000
H  -14.71600 12.31800 43.05700
H  -8.02300 17.05500 40.53300
H  -9.57600 18.43200 38.55900
H  -7.99100 20.00000 39.61600
H  -7.95700 19.10400 41.06100
H  -9.37900 20.13900 40.77100
H  -8.79100 16.54500 37.69500
H  -8.86700 15.07200 38.54700
H  -6.56200 15.49300 39.57400
H  -6.59700 16.96600 38.67900
H  -14.10500 22.46600 39.68200
H  -14.23700 21.49200 38.34000
H  -12.63600 21.61400 39.05200
H  -18.50500 21.22100 41.44500
H  -17.57300 20.14900 42.44900
H  -18.28900 19.65400 40.71600
H  -17.97300 15.59300 41.78500
H  -16.81800 14.19500 44.21400
H  -18.04300 16.03700 44.77900
H  -19.29300 16.30100 43.43500
H  -17.90800 17.36900 43.65500
H  -18.62200 13.17000 43.02700
H  -17.22300 12.20100 43.11600
H  -17.39000 11.76000 41.06800
H  -16.77000 13.42800 40.61900
H  -18.57700 13.06300 40.79500
H  -12.46900 10.93200 43.87800
H  -11.38500 10.36500 42.46300
H  -13.07500 10.48500 42.23600
H  -8.53200 13.70600 40.25200
H  -4.35100 13.94000 42.09600
H  -5.31100 13.11500 43.22600
H  -5.36300 14.87100 43.22400

