158

Mg 35.01800 2.66700 30.09700
C  32.56300 3.53300 32.57100
C  37.36300 2.66200 32.52600
C  37.45200 2.27800 27.79100
C  32.59800 3.00600 27.70500
N  34.91800 2.91400 32.23700
C  33.86000 3.21900 33.03800
C  34.27700 3.27700 34.47900
C  35.80500 3.42600 34.44600
C  36.04700 2.92500 32.97000
C  36.39300 4.79800 34.97900
C  33.69800 2.14000 35.42400
C  33.23500 2.55800 36.87300
H  33.88400 3.76200 37.62700
N  37.05300 2.30700 30.19900
C  37.84200 2.37500 31.29500
C  39.29500 2.27500 30.93100
C  39.36400 2.17700 29.51900
C  37.93900 2.27100 29.07500
C  40.42600 2.35800 31.91500
C  40.58600 1.94900 28.58500
O  40.51300 1.83800 27.36800
C  42.04600 1.71900 29.05400
N  35.04500 2.54700 28.07300
C  36.12300 2.32500 27.31200
C  35.73100 2.24700 25.82100
C  34.19700 2.48800 25.81900
C  33.93700 2.68200 27.30400
C  36.48600 3.26100 24.92200
C  33.32300 1.34600 25.16400
C  32.50200 1.69500 23.93700
N  33.05200 3.18900 30.05400
C  32.15000 3.28100 29.07600
C  30.85700 3.68400 29.49300
C  30.99000 3.88600 30.89800
C  32.33100 3.46000 31.19200
C  29.64400 3.98200 28.61700
C  30.29600 4.26700 32.12000
O  29.15200 4.73300 32.30300
C  31.34900 4.09300 33.25000
C  31.55700 5.40500 33.90000
O  32.37800 6.23400 33.53000
O  30.65800 5.58800 34.94200
C  30.57900 6.94600 35.48100
H  38.06600 2.81800 33.34700
H  38.22600 2.24400 27.02000
H  31.91200 3.27600 26.89900
H  33.79900 4.18900 34.83800
H  36.22900 2.65600 35.09100
H  35.81600 5.46300 35.62200
H  36.60000 5.48900 34.16200
H  37.20900 4.50300 35.63900
H  34.35600 1.28000 35.54500
H  32.78700 1.82700 34.91300
H  33.23800 1.64000 37.46100
H  32.16800 2.76400 36.78700
H  41.00600 1.43800 31.84200
H  40.01600 2.33800 32.92500
H  41.04300 3.24000 31.74700
H  42.59500 1.14100 28.31100
H  42.10300 1.14200 29.97700
H  42.63000 2.63000 29.18800
H  35.86700 1.19200 25.58000
H  33.87800 3.36900 25.26200
H  36.79500 4.16400 25.44900
H  35.91200 3.44600 24.01400
H  37.37700 2.82500 24.46900
H  32.70500 0.96000 25.97500
H  33.99300 0.54300 24.85700
H  32.72200 2.69800 23.57200
H  31.44900 1.72200 24.21900
H  32.65400 0.96200 23.14400
H  29.70800 4.89300 28.02100
H  28.81800 4.08200 29.32000
H  29.49500 3.12400 27.96200
H  31.02900 3.50800 34.11200
H  30.42900 7.66600 34.67600
H  31.49500 7.30100 35.95500
H  29.72900 7.09000 36.14700
Mg 40.35700 9.78000 29.35500
C  42.13300 10.52700 32.32900
C  38.06300 8.03300 31.26900
C  38.87100 8.72500 26.51700
C  43.01100 10.96200 27.46800
N  40.28700 9.22300 31.56900
C  41.09500 9.60600 32.57500
C  40.50200 9.25600 33.93800
C  39.39200 8.21100 33.53600
C  39.18300 8.53700 32.05000
C  39.62000 6.69200 33.85200
C  39.92100 10.48700 34.66500
C  40.30600 10.61200 36.17400
H  40.53800 11.98000 36.76200
N  38.67400 8.65100 28.90000
C  37.89900 8.01300 29.83200
C  36.82100 7.25800 29.15400
C  36.97700 7.54300 27.77600
C  38.17700 8.36100 27.65500
C  35.89000 6.36500 29.81500
C  36.15900 7.02900 26.60500
O  36.38500 7.37900 25.45100
C  35.07200 6.10800 26.93700
N  40.94700 9.77100 27.27200
C  40.17100 9.23100 26.34900
C  40.80000 9.39300 24.93900
C  42.04000 10.21400 25.22900
C  41.99300 10.34900 26.77200
C  40.99600 8.03200 24.21300
C  41.88700 11.63600 24.55200
C  40.60200 12.40200 24.78800
N  42.23700 10.56100 29.76600
C  43.17900 11.07900 28.89500
C  44.20400 11.69500 29.65400
C  43.82400 11.60600 30.97700
C  42.61100 10.88900 31.01700
C  45.38700 12.39700 29.23700
C  44.14100 11.86100 32.44700
O  45.13400 12.43500 32.90100
C  43.03100 11.18100 33.36700
C  43.77500 10.23900 34.26800
O  44.47100 9.33000 33.89700
O  43.50500 10.59500 35.53400
C  44.36000 9.93900 36.54500
H  37.34900 7.46300 31.86600
H  38.43200 8.44600 25.55700
H  43.90000 11.37900 26.98900
H  41.09300 8.69000 34.65700
H  38.45200 8.41200 34.05100
H  40.06500 6.21600 32.97800
H  38.69800 6.14300 34.04600
H  40.35800 6.46100 34.62000
H  38.83700 10.42800 34.56500
H  40.24700 11.39300 34.15400
H  41.18900 10.07800 36.52600
H  39.48700 10.16400 36.73700
H  34.84700 6.55900 29.56500
H  35.76000 6.68700 30.84800
H  36.19500 5.32300 29.71000
H  35.37000 5.10500 27.24200
H  34.50100 5.95800 26.02100
H  34.42700 6.76300 27.52300
H  40.03300 9.94800 24.39900
H  42.98200 9.75700 24.92700
H  42.07100 8.01700 24.03700
H  40.62400 7.97300 23.19000
H  40.66100 7.19100 24.81900
H  41.96600 11.53800 23.46900
H  42.80700 12.16300 24.80600
H  40.77700 13.37800 25.24000
H  39.85200 11.92000 25.41500
H  40.09700 12.77200 23.89600
H  45.39100 13.27700 29.88100
H  45.32600 12.75400 28.20900
H  46.31400 11.83400 29.34400
H  42.42600 11.88700 33.93600
H  45.42100 9.92100 36.29400
H  43.86300 8.98300 36.71100
H  44.18700 10.41900 37.50900

