158

Mg 48.64500 14.93300 28.02100
C  46.91000 15.24200 31.13900
C  51.12900 16.75200 29.41100
C  50.01500 15.20300 25.08000
C  45.60400 13.80900 26.60300
N  48.92300 15.96100 30.10500
C  48.12500 15.93100 31.18700
C  48.78800 16.51600 32.41800
C  50.16800 17.06200 31.80200
C  50.06300 16.59100 30.39000
C  50.35000 18.60300 32.00000
C  48.95400 15.45300 33.56700
C  48.42400 15.85200 34.97500
H  48.36700 17.37200 35.39200
N  50.43900 15.75100 27.34300
C  51.36000 16.41600 28.06700
C  52.51500 16.82400 27.24700
C  52.23000 16.31400 25.95300
C  50.86300 15.70300 26.10900
C  53.70300 17.52800 27.87300
C  53.08900 16.36900 24.64500
O  52.70400 15.99500 23.56500
C  54.40000 17.11600 24.72200
N  47.89800 14.61200 26.11000
C  48.72000 14.72500 25.03500
C  47.93600 14.46800 23.76900
C  46.54700 14.02200 24.22700
C  46.66500 14.11500 25.74800
C  48.02100 15.68200 22.87200
C  46.04100 12.72000 23.65800
C  46.63800 11.47500 24.31500
N  46.66400 14.62800 28.63200
C  45.63200 14.13500 27.93700
C  44.45000 13.97100 28.81500
C  44.96500 14.30500 30.04900
C  46.27000 14.76500 29.92300
C  43.07200 13.63900 28.45900
C  44.56400 14.36600 31.41700
O  43.50600 14.05800 31.94600
C  45.81700 14.96400 32.24500
C  45.38400 16.21000 32.90500
O  45.42200 17.33200 32.38700
O  44.71400 15.91900 34.01100
C  44.05300 17.02900 34.68900
H  51.91300 17.39600 29.81400
H  50.57800 15.16500 24.14600
H  44.58200 13.63000 26.26500
H  48.11100 17.29800 32.76200
H  50.94700 16.51000 32.32800
H  49.38000 19.08000 32.14200
H  50.94300 19.04500 31.19900
H  50.93000 18.69400 32.91900
H  49.95200 15.22200 33.94100
H  48.51500 14.50600 33.25200
H  49.02100 15.33900 35.72900
H  47.43400 15.40000 34.91600
H  54.12100 18.24700 27.16800
H  54.43000 16.76600 28.15200
H  53.46900 17.96400 28.84400
H  54.27700 18.16700 24.98200
H  54.88500 16.90600 23.76800
H  54.96400 16.56400 25.47400
H  48.48700 13.70300 23.22300
H  45.73600 14.69900 23.96000
H  49.05900 15.81400 22.56800
H  47.65500 16.57900 23.37300
H  47.44000 15.48200 21.97100
H  46.22700 12.67400 22.58500
H  44.96200 12.82000 23.78000
H  47.59500 11.73400 24.76700
H  46.72900 10.69400 23.55900
H  46.03900 11.10400 25.14700
H  43.08800 12.62800 28.05300
H  42.76700 14.25600 27.61400
H  42.38000 13.88300 29.26600
H  46.10500 14.29800 33.05800
H  44.79000 17.56400 35.28800
H  43.20400 16.63800 35.25100
H  43.47500 17.73300 34.09100
Mg -9.39000 39.16400 40.39300
C  -8.00900 36.09400 39.08500
C  -6.32100 40.54300 39.72600
C  -10.96000 42.20400 40.29400
C  -12.60600 37.71900 40.03700
N  -7.34900 38.27900 39.65500
C  -7.01800 37.09000 39.22000
C  -5.56800 36.92800 38.85700
C  -5.02200 38.36800 39.39400
C  -6.29200 39.11800 39.68200
C  -4.05400 38.46600 40.56900
C  -5.22900 36.60600 37.38900
C  -5.75700 37.30100 36.10200
H  -6.58300 36.43200 35.10200
N  -8.66900 41.13200 40.23200
C  -7.39300 41.47700 39.97800
C  -7.31700 42.89900 39.80500
C  -8.58800 43.37400 40.21400
C  -9.47600 42.22400 40.29900
C  -6.15300 43.58800 39.41400
C  -8.92200 44.80500 40.49200
O  -8.12100 45.62900 40.12500
C  -10.16300 45.29800 41.24100
N  -11.57500 39.85000 40.29600
C  -11.92700 41.14600 40.32000
C  -13.38500 41.35400 40.50300
C  -13.96800 39.91400 40.31900
C  -12.65500 39.11000 40.27900
C  -13.74300 42.18000 41.74200
C  -14.77500 39.77500 39.00900
C  -14.14800 39.14400 37.77600
N  -10.14500 37.21200 39.98600
C  -11.45700 36.84400 39.85500
C  -11.55300 35.46500 39.58700
C  -10.19800 35.14900 39.28100
C  -9.41400 36.26800 39.46200
C  -12.84700 34.62800 39.55000
C  -9.31000 34.04100 38.95500
O  -9.56400 32.87000 38.76000
C  -7.81800 34.60700 38.78000
C  -6.95800 33.87000 39.67400
O  -7.18800 33.83800 40.88800
O  -5.79800 33.50300 38.98800
C  -4.76600 32.68200 39.62300
H  -5.34100 41.01400 39.62800
H  -11.53900 43.12900 40.32700
H  -13.61400 37.30000 40.05200
H  -5.11100 36.23500 39.56300
H  -4.52800 38.93700 38.60700
H  -3.30900 37.69400 40.37600
H  -4.41200 38.21100 41.56600
H  -3.61700 39.45000 40.74100
H  -5.24900 35.51600 37.39900
H  -4.14800 36.73600 37.33100
H  -4.98500 37.86400 35.57800
H  -6.52600 37.97000 36.48800
H  -6.39400 44.19400 38.54100
H  -5.37700 42.89200 39.09400
H  -5.82500 44.20700 40.24900
H  -10.72300 44.62400 41.88800
H  -10.84500 45.76900 40.53300
H  -9.80900 46.02400 41.97200
H  -13.69500 42.03000 39.70600
H  -14.61800 39.62000 41.14300
H  -14.47700 41.76200 42.43200
H  -14.11300 43.19100 41.56800
H  -12.86600 42.38400 42.35600
H  -15.06300 40.78200 38.70600
H  -15.58000 39.10800 39.31700
H  -13.09000 39.40500 37.79600
H  -14.60700 39.61600 36.90700
H  -14.16600 38.07600 37.55900
H  -12.61800 33.59800 39.27800
H  -13.50800 34.99200 38.76400
H  -13.28000 34.70600 40.54800
H  -7.40000 34.45200 37.78500
H  -5.29500 32.09300 40.37100
H  -3.95300 33.20300 40.12800
H  -4.42100 31.96500 38.87800

