158

Mg 0.76600 -1.93000 44.45400
C  4.34900 -1.39700 43.99400
C  0.40300 0.91900 42.47200
C  -2.34600 -2.77700 44.27000
C  1.56400 -4.94600 45.95900
N  2.29500 -0.40000 43.46200
C  3.66000 -0.48000 43.32900
C  4.20300 0.64600 42.45600
C  2.88900 1.41800 42.04800
C  1.74900 0.62600 42.68100
C  2.88300 2.96900 42.38400
C  5.13800 -0.01000 41.31500
C  6.56000 0.66100 41.11300
H  6.91100 0.73000 39.56500
N  -0.76200 -1.04800 43.45000
C  -0.71600 0.10300 42.77100
C  -2.09100 0.48400 42.46000
C  -2.93400 -0.61200 42.83000
C  -2.08600 -1.57800 43.53000
C  -2.44300 1.82200 41.68100
C  -4.45300 -0.62600 42.68000
O  -4.98500 0.33500 42.13900
C  -5.29800 -1.72800 43.13400
N  -0.23800 -3.75600 44.91600
C  -1.55800 -3.67500 44.93800
C  -2.12700 -5.03400 45.46200
C  -0.81700 -5.84600 45.85800
C  0.22900 -4.79000 45.64900
C  -3.15600 -4.79000 46.59800
C  -0.54700 -7.19100 44.99300
C  -0.31200 -8.44000 45.86700
N  2.52100 -2.87000 45.05600
C  2.70900 -4.06700 45.75900
C  4.09700 -4.46300 45.86400
C  4.75100 -3.42100 45.14900
C  3.77100 -2.45000 44.67800
C  4.71300 -5.53300 46.53900
C  6.06400 -2.89100 44.79100
O  7.08700 -3.46500 45.04300
C  5.83400 -1.53200 44.11700
C  6.49100 -0.42000 44.96100
O  6.53700 -0.35400 46.14600
O  7.20100 0.43800 44.09700
C  7.95500 1.40300 44.78500
H  0.38100 1.75600 41.77200
H  -3.40000 -3.05700 44.30600
H  1.72700 -5.90900 46.44800
H  4.78900 1.18100 43.20300
H  2.80400 1.50700 40.96500
H  2.13000 3.07100 43.16600
H  2.77000 3.43600 41.40600
H  3.84300 3.21200 42.84000
H  4.53000 0.07300 40.41400
H  5.31000 -1.08600 41.29700
H  7.26700 0.10300 41.72600
H  6.53300 1.65600 41.55700
H  -1.57900 2.31100 41.23000
H  -3.03500 2.56500 42.21400
H  -2.99300 1.53400 40.78500
H  -5.28300 -1.83300 44.21800
H  -5.10100 -2.73900 42.77800
H  -6.31600 -1.50500 42.81600
H  -2.62300 -5.53400 44.63000
H  -0.69600 -6.10600 46.91000
H  -3.50400 -3.75700 46.58800
H  -2.72500 -4.93900 47.58800
H  -3.96700 -5.50300 46.44400
H  0.36400 -7.01400 44.42200
H  -1.37700 -7.45300 44.33600
H  0.41700 -9.03800 45.32000
H  -1.26700 -8.93500 46.04000
H  0.15500 -8.18200 46.81700
H  5.51100 -5.99200 45.95500
H  4.00900 -6.21700 47.01400
H  5.27900 -5.09600 47.36200
H  6.30700 -1.58700 43.13700
H  8.86600 0.87300 45.06300
H  7.56000 1.94900 45.64200
H  8.18800 2.14600 44.02200
Mg 16.36200 -1.52300 28.19300
C  15.18000 0.22500 30.84300
C  18.54300 -3.16300 30.51200
C  17.88500 -3.10600 25.54700
C  14.18800 -0.02100 25.98700
N  16.82000 -1.42900 30.40900
C  16.17000 -0.67500 31.29000
C  16.61700 -0.96000 32.73900
C  17.85300 -1.87800 32.52200
C  17.76200 -2.14700 31.01000
C  19.22500 -1.41300 32.97100
C  15.37800 -1.32200 33.75900
C  15.43100 -0.73900 35.14800
H  16.67300 0.06300 35.62200
N  17.97400 -2.94600 28.05600
C  18.64500 -3.56300 29.13100
C  19.40600 -4.70100 28.56800
C  19.36600 -4.61300 27.16600
C  18.41400 -3.52200 26.84900
C  19.98700 -5.80400 29.51400
C  20.18100 -5.41200 26.12400
O  20.09400 -5.23300 24.87300
C  21.15700 -6.46900 26.62500
N  16.21200 -1.54700 26.08500
C  16.99000 -2.11400 25.18300
C  16.63600 -1.73200 23.76300
C  15.15500 -1.17600 23.98800
C  15.15500 -0.92900 25.43600
C  17.58600 -0.65500 23.04000
C  13.91900 -2.16200 23.68600
C  13.05700 -1.97500 22.47100
N  15.03300 -0.07400 28.26500
C  14.16600 0.43200 27.33600
C  13.37300 1.44600 27.88500
C  13.72300 1.39000 29.32400
C  14.76000 0.45600 29.48600
C  12.30600 2.36000 27.25400
C  13.47800 1.98400 30.62200
O  12.69200 2.89000 30.94400
C  14.42200 1.22800 31.60900
C  15.20000 2.22900 32.37300
O  16.40400 2.37500 32.34500
O  14.40600 2.99700 33.20000
C  15.12700 4.00300 34.10500
H  19.18500 -3.70800 31.20700
H  18.21600 -3.68400 24.68100
H  13.37400 0.26700 25.31800
H  17.05100 0.00200 33.01300
H  17.72600 -2.75100 33.16200
H  19.31600 -1.81500 33.98000
H  19.33900 -0.33100 32.90500
H  20.00800 -1.77200 32.30400
H  15.34500 -2.40900 33.82300
H  14.42800 -1.03700 33.30600
H  15.31700 -1.57400 35.83900
H  14.56300 -0.11100 35.35300
H  20.06400 -5.39400 30.52100
H  21.06300 -5.95400 29.42700
H  19.40100 -6.72300 29.53300
H  21.51700 -7.12800 25.83500
H  20.71200 -7.12300 27.37500
H  21.87000 -5.88600 27.20800
H  16.50600 -2.62400 23.14900
H  14.99800 -0.19700 23.53400
H  17.84800 -1.19700 22.13100
H  18.49300 -0.34600 23.55900
H  17.03100 0.26400 22.85200
H  13.32500 -2.17000 24.60000
H  14.46600 -3.09300 23.53900
H  12.56100 -1.00500 22.51000
H  12.18300 -2.61800 22.57900
H  13.64000 -2.16000 21.56900
H  11.33300 2.31500 27.74300
H  12.36500 2.09900 26.19700
H  12.62800 3.39900 27.33200
H  13.80300 0.65400 32.29700
H  14.52600 4.90600 34.21400
H  16.08000 4.34000 33.69800
H  15.32200 3.45500 35.02700

