158

Mg 47.45400 34.80000 25.96700
C  45.54400 33.47300 28.66400
C  48.01700 37.60200 28.03300
C  48.88600 36.25300 23.36700
C  46.46000 32.07000 24.03500
N  46.87200 35.37100 28.14200
C  46.18400 34.63400 29.03700
C  46.40100 35.27100 30.46900
C  46.74500 36.71500 30.15300
C  47.23100 36.58900 28.64400
C  45.71500 37.87100 30.31300
C  47.55500 34.47400 31.10400
C  47.71300 34.60900 32.65100
H  46.60200 35.36300 33.34700
N  48.25000 36.67800 25.74100
C  48.49800 37.62700 26.69500
C  49.46100 38.61600 26.20300
C  49.77600 38.17400 24.88700
C  48.92700 36.98900 24.61500
C  50.04700 39.78400 27.06300
C  50.79000 38.81500 23.83100
O  51.06200 38.17800 22.78000
C  51.30100 40.13300 24.13100
N  47.52500 34.23800 23.94000
C  48.24900 35.05800 23.07900
C  48.24700 34.38900 21.72000
C  47.52900 32.97300 21.91700
C  47.09500 33.08600 23.41700
C  47.64600 35.23600 20.61000
C  48.23100 31.68000 21.51900
C  47.59800 30.87400 20.35300
N  46.24400 33.03400 26.22000
C  45.99900 31.99500 25.35300
C  45.19600 31.07800 26.09800
C  44.93200 31.61600 27.30000
C  45.70500 32.82000 27.40900
C  44.65000 29.74900 25.61000
C  44.26100 31.36000 28.56700
O  43.54700 30.44700 28.96600
C  44.62500 32.60200 29.48500
C  45.25200 31.97000 30.66000
O  46.22500 31.28900 30.69100
O  44.36500 32.05300 31.77200
C  44.87900 31.31800 32.90600
H  48.25400 38.43000 28.70500
H  49.43400 36.76300 22.57200
H  46.08400 31.29700 23.36200
H  45.56900 35.09400 31.15000
H  47.66000 36.87800 30.72100
H  45.65000 38.37800 29.35000
H  46.06600 38.63900 31.00200
H  44.69600 37.66800 30.64500
H  48.49600 34.93900 30.81300
H  47.54100 33.40000 30.91900
H  48.73700 34.91000 32.87300
H  47.52300 33.66500 33.16400
H  49.52200 39.86600 28.01400
H  49.88100 40.71500 26.51900
H  51.12100 39.71200 27.23700
H  51.71500 40.69800 23.29500
H  51.97500 40.05200 24.98400
H  50.60100 40.89600 24.47100
H  49.29600 34.20000 21.49400
H  46.64200 32.95200 21.28300
H  46.83300 34.72200 20.09700
H  48.40200 35.43900 19.85100
H  47.33200 36.15400 21.10600
H  48.29700 30.92200 22.30000
H  49.25400 31.92100 21.22900
H  48.38300 30.54800 19.67100
H  47.03800 31.62100 19.79100
H  46.93700 30.12500 20.78800
H  44.76700 28.90500 26.29000
H  45.04500 29.61100 24.60400
H  43.59400 29.98800 25.48000
H  43.70100 33.14600 29.68000
H  45.74600 31.75700 33.40000
H  45.07000 30.26300 32.71200
H  44.02900 31.34200 33.58900
Mg 40.86100 41.25300 26.75900
C  40.68600 43.78100 29.12000
C  42.25300 39.17300 29.14000
C  41.50600 38.95900 24.31000
C  40.01400 43.69400 24.34600
N  41.41300 41.49300 28.83900
C  41.02500 42.54100 29.64900
C  41.24100 42.19400 31.13500
C  41.99700 40.87300 31.06900
C  41.88500 40.45400 29.59200
C  43.50400 40.91100 31.67000
C  39.86200 42.14600 31.87900
C  39.97300 41.63900 33.28600
H  39.11800 42.28000 34.40600
N  41.84000 39.29400 26.67500
C  42.28100 38.64300 27.78200
C  42.65000 37.32400 27.35100
C  42.45100 37.17500 25.95100
C  41.88900 38.52600 25.56800
C  43.14800 36.28900 28.38700
C  42.66800 36.01200 25.01800
O  42.46000 36.05200 23.77600
C  43.22600 34.67900 25.50700
N  40.78500 41.30100 24.61200
C  40.94000 40.16800 23.84300
C  40.51500 40.43700 22.33800
C  39.91800 41.88600 22.48300
C  40.25800 42.34700 23.91700
C  41.74300 40.29200 21.26900
C  38.45100 41.88200 22.16500
C  37.53700 40.80400 22.77500
N  40.57300 43.36400 26.67500
C  40.12900 44.18500 25.65000
C  39.92600 45.49100 26.11800
C  40.12100 45.36300 27.53500
C  40.55300 44.10000 27.76900
C  39.49500 46.77500 25.23500
C  39.96900 46.05700 28.75600
O  39.51500 47.16800 29.02700
C  40.45500 45.09000 29.87700
C  41.74400 45.64600 30.43100
O  42.83600 45.57600 29.87400
O  41.53000 46.18700 31.64800
C  42.73300 46.36100 32.44300
H  42.66700 38.57500 29.95500
H  41.65800 38.17200 23.56800
H  39.68300 44.36200 23.54800
H  41.83700 43.02800 31.50500
H  41.39000 40.07700 31.50100
H  44.30700 40.98600 30.93600
H  43.63800 39.92900 32.12500
H  43.53100 41.64300 32.47700
H  39.15400 41.48800 31.37500
H  39.38300 43.12500 31.88300
H  40.99800 41.81000 33.61600
H  39.81200 40.56400 33.20700
H  44.21400 36.06200 28.43700
H  42.66900 35.33800 28.15200
H  42.72300 36.58400 29.34600
H  42.50900 33.88000 25.69600
H  43.94800 34.75200 26.32000
H  43.86000 34.47500 24.64400
H  39.84000 39.64600 22.01000
H  40.45300 42.62600 21.88900
H  42.67800 40.20100 21.82200
H  41.78000 41.16300 20.61500
H  41.62700 39.47100 20.56100
H  38.45600 41.82600 21.07700
H  37.95600 42.80800 22.46000
H  36.62600 41.34500 23.03200
H  37.95300 40.10100 23.49800
H  37.05600 40.22200 21.99000
H  40.21500 46.75700 24.41600
H  39.58800 47.69400 25.81400
H  38.49000 46.71800 24.81700
H  39.71900 44.87600 30.65200
H  43.56700 46.90100 31.99700
H  42.97600 45.44700 32.98600
H  42.34300 46.98000 33.25100

