158

Mg 48.26900 35.03900 26.72200
C  46.40000 34.00700 29.48600
C  49.08100 37.95500 28.49300
C  49.68600 36.06600 23.83700
C  46.90900 32.32100 24.95300
N  47.94500 35.80600 28.85100
C  47.11400 35.21300 29.80500
C  47.27300 35.97700 31.16400
C  47.88200 37.37200 30.65900
C  48.36900 37.05300 29.27700
C  46.85100 38.53500 30.61000
C  48.38600 35.16400 32.00700
C  48.10500 34.71400 33.40300
H  47.15200 35.59600 34.16500
N  49.28600 36.73300 26.24800
C  49.50200 37.84700 27.12200
C  50.43000 38.64700 26.49200
C  50.86200 37.96000 25.29700
C  49.90600 36.85800 25.07200
C  50.97600 39.96400 27.18600
C  51.99800 38.30500 24.23800
O  52.16700 37.58500 23.25700
C  52.88400 39.46500 24.41700
N  48.27700 34.40000 24.70300
C  48.86000 34.96200 23.57800
C  48.87100 34.13900 22.34400
C  48.15000 32.87800 22.83000
C  47.76800 33.20900 24.26800
C  48.38500 34.72300 21.05900
C  48.97500 31.56800 22.71600
C  48.44100 30.36100 21.90800
N  47.04100 33.39900 27.12500
C  46.53000 32.39700 26.24700
C  45.54200 31.63000 26.95700
C  45.47100 32.23500 28.23500
C  46.46200 33.26000 28.31500
C  45.04100 30.33300 26.53900
C  44.79500 32.13200 29.47600
O  43.90200 31.34400 29.85100
C  45.31800 33.29000 30.35100
C  45.83000 32.78400 31.58700
O  46.84800 32.17000 31.68500
O  44.99600 33.13600 32.54700
C  45.02100 32.38400 33.79800
H  49.17700 38.91000 29.01300
H  50.36200 36.05100 22.98000
H  46.55500 31.42100 24.44600
H  46.31200 36.15100 31.64800
H  48.74900 37.66900 31.24900
H  45.85200 38.12000 30.74200
H  46.85400 38.99200 29.62000
H  46.95500 39.35800 31.31800
H  49.30500 35.74900 31.97900
H  48.56300 34.25500 31.43100
H  49.01900 34.73500 33.99600
H  47.76100 33.68100 33.44800
H  50.59500 40.20600 28.17800
H  50.54000 40.71200 26.52400
H  52.06600 39.98400 27.20400
H  52.33700 40.40500 24.34800
H  53.76500 39.44700 23.77600
H  53.32300 39.35700 25.40900
H  49.93400 33.95600 22.18500
H  47.18100 32.72100 22.35600
H  47.64700 33.99900 20.71300
H  49.16100 34.64400 20.29700
H  47.96500 35.72200 21.17600
H  49.18200 31.01100 23.63000
H  49.97200 31.84200 22.37100
H  49.29400 29.90200 21.40900
H  47.64700 30.62200 21.20800
H  48.12800 29.48900 22.48100
H  44.67300 30.36000 25.51400
H  44.11300 30.11200 27.06700
H  45.70100 29.46800 26.60800
H  44.63100 34.09300 30.61700
H  44.39000 31.49600 33.82200
H  44.54100 32.91300 34.62200
H  46.01700 32.05400 34.09000
Mg 26.94500 50.51400 26.24700
C  25.31300 51.47900 29.19000
C  29.59100 49.45800 28.39800
C  28.82300 49.81600 23.53200
C  24.44400 51.96900 24.40200
N  27.49700 50.60300 28.54200
C  26.46000 50.78400 29.49800
C  26.97000 50.30600 30.88400
C  28.46000 49.93200 30.59300
C  28.49100 49.96800 29.08300
C  29.54100 50.87600 31.16600
C  26.19700 49.08500 31.54500
C  25.44500 49.29700 32.85900
H  26.37100 49.47700 34.05800
N  28.93700 49.76700 26.02500
C  29.84300 49.29700 27.00300
C  31.08600 48.83600 26.37600
C  30.90800 49.05800 24.96600
C  29.51800 49.60400 24.81200
C  32.19900 48.22600 27.15000
C  31.80900 48.88500 23.80800
O  31.54300 49.19900 22.65900
C  33.29700 48.41100 24.09700
N  26.82400 50.98500 24.30400
C  27.59100 50.40600 23.29800
C  26.96300 50.58600 21.89600
C  25.53100 51.13900 22.28900
C  25.61500 51.37300 23.78500
C  27.78400 51.47900 20.91100
C  24.25000 50.48200 21.74400
C  23.29900 51.41700 20.96800
N  25.17700 51.57300 26.70600
C  24.25400 52.07900 25.81800
C  23.13700 52.57300 26.49400
C  23.47900 52.42200 27.84700
C  24.77800 51.77100 27.89800
C  21.92100 53.14600 25.85700
C  23.18100 52.64600 29.15800
O  22.23700 53.20900 29.58100
C  24.19000 51.99200 30.21900
C  24.74700 53.00800 31.17600
O  25.40800 53.99300 30.86900
O  24.29600 52.72600 32.45000
C  24.52000 53.81100 33.43300
H  30.34900 49.11100 29.10400
H  29.24800 49.43500 22.60100
H  23.66400 52.35000 23.74000
H  27.00400 51.12900 31.59800
H  28.67600 48.91200 30.91100
H  30.25200 50.41500 31.85200
H  29.13800 51.70700 31.74500
H  30.06500 51.30400 30.31200
H  26.89400 48.26400 31.71100
H  25.49200 48.64800 30.83800
H  24.85300 48.38600 32.94100
H  24.76200 50.14500 32.81400
H  32.13100 48.15400 28.23600
H  33.16200 48.71900 27.02200
H  32.24000 47.15500 26.95400
H  33.81400 49.34700 24.31000
H  33.80200 47.84600 23.31400
H  33.45400 47.88800 25.04000
H  26.94100 49.57800 21.48300
H  25.58300 52.10700 21.79100
H  28.53800 52.03300 21.47000
H  27.24300 52.21900 20.32200
H  28.30200 50.88200 20.16000
H  23.66600 50.12200 22.59100
H  24.55800 49.57900 21.21700
H  23.83900 51.64700 20.04900
H  23.09900 52.36700 21.46300
H  22.36400 50.90000 20.74900
H  21.70000 52.58500 24.94900
H  22.08000 54.18200 25.55600
H  21.15000 53.08500 26.62500
H  23.65200 51.23900 30.79500
H  24.76800 54.79400 33.03500
H  25.46600 53.52800 33.89600
H  23.77000 53.77100 34.22400

