158

Mg 2.18700 -2.08600 44.14900
C  5.68900 -1.52600 43.32900
C  1.48100 0.52400 42.06900
C  -0.89800 -3.14200 44.29200
C  3.31100 -5.23400 45.33800
N  3.48800 -0.67000 42.86900
C  4.84300 -0.71800 42.61300
C  5.22100 0.22500 41.49900
C  3.95500 1.11800 41.40200
C  2.87600 0.32000 42.14900
C  3.98200 2.60600 41.91700
C  5.57100 -0.54500 40.10200
C  6.75300 0.06000 39.37200
H  6.50900 0.57700 37.95300
N  0.45200 -1.34000 43.35200
C  0.32300 -0.27800 42.48800
C  -1.10100 0.03200 42.42800
C  -1.77500 -0.95500 43.17200
C  -0.75600 -1.82900 43.71700
C  -1.66600 1.14800 41.58900
C  -3.26200 -1.13600 43.17900
O  -3.95200 -0.37400 42.53600
C  -3.98800 -2.20900 43.99900
N  1.33000 -3.89800 44.93900
C  0.03600 -4.13400 44.63300
C  -0.36200 -5.59300 44.78300
C  1.00800 -6.27100 45.05800
C  1.95900 -5.08300 45.03000
C  -1.48200 -5.84700 45.92100
C  1.37600 -7.41100 44.06100
C  1.44200 -8.80200 44.66700
N  4.08100 -3.06900 44.60800
C  4.33400 -4.34200 45.07600
C  5.76600 -4.53500 45.20800
C  6.35900 -3.44900 44.56600
C  5.26300 -2.63200 44.09800
C  6.44400 -5.53900 46.07100
C  7.57200 -2.76800 44.19500
O  8.75800 -2.98600 44.43100
C  7.20300 -1.58100 43.26300
C  7.86800 -0.34100 43.77000
O  8.78500 0.23400 43.22800
O  7.28300 0.12000 44.92600
C  7.45100 1.58600 45.16100
H  1.24300 1.46800 41.57400
H  -1.91000 -3.55300 44.30200
H  3.64800 -6.23700 45.61000
H  6.10600 0.80300 41.76700
H  3.70500 1.20500 40.34500
H  3.63700 3.27400 41.12800
H  4.97200 2.91800 42.24900
H  3.29800 2.69700 42.76000
H  4.72200 -0.46500 39.42300
H  5.76000 -1.60200 40.29100
H  7.47500 -0.75600 39.39200
H  7.09300 0.93300 39.92900
H  -0.91000 1.86000 41.26100
H  -2.44600 1.72400 42.08700
H  -2.25500 0.67200 40.80500
H  -4.99800 -1.87600 44.23700
H  -3.44600 -2.35000 44.93400
H  -3.99800 -3.08200 43.34600
H  -0.80900 -5.88800 43.83400
H  0.81500 -6.66900 46.05500
H  -1.26400 -6.69600 46.57000
H  -2.47700 -5.89000 45.47800
H  -1.44200 -5.02500 46.63600
H  2.34600 -7.23800 43.59300
H  0.78700 -7.41000 43.14400
H  1.56200 -8.68200 45.74400
H  2.27400 -9.42800 44.34500
H  0.52000 -9.37700 44.58400
H  6.45000 -6.39500 45.39700
H  5.89900 -5.79500 46.98000
H  7.45800 -5.15500 46.18300
H  7.61500 -1.73700 42.26700
H  7.03800 1.92700 44.21100
H  8.48700 1.89600 45.29000
H  6.87500 2.07100 45.94900
Mg 8.19500 3.50600 27.81900
C  9.82300 1.98400 30.53300
C  5.98000 5.03200 30.20000
C  6.36400 4.71900 25.38900
C  9.68500 1.33100 25.77900
N  7.86000 3.39400 30.12000
C  8.72800 2.78500 30.96500
C  8.46000 3.28400 32.39200
C  7.29800 4.27500 32.31200
C  6.98100 4.18100 30.76700
C  6.07900 4.16100 33.26300
C  9.70600 3.84400 33.23600
C  9.41700 4.55600 34.56200
H  10.27900 4.33700 35.75600
N  6.45500 4.75200 27.80100
C  5.76200 5.27700 28.81200
C  4.68000 6.12500 28.33200
C  4.73200 6.05500 26.87600
C  5.84200 5.21400 26.58200
C  3.87500 7.00700 29.20900
C  3.86800 6.72100 25.82200
O  4.01900 6.65200 24.62800
C  2.65300 7.54400 26.16000
N  7.95400 3.00100 25.84000
C  7.19300 3.65900 25.02800
C  7.47900 3.36700 23.54200
C  8.71100 2.40000 23.64800
C  8.83600 2.19600 25.16100
C  6.19900 3.04700 22.61700
C  10.06600 2.90500 23.11900
C  10.98200 3.91900 24.01300
N  9.60100 1.96500 28.06400
C  10.13500 1.20200 27.10400
C  11.16700 0.34400 27.66100
C  11.12800 0.75900 29.04700
C  10.09000 1.65300 29.21600
C  12.17700 -0.48400 26.85700
C  11.64500 0.43700 30.30700
O  12.56600 -0.31200 30.60600
C  10.78100 1.11500 31.33500
C  10.03600 0.16500 32.20300
O  9.22000 -0.67200 31.83000
O  10.36400 0.32100 33.51900
C  9.68500 -0.64200 34.38300
H  5.40700 5.63700 30.90600
H  5.94800 5.11200 24.45900
H  10.33800 0.68100 25.19200
H  8.13100 2.31200 32.76000
H  7.67000 5.28400 32.49100
H  5.18600 3.94600 32.67700
H  5.85600 5.00900 33.91100
H  6.13800 3.33100 33.96700
H  10.42400 4.37000 32.60700
H  10.25300 2.95100 33.54100
H  8.35300 4.38000 34.71500
H  9.52100 5.62300 34.36500
H  3.83900 7.93200 28.63300
H  4.34900 7.31600 30.14000
H  2.91200 6.55300 29.44500
H  2.07300 7.00000 26.90500
H  1.96200 7.72500 25.33700
H  3.12900 8.48800 26.42700
H  7.89700 4.27800 23.11300
H  8.36100 1.46400 23.21400
H  5.28700 3.26900 23.17200
H  6.30800 1.99600 22.34800
H  6.25600 3.73000 21.77000
H  9.86900 3.40100 22.16800
H  10.64000 1.99200 22.95600
H  10.30100 4.52300 24.61100
H  11.53400 4.58100 23.34500
H  11.62900 3.33200 24.66500
H  12.79200 -1.02400 27.57600
H  12.66800 0.24800 26.21500
H  11.65900 -1.20500 26.22600
H  11.48200 1.61800 32.00000
H  10.48500 -1.35500 34.58300
H  8.87000 -1.18800 33.90700
H  9.32000 -0.23300 35.32500

