158

Mg 46.40800 24.58100 28.25100
C  46.92700 26.95300 30.73000
C  45.38100 22.33600 30.52600
C  46.50500 22.21800 25.93700
C  47.85400 26.87500 26.08200
N  46.29000 24.69500 30.40600
C  46.40000 25.79200 31.19400
C  46.01000 25.45900 32.63100
C  45.55700 23.96900 32.64100
C  45.80200 23.63200 31.11900
C  46.39400 23.12600 33.64700
C  45.01300 26.44500 33.30600
C  45.52500 27.07500 34.59400
H  44.60200 27.35300 35.78500
N  45.97400 22.54900 28.19800
C  45.45100 21.88400 29.24000
C  45.19100 20.54500 28.80700
C  45.53600 20.46700 27.42200
C  45.94500 21.81400 27.12100
C  44.68900 19.45100 29.70300
C  45.34100 19.30900 26.36000
O  45.45300 19.39600 25.16600
C  44.75400 17.96800 26.83200
N  47.27300 24.50800 26.40300
C  47.11800 23.42100 25.58400
C  47.70700 23.59400 24.19500
C  48.16500 25.13400 24.25800
C  47.70700 25.56900 25.65800
C  48.74800 22.64800 23.51800
C  47.67600 26.01200 23.05900
C  46.18800 26.51300 23.12200
N  47.19000 26.55600 28.27900
C  47.65800 27.37100 27.29800
C  48.03700 28.60700 27.86200
C  47.73400 28.54000 29.13800
C  47.31100 27.23600 29.41100
C  48.72100 29.74100 27.15300
C  47.80400 29.26400 30.46700
O  48.14600 30.46700 30.77600
C  47.25600 28.26500 31.51300
C  48.36000 28.05700 32.52300
O  49.46700 27.58200 32.17700
O  47.99900 28.40500 33.79000
C  48.97500 28.06800 34.85900
H  44.90900 21.67500 31.25500
H  46.27400 21.52400 25.12600
H  48.23300 27.61700 25.37600
H  46.96600 25.56400 33.14500
H  44.51200 23.88700 32.94000
H  45.78700 22.54400 34.34000
H  47.17300 23.69700 34.15200
H  46.89900 22.29900 33.14800
H  44.08200 25.92500 33.53100
H  44.89300 27.28000 32.61500
H  45.89500 28.03000 34.22400
H  46.45000 26.65200 34.98600
H  43.98500 18.77600 29.21600
H  44.33600 19.76800 30.68400
H  45.60700 18.87400 29.81600
H  45.47800 17.66700 27.58900
H  44.77500 17.25100 26.01200
H  43.74000 17.92400 27.23200
H  46.84300 23.58200 23.53000
H  49.25300 25.19200 24.30200
H  48.68600 21.73000 24.10200
H  49.73900 23.10100 23.49200
H  48.44500 22.52600 22.47800
H  47.68700 25.33100 22.20800
H  48.35300 26.86600 23.02100
H  45.73900 26.30900 24.09400
H  45.70300 26.14600 22.21700
H  46.18900 27.60100 23.05800
H  48.57300 30.63000 27.76700
H  48.12400 29.95400 26.26700
H  49.73700 29.47100 26.86600
H  46.39200 28.79900 31.90700
H  49.55900 27.16900 34.66100
H  48.34000 27.78200 35.69700
H  49.69100 28.85100 35.10800
Mg 46.81200 34.86700 27.84200
C  45.09800 33.09000 30.21900
C  46.77500 37.59700 29.89100
C  47.61400 36.80100 25.25800
C  46.13900 32.17900 25.61200
N  46.28500 35.13400 29.88600
C  45.53700 34.30300 30.69200
C  45.56900 34.86300 32.12300
C  45.71900 36.36800 31.88700
C  46.41400 36.38600 30.52000
C  44.41200 37.14400 31.82200
C  46.83500 34.24600 32.84800
C  46.86000 34.21200 34.47400
H  45.88200 35.08600 35.23200
N  47.27300 36.81200 27.61500
C  47.28600 37.81700 28.59800
C  47.88400 39.03000 28.08200
C  48.15100 38.83400 26.75300
C  47.65700 37.46800 26.50600
C  48.24500 40.24800 28.92300
C  48.78600 39.75100 25.72600
O  48.97900 39.39800 24.52900
C  49.30500 41.09700 26.14000
N  46.95300 34.39500 25.83800
C  47.25500 35.45400 25.00200
C  47.34600 35.00500 23.51700
C  47.09000 33.44900 23.60800
C  46.66900 33.35700 25.07200
C  46.32100 35.63400 22.62300
C  48.32000 32.56100 23.18300
C  49.55500 32.58000 24.05300
N  45.91600 32.93800 27.93200
C  45.78500 31.93700 26.98200
C  45.10800 30.78700 27.59100
C  44.81300 31.18300 28.88900
C  45.32000 32.49400 29.04100
C  44.71600 29.51100 27.02400
C  44.22200 30.70500 30.08400
O  43.62000 29.64000 30.22500
C  44.13600 32.08700 30.93900
C  44.39000 31.65800 32.38300
O  45.35700 31.09300 32.82900
O  43.33700 32.06400 33.15300
C  43.46200 31.64700 34.58600
H  46.88300 38.44600 30.56900
H  47.89300 37.44000 24.41800
H  45.96700 31.34400 24.92900
H  44.65600 34.72000 32.70000
H  46.18200 36.88800 32.72600
H  43.61600 36.47000 32.13800
H  44.26700 37.53700 30.81500
H  44.42800 37.95200 32.55400
H  47.69300 34.91000 32.74700
H  47.03000 33.23300 32.49800
H  47.85000 34.54600 34.78500
H  46.87700 33.16800 34.78900
H  47.53400 41.05700 28.75500
H  49.22100 40.70300 28.76100
H  48.21300 39.94700 29.97000
H  49.78700 41.63000 25.32000
H  50.11400 40.98800 26.86200
H  48.46600 41.71400 26.46300
H  48.34500 35.20300 23.12600
H  46.24000 33.09300 23.02600
H  45.61500 36.29400 23.12800
H  45.71700 34.87500 22.12600
H  46.83700 36.21000 21.85500
H  48.66000 32.58000 22.14700
H  48.07200 31.53400 23.45100
H  49.71600 33.58900 24.43200
H  50.49700 32.38600 23.54000
H  49.45400 31.90500 24.90300
H  43.99500 29.66600 26.22200
H  44.34100 28.81400 27.77400
H  45.54700 29.02200 26.51500
H  43.16400 32.58100 30.92300
H  42.56400 32.08500 35.02100
H  44.34500 32.14200 34.98800
H  43.53400 30.59600 34.86600

