158

Mg 6.56600 57.61400 41.71500
C  5.37800 54.26300 41.47800
C  9.61000 56.25800 40.55300
C  7.67700 60.58100 41.33400
C  3.47800 58.60700 42.61500
N  7.33900 55.59100 40.87500
C  6.65600 54.35700 40.89800
C  7.48300 53.25100 40.26100
C  8.92400 53.90100 40.47400
C  8.63300 55.29700 40.67200
C  9.63700 53.29700 41.71600
C  7.00700 53.19400 38.78000
C  6.99400 51.91000 38.07800
H  7.80900 51.67200 36.82100
N  8.38000 58.39300 40.98600
C  9.49200 57.64600 40.63600
C  10.51100 58.50900 40.28700
C  10.04400 59.87300 40.44300
C  8.64500 59.65500 40.92900
C  11.89700 58.06900 39.77600
C  10.74200 61.13300 40.22600
O  11.88600 61.22300 39.78200
C  10.10500 62.47600 40.67400
N  5.56200 59.38000 41.49600
C  6.30900 60.46600 41.58900
C  5.57400 61.66600 42.22500
C  4.19000 61.01000 42.55600
C  4.40400 59.56500 42.16100
C  6.23000 62.19900 43.49500
C  3.09800 61.77300 41.89400
C  1.79500 61.78400 42.66100
N  4.71300 56.67500 42.04900
C  3.59900 57.18800 42.51700
C  2.61300 56.17500 42.73100
C  3.29100 54.99300 42.39200
C  4.59000 55.35200 41.97600
C  1.22300 56.47400 43.35700
C  3.12600 53.57600 42.34500
O  2.17500 52.83600 42.61800
C  4.52000 52.97800 41.71200
C  4.15400 52.33400 40.49800
O  3.93800 52.91200 39.42300
O  4.11900 50.98900 40.65600
C  3.80000 50.14000 39.44600
H  10.57700 55.75600 40.48200
H  8.08600 61.58600 41.46200
H  2.50900 58.94900 42.98600
H  7.27000 52.30500 40.75800
H  9.53400 53.84100 39.57300
H  9.71200 53.83600 42.66100
H  10.70500 53.12700 41.57900
H  9.27000 52.28700 41.90400
H  7.76100 53.75900 38.23200
H  6.05000 53.68700 38.60900
H  5.99900 51.86900 37.63600
H  7.23000 51.08600 38.75100
H  12.12800 58.36300 38.75200
H  12.16200 57.01600 39.87500
H  12.62700 58.62200 40.36700
H  9.95800 62.32100 41.74300
H  9.23500 62.60000 40.02900
H  10.83800 63.28000 40.60900
H  5.40500 62.40600 41.44300
H  4.02200 60.94400 43.63100
H  7.09900 61.62400 43.81400
H  5.53600 62.29500 44.33100
H  6.65700 63.12400 43.10800
H  2.91000 61.29600 40.93200
H  3.48700 62.78200 41.75900
H  1.50900 62.83300 42.72900
H  2.04600 61.40300 43.65000
H  0.88700 61.23800 42.40400
H  1.34700 57.20700 44.15400
H  0.77200 55.56800 43.76000
H  0.57600 56.74500 42.52300
H  4.99300 52.30200 42.42400
H  2.95500 49.55400 39.80900
H  4.69500 49.61500 39.11200
H  3.42400 50.70900 38.59600
Mg -9.44100 18.39600 43.04500
C  -5.93000 18.10600 43.10200
C  -8.99000 21.73300 42.11500
C  -12.75000 18.56100 42.30700
C  -9.75300 14.89600 43.22900
N  -7.68000 19.75000 42.66000
C  -6.29400 19.43500 42.84700
C  -5.40500 20.56900 42.54300
C  -6.40600 21.81100 42.45100
C  -7.73700 21.07100 42.36100
C  -6.39500 22.93500 43.51800
C  -4.57700 20.39000 41.14300
C  -5.33200 19.88800 39.84700
H  -4.74100 20.07400 38.47100
N  -10.68200 19.98600 42.32800
C  -10.33000 21.21800 41.97200
C  -11.48200 21.96400 41.70700
C  -12.57200 21.11300 41.57400
C  -12.03000 19.80200 42.03200
C  -11.47600 23.38900 41.45400
C  -13.98600 21.41300 41.16900
O  -14.25900 22.59400 40.87000
C  -15.07300 20.39000 40.86300
N  -10.99900 16.82800 42.73800
C  -12.26900 17.24300 42.67200
C  -13.22600 16.10000 42.79700
C  -12.32100 14.91900 43.23200
C  -10.91200 15.56800 43.12100
C  -14.46700 16.33900 43.59700
C  -12.51200 13.60100 42.45800
C  -12.91000 12.39000 43.19800
N  -8.23000 16.87100 43.20900
C  -8.43600 15.49900 43.29500
C  -7.10700 14.88100 43.51200
C  -6.18300 15.89900 43.47900
C  -6.86100 17.08300 43.21700
C  -6.88000 13.44000 43.55400
C  -4.75100 16.11700 43.55000
O  -3.81400 15.27900 43.60700
C  -4.56000 17.58200 43.24800
C  -3.83200 18.12700 44.41200
O  -2.66200 18.44900 44.47500
O  -4.70300 18.36600 45.49400
C  -4.14100 19.16200 46.59700
H  -8.94100 22.81200 41.94900
H  -13.80300 18.76400 42.10000
H  -9.79500 13.82500 43.44100
H  -4.74400 20.67100 43.40400
H  -6.24600 22.32200 41.50200
H  -6.38600 23.92200 43.05600
H  -5.68100 22.69000 44.30500
H  -7.27300 22.93500 44.16300
H  -3.85800 19.59000 41.32200
H  -3.82200 21.14700 40.93500
H  -6.34100 20.29200 39.92700
H  -5.46500 18.80600 39.85100
H  -11.81300 23.47100 40.42100
H  -10.63100 24.03100 41.70500
H  -12.16500 23.87900 42.14100
H  -15.43000 19.92200 41.78000
H  -14.70900 19.65600 40.14500
H  -15.85600 20.95300 40.35500
H  -13.55500 15.92500 41.77200
H  -12.46900 14.70500 44.29000
H  -15.40100 16.23700 43.04400
H  -14.41800 17.36800 43.95500
H  -14.50400 15.78600 44.53500
H  -11.50000 13.30400 42.18200
H  -13.24000 13.59500 41.64700
H  -13.70700 11.86700 42.67000
H  -13.25200 12.70500 44.18400
H  -12.16000 11.62800 43.41000
H  -6.37200 13.33600 42.59500
H  -7.77700 12.83300 43.67500
H  -6.27400 13.34300 44.45500
H  -3.91800 17.70500 42.37600
H  -3.40700 18.53900 47.10800
H  -4.95700 19.28800 47.30800
H  -3.70300 20.10000 46.25700

