158

Mg 47.23500 24.96700 29.00100
C  47.88100 27.24900 31.50900
C  46.56900 22.58300 31.55500
C  46.93200 22.43600 26.68400
C  48.11000 27.12800 26.62600
N  47.31900 24.89900 31.25300
C  47.43100 26.06900 31.99800
C  47.12300 25.79500 33.50000
C  46.88600 24.23500 33.53600
C  46.87000 23.85500 32.02700
C  48.00600 23.55800 34.28400
C  45.95400 26.59300 34.09300
C  46.25600 27.25500 35.52300
H  45.16100 27.19000 36.56700
N  46.63700 22.86100 29.12100
C  46.52600 22.08600 30.20800
C  46.20100 20.75400 29.88500
C  46.29500 20.63100 28.51000
C  46.67300 21.97200 28.02800
C  45.61000 19.71600 30.85800
C  46.04200 19.40500 27.59600
O  46.07400 19.47700 26.35400
C  45.83000 18.03500 28.28600
N  47.64500 24.74000 27.00300
C  47.23200 23.70400 26.23500
C  47.46800 23.94200 24.76600
C  47.50700 25.50400 24.76000
C  47.66500 25.86800 26.19100
C  48.83700 23.36900 24.29900
C  46.33300 26.18300 24.11900
C  45.35600 26.92000 25.05000
N  48.05000 26.77400 29.05400
C  48.30400 27.59800 27.97500
C  48.76700 28.82500 28.43700
C  48.52900 28.77800 29.85600
C  48.12300 27.51700 30.15500
C  49.16200 29.99200 27.60800
C  48.65900 29.56700 31.13700
O  49.11200 30.70200 31.38300
C  48.11200 28.61500 32.20500
C  49.00000 28.60000 33.35400
O  49.92600 27.84200 33.47900
O  48.62200 29.60000 34.22500
C  49.43300 29.71200 35.43200
H  46.22000 21.94100 32.36600
H  46.84800 21.66500 25.91400
H  48.14200 27.77300 25.74500
H  47.93600 26.05900 34.17700
H  45.96500 23.78100 33.90200
H  48.62700 22.95500 33.62200
H  47.52500 22.84400 34.95300
H  48.70200 24.19800 34.82700
H  45.20100 25.83300 34.30300
H  45.67300 27.42500 33.44700
H  46.25700 28.33000 35.34200
H  47.24500 27.05400 35.93400
H  44.63900 19.41400 30.46500
H  45.65200 19.90300 31.93100
H  46.28600 18.86400 30.78700
H  46.61800 17.75600 28.98500
H  45.84700 17.32200 27.46100
H  44.80600 18.10000 28.65500
H  46.64300 23.54500 24.17600
H  48.43300 25.89800 24.33900
H  49.31700 22.79800 25.09400
H  49.57200 24.13000 24.03500
H  48.68500 22.65700 23.48900
H  45.84300 25.44400 23.48600
H  46.79800 26.91200 23.45600
H  45.53700 27.98900 24.94400
H  45.22300 26.53300 26.06100
H  44.33300 26.90900 24.67700
H  48.39200 30.22600 26.87400
H  50.14900 29.81900 27.17900
H  49.33100 30.80600 28.31300
H  47.12200 29.03400 32.38800
H  49.23100 28.92900 36.16300
H  49.28100 30.62700 36.00500
H  50.51100 29.59800 35.31300
Mg 26.29300 49.78300 26.16400
C  24.19300 51.00500 28.78400
C  28.33900 48.65300 28.58800
C  28.62600 49.35500 23.80300
C  24.28600 51.30800 23.91800
N  26.40300 50.08400 28.47400
C  25.35000 50.39300 29.30100
C  25.65500 49.97400 30.79600
C  27.02000 49.33600 30.66200
C  27.27600 49.30700 29.12700
C  28.13300 50.12300 31.41800
C  24.52300 49.12400 31.42600
C  23.64600 49.79800 32.49800
H  23.66100 49.05300 33.84600
N  28.22900 49.10400 26.22900
C  28.88100 48.60700 27.29800
C  30.14900 48.07900 26.91900
C  30.30900 48.33400 25.53900
C  29.04200 48.97000 25.15500
C  31.22400 47.47300 27.88300
C  31.39500 47.95000 24.58500
O  31.38800 48.07600 23.35600
C  32.61500 47.22400 25.11900
N  26.40000 50.33600 24.13500
C  27.40000 49.88400 23.40200
C  27.07300 50.13800 21.87400
C  25.58400 50.66100 21.94100
C  25.40900 50.84300 23.37300
C  28.12600 51.12300 21.21600
C  24.56000 49.71200 21.38200
C  24.01400 49.94300 19.97600
N  24.56000 50.80000 26.25800
C  23.91000 51.41000 25.28200
C  22.65800 51.93300 25.79200
C  22.73700 51.66800 27.18200
C  23.91000 51.10300 27.44500
C  21.49900 52.66100 25.08600
C  21.96300 51.92500 28.37000
O  20.80900 52.35300 28.52800
C  22.86200 51.45000 29.46800
C  23.08300 52.55100 30.45000
O  24.02100 53.34400 30.48700
O  22.18400 52.56800 31.43200
C  22.27500 53.67000 32.41800
H  28.92600 48.13500 29.34900
H  29.22500 49.03300 22.94800
H  23.55100 51.57100 23.15400
H  25.80300 50.84200 31.43900
H  26.94800 48.29100 30.96200
H  28.90800 50.58000 30.80200
H  28.56500 49.56400 32.24800
H  27.63400 50.96800 31.89300
H  24.96400 48.22000 31.84600
H  23.84900 48.69300 30.68600
H  22.59800 49.98700 32.26700
H  23.98100 50.82500 32.64700
H  30.97100 47.54800 28.94100
H  32.16800 48.01600 27.85300
H  31.43200 46.44000 27.60300
H  33.20400 47.72800 25.88600
H  33.10300 46.97600 24.17700
H  32.13400 46.30500 25.45600
H  27.13400 49.25700 21.23500
H  25.51800 51.64500 21.47700
H  27.60900 51.86300 20.60400
H  28.71500 50.63600 20.43800
H  28.80900 51.74100 21.80000
H  23.65800 49.61700 21.98600
H  25.10400 48.78000 21.22500
H  24.72200 50.32800 19.24200
H  23.11100 50.53800 20.11300
H  23.73300 48.93400 19.67400
H  21.85400 52.93000 24.09100
H  21.24000 53.61500 25.54600
H  20.69300 51.92900 25.04200
H  22.40600 50.63000 30.02400
H  22.52200 54.65000 32.01000
H  23.18200 53.48300 32.99400
H  21.46200 53.78600 33.13500

