158

Mg 41.72000 40.36500 27.39900
C  41.10700 42.96900 29.80800
C  42.91800 38.38400 29.98500
C  42.86000 38.32800 25.07200
C  41.04500 42.82100 24.93200
N  42.04700 40.78200 29.61900
C  41.51300 41.76500 30.38900
C  41.51400 41.41000 31.92600
C  42.21700 40.00500 31.93100
C  42.46800 39.67200 30.40200
C  43.51300 39.93500 32.83100
C  40.13100 41.56600 32.76800
C  40.26400 42.19300 34.24300
H  39.25600 41.73800 35.24600
N  42.61000 38.50200 27.57400
C  42.94700 37.85300 28.67400
C  43.39500 36.53000 28.28300
C  43.46400 36.52100 26.83100
C  42.94100 37.78500 26.42700
C  43.74200 35.46700 29.34800
C  44.00000 35.41100 25.99100
O  44.12300 35.55200 24.79800
C  44.48600 34.18300 26.59600
N  41.76900 40.47400 25.23000
C  42.41000 39.53100 24.54800
C  42.51000 39.93100 23.08900
C  41.68200 41.27900 22.99100
C  41.50300 41.58900 24.44600
C  44.00000 39.94700 22.47000
C  40.42200 41.18900 22.09200
C  39.23100 40.25600 22.64800
N  41.20900 42.37800 27.30000
C  40.92200 43.26700 26.20300
C  40.40900 44.50100 26.70800
C  40.61400 44.43000 28.02700
C  41.01600 43.11100 28.39500
C  39.84500 45.71600 25.97000
C  40.42700 45.28000 29.17900
O  39.98100 46.38900 29.23600
C  40.68500 44.33700 30.42500
C  41.78500 44.83700 31.26200
O  42.93300 44.95900 30.87900
O  41.37800 45.05200 32.55500
C  42.43700 45.36800 33.55600
H  43.18500 37.76300 30.84300
H  43.21500 37.74800 24.21700
H  40.75200 43.52600 24.15200
H  42.18900 42.15200 32.35300
H  41.41800 39.33000 32.23900
H  44.41600 39.75700 32.24700
H  43.46300 39.28200 33.70300
H  43.72000 40.96900 33.10800
H  39.52100 40.66600 32.69200
H  39.70500 42.32200 32.10800
H  40.10800 43.26100 34.08600
H  41.27200 42.05600 34.63300
H  43.42300 34.46900 29.04700
H  43.22700 35.50400 30.30800
H  44.78400 35.51400 29.66400
H  43.59500 33.63600 26.90500
H  45.20900 34.43300 27.37300
H  45.00100 33.67400 25.78200
H  41.97800 39.16500 22.52500
H  42.27900 42.11600 22.62800
H  44.46900 40.91800 22.30800
H  44.02600 39.51100 21.47100
H  44.78100 39.37500 22.97000
H  40.73400 40.65300 21.19500
H  40.10300 42.15500 21.70100
H  39.12500 39.28500 22.16400
H  38.27500 40.77200 22.56300
H  39.43600 39.96600 23.67900
H  39.30100 45.50400 25.05000
H  40.71100 46.29400 25.64700
H  39.23200 46.27200 26.68000
H  39.77400 44.12300 30.98400
H  42.55800 44.56800 34.28600
H  42.24300 46.26500 34.14400
H  43.46700 45.47700 33.21800
Mg -5.87800 25.83600 26.28300
C  -4.27200 26.99600 29.16200
C  -7.61800 23.60000 28.41700
C  -6.86500 24.01700 23.80100
C  -3.56900 27.42900 24.41200
N  -5.96000 25.39100 28.54800
C  -5.36200 26.11000 29.48900
C  -5.82500 25.67800 30.92500
C  -6.76900 24.44800 30.63000
C  -6.75000 24.43600 29.09200
C  -6.65600 23.13400 31.45000
C  -6.67200 26.81500 31.51100
C  -6.51600 26.99800 32.99900
H  -5.91500 25.90400 33.91600
N  -7.15900 24.08000 26.09800
C  -7.82700 23.39000 27.05900
C  -8.76800 22.48900 26.45200
C  -8.57000 22.56200 25.05300
C  -7.51400 23.61900 24.88900
C  -9.67300 21.60600 27.30400
C  -9.17200 21.77600 23.93600
O  -8.99100 22.12200 22.79100
C  -10.06200 20.51400 24.14300
N  -5.28300 25.80600 24.40100
C  -5.81600 24.92900 23.51100
C  -5.41100 25.13500 22.04400
C  -4.37500 26.35600 22.24900
C  -4.40100 26.58900 23.76900
C  -4.76800 23.83400 21.42900
C  -4.69800 27.65800 21.49200
C  -3.48800 28.52800 21.10900
N  -4.30500 27.08200 26.64300
C  -3.50000 27.73100 25.76700
C  -2.59700 28.63000 26.48200
C  -2.84900 28.27100 27.82700
C  -3.88500 27.38600 27.84200
C  -1.66200 29.63000 25.94500
C  -2.41000 28.60200 29.13000
O  -1.48800 29.22700 29.60900
C  -3.35800 27.75800 30.07500
C  -2.49500 26.88200 31.01400
O  -1.96700 25.81900 30.71000
O  -2.29600 27.48200 32.25300
C  -1.52200 26.54300 33.12400
H  -8.22500 22.92700 29.02600
H  -7.15000 23.52000 22.87200
H  -2.92900 28.05000 23.78300
H  -5.05700 25.23900 31.56200
H  -7.78500 24.78800 30.82900
H  -6.21600 22.43500 30.73900
H  -7.69400 23.01000 31.75800
H  -5.98100 23.12200 32.30600
H  -7.71100 26.70600 31.20000
H  -6.21600 27.71600 31.10100
H  -7.47100 27.33000 33.40600
H  -5.89900 27.88800 33.12500
H  -10.49000 21.18100 26.72000
H  -10.12900 22.17600 28.11400
H  -9.08000 20.81300 27.75900
H  -9.68900 19.98500 25.02000
H  -9.98300 19.83500 23.29400
H  -11.05700 20.94500 24.25400
H  -6.30600 25.42800 21.49500
H  -3.39700 25.97200 21.95800
H  -3.74100 24.07700 21.15500
H  -5.24400 23.47000 20.51800
H  -4.72000 22.99300 22.12000
H  -5.33400 28.40100 21.97200
H  -5.19400 27.31200 20.58400
H  -3.34700 29.33500 21.82800
H  -3.58000 28.82800 20.06500
H  -2.64100 27.85800 21.24800
H  -0.67100 29.66600 26.39700
H  -2.13500 30.59800 26.11000
H  -1.52100 29.60100 24.86500
H  -3.90600 28.42000 30.74500
H  -0.51900 26.41500 32.71700
H  -2.14500 25.65100 33.18800
H  -1.27700 27.09800 34.03000

