158

Mg -1.12800 18.39400 27.43500
C  -1.69900 16.31000 30.27500
C  -1.33000 21.18200 29.61500
C  -1.19700 20.64200 24.80500
C  -1.48300 15.77200 25.39200
N  -1.55600 18.66600 29.70200
C  -1.50300 17.65300 30.64000
C  -1.75200 18.20100 32.08500
C  -2.02400 19.74700 31.78400
C  -1.57100 19.92200 30.26800
C  -3.43900 20.20400 31.96900
C  -0.60300 17.92700 33.04400
C  -1.07200 17.28800 34.35100
H  -0.05800 17.21600 35.48700
N  -1.12300 20.57500 27.23000
C  -1.19000 21.51500 28.22600
C  -1.06100 22.82500 27.71900
C  -0.90600 22.67600 26.27000
C  -1.04700 21.28300 26.06100
C  -1.16600 24.12100 28.47700
C  -0.69300 23.75200 25.08300
O  -0.64900 23.54600 23.88300
C  -0.49600 25.15900 25.55200
N  -1.47400 18.23500 25.43100
C  -1.25300 19.24800 24.48900
C  -1.25800 18.70600 23.04100
C  -1.00600 17.19300 23.36000
C  -1.36100 17.02400 24.86300
C  -2.59200 19.03400 22.41200
C  0.45000 16.69900 22.95300
C  1.63900 17.51800 23.53200
N  -1.68100 16.43200 27.70300
C  -1.63700 15.44200 26.72100
C  -1.77000 14.16100 27.42800
C  -1.74300 14.44600 28.78700
C  -1.63600 15.84500 28.93900
C  -1.98600 12.84600 26.73600
C  -1.90700 13.90400 30.09500
O  -2.04400 12.74900 30.45600
C  -1.69200 15.06300 31.08700
C  -0.40500 14.78600 31.79400
O  0.72300 14.95400 31.33800
O  -0.70800 14.20100 32.98600
C  0.39500 13.66200 33.78200
H  -1.46900 22.00600 30.31700
H  -1.11400 21.20800 23.87500
H  -1.40500 14.91500 24.71900
H  -2.66300 17.70800 32.42200
H  -1.39500 20.41900 32.36800
H  -4.13700 19.52400 32.45800
H  -3.88000 20.73300 31.12400
H  -3.38200 20.99300 32.72000
H  0.01400 18.81100 33.20700
H  0.00000 17.24300 32.44800
H  -1.39500 16.26400 34.16300
H  -1.94600 17.87600 34.63100
H  -1.55700 24.20000 29.49200
H  -1.99200 24.66700 28.02100
H  -0.31300 24.79300 28.39000
H  -1.36700 25.48400 26.12200
H  -0.44400 25.90000 24.75500
H  0.37900 25.12700 26.20100
H  -0.45500 19.06700 22.39800
H  -1.68600 16.54700 22.80300
H  -3.31800 18.22100 22.38800
H  -2.56700 19.31500 21.35900
H  -3.09100 19.81200 22.99000
H  0.55200 16.63900 21.86900
H  0.64000 15.64600 23.16100
H  2.09700 16.89800 24.30200
H  1.38500 18.53100 23.84400
H  2.33000 17.60200 22.69400
H  -3.02600 12.57800 26.54900
H  -1.57800 12.02600 27.32600
H  -1.40400 12.76000 25.81800
H  -2.49200 14.99400 31.82400
H  0.09100 13.85200 34.81100
H  1.29500 14.27400 33.73600
H  0.64700 12.61000 33.64400
Mg 41.01600 9.19200 29.61900
C  43.00600 10.27800 32.26200
C  38.59100 8.10300 32.00500
C  39.11600 7.89700 27.12000
C  43.45300 9.92100 27.48800
N  40.84900 9.19800 31.90700
C  41.76000 9.78700 32.72400
C  41.16900 9.70400 34.17800
C  39.87300 8.79100 34.07500
C  39.71200 8.78900 32.52900
C  39.75900 7.48500 34.80700
C  40.88800 11.14100 34.67000
C  40.03100 11.34500 35.96600
H  40.63700 12.09800 37.19800
N  39.07700 8.13700 29.51300
C  38.24500 7.77900 30.62000
C  37.15000 6.96200 30.11200
C  37.16400 7.15100 28.67600
C  38.52100 7.71600 28.38500
C  36.24900 6.20400 31.01700
C  36.15800 6.77500 27.71000
O  36.29100 7.01400 26.52400
C  34.84800 6.14900 28.17600
N  41.26900 8.81300 27.62700
C  40.39500 8.34300 26.77200
C  40.82900 8.51100 25.31700
C  42.14500 9.26900 25.42200
C  42.31700 9.35100 26.98400
C  40.78500 7.16900 24.45400
C  42.39400 10.58000 24.62200
C  41.56700 11.78700 24.96500
N  42.90800 9.89300 29.86000
C  43.84300 10.19700 28.85200
C  45.03500 10.86500 29.43600
C  44.69600 10.86600 30.83700
C  43.49700 10.26600 31.04500
C  46.25200 11.44500 28.66300
C  45.18900 11.30400 32.07000
O  46.31300 11.79100 32.39900
C  44.01500 11.08500 33.05600
C  44.52900 10.41800 34.31100
O  45.07700 9.34800 34.31100
O  44.42400 11.25300 35.40300
C  44.94300 10.64900 36.63100
H  37.79900 7.84600 32.71200
H  38.61300 7.48300 26.24300
H  44.24700 10.28500 26.83200
H  41.87000 9.14100 34.79400
H  39.00400 9.36000 34.40600
H  40.64600 7.35600 35.42800
H  39.45300 6.74900 34.06300
H  38.92600 7.51700 35.50900
H  40.45800 11.75600 33.88000
H  41.90600 11.51900 34.76200
H  39.64200 10.41600 36.38300
H  39.15000 11.87200 35.60000
H  35.28300 6.69900 31.12400
H  36.59700 6.08900 32.04400
H  36.07500 5.20800 30.60900
H  34.45400 6.67500 29.04500
H  34.92800 5.07600 28.34800
H  34.02700 6.31300 27.47800
H  40.11900 9.22200 24.89300
H  42.95900 8.69100 24.98300
H  40.54300 6.33900 25.11800
H  41.75100 7.09900 23.95300
H  40.07100 7.28100 23.63800
H  42.05700 10.28900 23.62700
H  43.46800 10.74200 24.53000
H  42.36300 12.47100 25.26200
H  40.86400 11.48900 25.74300
H  41.01500 12.00500 24.05100
H  46.21400 11.16600 27.61000
H  47.07000 11.01600 29.24100
H  46.27700 12.53500 28.68500
H  43.60900 12.05600 33.33700
H  44.87700 9.56500 36.54200
H  44.37300 11.02700 37.47900
H  45.98100 10.85300 36.89500

