158

Mg -2.27400 17.10700 26.17800
C  -2.79700 15.21600 29.07300
C  -3.51700 19.78900 27.98200
C  -2.52500 19.15600 23.36800
C  -1.76800 14.40600 24.39200
N  -3.00400 17.50200 28.34400
C  -3.04600 16.51700 29.32200
C  -3.45200 17.23500 30.63600
C  -4.09500 18.51100 30.14400
C  -3.51700 18.64800 28.72500
C  -5.67000 18.49500 30.20600
C  -2.23100 17.34500 31.69000
C  -2.59500 16.83300 33.06400
H  -1.51000 16.39800 34.03000
N  -2.77500 19.16700 25.77700
C  -3.13100 20.08500 26.71000
C  -3.18500 21.44600 26.12400
C  -2.85300 21.26600 24.72600
C  -2.77700 19.81300 24.57100
C  -3.44400 22.76900 26.84900
C  -2.52900 22.28800 23.66300
O  -2.21500 22.00300 22.47300
C  -2.55600 23.68400 24.04800
N  -2.14800 16.84500 24.11400
C  -2.34600 17.72800 23.09600
C  -2.01700 17.05500 21.76700
C  -1.69100 15.56100 22.18000
C  -1.81400 15.60800 23.67600
C  -2.98500 17.30500 20.63900
C  -0.31900 15.08100 21.60600
C  0.96600 15.52600 22.33500
N  -2.16200 15.19100 26.60200
C  -2.03400 14.16400 25.73700
C  -2.23100 12.95700 26.42200
C  -2.42100 13.35300 27.74900
C  -2.40000 14.74100 27.79900
C  -2.27300 11.56200 25.83100
C  -2.66900 12.80400 29.07300
O  -2.70700 11.66300 29.56500
C  -2.90600 14.01000 30.00400
C  -1.91700 13.88000 31.11700
O  -0.69700 14.03800 31.11200
O  -2.59100 13.48300 32.25000
C  -1.87100 13.02500 33.39900
H  -3.91900 20.60800 28.58300
H  -2.62500 19.73200 22.44600
H  -1.40700 13.52700 23.85400
H  -4.20600 16.56600 31.05100
H  -3.89500 19.28500 30.88400
H  -6.06000 18.83000 31.16700
H  -6.00400 17.48500 29.96900
H  -6.03300 19.14300 29.40700
H  -2.02600 18.41200 31.77400
H  -1.30600 16.85100 31.39500
H  -3.29100 15.99600 33.00300
H  -2.90900 17.76300 33.53800
H  -4.22700 23.23800 26.25300
H  -2.57000 23.41100 26.96000
H  -3.85400 22.61500 27.84700
H  -3.57500 23.90000 24.36800
H  -2.16200 24.25500 23.20700
H  -1.90400 23.88200 24.89900
H  -1.20300 17.54600 21.23400
H  -2.45800 14.82900 21.93000
H  -3.20400 18.37200 20.61000
H  -3.88500 16.69100 20.68200
H  -2.63500 17.02200 19.64700
H  -0.33600 15.43700 20.57600
H  -0.28500 13.99200 21.58200
H  0.83900 16.27000 23.12100
H  1.61100 15.87500 21.52900
H  1.40300 14.65700 22.82700
H  -3.15300 11.02700 26.18700
H  -1.36300 10.98000 25.97800
H  -2.45800 11.75600 24.77500
H  -3.90100 13.84900 30.42000
H  -2.41600 13.38800 34.27100
H  -0.87000 13.42700 33.55100
H  -1.72200 11.94800 33.32500
Mg 7.06100 54.12400 41.21900
C  6.36800 50.64500 41.09200
C  10.10600 53.54100 39.86600
C  7.05400 57.33700 40.17000
C  3.75800 54.42900 42.28400
N  8.00500 52.28700 40.41100
C  7.53400 50.97800 40.38300
C  8.61200 50.04300 39.78800
C  9.97300 50.90900 39.85700
C  9.33900 52.31100 40.06500
C  11.01100 50.56500 41.00900
C  8.36500 49.36200 38.38200
C  7.36700 50.00600 37.45000
H  7.38600 49.62400 35.97000
N  8.41700 55.34100 40.21800
C  9.65700 54.91500 39.88500
C  10.52500 56.00600 39.56500
C  9.62800 57.16500 39.56800
C  8.29700 56.64200 39.96000
C  12.07000 55.84000 39.35200
C  9.91500 58.53500 39.17400
O  11.07100 58.92400 39.05500
C  8.88500 59.66300 39.02300
N  5.51200 55.67200 41.02400
C  5.83200 56.94200 40.72600
C  4.66400 57.92400 41.05200
C  3.54200 56.91300 41.58500
C  4.29700 55.59100 41.61400
C  5.02300 59.15200 41.96900
C  2.21000 56.70100 40.67400
C  0.83200 56.87200 41.35100
N  5.45600 52.85000 41.75300
C  4.29200 53.14200 42.30900
C  3.66600 51.96400 42.84200
C  4.43600 50.98900 42.25500
C  5.53700 51.53400 41.66300
C  2.38000 51.87800 43.58400
C  4.54600 49.55900 42.23800
O  3.77500 48.67900 42.60900
C  5.88100 49.20900 41.49500
C  5.71300 48.20400 40.44300
O  5.07900 48.39600 39.41300
O  6.29100 47.07800 40.91600
C  6.18800 45.92200 40.05000
H  11.16400 53.35000 39.67400
H  6.99500 58.39500 39.90600
H  2.71800 54.39500 42.61300
H  8.84300 49.27400 40.52600
H  10.44500 50.98500 38.87700
H  10.92900 49.63800 41.57700
H  11.05000 51.49300 41.58100
H  11.90400 50.44100 40.39600
H  8.03800 48.34300 38.58900
H  9.27800 49.28700 37.79000
H  7.51100 51.07800 37.59100
H  6.33100 49.81900 37.73000
H  12.19100 55.57800 38.30100
H  12.39700 54.95700 39.90200
H  12.59200 56.76400 39.60100
H  8.42800 59.86600 39.99200
H  8.13700 59.55900 38.23700
H  9.47600 60.56700 38.87300
H  4.44600 58.38600 40.09000
H  3.16700 57.12200 42.58600
H  6.07100 59.18900 42.26900
H  4.29300 59.04600 42.77100
H  4.87400 60.08300 41.42100
H  2.14900 55.74900 40.14600
H  2.12500 57.46600 39.90200
H  0.24500 57.65300 40.86900
H  0.86500 57.15300 42.40400
H  0.26000 55.95100 41.24200
H  2.37600 51.09700 44.34400
H  1.61700 51.70600 42.82400
H  2.17100 52.81700 44.09500
H  6.33900 48.77800 42.38500
H  5.25200 45.86300 39.49500
H  6.28600 45.01600 40.64800
H  7.00600 45.84400 39.33400

