158

Mg 26.53100 0.27900 29.72000
C  28.41900 0.09500 32.61300
C  23.68700 0.78500 31.69700
C  24.70500 0.50900 26.88500
C  29.41100 -0.36400 27.79000
N  26.12400 0.10700 31.95400
C  27.08200 0.29200 32.93400
C  26.54800 0.83400 34.29000
C  25.00800 0.90600 34.03200
C  24.91000 0.63700 32.43000
C  24.28300 -0.22900 34.91100
C  27.31200 2.17300 34.76900
C  27.97000 2.09800 36.12100
H  27.57800 3.19200 37.20000
N  24.44300 0.60200 29.40100
C  23.48600 0.70000 30.33000
C  22.24100 0.89500 29.67400
C  22.42600 0.74300 28.24600
C  23.95500 0.61600 28.09800
C  20.99000 1.18500 30.47400
C  21.50500 0.74100 27.09600
O  21.90300 0.61000 25.93900
C  20.00300 0.98400 27.25100
N  26.89200 0.04100 27.62800
C  26.03400 0.30800 26.63400
C  26.67800 0.40200 25.26700
C  28.16800 0.05900 25.56100
C  28.16700 -0.13600 27.11700
C  26.01000 -0.58900 24.27000
C  29.17700 1.15700 25.13500
C  28.71500 2.04200 23.89600
N  28.46600 -0.19100 30.06400
C  29.52400 -0.35800 29.19300
C  30.73200 -0.62800 29.97400
C  30.33200 -0.43200 31.28300
C  28.96700 -0.15100 31.33000
C  32.12300 -1.02500 29.47600
C  30.76000 -0.45400 32.62000
O  31.83500 -0.84200 33.07200
C  29.56100 -0.03000 33.52300
C  29.43600 -1.15000 34.52300
O  28.86400 -2.24400 34.32700
O  30.01200 -0.81800 35.72200
C  29.95300 -1.78000 36.83200
H  22.85200 1.06100 32.34400
H  24.23000 0.78300 25.94000
H  30.30300 -0.52300 27.18100
H  26.73300 0.07900 35.05400
H  24.59800 1.91000 34.14900
H  23.91600 -1.03100 34.27100
H  23.48600 0.22600 35.49800
H  24.93200 -0.72400 35.63400
H  26.45400 2.82700 34.92600
H  27.91000 2.62500 33.97800
H  28.97300 2.43200 35.85700
H  28.03900 1.12500 36.60800
H  20.37700 0.29500 30.33200
H  20.44000 2.07400 30.16500
H  21.16100 1.36200 31.53600
H  19.66200 0.25700 27.98900
H  19.52200 0.74100 26.30400
H  19.89000 2.04700 27.46100
H  26.34700 1.34900 24.84000
H  28.43200 -0.89400 25.10200
H  25.30700 -1.20100 24.83500
H  26.63600 -1.28700 23.71300
H  25.40400 -0.04300 23.54700
H  30.06900 0.60700 24.83400
H  29.49400 1.74000 26.00000
H  27.85000 1.61500 23.38900
H  29.56400 2.20100 23.23100
H  28.43200 3.01200 24.30500
H  32.07300 -1.74000 28.65500
H  32.72000 -1.42900 30.29400
H  32.55800 -0.15700 28.98100
H  29.81900 0.91500 34.00000
H  30.89800 -1.64200 37.35700
H  29.77000 -2.82200 36.57200
H  29.20200 -1.44900 37.54900
Mg 35.90500 1.93400 29.58200
C  33.72500 3.19700 32.10100
C  38.45800 2.22200 31.82600
C  37.96000 0.97500 27.10100
C  33.39800 2.47300 27.37100
N  36.01400 2.56300 31.72500
C  34.99400 2.91900 32.56700
C  35.43000 3.03500 34.03800
C  36.99800 2.89400 33.93500
C  37.21600 2.48300 32.42500
C  37.86000 4.16900 34.37600
C  34.77900 1.88300 34.94200
C  34.11200 2.39700 36.18400
H  34.81300 3.36900 37.13800
N  37.93700 1.75800 29.41300
C  38.77500 1.85500 30.45000
C  40.13800 1.57300 29.94600
C  39.99200 1.04800 28.58400
C  38.57600 1.23800 28.29600
C  41.36800 1.54900 30.76200
C  41.07700 0.58500 27.63000
O  40.84200 0.47300 26.42700
C  42.46100 0.33200 28.18000
N  35.65000 1.45600 27.61900
C  36.65200 1.18200 26.73500
C  36.18600 1.06800 25.27400
C  34.67400 1.57200 25.41900
C  34.52100 1.75300 26.90600
C  36.99500 1.96100 24.33100
C  33.58800 0.71100 24.85500
C  33.40500 -0.70800 25.48700
N  33.90200 2.52200 29.70600
C  33.06100 2.78900 28.70800
C  31.82900 3.40300 29.14600
C  31.98500 3.49900 30.52900
C  33.29100 3.04700 30.77200
C  30.53100 3.68900 28.29100
C  31.36100 3.92100 31.72700
O  30.31600 4.48900 31.91400
C  32.45400 3.65800 32.82600
C  32.65600 5.00300 33.43700
O  33.21500 5.94200 32.94200
O  32.01100 5.03800 34.63300
C  31.89200 6.27700 35.33400
H  39.26900 2.35000 32.54600
H  38.67800 0.66400 26.34000
H  32.69800 2.74700 26.57800
H  35.09600 4.01800 34.36800
H  37.37300 2.08500 34.56300
H  38.60100 3.94700 35.14300
H  37.23400 4.97700 34.75500
H  38.39400 4.66800 33.56700
H  35.50700 1.16700 35.32300
H  33.97800 1.34500 34.43500
H  33.78300 1.51200 36.72800
H  33.17200 2.84200 35.85500
H  41.25900 1.86700 31.79900
H  41.99300 2.35100 30.37100
H  41.84000 0.56700 30.76000
H  42.80700 1.17800 28.77400
H  43.17100 0.18900 27.36500
H  42.43900 -0.61400 28.72100
H  36.16500 0.06700 24.84400
H  34.59300 2.56100 24.96800
H  36.81100 1.56900 23.33100
H  38.05300 1.93300 24.59200
H  36.66300 2.99600 24.41500
H  33.83200 0.52600 23.80900
H  32.65600 1.27500 24.85600
H  33.60700 -1.30000 24.59400
H  32.37100 -0.75700 25.82800
H  34.06400 -0.91200 26.33100
H  30.23600 4.70500 28.02600
H  29.65000 3.29100 28.79400
H  30.68600 3.18200 27.33900
H  32.02700 3.00900 33.59100
H  31.57100 6.10400 36.36200
H  31.19900 6.93400 34.80900
H  32.85900 6.76200 35.46200

