158

Mg 0.67100 8.09300 26.30400
C  1.47900 10.02300 29.13300
C  0.73200 5.29000 28.16100
C  0.49900 6.27300 23.42000
C  1.23900 10.93100 24.41100
N  1.15900 7.73800 28.38500
C  1.30800 8.63800 29.37700
C  1.17600 7.97300 30.73700
C  1.23000 6.46600 30.36300
C  1.05400 6.47100 28.83800
C  2.59600 5.73800 30.76700
C  -0.07100 8.40700 31.50600
C  -0.00300 8.61300 33.04000
H  1.22700 8.05200 33.80800
N  0.45700 6.10900 25.88100
C  0.52800 5.14100 26.78900
C  0.28300 3.89100 26.13000
C  0.17300 4.11400 24.74300
C  0.37900 5.57900 24.62300
C  0.19300 2.55700 26.92800
C  -0.17500 3.07500 23.62300
O  -0.31700 3.45100 22.47500
C  -0.38400 1.58000 23.96800
N  0.90500 8.53500 24.14900
C  0.63100 7.61400 23.18400
C  0.64500 8.38900 21.78100
C  1.07400 9.80300 22.12600
C  1.07900 9.77700 23.65100
C  1.50300 7.70800 20.63400
C  0.24400 10.95900 21.44200
C  -1.15000 11.20200 22.19300
N  1.06400 10.15200 26.70000
C  1.15500 11.16700 25.84000
C  1.31900 12.42900 26.50000
C  1.37500 12.05800 27.85800
C  1.29800 10.66200 27.90200
C  1.48500 13.80300 25.92100
C  1.66800 12.48300 29.21200
O  1.92100 13.61800 29.67100
C  1.51100 11.16200 30.13800
C  2.72300 11.08500 30.99100
O  3.81800 10.77200 30.66300
O  2.36000 11.53600 32.20900
C  3.46600 11.68200 33.27900
H  0.63800 4.38000 28.75800
H  0.52500 5.63900 22.53100
H  1.50300 11.86700 23.91400
H  2.06000 8.26700 31.30300
H  0.36700 5.91700 30.74000
H  3.01800 5.18800 29.92600
H  2.32800 5.00000 31.52300
H  3.26400 6.45100 31.25100
H  -0.81500 7.61800 31.39700
H  -0.46300 9.32300 31.06300
H  -0.84400 8.36400 33.68700
H  0.12600 9.69400 33.09300
H  0.42600 1.67900 26.32600
H  -0.82000 2.26400 27.20300
H  0.92600 2.52100 27.73500
H  -0.76400 1.13700 23.04800
H  -1.16900 1.63600 24.72100
H  0.56100 1.13900 24.28700
H  -0.33900 8.28900 21.32300
H  2.02100 10.03600 21.63900
H  1.87200 6.72800 20.93600
H  2.25000 8.39700 20.23900
H  0.88900 7.52600 19.75300
H  0.11000 10.63100 20.41100
H  0.85800 11.85000 21.31100
H  -1.89700 11.53400 21.47200
H  -1.02600 12.08100 22.82500
H  -1.44400 10.35400 22.81100
H  1.44200 14.58400 26.68000
H  0.71500 14.05200 25.19100
H  2.43800 13.75000 25.39400
H  0.69700 11.24800 30.85800
H  3.16500 11.20900 34.21400
H  3.36500 12.75200 33.46000
H  4.46300 11.32500 33.02000
Mg 27.05500 50.26400 27.01200
C  25.16500 51.65600 29.59100
C  29.53900 49.83700 29.17800
C  28.79200 49.14400 24.41200
C  24.56400 51.41900 24.73900
N  27.27400 50.74300 29.13800
C  26.38800 51.07000 30.04200
C  26.90400 50.98700 31.45700
C  28.40900 50.91300 31.30700
C  28.46900 50.46800 29.74200
C  29.02000 52.25800 31.46400
C  26.39200 49.71000 32.19400
C  25.13300 49.90200 33.03100
H  25.25600 49.88000 34.55500
N  28.90500 49.50000 26.83300
C  29.73200 49.27700 27.88900
C  30.88600 48.49700 27.42600
C  30.76600 48.42400 26.01800
C  29.44200 49.04400 25.64300
C  31.97300 48.09000 28.30900
C  31.77800 47.92600 25.05900
O  31.59900 47.89700 23.85400
C  33.13000 47.51400 25.48200
N  26.80900 50.58100 24.79400
C  27.62000 49.77500 24.02800
C  27.04700 49.53700 22.68100
C  25.68000 50.19700 22.80300
C  25.69400 50.86600 24.15200
C  28.06000 50.11100 21.55700
C  24.45000 49.25900 22.70900
C  23.46400 49.62300 21.60200
N  25.23600 51.36200 27.11800
C  24.28500 51.69900 26.09900
C  23.16300 52.38400 26.70800
C  23.48400 52.42700 28.01900
C  24.70800 51.71400 28.22300
C  21.98600 52.95600 26.00300
C  22.96500 52.81500 29.31400
O  21.91100 53.35400 29.59200
C  24.02400 52.28000 30.45100
C  24.49600 53.50900 31.21700
O  25.43400 54.25400 30.86500
O  23.63600 53.68100 32.27100
C  23.88300 54.92100 33.11900
H  30.39200 49.71900 29.85000
H  29.21200 48.48400 23.65000
H  23.76300 51.57700 24.01400
H  26.62800 51.88300 32.01300
H  28.80900 50.18600 32.01500
H  28.38800 53.00800 30.98800
H  29.95900 52.43700 30.93900
H  29.09300 52.44300 32.53500
H  27.08200 49.21800 32.88000
H  26.21500 48.96300 31.42000
H  24.44700 49.13100 32.68100
H  24.76200 50.87800 32.71500
H  31.65900 48.13400 29.35200
H  32.93000 48.60000 28.20000
H  32.21300 47.04700 28.10200
H  33.74400 48.36700 25.77100
H  33.66300 47.08400 24.63400
H  32.88300 46.76400 26.23300
H  26.86700 48.46400 22.61600
H  25.58800 50.93200 22.00300
H  28.93300 50.37200 22.15600
H  27.80900 50.99400 20.97000
H  28.26100 49.35100 20.80200
H  23.82700 49.04100 23.57600
H  24.90400 48.30900 22.42600
H  23.48300 50.70900 21.50800
H  22.43200 49.34700 21.81700
H  23.67100 49.13200 20.65200
H  22.13000 54.02600 25.85300
H  21.04500 52.76100 26.51600
H  21.93900 52.45400 25.03600
H  23.48100 51.55800 31.06200
H  24.78700 54.74400 33.70100
H  23.01800 55.02200 33.77400
H  23.81200 55.86700 32.58300

