158

Mg 45.20100 4.69900 46.50700
C  42.96900 7.45500 46.58600
C  42.26800 2.74000 46.13900
C  47.13400 2.10200 45.71100
C  47.85600 6.95100 46.06000
N  42.85600 5.09500 46.33600
C  42.25500 6.30200 46.45800
C  40.69800 6.18200 46.32300
C  40.48500 4.65000 46.36700
C  41.97700 4.10800 46.35700
C  39.59300 4.09600 47.51700
C  40.03300 6.94800 45.08300
C  40.81300 6.77500 43.77500
H  40.11000 6.23700 42.50600
N  44.71200 2.69100 45.95100
C  43.47600 2.09000 45.92300
C  43.73300 0.64800 45.87100
C  45.08600 0.48100 45.44200
C  45.73400 1.81700 45.67500
C  42.61100 -0.32400 45.70500
C  45.76800 -0.76400 44.92900
O  45.19900 -1.84200 44.87500
C  47.12100 -0.76600 44.30600
N  47.20300 4.59000 45.93500
C  47.82600 3.39000 45.77500
C  49.33400 3.53100 45.47600
C  49.50100 5.10800 45.63700
C  48.09600 5.61800 45.85300
C  50.39400 2.75800 46.32800
C  50.23400 5.85600 44.45700
C  49.39200 5.96500 43.18800
N  45.41900 6.72800 46.43500
C  46.58200 7.55200 46.32100
C  46.16900 8.94200 46.62400
C  44.80500 8.93000 46.67700
C  44.36000 7.57900 46.57400
C  47.06800 10.17400 46.55100
C  43.71200 9.78900 46.83000
O  43.54200 11.01200 46.86600
C  42.40100 8.80800 46.77600
C  41.71100 8.88800 48.12200
O  41.94800 8.14800 49.08800
O  40.67000 9.79300 48.01200
C  39.83300 10.00000 49.20700
H  41.38400 2.10900 46.25300
H  47.75700 1.20600 45.67900
H  48.70000 7.64100 46.00100
H  40.39800 6.73500 47.21300
H  40.04700 4.30500 45.43000
H  38.85700 3.37200 47.16600
H  38.95800 4.91000 47.86600
H  40.20100 3.62800 48.29100
H  39.98400 8.01300 45.31300
H  38.96400 6.73700 45.11100
H  41.60200 6.03500 43.90800
H  41.27300 7.71500 43.47000
H  42.39800 -0.95300 46.56900
H  42.79200 -1.02600 44.89100
H  41.63900 0.15900 45.60800
H  47.85200 -0.90400 45.10300
H  47.20200 0.11100 43.66300
H  47.24400 -1.61600 43.63600
H  49.46700 3.15300 44.46300
H  49.98600 5.29700 46.59400
H  49.92600 2.37200 47.23300
H  51.25700 3.38200 46.56300
H  50.85700 1.94200 45.77400
H  51.11800 5.34000 44.08200
H  50.55600 6.87300 44.67900
H  49.98800 5.46000 42.42700
H  49.17500 6.92800 42.72800
H  48.41600 5.49700 43.31200
H  46.67500 11.19000 46.58300
H  47.60000 10.30100 45.60800
H  47.76400 10.23600 47.38800
H  41.71500 9.15100 46.00100
H  39.97000 9.06400 49.74700
H  38.84700 10.39900 48.96600
H  40.35700 10.76200 49.78300
Mg 35.58100 48.01800 26.88400
C  36.12200 45.70200 29.61700
C  34.06200 50.12800 29.07400
C  34.75500 49.90600 24.26600
C  36.54900 45.40700 24.73500
N  34.97500 47.82200 29.11100
C  35.42600 46.89400 30.05600
C  35.33100 47.45800 31.49200
C  34.36200 48.72900 31.25300
C  34.41200 48.90100 29.69400
C  32.92700 48.65200 31.85200
C  36.69400 47.83500 32.18400
C  36.71300 47.47900 33.69000
H  36.38600 48.64900 34.64000
N  34.64400 49.83600 26.67700
C  34.13200 50.57500 27.68400
C  33.81300 51.89300 27.26200
C  33.86000 51.81000 25.81700
C  34.37000 50.46900 25.48100
C  33.35500 53.12700 28.09400
C  33.62300 52.93900 24.74100
O  33.64000 52.74700 23.51600
C  33.32400 54.28900 25.24100
N  35.66300 47.67800 24.86300
C  35.36400 48.65700 23.91100
C  35.53600 48.20300 22.45300
C  36.51300 47.02000 22.67600
C  36.15000 46.58600 24.14900
C  34.26600 47.85300 21.62200
C  38.02500 47.31600 22.51700
C  38.68400 46.51700 21.38600
N  36.22400 46.00600 27.07500
C  36.53600 45.10100 26.11900
C  36.91800 43.84600 26.72000
C  36.84800 44.07100 28.10200
C  36.37300 45.39700 28.27400
C  37.33700 42.57000 25.96000
C  37.03400 43.46300 29.41400
O  37.37200 42.34600 29.77200
C  36.68100 44.57200 30.45000
C  35.65400 44.02700 31.39600
O  34.49100 43.64000 31.12600
O  36.19300 44.03700 32.66200
C  35.27500 43.56200 33.70000
H  33.72600 50.90400 29.76500
H  34.70400 50.52900 23.37100
H  36.64100 44.58300 24.02500
H  34.91800 46.69900 32.15600
H  34.77100 49.63700 31.69700
H  32.72600 49.41400 32.60600
H  32.62600 47.66800 32.21200
H  32.23000 48.84800 31.03800
H  36.90600 48.90100 32.10000
H  37.50400 47.28300 31.70900
H  37.74700 47.24600 33.94400
H  36.20900 46.54000 33.92200
H  32.36900 53.31600 27.67100
H  34.01400 53.98900 27.98600
H  33.30300 52.85800 29.14900
H  33.06800 54.88000 24.36200
H  34.08400 54.72000 25.89400
H  32.36400 54.05000 25.69900
H  36.06300 48.94500 21.85300
H  36.29500 46.16700 22.03400
H  34.16100 46.81600 21.30200
H  34.18700 48.49900 20.74800
H  33.35900 48.08800 22.17700
H  38.68600 47.15600 23.36900
H  38.26200 48.37000 22.37700
H  38.75300 45.48900 21.74200
H  39.69500 46.91200 21.28500
H  38.10800 46.56900 20.46200
H  36.85200 42.41200 24.99600
H  37.09800 41.65000 26.49200
H  38.42600 42.53900 25.91500
H  37.54900 44.91600 31.01300
H  35.85500 43.42000 34.61200
H  34.95200 42.55700 33.42800
H  34.48400 44.28900 33.88400

