158

Mg 46.95100 34.75300 26.71600
C  45.20900 33.27700 29.47800
C  47.28300 37.57700 28.69900
C  48.07500 36.37000 24.05600
C  46.45800 31.90200 24.81200
N  46.42500 35.29900 29.05600
C  45.64200 34.58600 29.89500
C  45.29800 35.38700 31.13500
C  45.94600 36.84600 30.80400
C  46.52400 36.60300 29.40800
C  44.95700 38.10600 30.85900
C  45.91700 34.80100 32.43200
C  45.84400 35.71000 33.66200
H  47.07000 36.28800 34.20900
N  47.59300 36.69200 26.47800
C  47.77700 37.65500 27.41800
C  48.51900 38.77200 26.82100
C  48.80300 38.32700 25.51200
C  48.11400 37.11900 25.25800
C  48.82500 39.99100 27.62800
C  49.79300 39.02800 24.53600
O  49.99100 38.57700 23.34900
C  50.53900 40.16900 25.04100
N  47.16900 34.23200 24.69400
C  47.66400 35.09000 23.78100
C  47.70200 34.35800 22.34200
C  47.51200 32.79300 22.67100
C  47.03200 32.93200 24.17900
C  46.60800 35.00300 21.43800
C  48.67700 31.82400 22.49100
C  49.86600 31.84400 23.45100
N  46.08300 32.96900 26.97100
C  46.02800 31.87400 26.18200
C  45.32300 30.75700 26.90400
C  44.91700 31.31100 28.09000
C  45.46700 32.62000 28.16900
C  44.86400 29.46100 26.27700
C  44.23200 31.03400 29.30900
O  43.58500 29.99600 29.66700
C  44.32700 32.31600 30.21600
C  44.75700 31.90900 31.51700
O  45.91800 31.73200 31.82500
O  43.69900 31.73100 32.32600
C  44.02900 31.12200 33.64400
H  47.46600 38.41800 29.37100
H  48.49500 36.92400 23.21400
H  46.45700 30.85500 24.49900
H  44.22000 35.35000 31.29100
H  46.69900 37.07700 31.55700
H  45.44700 38.88200 31.44700
H  44.02800 37.80100 31.34100
H  44.64500 38.40900 29.85900
H  46.91700 34.42300 32.21900
H  45.28800 33.97600 32.76700
H  45.53000 35.09600 34.50600
H  45.10700 36.49200 33.47600
H  48.39500 40.86200 27.13400
H  49.90300 40.12800 27.70100
H  48.34100 39.97700 28.60500
H  49.84500 40.84900 25.53500
H  51.15500 40.60300 24.25400
H  51.19400 39.60400 25.70400
H  48.67100 34.50200 21.86400
H  46.78500 32.30000 22.02600
H  46.08000 35.83400 21.90700
H  45.85500 34.27000 21.15000
H  47.12200 35.27900 20.51800
H  49.16900 32.12500 21.56600
H  48.30000 30.82700 22.26600
H  50.81600 31.52400 23.02300
H  49.55200 31.24500 24.30700
H  49.97900 32.87500 23.78700
H  43.84800 29.34100 26.65400
H  45.49800 28.66600 26.66900
H  44.77300 29.55400 25.19500
H  43.31400 32.71800 30.22900
H  43.20600 30.62900 34.16200
H  44.18300 31.99900 34.27300
H  44.88500 30.44900 33.70400
Mg 16.39200 51.94800 25.22800
C  18.27400 51.07600 28.01900
C  13.80200 53.09600 27.20800
C  14.40300 52.25000 22.47700
C  18.83400 50.44200 23.13300
N  16.03000 52.00900 27.32900
C  17.02100 51.74400 28.27800
C  16.47000 52.01800 29.67000
C  15.06600 52.60600 29.39100
C  14.86200 52.47700 27.85100
C  13.87800 51.82900 30.16900
C  17.39000 52.99600 30.48700
C  17.85400 52.56300 31.91500
H  16.90100 51.79800 32.76200
N  14.41400 52.79400 24.88300
C  13.54800 53.27600 25.78000
C  12.34800 53.85000 25.09200
C  12.56200 53.61900 23.73500
C  13.88900 52.93800 23.59400
C  11.17200 54.36900 25.90100
C  11.55500 53.95800 22.62100
O  11.82900 53.62400 21.45600
C  10.11200 54.48500 22.88500
N  16.59300 51.40900 23.15400
C  15.58400 51.58200 22.20500
C  16.02100 51.05600 20.77500
C  17.51500 50.76800 21.02000
C  17.67200 50.91100 22.51200
C  15.22800 49.86300 20.21100
C  18.53100 51.59200 20.19700
C  18.45700 53.05700 20.56600
N  18.17300 50.90000 25.47200
C  19.13300 50.48600 24.52700
C  20.27900 49.90500 25.23300
C  20.01100 50.16000 26.60600
C  18.74900 50.69400 26.67900
C  21.42500 49.29500 24.64500
C  20.52000 50.05400 27.99700
O  21.63600 49.70100 28.39000
C  19.38500 50.56200 28.99000
C  18.91000 49.45800 29.93500
O  17.78500 48.94800 29.81400
O  19.82900 49.09900 30.83100
C  19.34100 48.16600 31.90800
H  12.96200 53.52700 27.75600
H  13.80800 52.30000 21.56300
H  19.61700 49.92800 22.57100
H  16.39900 51.14600 30.31900
H  14.98400 53.64600 29.70800
H  12.93900 51.92500 29.62400
H  13.70500 52.36700 31.10100
H  14.15500 50.82200 30.48000
H  16.85000 53.94200 30.46600
H  18.29100 53.17600 29.90100
H  17.94000 53.45600 32.53400
H  18.82800 52.07700 31.84700
H  11.29600 54.32100 26.98300
H  10.36300 53.69000 25.63300
H  11.01500 55.42700 25.68700
H  9.30900 53.77000 23.06100
H  9.82500 55.06600 22.00800
H  10.24800 55.32400 23.56800
H  15.94200 51.89900 20.08900
H  17.73400 49.77600 20.62500
H  14.51600 49.61300 20.99700
H  15.79300 48.93900 20.08700
H  14.58200 50.15800 19.38400
H  18.32800 51.52400 19.12800
H  19.58700 51.35400 20.32400
H  18.58600 53.25500 21.63000
H  17.52700 53.50300 20.21200
H  19.25300 53.61800 20.07600
H  21.76500 49.77000 23.72600
H  21.35000 48.21600 24.51100
H  22.17600 49.52000 25.40200
H  19.74500 51.35500 29.64600
H  20.11800 47.59400 32.41400
H  18.69600 47.34600 31.59400
H  18.79600 48.72500 32.66900

