158

Mg 0.13300 7.49500 26.50800
C  0.86400 9.51800 29.21300
C  -0.28400 4.80900 28.71600
C  -0.15500 5.48700 23.86300
C  0.57000 10.21500 24.36800
N  0.25700 7.17600 28.80400
C  0.57400 8.16100 29.69400
C  0.68600 7.55000 31.13100
C  0.23700 6.16100 30.92600
C  0.05200 6.00200 29.43100
C  1.08900 5.03300 31.68200
C  -0.36500 8.18500 32.12600
C  -0.04600 8.20000 33.62900
H  -0.58000 6.95900 34.39700
N  -0.22400 5.41400 26.30200
C  -0.48900 4.52500 27.32800
C  -0.66700 3.20600 26.81400
C  -0.60200 3.36600 25.39500
C  -0.38600 4.83400 25.11400
C  -0.81300 1.98600 27.71600
C  -0.66900 2.44700 24.23700
O  -0.59300 2.74000 23.08000
C  -0.88600 1.01800 24.62500
N  0.08300 7.77800 24.40300
C  0.10400 6.76200 23.57900
C  0.67500 7.25300 22.18800
C  0.41900 8.74500 22.35500
C  0.33100 8.96900 23.80600
C  2.17500 6.91500 21.98100
C  -0.73700 9.33100 21.46400
C  -2.11700 9.68700 22.14100
N  0.67800 9.37700 26.66700
C  0.84900 10.41900 25.72300
C  1.35500 11.62500 26.43600
C  1.38400 11.28100 27.72800
C  0.92700 9.97400 27.86300
C  1.74900 13.02800 25.96500
C  1.75600 11.83100 29.03400
O  2.26600 12.91200 29.34200
C  1.33800 10.70400 30.11500
C  2.41200 10.29000 31.02300
O  3.32200 9.49100 30.78900
O  2.30500 10.96800 32.19100
C  3.44800 10.82300 33.06100
H  -0.44900 4.10500 29.53300
H  -0.13600 4.86900 22.96300
H  0.74700 11.00600 23.63600
H  1.68200 7.63100 31.56600
H  -0.76800 5.98200 31.30700
H  1.58100 4.41900 30.92900
H  0.33200 4.48300 32.24200
H  1.93100 5.35600 32.29500
H  -1.28800 7.60600 32.07700
H  -0.58600 9.20600 31.81500
H  -0.56600 9.06800 34.03500
H  1.04100 8.12600 33.63100
H  0.15400 1.48400 27.74200
H  -1.61200 1.33700 27.35800
H  -1.06600 2.23900 28.74600
H  -1.84900 0.95600 25.13200
H  -0.13800 0.49400 25.22000
H  -1.00900 0.42500 23.71900
H  0.00300 6.82300 21.44500
H  1.35700 9.23800 22.09900
H  2.36400 6.02500 22.58100
H  2.98200 7.62100 22.17700
H  2.27500 6.39300 21.02900
H  -0.85700 8.69600 20.58600
H  -0.52700 10.36200 21.17900
H  -2.78300 8.97300 21.65600
H  -2.35300 10.68900 21.78300
H  -2.20600 9.63300 23.22600
H  0.90300 13.69700 26.12200
H  2.10500 13.01300 24.93500
H  2.52400 13.33100 26.66900
H  0.45800 10.90300 30.72700
H  3.41500 11.65100 33.76800
H  4.44700 10.66800 32.65500
H  3.13300 10.03500 33.74600
Mg 29.55400 58.81700 39.58100
C  27.06900 56.36300 38.48500
C  31.89300 56.70700 38.14300
C  31.71700 61.27900 39.79700
C  26.84700 61.01000 39.96300
N  29.48000 56.75500 38.37600
C  28.42700 55.91300 38.15600
C  28.85100 54.60200 37.47800
C  30.42500 54.65500 37.52800
C  30.66100 56.11200 38.07300
C  31.09900 53.48200 38.28000
C  28.22000 54.32800 36.04300
C  27.87000 55.62100 35.26000
H  27.90200 55.43400 33.77400
N  31.54400 58.88300 39.25900
C  32.34800 57.99300 38.53400
C  33.69900 58.44400 38.63200
C  33.68400 59.79100 39.29200
C  32.27200 60.04900 39.41600
C  34.84500 57.54600 38.08800
C  34.84600 60.58800 39.69600
O  36.00100 60.15000 39.49100
C  34.65100 61.84700 40.43000
N  29.30900 60.90500 39.66500
C  30.38000 61.62600 40.01900
C  30.00100 63.03900 40.54900
C  28.43300 62.99800 40.37600
C  28.16500 61.57900 39.92400
C  30.33000 63.23200 42.03400
C  27.80200 64.11700 39.58000
C  26.75900 64.92200 40.28500
N  27.37100 58.73300 39.50100
C  26.47100 59.70600 39.67600
C  25.12500 59.16400 39.58000
C  25.30000 57.83400 39.17200
C  26.68600 57.65500 39.02700
C  23.82900 59.89200 39.78100
C  24.58100 56.67300 38.77800
O  23.37600 56.49600 38.81200
C  25.70900 55.63600 38.24500
C  25.69500 54.39800 39.13600
O  26.57400 54.04900 39.89800
O  24.54100 53.72300 38.83500
C  24.57200 52.33100 39.23400
H  32.71500 56.12400 37.72200
H  32.25900 62.20900 39.98100
H  26.05400 61.74100 40.13400
H  28.55900 53.90900 38.26700
H  30.82900 54.51100 36.52600
H  32.13600 53.38900 37.95700
H  30.57100 52.56400 38.02300
H  31.14700 53.60900 39.36100
H  27.24400 53.90200 36.27300
H  28.62600 53.51500 35.44100
H  28.47800 56.50400 35.45600
H  26.81900 55.80700 35.48000
H  34.82400 57.49800 36.99900
H  34.59900 56.51300 38.33400
H  35.87000 57.76000 38.39200
H  35.55200 62.03000 41.01400
H  33.85000 61.78300 41.16700
H  34.54300 62.73200 39.80300
H  30.51500 63.84800 40.02900
H  27.99300 63.06500 41.37100
H  29.67700 64.02800 42.39100
H  31.38900 63.46100 42.15100
H  30.19500 62.40800 42.73500
H  27.38800 63.66800 38.67800
H  28.58600 64.80200 39.25700
H  26.05600 65.27500 39.53100
H  27.28100 65.74000 40.78300
H  26.31200 64.37400 41.11400
H  23.03500 59.29400 39.33300
H  23.76300 60.90200 39.37500
H  23.68700 59.97800 40.85800
H  25.49700 55.29200 37.23300
H  24.93600 51.77000 38.37300
H  23.55600 52.02300 39.48100
H  25.28200 52.00700 39.99500

