158

Mg 24.54800 1.53800 29.14500
C  26.48000 1.27500 32.10200
C  21.78900 1.55200 31.14600
C  22.68500 1.52400 26.34400
C  27.49200 1.12700 27.37500
N  24.22800 1.47000 31.36500
C  25.18100 1.48100 32.39800
C  24.50400 1.56900 33.81500
C  22.99500 1.67700 33.42900
C  22.99600 1.50100 31.85500
C  22.07400 0.51200 34.12300
C  24.93000 2.77800 34.69800
C  24.35500 2.70800 36.18400
H  25.46000 2.73600 37.34900
N  22.50600 1.51600 28.77200
C  21.51600 1.52100 29.71800
C  20.23400 1.58100 29.08300
C  20.49500 1.44300 27.62300
C  21.93800 1.44900 27.48000
C  18.87500 1.76600 29.79900
C  19.52900 1.48600 26.46300
O  19.96200 1.39200 25.33800
C  18.05400 1.65400 26.62700
N  25.00400 1.27300 27.19800
C  24.08900 1.47700 26.20800
C  24.79900 1.57900 24.85900
C  26.26500 1.31700 25.15000
C  26.23900 1.21000 26.61200
C  24.18000 0.85700 23.67100
C  27.20500 2.47100 24.76000
C  26.97100 3.83300 25.45800
N  26.54900 1.19200 29.59500
C  27.65200 0.99300 28.81500
C  28.81600 0.71700 29.53500
C  28.42600 0.86100 30.88000
C  27.04400 1.09900 30.85100
C  30.18500 0.36200 29.00300
C  28.83700 0.89000 32.23200
O  29.95300 0.69500 32.69000
C  27.65700 1.27200 33.11400
C  27.58100 0.19200 34.10800
O  27.03400 -0.87400 33.90500
O  28.39200 0.38600 35.18300
C  28.53200 -0.48800 36.28700
H  20.89900 1.66100 31.77000
H  22.16300 1.49700 25.38500
H  28.30400 1.07200 26.64700
H  24.64000 0.66300 34.40500
H  22.62600 2.65600 33.73600
H  21.17900 0.79300 34.68000
H  22.68700 -0.12600 34.76000
H  21.72100 -0.12700 33.31400
H  24.63900 3.77400 34.36200
H  26.01500 2.77000 34.80600
H  23.83300 1.76900 36.36500
H  23.60400 3.48900 36.29800
H  18.98600 1.33100 30.79200
H  17.99200 1.35800 29.30600
H  18.77200 2.83300 29.99500
H  18.09000 2.67600 27.00400
H  17.43900 0.98600 27.23000
H  17.57900 1.80200 25.65700
H  24.68900 2.64600 24.66100
H  26.54000 0.37700 24.67200
H  24.89900 0.63500 22.88200
H  23.29600 1.37500 23.29900
H  23.79100 -0.06400 24.10400
H  27.10400 2.63200 23.68700
H  28.26500 2.24400 24.87200
H  26.21800 3.73600 26.24000
H  26.58400 4.58700 24.77200
H  27.74400 4.34300 26.03300
H  30.30700 -0.63400 29.42900
H  30.95100 0.97000 29.48500
H  30.31400 0.36700 27.92100
H  27.87700 2.24100 33.56000
H  27.87600 -0.20600 37.11100
H  29.53000 -0.28200 36.67400
H  28.52100 -1.55800 36.08100
Mg 17.67000 50.84400 25.94500
C  19.39400 49.50500 28.68400
C  15.14500 51.69400 27.97700
C  15.96700 51.74700 23.24500
C  20.01800 49.25300 23.89100
N  17.28800 50.47900 28.04400
C  18.14000 50.01400 29.00500
C  17.66700 50.35400 30.38900
C  16.19100 50.73800 30.08500
C  16.17300 50.99900 28.58200
C  15.12700 49.62700 30.45900
C  18.48100 51.44400 31.20900
C  18.45600 51.34500 32.73200
H  17.53900 50.53300 33.58300
N  15.84300 51.81400 25.66800
C  14.97300 51.99200 26.62300
C  13.90600 52.87400 26.07700
C  14.18300 52.91600 24.67200
C  15.33400 52.05000 24.45700
C  12.77500 53.40300 26.86400
C  13.53100 53.71600 23.54200
O  14.03700 53.84200 22.39700
C  12.44300 54.66400 23.90700
N  18.00900 50.57300 23.80100
C  17.17700 51.08600 22.92100
C  17.51000 50.66100 21.46800
C  18.95100 49.94400 21.68400
C  18.97000 49.90400 23.19300
C  16.42600 49.79900 20.74900
C  20.23300 50.63900 21.06400
C  21.01600 51.59000 21.94500
N  19.49200 49.79900 26.18600
C  20.29500 49.19500 25.23200
C  21.43800 48.57000 25.90900
C  21.15800 48.69600 27.27000
C  19.90800 49.41200 27.32600
C  22.60700 48.00500 25.26400
C  21.63100 48.35500 28.57200
O  22.72200 47.77300 28.90100
C  20.57800 48.97600 29.53900
C  20.13300 47.89700 30.49000
O  19.45100 46.93100 30.16800
O  20.59900 48.27200 31.74500
C  20.30400 47.29800 32.72900
H  14.37600 52.10900 28.63100
H  15.46400 51.93000 22.29300
H  20.64100 48.59100 23.28800
H  17.67900 49.38700 30.89100
H  15.97300 51.65800 30.62700
H  14.23700 49.93800 31.00500
H  15.76600 48.94800 31.02400
H  14.90800 49.09800 29.53200
H  18.10600 52.42900 30.93000
H  19.53900 51.31700 30.97900
H  18.31500 52.41500 32.88900
H  19.51800 51.16400 32.89800
H  12.85900 54.46700 27.08900
H  12.81300 52.87400 27.81600
H  11.82200 53.12800 26.41100
H  12.14600 55.37000 23.13100
H  12.97900 55.37800 24.53400
H  11.56200 54.18300 24.33000
H  17.63000 51.62000 20.96300
H  18.95400 48.91100 21.33600
H  15.68400 49.48600 21.48400
H  16.66300 48.83400 20.29900
H  15.94400 50.37400 19.95800
H  19.97700 51.16300 20.14300
H  20.91100 49.80800 20.86900
H  20.75600 51.55400 23.00300
H  21.11900 52.61600 21.59300
H  22.05400 51.27900 21.82600
H  23.51400 48.32500 25.77700
H  22.85100 48.43700 24.29300
H  22.64700 46.92000 25.35600
H  21.09300 49.77400 30.07400
H  20.97900 46.45500 32.87200
H  19.30500 46.87000 32.64000
H  20.35800 47.73200 33.72800

