158

Mg -0.07300 6.87700 25.65400
C  1.05300 9.06400 28.09000
C  -0.01400 4.34100 27.94700
C  -0.89800 4.77000 23.27700
C  0.35200 9.50100 23.37700
N  0.57400 6.65900 27.76000
C  0.82700 7.74300 28.57700
C  0.95300 7.33500 30.02800
C  0.99500 5.74400 29.95300
C  0.42800 5.55600 28.52100
C  2.30000 5.07600 30.25100
C  -0.12200 7.98600 31.04500
C  -0.07300 7.51500 32.46800
H  1.22900 7.50500 33.18600
N  -0.47400 4.84400 25.63000
C  -0.43400 3.98600 26.66000
C  -0.99600 2.70000 26.21300
C  -1.38300 2.79000 24.82000
C  -0.86400 4.17600 24.52900
C  -1.14200 1.52800 27.20100
C  -2.02600 1.81500 23.83500
O  -2.37800 2.17500 22.70600
C  -2.12900 0.46700 24.23800
N  -0.17300 7.14000 23.65700
C  -0.48900 6.09600 22.84200
C  -0.86200 6.54300 21.43000
C  -0.52000 8.04400 21.49100
C  -0.04900 8.27300 22.92100
C  -0.09100 5.77200 20.31400
C  -1.63200 9.00200 21.11700
C  -1.05900 10.19600 20.31800
N  0.56900 8.88600 25.72900
C  0.64500 9.83500 24.69100
C  1.14700 11.07500 25.18600
C  1.22000 10.84500 26.57100
C  0.90300 9.50800 26.83000
C  1.38100 12.25300 24.35500
C  1.50900 11.47900 27.86300
O  1.81700 12.66200 28.16000
C  1.28400 10.33100 28.90400
C  2.32100 10.30300 29.95800
O  3.46200 9.84100 29.82300
O  1.84000 10.90000 31.16100
C  2.98000 11.00300 32.04100
H  0.15800 3.57300 28.70400
H  -1.17800 4.20200 22.38700
H  0.47100 10.29000 22.63200
H  1.91100 7.75100 30.34300
H  0.26900 5.29100 30.62800
H  2.68800 4.69200 29.30700
H  2.19900 4.30100 31.01100
H  3.00500 5.79300 30.67000
H  -1.12400 7.92200 30.62000
H  0.10900 9.05100 31.04800
H  -0.53100 6.53100 32.56500
H  -0.83700 8.16700 32.89300
H  -1.92600 1.50800 27.95800
H  -0.14600 1.57400 27.64100
H  -1.03300 0.58700 26.66200
H  -2.81500 0.48500 25.08600
H  -1.10300 0.18400 24.47100
H  -2.53300 -0.25200 23.52500
H  -1.93600 6.38200 21.34000
H  0.27800 8.26700 20.78200
H  0.45300 4.87900 20.62200
H  0.57200 6.46800 19.80100
H  -0.83300 5.41100 19.60100
H  -2.16600 9.31500 22.01400
H  -2.40800 8.54000 20.50700
H  -1.51900 10.22800 19.33100
H  0.02500 10.29400 20.24700
H  -1.36700 11.04300 20.93200
H  2.16000 11.83600 23.71700
H  1.77200 13.10000 24.91900
H  0.53500 12.42300 23.68900
H  0.33700 10.75400 29.23800
H  3.82000 11.52100 31.57700
H  3.44700 10.15400 32.53900
H  2.56500 11.60200 32.85200
Mg -12.01300 16.76000 41.49700
C  -9.04200 14.91900 41.07400
C  -10.49300 19.42800 40.11600
C  -14.99000 18.05800 41.26000
C  -13.53100 13.52200 42.16100
N  -10.10600 17.01600 40.59800
C  -8.93800 16.19600 40.65100
C  -7.65400 16.82100 40.09100
C  -8.21000 18.29000 39.82000
C  -9.71400 18.25200 40.18300
C  -7.50800 19.49800 40.43700
C  -7.30500 16.17200 38.69000
C  -5.97000 15.32700 38.59600
H  -5.02500 15.70300 37.47800
N  -12.64300 18.59200 40.83600
C  -11.86200 19.55300 40.36100
C  -12.71900 20.73600 40.13200
C  -14.01700 20.33400 40.44400
C  -13.91000 18.91200 40.89500
C  -12.25200 22.07100 39.61300
C  -15.18800 21.27400 40.39100
O  -15.10100 22.44600 39.95000
C  -16.63400 20.86900 40.72400
N  -13.93800 15.90800 41.83000
C  -15.05000 16.70600 41.65100
C  -16.38900 15.93600 41.85600
C  -15.80700 14.58400 42.28800
C  -14.33100 14.69600 42.07800
C  -17.39100 16.55100 42.79800
C  -16.34300 13.32500 41.51800
C  -16.75300 12.21600 42.52200
N  -11.45300 14.64400 41.67300
C  -12.14500 13.50400 41.96200
C  -11.30000 12.39000 42.15700
C  -10.05700 12.96500 41.86900
C  -10.22000 14.31500 41.54200
C  -11.60300 10.98500 42.47200
C  -8.65300 12.57500 41.67100
O  -8.14600 11.48800 41.80000
C  -7.99300 13.82100 41.25700
C  -7.05400 14.09700 42.33400
O  -7.23700 14.61000 43.43700
O  -5.79200 13.62000 41.92600
C  -4.70000 14.24100 42.67300
H  -10.02400 20.37800 39.85200
H  -15.98100 18.51300 41.21300
H  -14.01800 12.61700 42.53100
H  -6.78400 16.82000 40.74800
H  -8.21700 18.52000 38.75400
H  -7.58900 20.33500 39.74300
H  -6.50000 19.33000 40.81800
H  -7.98600 19.77200 41.37800
H  -7.37100 16.88000 37.86400
H  -8.09100 15.53500 38.28500
H  -6.21000 14.29200 38.35200
H  -5.43000 15.47700 39.53100
H  -12.30800 22.07000 38.52400
H  -11.18300 22.28200 39.65500
H  -12.67900 22.99800 39.99500
H  -17.25900 21.76100 40.77200
H  -16.68400 20.35600 41.68400
H  -16.95200 20.17300 39.94800
H  -16.85200 15.83400 40.87500
H  -15.98000 14.52400 43.36300
H  -18.39700 16.67300 42.39700
H  -16.93300 17.47700 43.14600
H  -17.49600 15.93000 43.68700
H  -15.76800 12.92700 40.68100
H  -17.27800 13.63100 41.04800
H  -17.28800 11.40500 42.02800
H  -17.27800 12.58500 43.40400
H  -15.85700 11.68800 42.84900
H  -10.69300 10.38900 42.54000
H  -12.16200 10.43200 41.71700
H  -12.10700 10.96600 43.43900
H  -7.51000 13.71200 40.28600
H  -4.00100 14.23000 41.83700
H  -4.36300 13.60600 43.49200
H  -4.78700 15.27100 43.01800

