158

Mg 45.15200 3.61500 47.40400
C  43.14500 6.43700 46.67100
C  42.25700 1.67600 46.83000
C  47.10500 0.90500 47.39300
C  47.88900 5.75200 47.36300
N  43.05600 3.99600 46.72600
C  42.51700 5.21200 46.56900
C  40.99200 5.13000 46.47200
C  40.65600 3.65700 46.79400
C  42.04600 3.06100 46.76700
C  40.04800 3.40900 48.17400
C  40.45800 5.52500 45.11700
C  39.50800 6.72300 44.98400
H  39.83700 7.71000 43.88300
N  44.77300 1.61900 47.03300
C  43.55000 1.06200 46.84900
C  43.70500 -0.33700 46.78400
C  45.08000 -0.60400 47.05700
C  45.76100 0.67000 47.18900
C  42.58800 -1.29000 46.65000
C  45.69300 -2.00800 47.31300
O  44.91300 -2.97200 47.39400
C  47.13100 -2.24800 47.56000
N  47.21300 3.35600 47.04400
C  47.80600 2.15200 47.43400
C  49.30700 2.35000 47.69400
C  49.48600 3.89700 47.48100
C  48.10100 4.37500 47.26300
C  49.73900 1.74300 49.08400
C  50.42200 4.30000 46.30300
C  51.65100 5.09800 46.79400
N  45.48300 5.67500 47.22000
C  46.64900 6.40800 47.24100
C  46.34000 7.83000 47.21400
C  44.97400 7.90800 47.00600
C  44.49300 6.55200 46.91900
C  47.30500 8.95600 47.09900
C  43.87400 8.85400 46.81600
O  43.77800 10.12300 46.81700
C  42.59900 7.84600 46.70800
C  41.70000 8.14600 47.86400
O  41.65100 7.59000 48.93400
O  40.72500 9.01300 47.40700
C  39.65400 9.29900 48.37700
H  41.36800 1.06300 46.66500
H  47.84800 0.12700 47.57900
H  48.79200 6.28300 47.67200
H  40.50700 5.78300 47.19700
H  39.94800 3.09000 46.19100
H  40.77000 2.89000 48.80500
H  39.27700 2.67700 47.93400
H  39.54700 4.25200 48.65000
H  40.20600 4.60900 44.58200
H  41.31700 5.70500 44.47100
H  39.51800 7.31100 45.90200
H  38.48800 6.34800 44.90700
H  41.59400 -0.93900 46.37400
H  42.62100 -1.85400 47.58200
H  42.78700 -2.09200 45.93900
H  47.26700 -3.32000 47.69800
H  47.44200 -1.65400 48.41900
H  47.76400 -1.81300 46.78700
H  49.80100 1.86900 46.85000
H  49.75800 4.27300 48.46800
H  49.97600 0.69200 48.91600
H  48.84900 1.89100 49.69600
H  50.57100 2.31000 49.50100
H  49.81900 4.88900 45.61200
H  50.64900 3.38200 45.76000
H  52.57800 4.52800 46.72600
H  51.55700 5.54800 47.78200
H  51.60900 5.89900 46.05600
H  46.88900 9.82700 47.60500
H  47.58900 9.10800 46.05800
H  48.20000 8.67300 47.65200
H  42.09000 8.07000 45.77100
H  39.74000 10.31600 48.76000
H  39.55200 8.59700 49.20500
H  38.71100 9.38700 47.83700
Mg -11.12000 17.14700 41.04600
C  -7.65800 16.69000 40.71800
C  -10.57300 20.46800 39.94900
C  -14.37600 17.63200 40.49700
C  -11.46800 13.68500 41.09400
N  -9.26800 18.38500 40.40000
C  -7.99900 17.99200 40.45800
C  -6.97400 19.14600 40.28700
C  -7.99700 20.40000 40.45500
C  -9.35900 19.76500 40.20100
C  -7.89800 21.23800 41.73200
C  -6.37000 19.22400 38.90400
C  -4.88600 18.89000 38.83200
H  -4.37300 18.06800 37.71300
N  -12.32200 18.86900 40.53600
C  -11.90200 20.03800 39.95200
C  -13.00800 20.84700 39.56400
C  -14.16700 20.14200 40.03600
C  -13.66600 18.80300 40.42300
C  -13.00700 22.28600 39.05000
C  -15.63300 20.60700 39.81200
O  -15.93600 21.66900 39.23400
C  -16.77200 19.81200 40.26400
N  -12.64600 15.78500 40.77000
C  -13.93100 16.29700 40.73300
C  -14.97700 15.18400 40.65700
C  -14.01200 13.85600 40.82600
C  -12.64200 14.43300 40.93400
C  -16.05400 15.31400 41.73800
C  -14.05500 12.74300 39.64200
C  -14.72200 11.41700 39.98800
N  -9.89500 15.39800 41.03200
C  -10.17800 14.08300 41.24300
C  -8.90200 13.38900 41.39800
C  -7.83900 14.31200 41.19500
C  -8.54800 15.60200 40.94300
C  -8.67400 11.97700 41.72100
C  -6.41500 14.54600 41.15400
O  -5.50300 13.74300 41.29100
C  -6.26900 16.09000 40.94800
C  -5.52600 16.54400 42.03500
O  -4.42900 17.13600 41.91000
O  -6.14000 16.39900 43.21000
C  -5.46200 16.88600 44.40900
H  -10.40900 21.52900 39.75200
H  -15.41400 17.67500 40.16000
H  -11.56400 12.60100 41.18500
H  -6.32200 19.09800 41.15800
H  -7.75800 21.08600 39.64300
H  -7.08700 20.87200 42.36200
H  -8.83800 21.11500 42.27100
H  -7.82000 22.29200 41.46800
H  -6.51500 20.17200 38.38700
H  -6.89800 18.48600 38.30000
H  -4.63200 18.49700 39.81600
H  -4.31700 19.81400 38.72800
H  -13.83800 22.26800 38.34600
H  -12.03700 22.37300 38.56000
H  -13.23100 22.97600 39.86300
H  -17.09500 19.11900 39.48700
H  -17.57500 20.52400 40.45300
H  -16.65000 19.29600 41.21600
H  -15.44700 15.12700 39.67500
H  -14.34400 13.28200 41.69100
H  -16.91000 15.31100 41.06200
H  -16.12100 16.23500 42.31700
H  -16.29100 14.55100 42.48000
H  -13.09300 12.47600 39.20500
H  -14.66600 13.19500 38.86000
H  -15.56600 11.37500 39.29900
H  -15.10400 11.34100 41.00600
H  -14.13400 10.54900 39.69300
H  -8.62000 11.79100 42.79400
H  -7.80600 11.53800 41.22900
H  -9.59400 11.46100 41.44500
H  -5.61500 16.34300 40.11300
H  -5.90600 17.84400 44.68000
H  -4.38200 17.03200 44.38300
H  -5.68300 16.16000 45.19100

