158

Mg 1.46900 -1.06900 44.18800
C  4.80300 -0.15700 43.46000
C  0.59900 1.50700 42.19000
C  -1.70200 -2.23000 44.22300
C  2.59900 -4.06900 45.54600
N  2.55300 0.57900 43.08100
C  3.91500 0.72700 42.86900
C  4.28800 1.95000 41.93000
C  2.88700 2.63000 41.84500
C  1.92500 1.47200 42.37000
C  2.74300 3.86800 42.74000
C  4.87200 1.41500 40.57700
C  6.25100 1.81300 40.20800
H  6.40100 2.87000 39.09800
N  -0.29900 -0.47100 43.35300
C  -0.50500 0.69200 42.61100
C  -1.87600 1.00100 42.47500
C  -2.61100 -0.14000 43.00300
C  -1.53200 -0.99700 43.60100
C  -2.39000 2.17800 41.74500
C  -4.10200 -0.31100 42.96700
O  -4.80800 0.62300 42.52000
C  -4.78300 -1.50600 43.42000
N  0.58600 -3.12000 44.48200
C  -0.76300 -3.18700 44.66900
C  -1.11800 -4.50400 45.29600
C  0.27000 -5.13700 45.84700
C  1.23200 -3.99900 45.34700
C  -2.18600 -4.37900 46.40300
C  0.67700 -6.49800 45.16500
C  0.70800 -7.74900 46.05000
N  3.32200 -1.92200 44.57500
C  3.62300 -3.12200 45.16100
C  5.07900 -3.23600 45.39200
C  5.56100 -2.11000 44.73000
C  4.48200 -1.31600 44.22200
C  5.78000 -4.42600 46.03200
C  6.77500 -1.56000 44.24800
O  7.95500 -1.86200 44.37900
C  6.36400 -0.20300 43.46500
C  7.04800 0.98600 44.19900
O  8.22900 1.20900 44.22600
O  6.14500 1.76400 44.97800
C  6.77700 3.01300 45.36600
H  0.30500 2.39600 41.62800
H  -2.71400 -2.51300 44.51800
H  3.00400 -4.89800 46.13000
H  5.04700 2.60400 42.35900
H  2.62200 2.76700 40.79600
H  2.26800 4.64500 42.14100
H  3.72300 4.20200 43.08100
H  2.09400 3.71400 43.60300
H  4.23600 1.78700 39.77300
H  4.85300 0.32800 40.49000
H  6.91500 1.00300 39.90700
H  6.80400 2.26600 41.03100
H  -3.22400 2.57000 42.32900
H  -2.78000 1.99200 40.74400
H  -1.71400 3.03300 41.75600
H  -5.85000 -1.52600 43.19800
H  -4.72500 -1.38500 44.50200
H  -4.30500 -2.42800 43.08800
H  -1.53500 -5.15800 44.52900
H  0.25500 -5.11900 46.93700
H  -2.27500 -3.35100 46.75400
H  -1.89800 -4.92100 47.30300
H  -3.23200 -4.58000 46.17300
H  1.60400 -6.44900 44.59300
H  -0.15100 -6.71800 44.49100
H  0.03700 -7.52800 46.88000
H  1.68500 -8.21700 46.17300
H  0.11300 -8.53600 45.58700
H  6.30000 -5.08300 45.33600
H  5.06000 -4.98900 46.62700
H  6.59200 -4.13600 46.69900
H  6.83700 -0.24200 42.48300
H  6.12700 3.70900 45.89600
H  7.08500 3.56300 44.47700
H  7.59300 2.86500 46.07500
Mg 41.14200 8.72000 29.23500
C  43.16400 9.67100 31.91400
C  38.83200 7.61500 31.47800
C  39.31900 7.56000 26.63600
C  43.73300 9.63700 27.09100
N  40.93000 8.90100 31.49700
C  41.88100 9.32400 32.38800
C  41.45900 9.01500 33.86900
C  40.10400 8.27900 33.64600
C  39.87300 8.28400 32.08500
C  40.05200 6.92600 34.27200
C  41.41900 10.28000 34.75400
C  41.62100 10.08200 36.28500
H  42.29600 11.25400 37.03100
N  39.35000 7.72700 29.03900
C  38.49500 7.33100 30.12200
C  37.33000 6.75100 29.62700
C  37.49600 6.69000 28.19500
C  38.75200 7.34500 27.88800
C  36.30900 6.16300 30.56700
C  36.53100 5.98800 27.15000
O  36.79400 5.92700 25.89200
C  35.27800 5.34900 27.59300
N  41.51200 8.52100 27.15300
C  40.53900 8.18000 26.26500
C  41.04900 8.31700 24.75600
C  42.37200 9.16600 25.03000
C  42.58900 9.09200 26.52400
C  41.22300 6.93900 24.23200
C  42.04100 10.64800 24.58000
C  40.94300 11.45200 25.30300
N  43.01600 9.50400 29.41200
C  43.94700 9.79300 28.43900
C  45.12100 10.37800 28.99700
C  44.86200 10.32500 30.39700
C  43.59100 9.75100 30.57800
C  46.35200 10.89100 28.28100
C  45.45000 10.60000 31.71700
O  46.54900 11.03900 32.06000
C  44.33100 10.23200 32.67600
C  44.85500 9.33400 33.69700
O  44.94400 8.11400 33.61400
O  45.26200 10.11400 34.79100
C  45.73700 9.34800 35.93300
H  38.10000 7.46000 32.27400
H  38.73600 7.20100 25.78500
H  44.24600 10.26500 26.35900
H  42.17600 8.34100 34.33600
H  39.25300 8.85000 34.01700
H  40.92100 6.66900 34.87600
H  39.91300 6.09200 33.58400
H  39.18900 6.95200 34.93800
H  40.44700 10.77000 34.80700
H  42.17700 11.00000 34.44500
H  42.29000 9.24500 36.48200
H  40.69400 9.84900 36.81000
H  35.31100 6.34500 30.16700
H  36.40400 6.69900 31.51200
H  36.40400 5.09000 30.72900
H  35.49000 4.53800 28.29000
H  34.74200 4.82500 26.80200
H  34.49000 6.00000 27.97100
H  40.32300 8.91700 24.20600
H  43.23700 8.80700 24.47300
H  40.85200 6.18500 24.92600
H  42.28300 6.76800 24.04700
H  40.62700 6.85400 23.32400
H  41.74200 10.80000 23.54300
H  42.94900 11.22800 24.74500
H  41.24500 11.66400 26.32900
H  39.94700 11.01000 25.32900
H  40.89300 12.39100 24.75100
H  46.59300 10.03000 27.65700
H  47.06100 11.35800 28.96400
H  45.88000 11.63600 27.64000
H  44.00700 11.18500 33.09300
H  46.41400 8.54400 35.64300
H  44.89500 8.89800 36.45800
H  46.24600 10.08300 36.55700

