158

Mg 17.19900 -1.38500 27.78100
C  15.92600 0.73500 30.32500
C  18.90400 -3.00000 30.25000
C  18.37900 -3.26600 25.39700
C  15.58500 0.74500 25.42100
N  17.42600 -1.09200 30.05900
C  16.86600 -0.18300 30.83100
C  17.19300 -0.33800 32.36400
C  18.34800 -1.36200 32.22200
C  18.20600 -1.90300 30.79300
C  19.83500 -0.89700 32.64900
C  16.00100 -0.70800 33.22800
C  15.97400 -0.27400 34.74500
H  16.52000 -1.32000 35.73100
N  18.42000 -3.00000 27.80800
C  19.02800 -3.53900 28.95300
C  19.80000 -4.62900 28.55400
C  19.60100 -4.79800 27.16200
C  18.74300 -3.68500 26.71000
C  20.78700 -5.46900 29.53000
C  20.15100 -5.89400 26.25500
O  19.91100 -5.90100 25.05100
C  20.76800 -7.12300 26.86400
N  17.13700 -1.10400 25.76200
C  17.72300 -2.08200 24.96300
C  17.59000 -1.75000 23.43900
C  16.53500 -0.61400 23.46800
C  16.37200 -0.34900 24.97200
C  18.96100 -1.29000 22.77700
C  15.15800 -0.85100 22.85700
C  14.17100 -1.78900 23.51100
N  15.88600 0.30500 27.79100
C  15.39500 1.06700 26.77900
C  14.44400 2.14200 27.32200
C  14.71800 2.10200 28.70000
C  15.60200 0.98400 28.92400
C  13.57800 3.09300 26.56800
C  14.54800 2.77100 29.96300
O  13.98300 3.80700 30.27000
C  15.21600 1.85400 30.99700
C  15.93300 2.76200 31.85400
O  16.94500 3.36900 31.55600
O  15.33500 2.85100 33.11500
C  16.00700 3.83300 34.05200
H  19.55000 -3.57000 30.92000
H  18.78400 -3.89500 24.60100
H  15.01400 1.37000 24.73000
H  17.66100 0.58800 32.69800
H  18.14800 -2.21900 32.86500
H  20.01000 0.08300 33.09300
H  20.37200 -0.81300 31.70400
H  20.36900 -1.72700 33.11200
H  15.92000 -1.79100 33.14100
H  15.07000 -0.36200 32.77900
H  14.91400 -0.14700 34.96500
H  16.58700 0.62700 34.74200
H  21.78200 -5.36900 29.09600
H  20.40700 -6.48700 29.61100
H  20.81700 -5.07900 30.54700
H  21.72300 -6.96600 27.36400
H  20.89900 -7.85900 26.07000
H  19.98100 -7.53900 27.49300
H  17.22900 -2.68200 23.00400
H  17.00900 0.26300 23.02800
H  19.39700 -0.49500 23.38300
H  18.80400 -1.02600 21.73100
H  19.63100 -2.14900 22.74900
H  15.23600 -1.16700 21.81600
H  14.61700 0.09500 22.86500
H  13.27600 -1.29400 23.88700
H  14.69900 -2.35800 24.27700
H  13.83500 -2.49500 22.75200
H  14.06900 3.15700 25.59700
H  13.64700 4.12700 26.90600
H  12.55700 2.75000 26.40200
H  14.44000 1.40400 31.61700
H  15.31800 3.97400 34.88500
H  16.04100 4.88200 33.76000
H  16.95200 3.39700 34.37800
Mg -6.20600 25.71000 26.15100
C  -4.35200 27.09400 28.63800
C  -7.56800 23.41300 28.35400
C  -7.66000 24.11300 23.52500
C  -4.24000 27.52100 23.78800
N  -5.87900 25.25100 28.23900
C  -5.22700 26.07400 29.09800
C  -5.65400 25.84500 30.59500
C  -6.25400 24.44000 30.40500
C  -6.62200 24.36300 28.92100
C  -5.48900 23.17500 30.87400
C  -6.63100 26.99600 31.30200
C  -7.63000 26.59300 32.42200
H  -7.13900 25.56200 33.47200
N  -7.67600 24.15400 26.02200
C  -8.07500 23.31000 27.05100
C  -9.10200 22.40800 26.54900
C  -9.22700 22.68700 25.15400
C  -8.14400 23.66400 24.83500
C  -9.81700 21.39800 27.52300
C  -10.21300 22.07300 24.14200
O  -10.16400 22.45800 22.97400
C  -11.28800 20.98700 24.55200
N  -5.89500 25.71600 23.93200
C  -6.61500 24.94800 23.09800
C  -6.14000 25.14100 21.66100
C  -5.01700 26.29900 21.73300
C  -5.02600 26.51100 23.22500
C  -5.65400 23.88000 20.91400
C  -5.46000 27.62300 20.98500
C  -4.34500 28.24200 20.15700
N  -4.64700 27.05100 26.19100
C  -4.04900 27.77300 25.12600
C  -3.12300 28.75700 25.74200
C  -3.31900 28.53300 27.10900
C  -4.13300 27.42900 27.31600
C  -2.22000 29.78200 25.13400
C  -3.08800 29.11500 28.44200
O  -2.47300 30.11000 28.79700
C  -3.74800 28.23500 29.50800
C  -2.75400 27.77600 30.50200
O  -1.71900 27.09600 30.35500
O  -3.20700 28.15100 31.67100
C  -2.44500 27.60400 32.84800
H  -8.01000 22.79100 29.13500
H  -8.22500 23.78200 22.65100
H  -3.59000 28.01600 23.06400
H  -4.84300 25.85700 31.32300
H  -7.19300 24.37800 30.95500
H  -5.93500 22.75000 31.77300
H  -4.51700 23.57000 31.17100
H  -5.47100 22.48100 30.03300
H  -7.19900 27.31500 30.42800
H  -6.05400 27.75600 31.82900
H  -8.39100 26.03600 31.87500
H  -8.11400 27.47200 32.84900
H  -10.83800 21.63200 27.82600
H  -9.25300 21.20400 28.43500
H  -9.91600 20.41800 27.05700
H  -10.95000 19.98700 24.82400
H  -11.89100 20.82600 23.65900
H  -11.88300 21.51500 25.29700
H  -6.99100 25.48000 21.07000
H  -4.05400 25.90400 21.40900
H  -4.73500 24.07600 20.36300
H  -6.36700 23.50100 20.18200
H  -5.39500 23.05100 21.57300
H  -5.58600 28.45800 21.67300
H  -6.39200 27.46100 20.44200
H  -4.74800 28.28600 19.14500
H  -3.41500 27.67600 20.20400
H  -4.05600 29.21600 20.55300
H  -1.20900 29.37800 25.18500
H  -2.33700 30.69300 25.72100
H  -2.48400 29.86000 24.07900
H  -4.51800 28.85000 29.97500
H  -2.17900 26.55000 32.76000
H  -3.22100 27.56600 33.61300
H  -1.74000 28.29900 33.30200

