158

Mg 24.71200 -6.29700 46.10700
C  26.75600 -4.02000 44.28900
C  22.05900 -5.42500 44.00700
C  23.01300 -9.10300 47.06600
C  27.53000 -7.39400 47.67600
N  24.45400 -4.76900 44.38500
C  25.35900 -3.84600 43.95000
C  24.70700 -2.97600 42.81000
C  23.19900 -3.38200 42.99900
C  23.18700 -4.65400 43.78200
C  22.27500 -2.31900 43.62600
C  25.24900 -3.09900 41.36200
C  25.98900 -1.89500 40.70300
H  25.73000 -1.76000 39.16600
N  22.80000 -7.13500 45.58300
C  21.85800 -6.57800 44.75700
C  20.61600 -7.33200 44.81400
C  20.86500 -8.38400 45.82500
C  22.24300 -8.29300 46.18100
C  19.40900 -7.22100 43.95200
C  19.91200 -9.38600 46.24400
O  18.74500 -9.41200 45.82200
C  20.20900 -10.37400 47.36800
N  25.19500 -8.08400 47.11500
C  24.34000 -9.02600 47.51400
C  25.10700 -10.11300 48.35100
C  26.53600 -9.63400 48.24000
C  26.42200 -8.25100 47.67500
C  24.57400 -10.12200 49.81900
C  27.49900 -10.62300 47.39700
C  28.73200 -11.17500 48.13000
N  26.71700 -5.60000 46.24200
C  27.68100 -6.18700 47.01000
C  28.95800 -5.62200 46.56500
C  28.60700 -4.79400 45.52900
C  27.25400 -4.77900 45.36400
C  30.33600 -5.93400 47.04800
C  29.18700 -3.96900 44.45200
O  30.32400 -3.60900 44.20200
C  27.96800 -3.24600 43.75000
C  27.92900 -1.81000 44.16200
O  27.76300 -0.94400 43.34900
O  27.98700 -1.68800 45.50800
C  27.43900 -0.42600 46.09200
H  21.18900 -5.03300 43.47600
H  22.54200 -9.96500 47.54300
H  28.50800 -7.65000 48.08900
H  24.86500 -1.93000 43.07000
H  22.70200 -3.79200 42.12100
H  22.78000 -1.39100 43.89600
H  21.94600 -2.82700 44.53300
H  21.47100 -2.30200 42.89100
H  24.40800 -3.35000 40.71700
H  25.89400 -3.97400 41.44200
H  27.06400 -1.99000 40.85900
H  25.81800 -0.99100 41.28800
H  19.61800 -6.81400 42.96200
H  18.70700 -6.55100 44.44800
H  18.87900 -8.14800 43.73300
H  20.89100 -11.14200 47.00500
H  19.18400 -10.72000 47.50400
H  20.65400 -9.85200 48.21600
H  25.07900 -11.08300 47.85500
H  27.02500 -9.61300 49.21300
H  25.19000 -9.57000 50.52900
H  24.36900 -11.09700 50.26100
H  23.61800 -9.60200 49.76800
H  27.78200 -10.11500 46.47500
H  26.95900 -11.45800 46.95300
H  28.34600 -12.16800 48.35900
H  28.82400 -10.60900 49.05700
H  29.65200 -11.11900 47.55000
H  30.79500 -6.78400 46.54200
H  30.28800 -5.95100 48.13700
H  31.11200 -5.18300 46.90200
H  28.07300 -3.37600 42.67300
H  26.93000 -0.63900 47.03200
H  26.70200 0.05700 45.45000
H  28.23200 0.29400 46.29300
Mg 47.83500 34.57900 27.44200
C  46.38100 33.09100 30.24800
C  47.94700 37.56100 29.11400
C  49.13100 36.10500 24.60300
C  47.59800 31.62700 25.66000
N  47.15000 35.16400 29.44600
C  46.73700 34.40900 30.48100
C  46.86100 35.16300 31.75200
C  46.93000 36.68100 31.30500
C  47.35000 36.48200 29.81300
C  45.58300 37.44000 31.69400
C  48.13300 34.63100 32.48700
C  48.69400 35.49600 33.60000
H  47.62800 36.00100 34.53200
N  48.46100 36.51600 26.97800
C  48.53000 37.58200 27.80500
C  49.12600 38.73600 27.28300
C  49.74500 38.32600 26.05200
C  49.09300 36.93900 25.77900
C  49.16700 40.11600 27.95400
C  50.55400 39.13400 25.05900
O  50.77900 38.75600 23.89800
C  50.96800 40.57800 25.40000
N  48.25400 33.97100 25.36400
C  48.85900 34.73700 24.43400
C  49.14700 33.96700 23.13700
C  48.73400 32.49800 23.52800
C  48.13100 32.68100 24.93500
C  48.54400 34.71800 21.86400
C  49.81800 31.35300 23.32100
C  51.19200 31.53900 24.05200
N  47.06300 32.76200 27.76500
C  47.12800 31.59300 27.00900
C  46.63100 30.46800 27.78800
C  46.29500 31.02100 28.98400
C  46.59100 32.40400 29.01400
C  46.44900 29.06000 27.28900
C  45.81800 30.68500 30.29900
O  45.54000 29.58100 30.74200
C  45.59700 32.05200 31.11400
C  45.82400 31.79900 32.54600
O  46.87600 31.60400 33.10100
O  44.62200 31.66400 33.12700
C  44.65500 31.46500 34.55700
H  48.02000 38.43100 29.77100
H  49.62200 36.62600 23.77800
H  47.56100 30.62200 25.23400
H  45.95400 34.87100 32.28000
H  47.72500 37.24200 31.79400
H  44.87500 37.55300 30.87300
H  45.77500 38.43900 32.08700
H  45.13800 36.97700 32.57500
H  48.98900 34.41000 31.85000
H  47.73300 33.77400 33.03000
H  49.23700 36.34300 33.18100
H  49.17500 34.81300 34.30100
H  49.25700 40.95000 27.25800
H  50.04600 40.06100 28.59700
H  48.37300 40.30200 28.67700
H  51.39300 40.56200 26.40400
H  50.19100 41.34200 25.39900
H  51.72200 40.85400 24.66300
H  50.23200 34.06400 23.10900
H  47.88800 32.25300 22.88600
H  49.39300 35.26700 21.45700
H  47.62000 35.21100 22.16400
H  48.21200 33.99100 21.12400
H  50.08200 31.27800 22.26600
H  49.32400 30.41600 23.57900
H  51.21500 30.55100 24.51200
H  51.16200 32.31700 24.81400
H  52.03400 31.59600 23.36200
H  47.13300 28.89700 26.45700
H  45.47400 28.84200 26.85300
H  46.54500 28.36700 28.12500
H  44.53500 32.29600 31.07900
H  44.99200 32.31800 35.14500
H  45.17100 30.56300 34.88600
H  43.62100 31.34400 34.88100

