158

Mg 24.08800 -4.74900 45.35000
C  26.43800 -2.52000 43.89300
C  21.73500 -3.35400 43.31300
C  22.23300 -7.51200 45.85900
C  26.86600 -6.36700 46.84000
N  24.11300 -3.04000 43.80900
C  25.13500 -2.21800 43.47400
C  24.65200 -1.12100 42.52300
C  23.08400 -1.24200 42.72100
C  22.93000 -2.64400 43.30800
C  22.51100 -0.24000 43.76700
C  25.16200 -1.35600 41.11300
C  25.52000 -0.09900 40.24300
H  25.02700 -0.15200 38.79600
N  22.15600 -5.32300 44.77700
C  21.34600 -4.55100 43.90300
C  20.18800 -5.31900 43.68400
C  20.14600 -6.45700 44.53400
C  21.55100 -6.50400 45.12400
C  19.04600 -4.95000 42.68200
C  18.98000 -7.38500 44.64400
O  17.98700 -7.25500 43.93000
C  19.02800 -8.44000 45.69500
N  24.45100 -6.62000 46.36600
C  23.51300 -7.61800 46.49400
C  24.07100 -8.91500 47.08600
C  25.57200 -8.49300 47.37800
C  25.65500 -7.03200 46.86000
C  23.35400 -9.53500 48.32900
C  26.57900 -9.42200 46.75800
C  26.24700 -10.97800 46.89300
N  26.18100 -4.41000 45.57900
C  27.11800 -5.13000 46.26100
C  28.45500 -4.62100 46.03200
C  28.28100 -3.56900 45.10400
C  26.84800 -3.50100 44.84200
C  29.75400 -5.08200 46.67600
C  28.91800 -2.57100 44.30000
O  30.09900 -2.19800 44.29500
C  27.75500 -1.87400 43.45400
C  27.83100 -0.41700 43.96400
O  27.21600 0.02900 44.91700
O  28.77400 0.24200 43.20600
C  29.17000 1.51800 43.77000
H  20.95000 -3.06800 42.61000
H  21.62500 -8.38900 46.09000
H  27.75900 -6.87000 47.21800
H  25.09700 -0.19200 42.87800
H  22.47500 -1.28700 41.81800
H  23.31600 0.30500 44.25900
H  21.92500 -0.70800 44.55800
H  21.90000 0.54400 43.31900
H  24.35200 -1.88000 40.60600
H  26.00300 -2.04200 41.21900
H  26.60700 -0.02400 40.20900
H  24.99800 0.76600 40.65200
H  18.04700 -5.02300 43.11200
H  19.18500 -5.41800 41.70700
H  18.94800 -3.86600 42.62600
H  19.66900 -8.10100 46.51000
H  19.52500 -9.27800 45.20600
H  18.08300 -8.90100 45.98500
H  24.18200 -9.58300 46.23200
H  25.89500 -8.37200 48.41100
H  22.54600 -8.98600 48.81200
H  24.04900 -9.93200 49.06900
H  22.82200 -10.43600 48.02200
H  27.47000 -9.23600 47.35700
H  26.70000 -9.12300 45.71700
H  25.69600 -11.11400 47.82400
H  27.09200 -11.66600 46.89500
H  25.55700 -11.17900 46.07300
H  30.44300 -4.23800 46.70700
H  30.20600 -5.76200 45.95400
H  29.64100 -5.62600 47.61400
H  27.97300 -1.78100 42.39000
H  29.92200 1.94700 43.10900
H  29.60300 1.33900 44.75400
H  28.34200 2.21900 43.88100
Mg 9.63800 48.23300 25.60000
C  7.68300 49.01700 28.30500
C  12.31000 49.08900 27.31000
C  11.41400 47.57500 22.85000
C  6.67800 47.86300 23.56100
N  9.89100 48.83500 27.68900
C  9.01200 49.09100 28.69700
C  9.66800 49.47300 30.03300
C  11.09000 49.84600 29.50400
C  11.11800 49.22100 28.07200
C  11.23000 51.47000 29.43200
C  9.77500 48.33700 31.10700
C  9.47500 48.76100 32.55400
H  8.84800 47.59400 33.37700
N  11.65200 48.01900 25.21300
C  12.59900 48.44100 26.07200
C  13.92100 48.26000 25.47500
C  13.70900 47.76400 24.14500
C  12.22000 47.80400 24.02500
C  15.15500 48.52900 26.22800
C  14.66300 47.36000 22.93200
O  14.20900 46.90700 21.87000
C  16.20600 47.39000 23.23500
N  9.11200 47.68300 23.47800
C  10.10800 47.49200 22.55000
C  9.51200 47.15900 21.15900
C  7.98300 47.07800 21.48900
C  7.89500 47.56500 22.95900
C  9.86200 48.19800 20.04800
C  7.24100 45.72900 21.30800
C  7.74100 44.51200 22.21300
N  7.61200 48.36700 25.83900
C  6.51600 48.19800 24.96700
C  5.28700 48.33000 25.73000
C  5.64400 48.75900 27.01800
C  7.08400 48.70500 27.04800
C  3.85500 48.13200 25.24100
C  5.15300 48.98700 28.33900
O  4.03600 49.00500 28.80800
C  6.47100 49.28200 29.25400
C  6.25700 48.38900 30.45000
O  6.43100 47.18600 30.46500
O  5.54700 49.03300 31.41300
C  4.96900 48.12300 32.45200
H  13.21100 49.43000 27.82400
H  11.95100 47.24200 21.96000
H  5.75500 47.97100 22.98900
H  9.13100 50.30200 30.49500
H  11.92400 49.44600 30.08200
H  10.30600 52.04900 29.42700
H  11.77300 51.75400 28.53000
H  11.82400 51.86500 30.25600
H  10.81100 48.00000 31.14400
H  9.37500 47.40500 30.70700
H  8.76300 49.58300 32.48200
H  10.43700 49.14800 32.89100
H  15.89400 47.77900 25.94700
H  15.01300 48.50500 27.30800
H  15.54600 49.52500 26.02100
H  16.48700 46.48600 23.77500
H  16.41800 48.39100 23.61200
H  16.70000 47.37300 22.26300
H  9.95600 46.21200 20.85300
H  7.42500 47.72500 20.81200
H  10.77500 48.71400 20.34600
H  9.07700 48.91900 19.81800
H  10.17300 47.65800 19.15400
H  7.43000 45.38900 20.28900
H  6.19200 45.97100 21.47900
H  6.90100 44.14300 22.80100
H  8.64200 44.80700 22.75100
H  8.03000 43.77900 21.46000
H  3.83400 47.92700 24.17100
H  3.23000 49.00000 25.45200
H  3.55100 47.26900 25.83300
H  6.51400 50.33200 29.54400
H  4.32200 48.71100 33.10400
H  5.72100 47.75800 33.15100
H  4.48700 47.28700 31.94600

