158

Mg 49.47000 44.72600 42.93500
C  46.07800 45.44500 41.81100
C  49.03900 41.65700 41.94100
C  52.78000 44.58600 43.10600
C  49.66200 48.27600 43.60100
N  47.78800 43.78000 41.86600
C  46.52500 44.14600 41.53500
C  45.64500 43.05100 40.93800
C  46.59000 41.79000 41.13100
C  47.89100 42.41200 41.70600
C  45.95600 40.73400 42.05300
C  45.32400 43.37600 39.41400
C  44.44100 42.35800 38.63700
H  44.93600 41.71500 37.28400
N  50.71100 43.27300 42.65900
C  50.38100 42.00900 42.30300
C  51.50900 41.21600 42.30300
C  52.65100 42.02500 42.62900
C  52.11600 43.37100 42.80100
C  51.45700 39.79800 41.94500
C  54.03500 41.57600 42.70900
O  54.41400 40.38800 42.52300
C  55.24900 42.54500 43.18100
N  51.05300 46.22300 43.51400
C  52.33100 45.89400 43.43000
C  53.26500 47.09500 43.58200
C  52.24700 48.26200 43.96600
C  50.86900 47.56000 43.66100
C  54.73500 47.04100 44.30300
C  52.31900 49.54800 43.06200
C  51.90800 50.87900 43.63500
N  48.16800 46.49800 42.87200
C  48.38600 47.82300 43.26800
C  47.17800 48.60200 43.11400
C  46.33000 47.70600 42.50000
C  46.90300 46.44300 42.41500
C  47.02900 50.08800 43.48000
C  45.00000 47.59800 41.87500
O  44.19600 48.50300 41.72200
C  44.77700 46.09300 41.54700
C  43.69200 45.58500 42.31300
O  42.69300 45.07500 41.82000
O  43.86200 45.58800 43.65800
C  42.60400 45.20400 44.28800
H  48.91800 40.60200 41.69000
H  53.86100 44.45000 43.02900
H  49.69900 49.32300 43.91000
H  44.70100 42.94200 41.47100
H  46.94600 41.37500 40.18800
H  44.93500 40.98300 42.34000
H  46.56400 40.57900 42.94500
H  46.06900 39.84900 41.42700
H  46.26700 43.45600 38.87300
H  44.81600 44.34000 39.43100
H  43.44800 42.80200 38.56100
H  44.38700 41.48200 39.28400
H  51.09000 39.27500 42.82800
H  52.42800 39.40200 41.64700
H  50.76600 39.46100 41.17300
H  56.05900 41.83400 43.34100
H  55.11000 42.91800 44.19500
H  55.51400 43.26600 42.40700
H  53.65000 47.27200 42.57800
H  52.20300 48.56800 45.01100
H  55.00000 46.08800 44.76100
H  54.84500 47.88600 44.98300
H  55.57900 47.23200 43.64000
H  51.71900 49.43000 42.16000
H  53.33900 49.64900 42.69200
H  52.76500 51.53200 43.46800
H  51.62200 50.88300 44.68700
H  50.97400 51.09500 43.11600
H  47.23500 50.62800 42.55600
H  47.75000 50.30400 44.26900
H  45.99700 50.26200 43.78600
H  44.55900 46.15400 40.48100
H  41.86900 45.80400 43.75100
H  42.54000 45.36300 45.36400
H  42.53300 44.12200 44.18100
Mg 1.19400 43.09100 25.11900
C  3.03800 43.13900 28.12900
C  -1.66300 42.19500 27.20000
C  -0.47400 42.41600 22.38300
C  4.24900 43.41800 23.33500
N  0.79500 42.74100 27.36800
C  1.68400 42.98200 28.34900
C  1.01900 42.94800 29.76200
C  -0.47400 42.46900 29.47500
C  -0.47900 42.48100 27.96300
C  -0.77600 41.05200 30.14700
C  1.18200 44.34200 30.58700
C  1.37500 44.21700 32.16100
H  1.05700 42.99100 32.91100
N  -0.79900 42.50700 24.78900
C  -1.75200 42.06000 25.75300
C  -2.93900 41.59900 25.05500
C  -2.53900 41.60400 23.63500
C  -1.26900 42.24900 23.53500
C  -4.22300 41.23600 25.69200
C  -3.44000 41.15400 22.39800
O  -3.10800 41.37900 21.24100
C  -4.69700 40.39600 22.65100
N  1.81300 42.97800 23.14200
C  0.87500 42.75600 22.14200
C  1.59000 42.77500 20.80100
C  3.07000 43.20700 21.11000
C  3.07100 43.26300 22.64000
C  1.44700 41.35300 20.10800
C  3.51400 44.58400 20.52500
C  3.77500 44.66500 19.07500
N  3.19800 43.41800 25.59400
C  4.30700 43.50700 24.77200
C  5.53200 43.64800 25.57700
C  5.07400 43.43700 26.91600
C  3.68300 43.31500 26.89500
C  6.95500 43.81200 25.06600
C  5.44000 43.27400 28.30400
O  6.54400 43.13700 28.84600
C  4.13600 43.13800 29.09600
C  4.33000 41.97500 29.97600
O  4.11800 40.82800 29.70700
O  4.85800 42.38100 31.11600
C  5.46000 41.35800 32.00500
H  -2.52900 41.96100 27.82200
H  -0.87300 42.02700 21.44400
H  5.13500 43.51600 22.70400
H  1.63600 42.23500 30.30800
H  -1.18100 43.22900 29.80800
H  -0.99200 40.38900 29.31000
H  -1.59900 41.18700 30.85000
H  0.03200 40.72400 30.80100
H  0.18600 44.78100 30.52700
H  1.90800 44.99500 30.10400
H  0.64700 44.96200 32.48500
H  2.37000 44.58300 32.41200
H  -4.27100 41.66000 26.69500
H  -4.45300 40.17100 25.72400
H  -5.04600 41.69800 25.14700
H  -4.85800 39.65900 21.86400
H  -5.54500 41.03400 22.89900
H  -4.52300 39.70800 23.47900
H  1.12800 43.52000 20.15300
H  3.72600 42.37700 20.84800
H  2.38500 41.00600 19.67500
H  0.76400 41.54700 19.28000
H  1.08600 40.70300 20.90500
H  4.29600 44.98600 21.16900
H  2.67400 45.26700 20.65100
H  3.03700 45.25800 18.53500
H  3.80000 43.68100 18.60700
H  4.69800 45.20900 18.87500
H  7.59900 44.37800 25.73800
H  6.92000 44.42200 24.16300
H  7.44200 42.88400 24.76600
H  4.09500 44.06600 29.66500
H  6.39200 41.76900 32.39300
H  5.93700 40.57900 31.40900
H  4.89600 41.14700 32.91400

