158

Mg -2.19800 17.40200 27.10000
C  -2.75700 15.24400 29.78600
C  -3.18500 20.04400 28.94500
C  -2.02500 19.38700 24.31100
C  -2.24600 14.54700 25.03600
N  -2.78900 17.52600 29.07200
C  -2.89700 16.58800 30.12600
C  -3.11100 17.23200 31.55200
C  -3.41700 18.71800 31.10500
C  -3.10700 18.79000 29.65100
C  -4.89500 19.14800 31.51500
C  -1.83700 17.14200 32.46000
C  -2.00100 17.78500 33.84700
H  -1.38100 17.07400 35.05700
N  -2.32700 19.45400 26.75100
C  -2.79500 20.37600 27.63400
C  -2.69700 21.70100 27.10300
C  -2.25700 21.54900 25.71100
C  -2.21400 20.09500 25.55100
C  -3.04600 22.95900 27.87100
C  -1.90600 22.62400 24.69700
O  -1.65800 22.37900 23.50500
C  -1.81300 23.98600 25.14500
N  -2.08100 17.02000 24.89800
C  -1.96200 17.97900 24.00800
C  -1.87100 17.39000 22.59800
C  -1.71200 15.83700 22.94400
C  -2.08700 15.75600 24.37000
C  -3.08200 17.67800 21.77300
C  -0.25500 15.32000 22.52900
C  0.93600 15.85300 23.35500
N  -2.28600 15.36400 27.32700
C  -2.27600 14.37000 26.39500
C  -2.50500 13.14000 27.04000
C  -2.70100 13.41100 28.41300
C  -2.55200 14.74300 28.49300
C  -2.70300 11.72400 26.35800
C  -2.93900 12.84300 29.71000
O  -3.11900 11.69000 30.01500
C  -3.02400 14.06200 30.71100
C  -2.05100 13.72000 31.75300
O  -0.82600 13.59900 31.60400
O  -2.81200 13.52200 32.91900
C  -2.08400 12.81700 33.92900
H  -3.42000 20.80100 29.69600
H  -1.86900 20.02700 23.44000
H  -2.36500 13.71000 24.34400
H  -3.98700 16.74900 31.98600
H  -2.75800 19.42900 31.60400
H  -5.34700 18.23000 31.89100
H  -5.44700 19.56300 30.67200
H  -4.85600 19.92500 32.27800
H  -1.08900 17.65900 31.86000
H  -1.57000 16.09400 32.59700
H  -3.07100 17.69800 34.03500
H  -1.69500 18.83100 33.84300
H  -3.52600 22.82500 28.84100
H  -3.73000 23.48300 27.20400
H  -2.16900 23.57000 28.08400
H  -0.95200 24.00000 25.81300
H  -2.71500 24.33500 25.64800
H  -1.62500 24.58900 24.25700
H  -0.94400 17.72800 22.13400
H  -2.43300 15.17700 22.46200
H  -3.98800 17.86700 22.34900
H  -3.38300 17.00700 20.96800
H  -2.70400 18.55700 21.25100
H  -0.18200 15.63900 21.48900
H  -0.21200 14.23200 22.59200
H  0.57600 16.31200 24.27600
H  1.47700 16.61900 22.79900
H  1.61800 15.01900 23.52200
H  -2.45500 10.89500 27.02200
H  -1.88200 11.81400 25.64600
H  -3.72800 11.58500 26.01600
H  -4.07000 14.01100 31.01200
H  -1.55600 11.96000 33.51100
H  -2.82200 12.46000 34.64800
H  -1.36900 13.49500 34.39500
Mg 42.77400 41.10600 26.31700
C  42.00900 43.60800 28.71500
C  43.66400 39.00700 28.86000
C  43.43700 38.98200 23.95100
C  42.24100 43.61600 23.86400
N  42.81100 41.33900 28.52100
C  42.27600 42.40100 29.29000
C  42.29300 42.03700 30.81600
C  43.06800 40.63200 30.79700
C  43.16300 40.21500 29.32100
C  44.43400 40.62000 31.60700
C  40.84500 42.03400 31.38000
C  40.54700 43.03800 32.53900
H  39.94300 42.39600 33.81100
N  43.45700 39.26300 26.42700
C  43.81400 38.55300 27.53100
C  44.25900 37.23000 27.13000
C  44.13800 37.16200 25.65900
C  43.62600 38.49000 25.30100
C  44.65200 36.23200 28.19200
C  44.38000 36.01700 24.72200
O  44.03300 35.98400 23.53200
C  44.94400 34.79600 25.35300
N  43.10800 41.33800 24.18300
C  43.20900 40.21900 23.43900
C  43.40700 40.53800 21.97900
C  43.01200 42.02100 21.91800
C  42.75400 42.38200 23.40500
C  44.94300 40.38100 21.55100
C  41.81600 42.37600 20.99600
C  42.01500 43.59300 20.08700
N  42.24000 43.17900 26.29000
C  42.06800 44.03000 25.21200
C  41.55600 45.38900 25.64700
C  41.48600 45.28200 27.09700
C  42.02000 43.98000 27.37600
C  41.22500 46.52800 24.73900
C  41.18600 45.94700 28.32800
O  40.75900 47.04500 28.60200
C  41.60800 44.87500 29.44700
C  42.70700 45.41500 30.33700
O  43.88000 45.12500 30.19900
O  42.11500 46.05700 31.43900
C  43.19900 46.62900 32.25400
H  43.89200 38.31900 29.67600
H  43.46000 38.17300 23.21800
H  42.20500 44.44500 23.15500
H  42.89500 42.79000 31.32400
H  42.47000 39.91500 31.35900
H  44.40500 39.90800 32.43200
H  44.51000 41.59700 32.08400
H  45.22600 40.43400 30.88200
H  40.67400 41.11400 31.93900
H  40.10100 42.23200 30.60900
H  39.75700 43.74600 32.28700
H  41.41000 43.64900 32.80200
H  45.73000 36.07200 28.16400
H  44.09800 35.32100 27.96700
H  44.60200 36.44800 29.25900
H  45.39600 34.09000 24.65600
H  44.17500 34.34300 25.97800
H  45.78900 35.22400 25.89300
H  42.78900 39.92300 21.32400
H  43.86200 42.56000 21.49800
H  45.52800 40.35400 22.47000
H  45.47500 41.10200 20.93100
H  45.10200 39.47600 20.96400
H  40.90100 42.50400 21.57600
H  41.66100 41.53800 20.31700
H  41.46700 43.30300 19.19100
H  43.01100 43.95600 19.83400
H  41.35800 44.30400 20.58900
H  41.00000 46.09500 23.76400
H  42.06400 47.22100 24.80200
H  40.42700 47.06200 25.25400
H  40.77900 44.78000 30.14900
H  43.94600 47.20300 31.70500
H  43.54800 45.89800 32.98200
H  42.63600 47.29100 32.91200

