158

Mg 50.91500 45.47500 41.45200
C  47.77000 46.40900 40.15200
C  50.22700 42.16700 40.47400
C  54.28600 44.63900 41.72500
C  51.80300 48.78300 41.62700
N  49.18600 44.43600 40.35600
C  47.97100 44.93500 40.02900
C  47.00100 43.89700 39.34500
C  47.77400 42.58000 39.60300
C  49.19000 43.09000 40.20300
C  47.09900 41.66400 40.63200
C  46.71600 44.23300 37.81800
C  45.25700 43.99200 37.45400
H  44.66900 44.41300 36.14700
N  52.07100 43.58400 41.30400
C  51.56500 42.38300 40.83000
C  52.62500 41.46200 40.95500
C  53.81400 42.11100 41.37800
C  53.45700 43.50500 41.49200
C  52.34000 39.94400 40.74700
C  55.19400 41.49600 41.64800
O  55.41100 40.31500 41.45000
C  56.43500 42.11700 42.33000
N  52.80200 46.50800 41.71600
C  54.03700 45.94400 41.86600
C  55.09200 47.03200 42.17400
C  54.30100 48.35600 41.98400
C  52.87600 47.85500 41.64500
C  55.76200 46.97000 43.59900
C  54.70300 49.37400 40.84600
C  54.82500 50.80200 41.21500
N  49.98800 47.22000 41.24500
C  50.45200 48.50900 41.36300
C  49.32200 49.45600 41.05500
C  48.27000 48.67500 40.65100
C  48.70000 47.34700 40.80100
C  49.44700 50.99300 40.96200
C  47.01800 48.69300 40.03600
O  46.29100 49.61200 39.63800
C  46.53000 47.25100 39.84200
C  45.41600 46.98200 40.82700
O  45.56800 46.59700 41.97700
O  44.26400 47.21900 40.14200
C  43.07500 47.16300 41.02600
H  50.00400 41.13300 40.19900
H  55.30100 44.29800 41.93800
H  52.10100 49.81600 41.44000
H  46.14300 43.94900 40.01500
H  48.03500 42.08200 38.66900
H  46.01000 41.64700 40.67400
H  47.45200 42.01200 41.60300
H  47.41900 40.62400 40.70100
H  47.20200 43.46300 37.21900
H  47.17500 45.19000 37.57000
H  44.65100 44.53000 38.18400
H  45.17100 42.91400 37.58600
H  52.01800 39.86400 39.70900
H  51.70900 39.56400 41.55100
H  53.19200 39.26400 40.73400
H  56.24500 42.67100 43.24900
H  56.86300 42.77000 41.57000
H  57.21300 41.38600 42.55200
H  55.94000 46.87600 41.50800
H  54.09300 48.99600 42.84200
H  55.39700 47.77600 44.23700
H  56.82500 47.10400 43.39900
H  55.59500 45.97500 44.01100
H  54.05000 49.39900 39.97400
H  55.68500 49.08000 40.47500
H  54.34400 51.02000 42.16800
H  54.24400 51.34500 40.46900
H  55.84700 51.17900 41.17500
H  48.67400 51.41600 41.60300
H  49.29400 51.38100 39.95400
H  50.34400 51.36900 41.45300
H  46.35700 47.07600 38.78100
H  42.90300 46.17800 41.45800
H  42.23400 47.37500 40.36500
H  43.16700 47.86500 41.85400
Mg 35.62500 49.11300 26.11400
C  35.91400 47.15900 29.00300
C  34.59500 51.70000 28.03700
C  34.93900 50.63800 23.35000
C  36.35400 46.17000 24.30500
N  34.95000 49.26800 28.19600
C  35.30500 48.42400 29.24100
C  35.29400 49.16400 30.55900
C  34.42600 50.41300 30.18900
C  34.69700 50.45500 28.72200
C  32.93600 50.32500 30.57700
C  36.71500 49.42300 31.20600
C  36.70300 49.48900 32.76200
H  35.40500 49.58100 33.55500
N  34.94800 50.99900 25.72800
C  34.62500 51.95000 26.66900
C  34.39200 53.22100 25.99500
C  34.47700 52.90300 24.54900
C  34.80200 51.48400 24.45500
C  34.35000 54.53800 26.80100
C  34.32600 53.85000 23.33000
O  34.39600 53.40000 22.19600
C  34.14500 55.30100 23.58300
N  35.76300 48.43400 24.05700
C  35.35600 49.31200 23.14300
C  35.39400 48.68100 21.76600
C  36.02300 47.29400 21.97700
C  36.11200 47.28500 23.52600
C  33.93900 48.57800 21.15900
C  37.40000 47.02300 21.19100
C  38.66500 47.46500 21.88300
N  36.12300 47.07100 26.51700
C  36.41700 46.05800 25.67500
C  36.94500 44.88800 26.40400
C  36.80400 45.29400 27.80500
C  36.26100 46.62300 27.78500
C  37.30600 43.55700 25.79300
C  36.99400 44.83700 29.20100
O  37.42500 43.83900 29.67600
C  36.50500 46.10500 29.97500
C  35.55700 45.63600 31.00500
O  34.40800 45.41200 30.73700
O  36.03400 45.58200 32.29900
C  35.04900 45.32400 33.37200
H  34.51800 52.58900 28.66700
H  34.87100 51.23300 22.43700
H  36.48800 45.23400 23.75800
H  34.74000 48.59600 31.30700
H  34.83100 51.34700 30.57800
H  32.59900 49.29600 30.45500
H  32.29700 51.00700 30.01700
H  32.91300 50.57900 31.63700
H  37.10500 50.29800 30.68600
H  37.34500 48.68000 30.71700
H  37.35600 50.25900 33.17400
H  37.10300 48.49500 32.96200
H  33.32700 54.68400 27.14800
H  34.69200 55.40300 26.23300
H  34.88800 54.41700 27.74100
H  33.99300 55.71900 22.58800
H  35.05600 55.66000 24.06000
H  33.23600 55.40000 24.17600
H  35.87300 49.34800 21.05000
H  35.39500 46.45400 21.68100
H  33.34300 49.33400 21.67000
H  33.41400 47.69800 21.53100
H  33.87400 48.79000 20.09200
H  37.47600 47.37800 20.16300
H  37.43000 45.93500 21.13800
H  39.52100 47.67600 21.24200
H  38.92800 46.64700 22.55400
H  38.50600 48.30600 22.55700
H  37.24500 43.43000 24.71200
H  36.69000 42.86500 26.36800
H  38.33800 43.44200 26.12200
H  37.38200 46.47500 30.50500
H  35.67800 45.13100 34.24200
H  34.29000 44.54800 33.27500
H  34.50700 46.26600 33.44300

