158

Mg 8.36200 3.06400 27.29200
C  9.67100 1.52400 30.19100
C  6.61400 5.10600 29.18200
C  7.43100 4.52900 24.45500
C  10.17000 0.62300 25.44200
N  8.11000 3.23900 29.43400
C  8.79700 2.55600 30.45100
C  8.41300 3.13700 31.81100
C  7.27600 4.19500 31.41300
C  7.31200 4.19300 29.93700
C  5.92700 3.97600 32.03800
C  9.63900 3.87000 32.49100
C  10.27300 3.26600 33.82900
H  10.39100 4.33600 34.89500
N  7.09200 4.61200 26.84700
C  6.50500 5.38600 27.73200
C  5.73900 6.41800 27.07600
C  5.92400 6.23500 25.68300
C  6.79900 5.06700 25.59600
C  4.94500 7.54800 27.74600
C  5.44100 7.08300 24.55300
O  5.78600 6.84100 23.40900
C  4.58600 8.34300 24.72900
N  8.73300 2.61400 25.23900
C  8.26700 3.40400 24.22800
C  8.78600 2.92100 22.86000
C  9.39100 1.51500 23.15700
C  9.38500 1.53600 24.71100
C  7.79400 3.04100 21.66600
C  10.78500 1.18200 22.35700
C  10.87800 -0.03200 21.40300
N  9.58400 1.32300 27.65700
C  10.16500 0.47100 26.82100
C  10.96600 -0.46000 27.55500
C  10.86500 -0.13700 28.90600
C  9.89300 0.96100 28.91800
C  11.94000 -1.51000 26.95400
C  11.27900 -0.35800 30.26900
O  12.12600 -1.14300 30.66000
C  10.53000 0.70500 31.15400
C  9.69500 -0.02200 32.11100
O  8.52700 -0.30800 31.95500
O  10.42800 -0.21300 33.26400
C  9.52100 -0.69800 34.31800
H  6.20000 5.92200 29.77700
H  7.43500 5.18200 23.58000
H  10.71600 -0.10800 24.84200
H  8.01400 2.31800 32.41000
H  7.61400 5.20100 31.65900
H  5.69400 2.91300 32.09100
H  5.16300 4.46400 31.43200
H  6.00900 4.32100 33.06900
H  9.52500 4.95000 32.57800
H  10.46100 3.69900 31.79600
H  11.27500 2.91500 33.57900
H  9.67400 2.47400 34.27800
H  5.03200 7.47400 28.83000
H  3.92100 7.29500 27.47200
H  5.13300 8.57500 27.43100
H  4.15000 8.53600 23.74800
H  5.25400 9.14900 25.03200
H  3.76800 8.26500 25.44500
H  9.64700 3.55800 22.65800
H  8.61800 0.80600 22.86100
H  6.82400 3.31000 22.08400
H  7.70800 2.10100 21.12100
H  8.23700 3.79800 21.01800
H  11.64700 1.19600 23.02400
H  11.00600 1.97700 21.64500
H  10.76700 0.19900 20.34400
H  10.08000 -0.74700 21.60400
H  11.79300 -0.62100 21.46700
H  12.81000 -0.97500 26.57300
H  11.38800 -2.04900 26.18400
H  12.08400 -2.23600 27.75500
H  11.13600 1.33100 31.80900
H  8.98300 0.13100 34.77800
H  10.20400 -1.19100 35.00900
H  8.80300 -1.50200 34.15600
Mg 24.36300 -5.58400 46.31500
C  26.73100 -3.30000 44.67900
C  22.11600 -4.78200 43.94700
C  22.61100 -7.96800 47.59800
C  27.28100 -6.62900 48.26600
N  24.41700 -4.14200 44.51100
C  25.45300 -3.38500 44.02900
C  25.02700 -2.61800 42.76100
C  23.48800 -2.93400 42.77800
C  23.32000 -4.02500 43.78000
C  22.63500 -1.63500 43.03700
C  25.78500 -3.10400 41.49900
C  26.32300 -1.84100 40.69600
H  26.30600 -1.71900 39.11600
N  22.58600 -6.26500 45.86300
C  21.75400 -5.75000 44.88600
C  20.42000 -6.41300 45.06000
C  20.59200 -7.46100 46.06500
C  21.93400 -7.19800 46.63500
C  19.25500 -5.82500 44.28500
C  19.51400 -8.59900 46.23500
O  18.45700 -8.63200 45.62000
C  19.78800 -9.76800 47.20000
N  24.91800 -7.17000 47.71200
C  23.91700 -7.97400 48.18100
C  24.54400 -9.13900 48.89400
C  25.95600 -8.65600 49.21800
C  26.08500 -7.38800 48.39700
C  23.76700 -9.56800 50.24000
C  27.20900 -9.63500 48.94000
C  28.43600 -9.54300 49.78500
N  26.47200 -4.98000 46.62000
C  27.45500 -5.48200 47.45800
C  28.67400 -4.73200 47.24800
C  28.36600 -3.82000 46.21700
C  27.08000 -4.09400 45.77600
C  29.92600 -4.87800 48.03400
C  29.00700 -2.81700 45.34200
O  30.09900 -2.39900 45.38600
C  27.95000 -2.59000 44.16600
C  27.79300 -1.14200 44.25600
O  28.18500 -0.31600 43.41300
O  27.26600 -0.83100 45.44400
C  27.07200 0.65200 45.65100
H  21.44700 -4.67000 43.09100
H  22.13500 -8.87000 47.98800
H  28.24400 -6.96800 48.65400
H  25.21300 -1.55800 42.93600
H  23.32600 -3.33300 41.77600
H  21.58100 -1.88700 42.92300
H  22.70500 -0.90200 42.23300
H  22.77300 -1.22900 44.03900
H  25.10800 -3.63200 40.82800
H  26.48500 -3.90300 41.74300
H  27.32800 -1.69500 41.09200
H  25.93500 -0.86900 41.00000
H  19.01200 -4.88300 44.77600
H  18.40100 -6.47600 44.47300
H  19.60900 -5.65300 43.26900
H  20.68300 -10.36000 47.01100
H  19.02100 -10.54000 47.14800
H  19.87100 -9.39200 48.22000
H  24.54800 -10.04600 48.28800
H  26.00300 -8.28200 50.24100
H  23.44800 -10.61000 50.19700
H  22.94400 -8.97400 50.63700
H  24.42700 -9.68900 51.09800
H  27.68200 -9.49000 47.96900
H  26.82300 -10.64600 49.06800
H  29.35200 -9.47800 49.19700
H  28.54900 -10.46700 50.35100
H  28.39300 -8.68300 50.45400
H  29.95500 -5.36800 49.00800
H  30.16100 -3.82300 48.17600
H  30.67000 -5.36600 47.40400
H  28.27000 -2.94300 43.18500
H  25.99700 0.83100 45.63400
H  27.61500 1.19900 44.88100
H  27.53200 0.93200 46.59900

