158

Mg 43.58500 4.33000 46.69600
C  41.73900 7.41000 46.65000
C  40.58800 2.65600 46.60300
C  45.22500 1.62800 45.83200
C  46.61200 6.23700 46.36300
N  41.49500 5.01500 46.62200
C  40.95200 6.27100 46.64300
C  39.39500 6.27500 46.68200
C  39.11300 4.72600 46.78200
C  40.48100 4.05000 46.71900
C  38.20100 4.15600 47.93900
C  38.69400 6.94100 45.44000
C  39.20700 6.55100 44.08500
H  40.00500 7.56100 43.24200
N  42.99800 2.32700 46.57400
C  41.71300 1.81700 46.47100
C  41.73400 0.41100 46.22000
C  43.06900 0.00500 46.13300
C  43.84900 1.31000 46.13100
C  40.49900 -0.45400 46.18900
C  43.57500 -1.38600 45.96700
O  42.76700 -2.36000 45.88200
C  45.05800 -1.61100 46.16400
N  45.60100 4.03200 46.23700
C  46.05000 2.75200 46.03600
C  47.49900 2.66100 45.78700
C  48.03600 3.97900 46.29400
C  46.73100 4.81600 46.32300
C  48.24500 1.40800 46.32500
C  49.16800 4.65100 45.41300
C  50.18800 5.40300 46.23400
N  44.16300 6.39600 46.48800
C  45.41300 7.00000 46.43800
C  45.20400 8.46700 46.39500
C  43.80100 8.64600 46.58400
C  43.19300 7.35100 46.57700
C  46.27500 9.51700 46.35800
C  42.79000 9.62700 46.86000
O  42.90300 10.85200 47.06200
C  41.42600 8.87800 46.85300
C  40.65800 9.07100 48.14900
O  41.01500 8.77400 49.25300
O  39.47500 9.71700 47.96100
C  38.53300 9.74600 49.07200
H  39.61100 2.17500 46.52900
H  45.82200 0.80400 45.43600
H  47.50300 6.84200 46.54400
H  39.16600 6.81900 47.59800
H  38.63900 4.35200 45.87400
H  38.68900 3.49800 48.65900
H  37.43000 3.54800 47.46600
H  37.71700 4.92600 48.53900
H  38.77500 8.02400 45.53100
H  37.63900 6.66800 45.47000
H  38.32000 6.36800 43.47900
H  39.77200 5.62600 44.20200
H  40.82400 -1.47600 46.38300
H  40.17300 -0.49400 45.14900
H  39.74000 -0.25800 46.94600
H  45.46800 -0.85000 46.82900
H  45.59000 -1.66800 45.21400
H  45.10900 -2.54800 46.71800
H  47.68900 2.68000 44.71300
H  48.29100 3.77800 47.33500
H  47.75800 0.97600 47.20000
H  49.21700 1.73300 46.69500
H  48.45300 0.64400 45.57500
H  48.70200 5.38200 44.75200
H  49.75000 3.94200 44.82400
H  51.15100 4.89200 46.25000
H  49.85900 5.46700 47.27200
H  50.40600 6.41800 45.90300
H  45.87900 10.43300 45.92000
H  47.11700 9.21400 45.73600
H  46.61100 9.72700 47.37300
H  40.74800 9.31700 46.12100
H  38.64600 10.66300 49.65000
H  38.48600 8.89700 49.75500
H  37.53700 9.80500 48.63200
Mg 30.35500 57.61900 39.93100
C  27.58000 55.63300 38.82600
C  32.39100 54.99000 39.07300
C  33.00200 59.61000 40.17200
C  28.18000 60.41600 40.12000
N  29.99900 55.53800 39.03200
C  28.80800 54.92400 38.73800
C  29.12100 53.60100 37.99700
C  30.55700 53.23400 38.63600
C  31.00300 54.67000 39.00100
C  30.50500 52.31600 39.93200
C  29.03300 53.65800 36.46700
C  27.98000 52.75700 35.84600
H  27.09800 53.28900 34.68000
N  32.34500 57.36000 39.74100
C  32.98800 56.19100 39.45800
C  34.45100 56.48000 39.53000
C  34.68100 57.83900 39.85800
C  33.30100 58.31800 39.92800
C  35.41800 55.30100 39.34900
C  36.09200 58.45300 39.99000
O  37.09600 57.80300 39.81400
C  36.23800 59.90400 40.22100
N  30.48500 59.71000 40.16100
C  31.76100 60.27500 40.31400
C  31.62600 61.84600 40.52000
C  30.07700 62.05600 40.74400
C  29.53900 60.64200 40.30200
C  32.44300 62.46200 41.71800
C  29.56100 63.37900 40.10600
C  28.36600 64.18300 40.70300
N  28.24600 58.01400 39.59800
C  27.56800 59.18400 39.74600
C  26.17400 58.88300 39.53400
C  26.10500 57.48800 39.13000
C  27.42000 56.99900 39.18100
C  24.96000 59.85000 39.63300
C  25.22600 56.40900 38.73200
O  24.00300 56.38000 38.56000
C  26.19500 55.12400 38.43200
C  25.79600 53.97700 39.29700
O  25.69100 53.97800 40.54200
O  25.42200 52.92600 38.56800
C  24.85200 51.71100 39.30700
H  33.07600 54.17500 38.82700
H  33.84600 60.30000 40.24000
H  27.46700 61.21000 40.35000
H  28.41200 52.80600 38.22700
H  31.05300 52.69000 37.83200
H  29.47100 51.97900 40.00100
H  30.70000 52.81500 40.88100
H  30.99400 51.34300 39.87800
H  29.94800 53.36800 35.94900
H  28.66800 54.62400 36.12100
H  27.23300 52.42300 36.56600
H  28.48400 51.86100 35.48400
H  36.40700 55.57900 38.98400
H  35.10400 54.41600 38.79500
H  35.54300 54.79400 40.30500
H  35.90900 60.28600 41.18700
H  35.97500 60.49300 39.34200
H  37.32000 60.03300 40.20900
H  31.90700 62.35100 39.59600
H  29.83000 62.02800 41.80500
H  33.14100 63.20700 41.33500
H  32.86700 61.66300 42.32600
H  31.72700 63.05600 42.28500
H  29.22100 63.11900 39.10400
H  30.34500 64.11200 39.91400
H  28.01400 63.63800 41.57900
H  27.52200 64.07700 40.02200
H  28.57100 65.24100 40.86600
H  25.10900 60.75600 39.04500
H  24.66800 60.01300 40.67000
H  24.10900 59.34300 39.17900
H  26.07400 54.90100 37.37200
H  23.83600 51.90200 39.65200
H  25.45300 51.39100 40.15800
H  24.76900 50.83200 38.66800

