158

Mg -8.90200 40.78400 41.15400
C  -8.14700 37.48900 40.47000
C  -5.96600 41.71500 39.58500
C  -10.04400 43.82900 41.07800
C  -12.18900 39.57300 42.22000
N  -7.28800 39.76900 40.05600
C  -7.22500 38.41000 39.94300
C  -5.97700 37.98400 39.12000
C  -5.11800 39.27500 39.19100
C  -6.19400 40.34700 39.56700
C  -3.98500 39.25800 40.33100
C  -6.34700 37.56200 37.73200
C  -5.87300 36.20100 37.29000
H  -4.91100 36.29600 36.04400
N  -8.12200 42.54100 40.50100
C  -6.86000 42.73600 40.02200
C  -6.64800 44.20400 39.97400
C  -7.76000 44.81800 40.45100
C  -8.73200 43.69300 40.65000
C  -5.35000 44.71300 39.48500
C  -8.02600 46.35800 40.65800
O  -7.14900 47.15800 40.41700
C  -9.28000 46.90600 41.18000
N  -10.94100 41.56400 41.54300
C  -11.02400 42.93900 41.47200
C  -12.46500 43.28600 41.65700
C  -13.22700 41.97000 42.18300
C  -12.09500 40.96200 41.96500
C  -12.86300 44.53800 42.46000
C  -14.56000 41.78500 41.44100
C  -15.79400 41.38800 42.29900
N  -9.88500 38.90600 41.47700
C  -11.18200 38.59400 41.89800
C  -11.26100 37.19300 42.08000
C  -10.07700 36.66900 41.50700
C  -9.31800 37.78100 41.17500
C  -12.48700 36.44600 42.63500
C  -9.32400 35.51100 41.19100
O  -9.52100 34.35200 41.49300
C  -8.05600 35.98600 40.45200
C  -6.88700 35.39800 41.13900
O  -6.38800 35.80100 42.17900
O  -6.65300 34.16000 40.54200
C  -5.60700 33.30300 41.12000
H  -4.92800 42.00500 39.41200
H  -10.53100 44.79200 40.91000
H  -13.20600 39.20500 42.36800
H  -5.48400 37.15200 39.62300
H  -4.61400 39.56600 38.26900
H  -3.99800 38.27200 40.79400
H  -4.22700 40.00200 41.09100
H  -3.01000 39.41700 39.87100
H  -6.00600 38.34800 37.05900
H  -7.40400 37.70000 37.50500
H  -6.72000 35.52200 37.19800
H  -5.23600 35.68500 38.00800
H  -4.56700 44.37800 40.16500
H  -5.35100 45.80000 39.40900
H  -5.15000 44.46800 38.44100
H  -9.64400 46.46400 42.10700
H  -10.08800 46.87500 40.44900
H  -9.08300 47.97000 41.31300
H  -12.83000 43.59800 40.67900
H  -13.39800 42.18200 43.23800
H  -11.98100 45.02100 42.88100
H  -13.50900 44.41600 43.33000
H  -13.23800 45.35600 41.84400
H  -14.47000 41.02800 40.66200
H  -14.77200 42.71900 40.92000
H  -16.03100 40.38000 41.96000
H  -16.61700 42.04200 42.01000
H  -15.49900 41.37100 43.34900
H  -13.31800 36.48200 41.93100
H  -12.75300 36.91500 43.58200
H  -12.36900 35.41400 42.96700
H  -8.02200 35.72500 39.39500
H  -5.09600 33.82300 41.93100
H  -4.88600 33.12200 40.32300
H  -6.04200 32.37100 41.47900
Mg -2.81200 34.77700 25.73000
C  -3.95000 33.09100 28.78800
C  -1.48500 37.16500 27.90600
C  -2.17500 36.47300 23.03800
C  -4.66700 32.45900 24.00800
N  -2.56600 35.01500 28.14700
C  -3.18900 34.22400 29.14500
C  -2.73300 34.66300 30.50300
C  -2.16100 36.10700 30.19900
C  -1.97900 36.05500 28.67300
C  -3.11500 37.31300 30.67700
C  -1.70600 33.70500 31.24500
C  -2.29000 33.02700 32.62300
H  -1.30000 32.92600 33.79900
N  -1.98800 36.58600 25.52100
C  -1.43700 37.35700 26.51400
C  -0.70400 38.45500 25.85600
C  -0.92700 38.28700 24.41900
C  -1.65500 37.07900 24.26500
C  0.08300 39.52000 26.61400
C  -0.35200 39.08700 23.30900
O  -0.73500 38.96500 22.15900
C  0.68800 40.12100 23.58900
N  -3.53100 34.63200 23.82300
C  -3.12400 35.47100 22.77900
C  -3.50600 34.96200 21.46300
C  -4.31600 33.68100 21.76100
C  -4.10600 33.50900 23.28500
C  -4.35600 35.96300 20.51200
C  -3.84200 32.38100 20.98700
C  -2.69000 31.54500 21.67300
N  -4.00500 33.07600 26.22200
C  -4.57600 32.16000 25.36600
C  -5.15000 31.04200 26.06200
C  -4.85900 31.41300 27.42800
C  -4.29300 32.66300 27.46600
C  -5.79200 29.80900 25.48500
C  -5.07500 30.97700 28.79700
O  -5.59200 29.93700 29.17500
C  -4.49700 32.04500 29.80300
C  -5.65800 32.48600 30.57400
O  -6.67500 33.09000 30.20600
O  -5.38700 32.15600 31.83200
C  -6.35200 32.34600 32.85800
H  -1.06800 37.94900 28.54200
H  -1.79600 36.88600 22.10100
H  -4.87500 31.55500 23.43100
H  -3.63700 34.62100 31.11100
H  -1.21000 36.20600 30.72200
H  -4.04700 36.80600 30.92600
H  -3.14400 38.03000 29.85600
H  -2.66200 37.76900 31.55700
H  -0.74600 34.13400 31.53100
H  -1.46900 32.97200 30.47400
H  -2.84300 32.12000 32.37600
H  -3.01000 33.79900 32.89400
H  -0.43700 40.47500 26.53400
H  1.07400 39.46100 26.16400
H  0.13300 39.27800 27.67600
H  1.17300 40.29100 22.62800
H  1.42800 39.76900 24.30800
H  0.25500 41.09100 23.83400
H  -2.63200 34.68800 20.87300
H  -5.36600 33.83800 21.51600
H  -4.61300 36.84100 21.10400
H  -5.25900 35.48800 20.12800
H  -3.85700 36.32200 19.61200
H  -3.47000 32.76200 20.03600
H  -4.66900 31.71400 20.74400
H  -2.54000 31.71100 22.74000
H  -1.76900 31.80700 21.15300
H  -2.90300 30.49900 21.45300
H  -6.87800 29.89200 25.51800
H  -5.66400 28.85600 25.99800
H  -5.63700 29.68000 24.41400
H  -3.60200 31.73700 30.34300
H  -7.25200 32.89500 32.58300
H  -6.06300 32.69900 33.84800
H  -6.65600 31.32300 33.07900

