158

Mg 7.02500 53.92100 40.30900
C  6.63900 50.37100 39.94600
C  10.38800 53.41700 39.86700
C  7.17800 57.10900 39.53900
C  3.51800 54.06300 40.26400
N  8.32700 52.06300 39.76400
C  7.94500 50.77300 39.70200
C  9.17400 49.87900 39.63000
C  10.34400 50.85900 40.05600
C  9.67500 52.18500 39.95200
C  11.05400 50.57900 41.43800
C  9.41900 49.25300 38.17700
C  9.24700 50.34000 36.95100
H  7.98200 50.21500 36.06100
N  8.61900 55.12600 39.91100
C  9.92000 54.75500 39.84000
C  10.72100 55.89100 39.58600
C  9.83900 57.00400 39.36900
C  8.46700 56.49100 39.60500
C  12.16200 55.86600 39.64700
C  10.20200 58.45500 39.00800
O  11.40400 58.80200 39.04100
C  9.17000 59.49700 38.68500
N  5.57400 55.36000 39.81500
C  5.91700 56.66600 39.73900
C  4.68300 57.52400 39.54200
C  3.45700 56.53300 39.70500
C  4.20100 55.23700 39.93700
C  4.54600 58.77200 40.46800
C  2.39700 56.59200 38.45000
C  0.87500 56.59800 38.85500
N  5.43100 52.55600 40.25600
C  4.10800 52.78900 40.43000
C  3.32600 51.52400 40.61800
C  4.29100 50.54200 40.51900
C  5.57100 51.23700 40.18000
C  1.75500 51.37200 40.78300
C  4.60500 49.11700 40.53500
O  3.91400 48.16800 40.88400
C  6.14400 48.93800 40.16900
C  6.11200 48.16500 38.97600
O  5.77400 48.58200 37.87300
O  6.51200 46.83800 39.24000
C  6.16900 45.88300 38.18000
H  11.47300 53.29700 39.87400
H  7.17400 58.19200 39.39800
H  2.42700 54.09600 40.23000
H  9.11200 48.97900 40.24300
H  11.02800 50.83100 39.20800
H  10.75200 51.21800 42.26900
H  12.13500 50.71500 41.45900
H  10.73500 49.58600 41.75400
H  8.69900 48.50500 37.84400
H  10.44600 48.92400 38.02500
H  10.19900 50.28900 36.42300
H  9.29500 51.34600 37.36900
H  12.59100 56.72600 39.13300
H  12.56800 54.93700 39.24700
H  12.57300 55.81300 40.65500
H  9.72100 60.31900 38.22900
H  8.47700 59.81200 39.46600
H  8.56600 59.05700 37.89200
H  4.74200 57.89000 38.51700
H  2.97700 56.72300 40.66500
H  3.65600 58.77700 41.09700
H  4.44700 59.69300 39.89300
H  5.39200 58.92700 41.13700
H  2.65900 55.77500 37.77700
H  2.53400 57.41200 37.74500
H  0.32800 55.93700 38.18300
H  0.53800 57.63400 38.88600
H  0.74600 56.14800 39.83900
H  1.21300 51.67600 39.88700
H  1.27600 52.01300 41.52400
H  1.46200 50.34200 40.98700
H  6.70600 48.41200 40.94100
H  5.10800 45.84200 37.93700
H  6.36000 44.87000 38.53200
H  6.70500 46.13400 37.26400
Mg 16.66700 52.12100 26.39700
C  18.39400 50.64300 28.88300
C  14.26400 52.96700 28.69000
C  14.90500 53.39800 23.89200
C  19.07800 51.09900 24.09400
N  16.30700 51.62400 28.64600
C  17.29900 51.33500 29.43200
C  16.92500 51.34900 30.88600
C  15.37900 51.85400 30.82900
C  15.27800 52.18600 29.36300
C  14.27500 50.73800 31.33600
C  17.77100 52.22700 31.87900
C  17.86900 51.68200 33.27200
H  16.92100 52.33400 34.25400
N  14.96700 53.13000 26.38600
C  14.02600 53.29400 27.38600
C  12.83700 54.00300 26.85900
C  13.04900 54.28300 25.49300
C  14.33500 53.61600 25.19300
C  11.61000 54.28100 27.80700
C  12.21500 54.95600 24.41800
O  12.59700 55.18200 23.32200
C  10.90000 55.50400 24.81300
N  16.81700 51.94600 24.27900
C  15.96700 52.70100 23.53800
C  16.53100 52.78800 22.00500
C  17.97100 52.47900 22.25300
C  17.99300 51.88100 23.64700
C  15.68800 51.94000 21.03600
C  18.80400 53.79400 22.33600
C  19.83300 54.02100 21.22500
N  18.33900 50.97900 26.42100
C  19.25100 50.63000 25.42500
C  20.30200 49.92600 26.00700
C  19.99900 49.88300 27.34900
C  18.81000 50.59900 27.54700
C  21.56600 49.46800 25.31100
C  20.56800 49.46600 28.60300
O  21.62900 48.86100 28.85900
C  19.53400 50.01100 29.68000
C  19.25800 48.88300 30.61800
O  18.51100 47.93700 30.33700
O  19.78900 49.09100 31.80500
C  19.49900 48.26200 33.00000
H  13.54000 53.29800 29.43700
H  14.27600 53.84400 23.11900
H  19.87600 51.05800 23.35000
H  16.84500 50.31200 31.21300
H  15.30100 52.73700 31.46400
H  14.29300 50.32100 32.34300
H  14.51100 49.87800 30.70900
H  13.30700 51.09600 30.98700
H  17.24300 53.18000 31.90700
H  18.73500 52.44000 31.41800
H  18.91600 51.77000 33.56300
H  17.69200 50.60700 33.27000
H  11.34400 55.33500 27.73800
H  11.80200 54.05200 28.85600
H  10.67400 53.76000 27.60500
H  10.06100 54.80900 24.77500
H  10.58100 56.25400 24.08900
H  10.77000 55.93600 25.80600
H  16.45900 53.79900 21.60300
H  18.41600 51.89200 21.44900
H  14.95500 52.50100 20.45700
H  15.14500 51.17500 21.59300
H  16.34600 51.41000 20.34800
H  19.34900 53.80800 23.28000
H  18.19100 54.69500 22.33900
H  19.74200 55.00900 20.77300
H  19.74700 53.24500 20.46500
H  20.80500 54.00500 21.71700
H  21.63300 49.95600 24.33900
H  21.76200 48.40100 25.42300
H  22.42500 49.84000 25.86900
H  20.02100 50.79100 30.26500
H  19.90400 47.27500 32.77600
H  18.42900 48.11400 33.14600
H  20.12600 48.50600 33.85800

