158

Mg 16.23200 52.50200 24.33700
C  18.13700 51.52200 27.19100
C  13.56300 53.20300 26.54900
C  14.25200 52.83600 21.72500
C  18.60500 50.83200 22.35100
N  15.89500 52.45200 26.61300
C  16.81300 52.02400 27.50400
C  16.25400 52.26000 28.93500
C  14.75300 52.69000 28.68800
C  14.72900 52.68600 27.17700
C  13.71100 51.72600 29.31400
C  17.03400 53.22200 29.70800
C  17.40200 52.80400 31.19100
H  16.53900 51.75800 31.93200
N  14.27200 53.20600 24.12300
C  13.39500 53.42700 25.15500
C  12.16900 53.94900 24.55500
C  12.26700 53.73600 23.14900
C  13.64200 53.27400 22.93900
C  10.94600 54.28700 25.37700
C  11.20100 54.05700 22.02500
O  11.41700 53.84700 20.85300
C  9.73300 54.57100 22.45200
N  16.49200 52.01100 22.45300
C  15.54000 52.28300 21.48100
C  15.90200 51.75400 20.14500
C  17.48000 51.46600 20.23900
C  17.49800 51.36000 21.78000
C  15.14100 50.37100 19.77500
C  18.30700 52.64000 19.81900
C  19.60900 52.17900 19.20400
N  18.00400 51.34700 24.68200
C  18.88400 50.76100 23.74800
C  20.00400 50.17300 24.45200
C  19.65500 50.43900 25.82800
C  18.51000 51.16600 25.89200
C  21.24000 49.61300 23.79900
C  20.16700 50.33300 27.15300
O  21.26800 49.86500 27.46900
C  19.11700 50.84600 28.18400
C  18.59300 49.71100 28.91000
O  17.72700 48.90900 28.58300
O  19.05000 49.77000 30.17300
C  18.77600 48.60900 31.01500
H  12.72000 53.50600 27.17300
H  13.64000 52.79800 20.82100
H  19.38800 50.37000 21.74600
H  16.23000 51.29800 29.44700
H  14.44300 53.69500 28.97600
H  14.17800 51.03900 30.01900
H  13.23400 51.17600 28.50300
H  13.10200 52.45900 29.84200
H  16.42600 54.12500 29.65800
H  17.95900 53.42500 29.16800
H  17.41700 53.72900 31.76700
H  18.37400 52.33600 31.34400
H  11.17900 54.76800 26.32800
H  10.45300 53.35500 25.65200
H  10.25500 54.96100 24.87100
H  9.14700 54.32300 21.56700
H  9.72000 55.63000 22.70900
H  9.31900 53.96500 23.25800
H  15.71800 52.48100 19.35400
H  17.82600 50.53400 19.79400
H  14.55500 50.61700 18.89000
H  14.43200 50.22500 20.59100
H  15.72400 49.45800 19.66300
H  18.65000 53.21200 20.68100
H  17.77700 53.28200 19.11500
H  19.68500 51.25000 18.63900
H  20.44500 52.31500 19.89000
H  19.81100 52.83800 18.36000
H  22.04300 50.15600 24.29800
H  21.24900 49.95400 22.76300
H  21.33100 48.54400 23.99000
H  19.56200 51.58100 28.85400
H  19.27500 48.79500 31.96600
H  19.17700 47.73400 30.50400
H  17.73200 48.45800 31.29100
Mg 8.67200 48.07000 27.62100
C  7.05800 47.44000 30.77100
C  11.62900 48.28600 29.54800
C  10.31800 48.68200 24.81500
C  5.62400 48.03200 26.05400
N  9.14400 47.93600 29.93000
C  8.40200 47.65100 30.98000
C  9.08000 47.75700 32.40000
C  10.56400 48.17600 31.89500
C  10.45700 48.08400 30.37100
C  11.21300 49.48000 32.42200
C  9.11400 46.64900 33.45000
C  8.84300 47.02000 34.93600
H  9.57900 46.12900 36.00500
N  10.63500 48.37300 27.20300
C  11.72600 48.40500 28.14600
C  12.90600 48.63900 27.48400
C  12.59700 48.83800 26.09800
C  11.13800 48.64600 25.96100
C  14.30400 48.71000 28.06400
C  13.56200 49.12800 24.89600
O  13.14100 49.23500 23.77300
C  15.10500 49.18400 25.09300
N  8.05500 48.22700 25.74900
C  8.87900 48.48900 24.76100
C  8.17600 48.58700 23.33600
C  6.66700 48.49600 23.76300
C  6.74600 48.22900 25.25600
C  8.46300 49.85700 22.58500
C  5.87000 47.42300 23.05300
C  5.86100 47.55800 21.53000
N  6.79600 47.77700 28.17800
C  5.66300 47.82700 27.45000
C  4.53800 47.65000 28.24700
C  5.05100 47.47700 29.54300
C  6.42300 47.57400 29.47000
C  3.09800 47.70700 27.87900
C  4.62300 47.21400 30.86700
O  3.52900 47.08700 31.41200
C  5.98700 47.15500 31.70800
C  6.09300 45.81300 32.22000
O  6.48300 44.87300 31.57300
O  5.82500 45.68200 33.61500
C  5.90900 44.28700 34.05900
H  12.53400 48.51200 30.11700
H  10.72000 49.03000 23.86100
H  4.64900 48.11000 25.56800
H  8.62800 48.67600 32.77100
H  11.23600 47.37700 32.20600
H  10.53100 49.88900 33.16700
H  11.32100 50.18400 31.59700
H  12.19700 49.30600 32.85900
H  10.06600 46.13600 33.31700
H  8.41000 45.88100 33.13100
H  7.77700 46.95200 35.15400
H  9.11800 48.05500 35.13900
H  14.75400 47.80400 27.65700
H  14.36600 48.66900 29.15100
H  14.90600 49.58400 27.81800
H  15.48200 50.02400 25.67600
H  15.54500 49.26800 24.09900
H  15.43600 48.20300 25.43600
H  8.52000 47.78400 22.68400
H  6.12300 49.42300 23.58700
H  8.79900 50.71200 23.17100
H  7.58300 50.16700 22.02200
H  9.28400 49.64900 21.89800
H  4.84200 47.46300 23.41500
H  6.23500 46.42200 23.28600
H  6.80800 47.33500 21.03700
H  5.65800 48.61000 21.32800
H  5.06600 46.93900 21.11500
H  2.86800 46.84400 27.25400
H  2.93700 48.70700 27.47700
H  2.50600 47.75300 28.79400
H  5.99800 48.02000 32.37000
H  6.85500 43.81400 33.79500
H  5.05600 43.71300 33.69700
H  5.77000 44.24900 35.14000

