158

Mg 41.41300 7.67300 29.62400
C  42.85200 8.97300 32.52900
C  38.99700 6.19200 31.69000
C  40.09000 6.11200 26.90400
C  44.16500 8.68700 27.74300
N  40.93400 7.64800 31.93300
C  41.72000 8.27800 32.88500
C  41.13500 7.96500 34.30200
C  39.93600 6.98400 33.94800
C  39.97900 6.85100 32.44200
C  39.93900 5.65500 34.72400
C  40.66800 9.24300 35.14000
C  40.80800 9.26200 36.72600
H  40.92100 10.58400 37.29400
N  39.67800 6.54600 29.29800
C  38.83900 6.00500 30.27800
C  37.77600 5.32200 29.59200
C  37.99000 5.43800 28.24800
C  39.29000 6.06200 28.08600
C  36.64100 4.53900 30.37600
C  37.05000 5.09600 27.13200
O  37.42300 4.98200 25.96700
C  35.65400 4.69200 27.44500
N  42.03000 7.44000 27.58000
C  41.26900 6.81000 26.68300
C  41.88600 6.99600 25.26200
C  43.06300 7.97700 25.44500
C  43.06700 8.06700 26.96900
C  42.25200 5.61400 24.62600
C  42.94000 9.39900 24.84900
C  41.76700 10.33300 25.28100
N  43.10800 8.68700 29.97400
C  44.18100 8.98800 29.14300
C  45.12300 9.75000 29.92600
C  44.63800 9.81900 31.21700
C  43.42800 9.07400 31.22300
C  46.44600 10.33400 29.54100
C  44.76700 10.42200 32.50500
O  45.64400 11.15800 32.88600
C  43.61900 9.83300 33.44300
C  44.32100 9.19400 34.51400
O  44.79000 8.06700 34.45000
O  44.19300 9.96000 35.62000
C  44.84200 9.66700 36.87200
H  38.20500 5.71500 32.27200
H  39.62600 5.57300 26.07500
H  44.98400 9.07200 27.13200
H  41.91900 7.47300 34.87700
H  39.04900 7.47200 34.35200
H  40.79100 5.65200 35.40400
H  40.14700 4.90600 33.96000
H  38.97600 5.45800 35.19700
H  39.64600 9.40700 34.80100
H  41.26900 10.03800 34.69800
H  41.68700 8.74100 37.10500
H  39.89900 8.75900 37.05500
H  36.91400 4.38300 31.42000
H  36.27900 3.62700 29.90200
H  35.74600 5.14000 30.53800
H  35.09300 4.63700 26.51300
H  35.15000 5.29900 28.19800
H  35.79700 3.66200 27.77100
H  41.09500 7.47200 24.68200
H  44.02200 7.56600 25.12800
H  42.22900 4.87700 25.42900
H  43.27300 5.64400 24.24400
H  41.67300 5.35700 23.73900
H  42.96900 9.32900 23.76200
H  43.85800 9.93400 25.09400
H  42.15300 11.09900 25.95400
H  41.01500 9.68200 25.72900
H  41.31600 10.77200 24.39100
H  47.03100 9.42100 29.43700
H  46.86000 11.03200 30.27000
H  46.35400 10.77800 28.55000
H  43.02600 10.68400 33.77700
H  45.12200 8.62100 36.75000
H  44.13600 9.61600 37.70100
H  45.70200 10.26200 37.17800
Mg 35.66500 48.64500 24.73200
C  35.83400 47.12400 27.90500
C  34.47500 51.47900 26.28400
C  35.48300 50.11000 21.71500
C  36.31300 45.61300 23.24300
N  35.04100 49.18700 26.77400
C  35.35600 48.47200 27.92900
C  35.14600 49.29300 29.20100
C  34.52500 50.68400 28.68100
C  34.57900 50.42700 27.15200
C  33.11500 51.04200 29.19000
C  36.48700 49.52200 29.98900
C  36.52500 49.33500 31.45800
H  35.22800 49.12400 32.26100
N  35.06700 50.57600 24.07600
C  34.63400 51.58300 24.89400
C  34.50300 52.81000 24.11800
C  34.65100 52.43600 22.71100
C  35.04300 50.97700 22.76100
C  34.24900 54.15700 24.72600
C  34.52200 53.20800 21.43100
O  34.85600 52.73100 20.31500
C  34.03400 54.62700 21.49000
N  35.82000 47.94800 22.76900
C  35.78900 48.74800 21.68100
C  36.11200 48.06800 20.38500
C  36.62700 46.67000 20.93000
C  36.22700 46.73000 22.41800
C  34.83000 47.90600 19.49000
C  38.11700 46.41500 20.75200
C  39.19500 47.52500 20.88900
N  35.88700 46.70500 25.41100
C  36.22400 45.56600 24.72200
C  36.41300 44.45000 25.62000
C  36.23000 44.98200 26.90700
C  35.97700 46.38500 26.74700
C  36.86000 43.01400 25.31600
C  36.17700 44.69600 28.35600
O  36.25500 43.62500 29.01600
C  35.98500 46.14200 29.08400
C  34.77800 45.97600 30.00500
O  33.65800 46.32000 29.72700
O  35.11400 45.19400 31.05700
C  33.95300 44.59800 31.74300
H  34.22200 52.41200 26.79400
H  35.49300 50.52500 20.70500
H  36.59700 44.68400 22.74400
H  34.33600 48.95500 29.84700
H  35.20900 51.52000 28.82800
H  33.27300 52.01400 29.65800
H  32.72600 50.34600 29.93300
H  32.37700 51.31000 28.43300
H  36.62800 50.59900 29.89900
H  37.31400 48.97100 29.54200
H  37.06500 50.19400 31.85900
H  37.10000 48.41100 31.51400
H  34.53600 54.99800 24.09500
H  34.53400 54.22500 25.77600
H  33.16100 54.11500 24.67500
H  33.61500 54.87500 20.51500
H  34.91400 55.23400 21.70400
H  33.23300 54.59800 22.22900
H  36.79100 48.63500 19.74700
H  36.14300 45.90200 20.32700
H  34.26200 48.83000 19.60000
H  34.26800 47.04000 19.84000
H  35.16700 47.92600 18.45400
H  38.29500 45.99000 19.76400
H  38.49200 45.57000 21.33000
H  39.46300 47.35400 21.93200
H  39.00400 48.57000 20.64400
H  40.15500 47.39100 20.39000
H  37.86200 42.79700 25.68500
H  36.86300 42.76100 24.25500
H  36.13600 42.32300 25.74700
H  36.91900 46.33500 29.61200
H  33.30300 43.94700 31.15700
H  33.32500 45.28600 32.30900
H  34.45200 44.05500 32.54600

