158

Mg 46.93800 24.88600 28.19100
C  47.53900 27.16000 30.80900
C  46.75300 22.39500 30.42200
C  45.99700 23.03000 25.66200
C  47.49000 27.65700 25.83000
N  46.83400 24.83400 30.32200
C  47.11900 25.83100 31.23700
C  47.05200 25.34200 32.67300
C  46.75200 23.80100 32.51700
C  46.82100 23.63600 30.99800
C  47.78100 22.93900 33.32700
C  46.03700 26.19600 33.46300
C  46.59800 27.15100 34.49500
H  46.14300 27.05500 35.96100
N  46.39500 23.01900 28.04100
C  46.53000 22.08700 29.05000
C  46.20500 20.78500 28.54200
C  45.78500 20.94300 27.19600
C  45.98200 22.37000 26.94600
C  46.24800 19.49000 29.34600
C  45.11500 19.98000 26.20400
O  44.84400 20.28000 25.05600
C  44.71000 18.57500 26.61000
N  47.08500 25.20300 25.92500
C  46.57700 24.23100 25.11800
C  46.40600 24.72900 23.68100
C  46.80800 26.22600 23.71900
C  47.18300 26.45100 25.24100
C  47.26000 23.79200 22.71200
C  45.62500 27.09100 23.29400
C  45.80000 27.88900 21.96500
N  47.48700 26.93500 28.23300
C  47.72300 27.88700 27.21100
C  48.13400 29.11500 27.85100
C  48.11800 28.90900 29.21100
C  47.66900 27.53000 29.42500
C  48.36000 30.45600 27.12500
C  48.34400 29.48500 30.52100
O  48.79600 30.60200 30.80000
C  47.95600 28.38300 31.59200
C  49.05800 28.22800 32.55300
O  50.00100 27.51000 32.39300
O  48.93400 29.22400 33.52500
C  49.96500 29.26300 34.54200
H  46.89900 21.48800 31.01300
H  45.63500 22.44800 24.81100
H  47.52800 28.61300 25.30400
H  48.06700 25.48700 33.04300
H  45.77200 23.49100 32.87900
H  48.49300 22.47600 32.64400
H  47.14000 22.18900 33.79100
H  48.43500 23.48000 34.01100
H  45.36800 25.49400 33.96000
H  45.52200 26.71300 32.65300
H  46.36600 28.13300 34.08200
H  47.65900 27.03900 34.71800
H  46.20900 18.65500 28.64700
H  45.36700 19.31300 29.96300
H  47.08200 19.55200 30.04600
H  44.40200 18.56800 27.65500
H  45.60800 17.96500 26.50700
H  43.98900 18.11000 25.93700
H  45.35400 24.66100 23.40300
H  47.68300 26.49100 23.12500
H  48.20700 24.33000 22.66700
H  46.92700 23.85500 21.67600
H  47.35100 22.77000 23.07900
H  45.37000 27.88500 23.99500
H  44.71400 26.50400 23.17400
H  45.47400 27.24900 21.14500
H  46.86500 28.11900 21.92700
H  45.31400 28.86200 22.03300
H  49.04700 30.94700 27.81500
H  47.52500 31.14300 26.99200
H  48.74000 30.30800 26.11500
H  47.11100 28.80300 32.13700
H  50.95500 28.94900 34.21200
H  49.71300 28.60800 35.37700
H  49.92100 30.33400 34.73900
Mg -4.58300 25.51300 25.77300
C  -3.67000 27.05500 28.80700
C  -6.65200 23.51800 27.57500
C  -5.06500 23.63200 23.06500
C  -2.36600 27.52500 24.21000
N  -5.07100 25.37200 28.00600
C  -4.60000 26.03600 29.03600
C  -5.17200 25.53200 30.35200
C  -6.10400 24.29100 29.97700
C  -5.94300 24.37200 28.43900
C  -5.49800 22.92700 30.36400
C  -5.84800 26.73200 31.16700
C  -5.46800 26.94000 32.57400
H  -5.25000 25.74400 33.42500
N  -5.80700 23.82700 25.37600
C  -6.60800 23.23700 26.18800
C  -7.40600 22.26900 25.44500
C  -6.96000 22.22100 24.08600
C  -5.92700 23.29200 24.11400
C  -8.45600 21.42400 26.09000
C  -7.31400 21.31300 22.89300
O  -6.84600 21.40900 21.71600
C  -8.10500 20.13100 23.16900
N  -3.89000 25.64200 23.85300
C  -4.21200 24.77000 22.83900
C  -3.43400 25.18000 21.55600
C  -2.86300 26.56500 21.92100
C  -3.08100 26.64200 23.39900
C  -2.45500 24.09100 21.03200
C  -3.65300 27.73900 21.22100
C  -3.03700 28.49800 20.01200
N  -3.35200 27.04400 26.26400
C  -2.43100 27.77200 25.54100
C  -1.73000 28.77500 26.37800
C  -2.26600 28.55100 27.63300
C  -3.18100 27.47900 27.55500
C  -0.56100 29.61800 26.02700
C  -2.00800 28.86000 29.03400
O  -1.21600 29.59400 29.59900
C  -2.96100 27.92400 29.80000
C  -2.19300 27.18700 30.83200
O  -1.63700 26.10200 30.61700
O  -2.18100 27.89500 32.00700
C  -1.26400 27.42400 33.04000
H  -7.30500 22.90700 28.20200
H  -5.21300 23.04500 22.15600
H  -1.78900 28.20100 23.57500
H  -4.39000 25.16500 31.01700
H  -7.18300 24.38700 30.10200
H  -4.49200 23.02800 30.77000
H  -5.48000 22.32100 29.45900
H  -6.27900 22.57600 31.03900
H  -6.88200 26.39000 31.12600
H  -5.77600 27.69300 30.65800
H  -6.33100 27.41800 33.03700
H  -4.59300 27.57700 32.70100
H  -7.99600 20.54800 26.54800
H  -9.29100 21.12700 25.45600
H  -9.00100 21.98600 26.84900
H  -8.19300 19.55500 22.24700
H  -9.07600 20.58400 23.37300
H  -7.66900 19.50100 23.94300
H  -4.22400 25.16400 20.80400
H  -1.78500 26.49100 21.77900
H  -2.32800 23.29900 21.76900
H  -1.41800 24.42400 20.98400
H  -2.86600 23.72900 20.08900
H  -3.80900 28.53700 21.94700
H  -4.64500 27.34600 20.99900
H  -2.92100 29.57300 20.14900
H  -3.61600 28.20200 19.13700
H  -1.99600 28.18400 19.93300
H  -0.21600 30.25300 26.84300
H  -0.87700 30.18000 25.14800
H  0.18900 28.88000 25.74400
H  -3.62000 28.51200 30.43900
H  -0.36300 28.01700 32.88300
H  -1.00300 26.36800 32.95800
H  -1.55700 27.68200 34.05700

