158

Mg -2.16000 17.44400 27.21800
C  -2.40600 15.41800 30.09000
C  -2.56200 20.14500 29.14400
C  -1.75700 19.17400 24.35800
C  -1.76500 14.44500 25.15700
N  -2.36900 17.73300 29.42200
C  -2.52200 16.77700 30.39700
C  -2.73100 17.37400 31.83000
C  -2.90200 18.93200 31.44900
C  -2.65400 18.97700 29.91200
C  -4.22900 19.57800 31.92400
C  -1.54200 16.99700 32.73200
C  -1.09600 18.05400 33.72900
H  -0.32000 17.51800 34.94500
N  -2.20600 19.43300 26.78000
C  -2.31200 20.44000 27.73700
C  -2.23300 21.75200 27.06600
C  -2.04500 21.47800 25.67800
C  -1.88500 19.96100 25.55400
C  -2.35700 23.10700 27.84800
C  -1.91700 22.42700 24.48000
O  -1.79100 22.08800 23.29500
C  -1.94100 23.96700 24.69400
N  -1.96900 16.93500 24.94800
C  -1.82100 17.88300 24.07100
C  -1.86000 17.31200 22.63400
C  -1.53200 15.78600 23.01600
C  -1.79500 15.61500 24.45200
C  -3.18800 17.45700 21.85000
C  -0.15900 15.43600 22.46400
C  0.95300 16.15800 23.24700
N  -2.06400 15.37800 27.50400
C  -2.00100 14.24300 26.57300
C  -2.29200 13.04800 27.34100
C  -2.41200 13.37100 28.64400
C  -2.29200 14.83900 28.75900
C  -2.36600 11.68200 26.69900
C  -2.56400 12.90100 29.94600
O  -2.82300 11.71700 30.27500
C  -2.51700 14.17700 30.93200
C  -1.25200 14.05600 31.73900
O  -0.14300 14.32800 31.40200
O  -1.60600 13.61300 33.01500
C  -0.51000 13.77500 34.02700
H  -2.54000 21.11200 29.65100
H  -1.65900 19.75300 23.43700
H  -1.43900 13.61500 24.52700
H  -3.65800 17.04300 32.29900
H  -2.14300 19.57700 31.89300
H  -4.88100 19.67900 31.05600
H  -3.97600 20.54900 32.35200
H  -4.74600 18.96100 32.65900
H  -0.71700 16.75700 32.06000
H  -1.87800 16.13800 33.31300
H  -1.97500 18.61000 34.05300
H  -0.51400 18.83600 33.24100
H  -1.53900 23.76200 27.54900
H  -2.22000 22.99300 28.92300
H  -3.22000 23.68100 27.51000
H  -1.70100 24.35200 23.70300
H  -1.17100 24.16700 25.44000
H  -2.98000 24.22100 24.90400
H  -1.11500 17.75400 21.97400
H  -2.29900 15.17000 22.54600
H  -3.78200 18.04100 22.55200
H  -3.71000 16.55200 21.54000
H  -2.99900 18.07600 20.97200
H  -0.21100 15.70600 21.41000
H  -0.04500 14.35300 22.44400
H  0.62600 16.19200 24.28600
H  1.09600 17.16800 22.86300
H  1.84200 15.54900 23.07900
H  -3.12100 11.77700 25.91900
H  -2.70500 10.93300 27.41500
H  -1.41000 11.36700 26.28000
H  -3.38500 14.12400 31.58900
H  -0.45800 14.72200 34.56400
H  0.49100 13.59400 33.63500
H  -0.62100 13.08200 34.86100
Mg 47.74100 16.81900 29.02000
C  45.85200 16.45500 31.90400
C  50.21700 18.37300 30.98000
C  49.54500 17.36700 26.25100
C  45.14800 15.56600 27.14600
N  47.98300 17.33500 31.17800
C  47.12300 17.07600 32.15300
C  47.71600 17.44000 33.53300
C  48.94200 18.43100 33.16600
C  49.06600 18.02800 31.66100
C  48.66000 19.94100 33.40500
C  48.05400 16.22200 34.43400
C  47.53000 16.28300 35.86500
H  47.48900 17.69300 36.49900
N  49.62700 17.71700 28.67300
C  50.57700 18.16800 29.57000
C  51.81400 18.58200 28.87900
C  51.42300 18.40700 27.47100
C  50.15000 17.77200 27.41600
C  53.10700 18.98200 29.61500
C  52.29400 18.82300 26.35900
O  52.00100 18.81800 25.17800
C  53.68200 19.37500 26.62600
N  47.39500 16.50900 27.06600
C  48.27000 16.80100 26.06500
C  47.73300 16.60800 24.62100
C  46.56700 15.66600 24.96800
C  46.30300 15.92400 26.47500
C  47.33900 17.91000 23.99100
C  46.74500 14.19100 24.73600
C  45.76800 13.51400 23.77100
N  45.84100 16.20100 29.42800
C  44.89000 15.69100 28.55700
C  43.69300 15.30000 29.30900
C  44.04900 15.50300 30.68700
C  45.32400 16.14800 30.65400
C  42.49300 14.75700 28.73600
C  43.60000 15.39500 32.08800
O  42.63600 14.82100 32.59800
C  44.76800 16.02000 32.88500
C  44.18900 17.00800 33.87200
O  43.81200 18.10200 33.44400
O  44.06100 16.54000 35.14400
C  43.10000 17.24600 36.05200
H  50.84500 18.93800 31.67200
H  50.04000 17.64800 25.31900
H  44.39500 15.12000 26.49200
H  47.00400 18.07100 34.06500
H  49.87600 18.09200 33.61300
H  48.60500 20.41300 32.42400
H  49.56600 20.35200 33.85000
H  47.78300 20.15700 34.01600
H  49.08300 15.86400 34.39100
H  47.52100 15.39000 33.97400
H  48.21700 15.68700 36.46500
H  46.51500 15.89000 35.79300
H  53.85600 18.23600 29.35000
H  52.95300 19.00100 30.69400
H  53.44800 19.97800 29.33200
H  53.65400 20.29700 27.20700
H  53.98000 19.70300 25.63000
H  54.43500 18.65000 26.93500
H  48.51400 16.03000 24.12700
H  45.67700 16.00300 24.43700
H  47.72700 17.94300 22.97300
H  47.83000 18.67700 24.59100
H  46.26600 18.09100 23.92000
H  46.71500 13.66300 25.68900
H  47.72500 14.07100 24.27600
H  46.31300 13.29100 22.85300
H  44.96300 14.20700 23.53000
H  45.32700 12.57500 24.10600
H  41.62100 15.21700 29.20100
H  42.56300 13.67000 28.78500
H  42.60100 15.12600 27.71700
H  45.00800 15.17500 33.53000
H  42.28100 17.70400 35.49700
H  43.72200 18.03500 36.47400
H  42.79100 16.58100 36.85800

