158

Mg 8.96700 5.01600 27.40900
C  10.22300 3.34400 30.22100
C  7.21100 7.13900 29.51800
C  7.75000 6.55800 24.70800
C  10.12600 2.43900 25.41800
N  8.60800 5.05800 29.64100
C  9.38500 4.44600 30.60300
C  9.13300 5.04900 32.04700
C  8.08900 6.12600 31.80400
C  7.94000 6.11600 30.23500
C  6.79400 6.01500 32.63000
C  10.38700 5.53600 32.74200
C  10.38100 5.81900 34.26800
H  11.58500 5.51600 35.20300
N  7.76600 6.71400 27.15300
C  7.06900 7.31700 28.13100
C  6.31600 8.40300 27.49500
C  6.47300 8.36000 26.08800
C  7.31800 7.18800 25.93900
C  5.29200 9.22500 28.29100
C  5.79600 9.01600 24.92300
O  5.92200 8.67700 23.76200
C  4.92700 10.27600 25.19300
N  8.98700 4.59800 25.40400
C  8.45200 5.43100 24.39600
C  8.76300 4.92000 23.00200
C  9.54800 3.57400 23.25200
C  9.60200 3.54600 24.79200
C  7.45500 4.64900 22.17000
C  10.90000 3.37200 22.62200
C  11.06000 1.97800 22.05100
N  9.86200 3.20200 27.70600
C  10.41300 2.33700 26.77800
C  11.29800 1.34600 27.45100
C  11.21400 1.72200 28.83700
C  10.33200 2.81200 28.97200
C  12.12600 0.29000 26.75400
C  11.78900 1.32200 30.12500
O  12.52600 0.42000 30.48800
C  11.04900 2.43100 31.20300
C  10.27700 1.67100 32.27500
O  9.43800 0.89200 31.98200
O  10.79900 1.80900 33.53300
C  10.19900 1.13100 34.69100
H  6.84100 7.84300 30.26700
H  7.43700 6.90200 23.72000
H  10.64900 1.74100 24.76000
H  8.70400 4.34900 32.76300
H  8.44400 7.12600 32.05200
H  6.02400 5.42600 32.13300
H  6.49900 7.03300 32.88500
H  7.02000 5.46700 33.54500
H  10.70700 6.49000 32.32400
H  11.19400 4.83200 32.53900
H  9.57100 5.21000 34.67100
H  10.12600 6.87500 34.35400
H  5.16900 9.07800 29.36400
H  4.30900 9.09400 27.83700
H  5.50500 10.29100 28.20500
H  5.59500 11.13800 25.21200
H  4.39700 10.30400 26.14500
H  4.19400 10.44900 24.40500
H  9.37800 5.68200 22.52400
H  8.92200 2.72300 22.98200
H  7.44000 3.66100 21.70900
H  7.50100 5.43800 21.42000
H  6.62900 4.77300 22.87000
H  11.54300 3.47900 23.49600
H  11.14600 4.14300 21.89200
H  11.61800 2.17000 21.13400
H  10.16200 1.41700 21.79400
H  11.63300 1.36700 22.74900
H  12.22100 -0.45800 27.54100
H  13.09800 0.72200 26.51300
H  11.63600 0.07400 25.80500
H  11.73600 3.10300 31.71700
H  9.26600 0.60600 34.48700
H  9.95100 1.86000 35.46200
H  10.94100 0.44600 35.10200
Mg -5.03000 25.41700 25.93800
C  -4.11300 26.85100 28.84900
C  -6.92700 23.09600 27.80700
C  -5.34100 23.46500 23.18100
C  -3.03700 27.63100 24.15600
N  -5.55600 25.03100 28.05600
C  -5.09700 25.84300 29.03400
C  -5.91200 25.63200 30.33400
C  -6.70300 24.31100 30.02900
C  -6.35800 24.08500 28.55000
C  -6.43600 23.11600 30.93800
C  -6.75700 26.86100 30.76600
C  -6.60100 27.27700 32.24400
H  -6.04100 26.28000 33.28600
N  -6.01900 23.48900 25.48900
C  -6.82400 22.80900 26.37600
C  -7.46100 21.71300 25.62200
C  -6.96100 21.78000 24.30600
C  -6.01700 22.87200 24.31700
C  -8.50600 20.77600 26.25800
C  -7.28400 20.93100 23.10100
O  -6.82400 21.15600 22.00400
C  -8.26500 19.75200 23.26800
N  -4.30100 25.46900 23.99500
C  -4.50900 24.54500 22.98900
C  -3.86400 24.98100 21.65900
C  -3.37500 26.44700 21.96700
C  -3.66500 26.56500 23.46300
C  -2.76600 23.95900 21.12300
C  -4.05500 27.55500 21.18100
C  -5.56400 27.70300 21.42200
N  -3.85100 26.95600 26.34200
C  -3.13400 27.79700 25.50600
C  -2.45600 28.71000 26.31200
C  -2.81600 28.45100 27.61800
C  -3.68200 27.35400 27.59200
C  -1.62200 29.78500 25.79500
C  -2.63900 28.88900 28.94300
O  -1.93500 29.76700 29.48000
C  -3.45600 27.76800 29.84300
C  -2.69800 27.16300 31.02200
O  -2.02200 26.15700 30.98300
O  -2.87400 28.00800 32.13400
C  -2.23500 27.69300 33.40600
H  -7.46800 22.33500 28.37400
H  -5.52800 22.97200 22.22400
H  -2.31700 28.25400 23.62000
H  -5.07800 25.48000 31.01900
H  -7.76200 24.56100 30.10000
H  -7.32800 22.72700 31.42700
H  -5.72100 23.46600 31.68400
H  -6.01000 22.27800 30.38600
H  -7.79400 26.69800 30.47100
H  -6.28000 27.66600 30.20900
H  -7.60200 27.56800 32.56000
H  -5.80200 28.01900 32.24500
H  -8.24600 19.72900 26.10900
H  -9.52500 20.88900 25.88800
H  -8.40900 20.90400 27.33600
H  -7.80900 18.91800 23.80200
H  -8.57600 19.35800 22.30000
H  -9.21100 20.11300 23.67000
H  -4.72900 25.05500 21.00000
H  -2.31100 26.67700 21.90400
H  -3.15700 23.23500 20.40800
H  -2.46300 23.34900 21.97500
H  -1.93600 24.42700 20.59500
H  -4.00000 27.44800 20.09800
H  -3.55600 28.47600 21.48400
H  -6.15800 27.67100 20.50900
H  -5.56400 28.72400 21.80400
H  -6.04300 27.01800 22.12200
H  -0.79200 29.39200 25.20900
H  -1.22800 30.19400 26.72500
H  -2.26000 30.48500 25.25400
H  -4.22900 28.42100 30.24900
H  -1.19700 28.02400 33.43700
H  -2.29000 26.64300 33.69100
H  -2.75500 28.21200 34.21200

