158

Mg 17.11700 -1.68400 27.81700
C  15.75200 0.32100 30.30800
C  19.26000 -3.01400 30.38400
C  18.96000 -3.34700 25.41800
C  15.66700 0.35600 25.45000
N  17.40400 -1.44800 30.11700
C  16.66700 -0.55800 30.80800
C  17.12000 -0.63900 32.30500
C  18.31900 -1.52300 32.24000
C  18.29600 -2.09000 30.84100
C  19.67400 -0.88700 32.66600
C  15.90600 -0.98700 33.28100
C  15.80200 -0.20600 34.54400
H  17.00700 0.58600 35.05200
N  18.80800 -3.05800 27.91200
C  19.49500 -3.48800 29.03000
C  20.40300 -4.55100 28.62300
C  20.26500 -4.75700 27.22900
C  19.30900 -3.72900 26.75900
C  21.24900 -5.25300 29.60400
C  20.91600 -5.73100 26.34200
O  20.63100 -5.74600 25.11000
C  21.98200 -6.69300 26.89500
N  17.39200 -1.48000 25.77000
C  18.08600 -2.36600 25.04200
C  17.89900 -2.06500 23.53500
C  16.81700 -0.92300 23.51800
C  16.67400 -0.53500 24.99000
C  19.23400 -1.66200 22.72500
C  15.46700 -1.36600 22.91800
C  14.87700 -0.47000 21.84000
N  15.82700 -0.00900 27.79200
C  15.32900 0.71600 26.78500
C  14.38400 1.68500 27.29000
C  14.53600 1.59300 28.70400
C  15.45500 0.56300 28.97100
C  13.43300 2.62600 26.56200
C  14.14100 2.10400 29.95900
O  13.36200 3.01300 30.26900
C  14.88700 1.33600 31.06800
C  15.75400 2.40200 31.81000
O  16.89300 2.72200 31.40600
O  15.07000 2.96400 32.78800
C  15.59700 4.21400 33.33600
H  19.87100 -3.43900 31.18300
H  19.33300 -3.92300 24.56800
H  14.98200 0.92900 24.82200
H  17.34700 0.38000 32.61700
H  18.06600 -2.38200 32.86300
H  20.31200 -0.64400 31.81600
H  20.20600 -1.64900 33.23600
H  19.55400 0.08000 33.15300
H  15.96400 -2.03000 33.59200
H  15.00100 -0.83200 32.69300
H  15.47800 -0.83700 35.37100
H  14.92000 0.40300 34.34800
H  22.24100 -5.28100 29.15200
H  20.91200 -6.19900 30.02800
H  21.47200 -4.53500 30.39400
H  22.12100 -7.46100 26.13500
H  21.52000 -7.17300 27.75800
H  22.95300 -6.21100 27.01300
H  17.45100 -2.91300 23.01800
H  17.20600 -0.04300 23.00600
H  18.98800 -1.54500 21.66900
H  19.87000 -2.53700 22.86100
H  19.61300 -0.77500 23.23100
H  14.74000 -1.48300 23.72200
H  15.48900 -2.36800 22.49100
H  15.23900 0.55700 21.80100
H  13.79900 -0.40100 21.98900
H  15.17100 -1.05900 20.97100
H  13.04200 1.99000 25.76800
H  14.07900 3.36100 26.08300
H  12.64400 3.02900 27.19600
H  14.19800 0.89200 31.78700
H  16.55000 3.79900 33.66300
H  14.98400 4.58800 34.15500
H  15.74500 4.96600 32.56000
Mg 1.69900 42.61800 25.36100
C  3.58700 42.07600 28.20600
C  -1.08200 41.48600 26.95000
C  0.20900 42.43700 22.33200
C  4.75100 43.35300 23.59400
N  1.35000 41.87900 27.37400
C  2.20700 41.91200 28.44100
C  1.50100 41.76900 29.81700
C  0.03500 41.47200 29.30300
C  0.10300 41.58500 27.75600
C  -0.62900 40.16100 29.80000
C  1.70300 43.03300 30.69800
C  2.25900 42.81500 32.12100
H  1.85100 41.57100 32.94600
N  -0.21700 42.17900 24.72500
C  -1.26100 41.70200 25.52700
C  -2.44500 41.61800 24.67800
C  -2.03500 41.82000 23.34400
C  -0.62200 42.20200 23.42800
C  -3.82100 41.25000 25.18800
C  -2.79600 41.83600 22.06200
O  -2.41100 42.32200 21.01600
C  -4.08100 41.13100 22.03800
N  2.43400 42.76700 23.22500
C  1.56200 42.78200 22.25000
C  2.17700 43.24100 20.88300
C  3.53500 43.77500 21.42700
C  3.60800 43.27100 22.84200
C  2.20800 42.11000 19.86400
C  3.48700 45.34300 21.37800
C  3.53500 46.04600 20.03100
N  3.74900 42.65800 25.73900
C  4.81700 43.05800 24.97100
C  6.05800 43.07000 25.75900
C  5.60900 42.67600 27.02300
C  4.21300 42.40100 26.96900
C  7.52000 43.33700 25.35400
C  6.06900 42.32500 28.36700
O  7.17500 42.36300 28.84500
C  4.79800 41.98300 29.15400
C  4.93500 40.72600 29.88400
O  4.52100 39.61600 29.54500
O  5.65400 40.89100 31.08500
C  5.68500 39.75700 31.98100
H  -1.97300 41.11400 27.45900
H  -0.14200 42.53000 21.30200
H  5.68500 43.68200 23.13500
H  1.99700 40.93200 30.30900
H  -0.56700 42.34100 29.57000
H  -1.63800 40.45200 30.09400
H  -0.02400 39.83100 30.64400
H  -0.80800 39.47000 28.97600
H  0.80000 43.63700 30.78300
H  2.50600 43.61800 30.25100
H  2.14600 43.72200 32.71500
H  3.33900 42.82000 31.97400
H  -4.58100 41.86000 24.69900
H  -4.00800 41.48800 26.23500
H  -4.01600 40.20500 24.95100
H  -4.78500 41.65600 22.68400
H  -3.90700 40.11700 22.39600
H  -4.54200 41.00400 21.05900
H  1.72700 44.04900 20.30600
H  4.42500 43.37800 20.93800
H  3.20500 41.67100 19.88800
H  1.98100 42.48000 18.86400
H  1.46000 41.36600 20.13800
H  4.28200 45.73200 22.01500
H  2.58200 45.61000 21.92500
H  3.62200 45.31700 19.22500
H  4.34800 46.76900 20.10300
H  2.63500 46.65400 19.93700
H  7.77900 44.30000 25.79400
H  7.70300 43.30400 24.28000
H  8.11400 42.49700 25.71400
H  4.77400 42.74100 29.93700
H  5.30600 40.39100 32.78300
H  6.67000 39.40000 32.28000
H  4.99600 38.97400 31.66300

