158

Mg 29.35200 57.84200 38.84100
C  26.34300 56.09900 38.06900
C  31.21300 55.07700 37.89700
C  32.11200 59.68300 38.68200
C  27.36600 60.75500 39.01300
N  28.79800 55.83500 38.09200
C  27.54300 55.34900 37.84800
C  27.63400 53.94300 37.25900
C  29.07500 53.47800 37.75200
C  29.78900 54.89300 37.92000
C  29.00200 52.54300 39.04000
C  27.48700 53.99900 35.73900
C  26.24500 53.47600 34.99000
H  25.51800 54.37900 33.97100
N  31.45000 57.39800 38.36900
C  31.98900 56.24900 37.99200
C  33.43200 56.45900 37.82900
C  33.76600 57.77000 38.20800
C  32.45700 58.36200 38.41300
C  34.45500 55.36800 37.55900
C  35.11500 58.37200 38.55900
O  36.12000 57.62600 38.46300
C  35.34300 59.81900 39.08700
N  29.66600 59.89500 38.86200
C  30.91400 60.37700 38.92400
C  30.90100 61.96000 38.97500
C  29.43100 62.27600 39.22100
C  28.76400 60.89600 39.00500
C  31.86600 62.68300 40.05100
C  28.96300 63.48200 38.36500
C  28.21100 64.64600 39.06800
N  27.25300 58.36600 38.80700
C  26.65700 59.56600 38.92500
C  25.21200 59.35600 38.96800
C  25.00800 57.97200 38.57100
C  26.33200 57.44100 38.48600
C  24.14300 60.42000 39.05200
C  24.07500 56.93700 38.10100
O  22.87100 57.03000 37.82500
C  24.89500 55.67600 37.81500
C  24.42000 54.73100 38.85200
O  24.46900 54.93000 40.06500
O  23.95100 53.62100 38.28900
C  23.38400 52.65900 39.25300
H  31.81800 54.21300 37.61700
H  32.92100 60.41600 38.67400
H  26.84700 61.71600 39.00300
H  26.87200 53.26300 37.64000
H  29.58700 52.87100 37.00600
H  27.99100 52.24900 39.32200
H  29.30200 53.19000 39.86500
H  29.69500 51.70200 39.03300
H  28.24700 53.39400 35.24500
H  27.46900 55.00700 35.32300
H  25.54500 53.22400 35.78600
H  26.57200 52.55700 34.50200
H  34.10500 54.49000 37.01500
H  34.84600 55.08300 38.53500
H  35.24100 55.66500 36.86500
H  36.30700 59.73700 39.58900
H  34.64100 59.87300 39.92000
H  35.26800 60.69400 38.44200
H  31.22500 62.33800 38.00500
H  29.19800 62.57000 40.24400
H  32.23600 61.83700 40.63100
H  31.35800 63.42900 40.66200
H  32.77600 63.05500 39.58000
H  28.30600 63.14900 37.56200
H  29.76500 64.00900 37.85000
H  27.54500 65.22800 38.43100
H  28.88600 65.42600 39.41900
H  27.45900 64.24500 39.74800
H  23.19700 59.88200 38.99000
H  24.11800 61.15600 38.24800
H  24.20800 61.02300 39.95700
H  24.55700 55.26200 36.86500
H  23.60300 51.66800 38.85700
H  22.35800 52.84300 39.57200
H  24.05500 52.49900 40.09700
Mg 0.11100 43.21500 27.01500
C  2.51400 42.86300 29.42600
C  -2.34200 42.20900 29.41800
C  -2.35000 43.45900 24.66700
C  2.50900 43.53500 24.52400
N  0.09200 42.61800 29.15000
C  1.18400 42.67000 29.96700
C  0.81900 42.56300 31.45100
C  -0.59100 41.89000 31.37000
C  -0.98900 42.30900 29.87100
C  -0.59100 40.39300 31.57100
C  0.92800 43.86200 32.14200
C  0.90100 43.80300 33.65900
H  0.26800 42.63300 34.41500
N  -2.03500 42.91300 27.04600
C  -2.77500 42.57900 28.13500
C  -4.19100 42.63600 27.80900
C  -4.24200 43.07000 26.43100
C  -2.88700 43.24600 25.97000
C  -5.30900 42.27000 28.78000
C  -5.49500 43.31000 25.40100
O  -5.40100 43.72800 24.25300
C  -6.84300 42.86200 25.89100
N  0.05700 43.25900 24.86700
C  -1.05700 43.47800 24.17600
C  -0.73000 43.72500 22.64500
C  0.77600 43.76800 22.56600
C  1.16200 43.58500 24.07600
C  -1.35500 42.67000 21.71500
C  1.41500 44.91800 21.82900
C  1.92600 46.09000 22.73900
N  2.09600 43.19700 26.92000
C  2.94900 43.32500 25.84200
C  4.35200 43.32200 26.32100
C  4.20000 43.05500 27.68300
C  2.77100 43.01300 28.04700
C  5.71900 43.43700 25.55500
C  5.00600 42.86200 28.89100
O  6.19000 42.57900 29.18600
C  3.95800 42.84400 30.09600
C  4.25200 41.71900 31.03300
O  4.33000 40.52300 30.75000
O  4.39200 42.19400 32.24800
C  4.47500 41.19100 33.30500
H  -3.07300 41.87600 30.15800
H  -3.07200 43.68000 23.87800
H  3.33500 43.66000 23.82100
H  1.47900 41.86200 31.96200
H  -1.27900 42.31400 32.10200
H  0.36500 39.93300 31.82100
H  -0.80600 39.97000 30.59000
H  -1.36400 40.20800 32.31700
H  0.21700 44.58300 31.73900
H  1.90100 44.29600 31.90900
H  0.50600 44.76800 33.97800
H  1.90500 43.88000 34.07700
H  -6.13900 42.91300 28.48800
H  -5.13600 42.60600 29.80300
H  -5.58200 41.21500 28.74600
H  -6.78900 41.83000 26.23800
H  -7.63100 43.08400 25.17200
H  -7.09800 43.47300 26.75700
H  -1.14700 44.70000 22.39400
H  1.16000 42.84100 22.13900
H  -0.56800 42.31500 21.05000
H  -2.25300 43.11800 21.29000
H  -1.59300 41.80000 22.32600
H  0.90000 45.26800 20.93500
H  2.36900 44.48400 21.53000
H  1.22600 46.25500 23.55900
H  2.04300 46.98600 22.12900
H  2.93800 46.00200 23.13300
H  6.51300 43.15100 26.24500
H  5.83900 44.43200 25.12600
H  5.79500 42.73200 24.72800
H  4.12500 43.82600 30.53800
H  5.49500 41.23900 33.68600
H  4.04400 40.19800 33.17800
H  3.85500 41.62400 34.09100

