158

Mg 24.77000 1.45200 29.67600
C  26.92500 1.23300 32.50500
C  22.07400 1.24400 31.96400
C  22.84500 1.06200 27.10000
C  27.65900 0.93100 27.64900
N  24.53300 1.20300 31.96400
C  25.59200 1.33000 32.88400
C  25.05600 1.54600 34.25900
C  23.53600 1.25400 34.09200
C  23.35500 1.28600 32.59000
C  22.93400 -0.02800 34.72100
C  25.35600 2.92100 35.03600
C  25.99900 2.81900 36.41800
H  25.55000 3.84500 37.51900
N  22.77600 1.31500 29.59900
C  21.79500 1.24500 30.61700
C  20.50200 1.12100 30.05300
C  20.72700 1.09200 28.61000
C  22.18600 1.18800 28.37100
C  19.22700 1.14700 30.85700
C  19.65800 0.93900 27.46300
O  19.94100 0.90700 26.30300
C  18.22200 0.61800 27.78800
N  25.24200 0.97000 27.62500
C  24.23300 0.99200 26.72300
C  24.67400 1.27300 25.28300
C  26.26500 1.23000 25.43600
C  26.43500 1.03700 26.97800
C  24.02100 0.43600 24.10600
C  26.90300 2.50100 24.85000
C  26.66700 3.82500 25.56000
N  26.88500 1.08400 29.97500
C  27.92000 0.84600 29.09500
C  29.17700 0.62700 29.83000
C  28.83600 0.85500 31.13400
C  27.44300 1.03800 31.19700
C  30.45700 0.47100 29.23800
C  29.38200 0.90500 32.48900
O  30.54800 0.79600 32.88700
C  28.14000 1.16200 33.39700
C  28.03400 0.00600 34.31200
O  28.04700 -1.13500 34.01300
O  28.08800 0.47500 35.60700
C  28.65500 -0.43300 36.64500
H  21.21000 1.16700 32.62800
H  22.22000 0.86400 26.22700
H  28.51900 1.06500 26.99000
H  25.48300 0.68600 34.77600
H  23.02700 2.04000 34.65000
H  22.73100 -0.87500 34.06500
H  21.96300 0.10100 35.20000
H  23.65300 -0.37300 35.46300
H  24.44500 3.51900 35.00300
H  26.09900 3.47100 34.45700
H  27.00900 3.16200 36.19600
H  25.79400 1.80900 36.77300
H  18.82000 2.14900 30.71900
H  19.25900 0.88100 31.91400
H  18.50000 0.42100 30.49200
H  18.20500 -0.28100 28.40400
H  17.63500 0.46100 26.88300
H  17.85800 1.52800 28.26500
H  24.34700 2.28900 25.06400
H  26.68700 0.29400 25.07000
H  24.71700 -0.22100 23.58300
H  23.66000 1.13800 23.35400
H  23.19400 -0.11700 24.55100
H  26.50700 2.60800 23.84000
H  27.96800 2.28600 24.75600
H  26.25900 3.64700 26.55500
H  25.92700 4.47700 25.09400
H  27.64300 4.27800 25.73300
H  30.61000 -0.26700 28.45000
H  31.16800 0.37600 30.05900
H  30.51600 1.46100 28.78700
H  28.25300 2.04700 34.02300
H  28.00000 -0.31400 37.50800
H  29.64000 0.01300 36.77800
H  28.68600 -1.46400 36.29100
Mg -11.82200 16.73300 40.71600
C  -8.45600 15.60000 40.48400
C  -10.76000 20.01500 40.05900
C  -14.98000 17.73400 40.44700
C  -12.77300 13.52800 41.36800
N  -9.84900 17.66900 40.24900
C  -8.56600 17.02200 40.16400
C  -7.47600 18.07700 39.91000
C  -8.19800 19.43300 39.67800
C  -9.71700 19.06000 40.03700
C  -7.61100 20.63900 40.43000
C  -6.56700 17.61700 38.58800
C  -5.01400 17.64600 38.84900
H  -4.21700 16.36600 38.79300
N  -12.77400 18.62800 40.35100
C  -12.14800 19.84200 40.21400
C  -13.14400 20.81900 40.17900
C  -14.44900 20.25800 40.40200
C  -14.12000 18.80000 40.37700
C  -12.80700 22.33000 39.87400
C  -15.81400 20.98800 40.68700
O  -15.89400 22.20600 40.57800
C  -16.98000 20.27400 41.40600
N  -13.59300 15.68700 40.52600
C  -14.73200 16.35200 40.53400
C  -15.91100 15.49800 40.98800
C  -15.28700 14.07200 41.09500
C  -13.76600 14.46700 41.06000
C  -16.60500 16.12700 42.23900
C  -15.74700 13.14600 39.87400
C  -16.47800 11.85700 40.31900
N  -10.85100 14.85600 40.96600
C  -11.33800 13.65400 41.27800
C  -10.26000 12.68500 41.49700
C  -9.15100 13.39200 41.17200
C  -9.56500 14.71900 40.81700
C  -10.26600 11.22600 41.85100
C  -7.70900 13.38000 41.10100
O  -6.97200 12.39800 41.25200
C  -7.19000 14.74700 40.62300
C  -6.19700 15.18300 41.62200
O  -6.41400 15.71000 42.66900
O  -4.99000 14.53400 41.36400
C  -3.87100 14.60900 42.38500
H  -10.55600 21.07400 39.89200
H  -16.04100 17.99100 40.47800
H  -13.08100 12.50400 41.58700
H  -6.92400 17.98000 40.84500
H  -8.31900 19.50700 38.59700
H  -6.76800 20.19700 40.96000
H  -8.37000 21.06500 41.08600
H  -7.29900 21.44300 39.76300
H  -6.75300 18.29200 37.75400
H  -6.86600 16.59700 38.34600
H  -4.81100 18.01100 39.85500
H  -4.56200 18.31400 38.11500
H  -13.68000 22.94500 39.65800
H  -12.08400 22.42700 39.06300
H  -12.26300 22.75800 40.71600
H  -17.92900 20.25800 40.87000
H  -17.15700 20.94000 42.25100
H  -16.77700 19.30100 41.85400
H  -16.60700 15.49800 40.14900
H  -15.38300 13.56100 42.05400
H  -16.25000 17.11000 42.54800
H  -16.56300 15.38600 43.03800
H  -17.64400 16.29500 41.95600
H  -14.82600 12.89100 39.35100
H  -16.39600 13.61900 39.13700
H  -15.72900 11.06600 40.27900
H  -17.39400 11.56500 39.80700
H  -16.77900 11.95700 41.36200
H  -11.17800 10.68700 41.59400
H  -10.24400 11.08900 42.93200
H  -9.41000 10.82100 41.31100
H  -6.66900 14.68400 39.66800
H  -3.13300 13.90900 41.99400
H  -4.23900 14.33500 43.37400
H  -3.54500 15.62200 42.62100

