158

Mg 2.82000 -1.17800 45.12100
C  6.27600 -0.62800 44.54000
C  2.12900 1.54200 43.05000
C  -0.38000 -2.30700 45.03900
C  3.76800 -4.12200 46.90300
N  4.06100 0.32100 43.95200
C  5.46300 0.25000 43.80700
C  5.93400 1.36900 42.91600
C  4.59600 2.12300 42.63000
C  3.49100 1.28700 43.23400
C  4.50400 3.53100 43.24300
C  6.73400 0.72200 41.70900
C  7.96500 1.47700 41.08600
H  7.71000 2.23700 39.79500
N  1.11800 -0.40500 44.23600
C  1.01400 0.72200 43.43100
C  -0.39300 0.98900 43.23600
C  -1.16800 -0.01800 43.84200
C  -0.13800 -0.97600 44.43400
C  -0.94100 2.11100 42.42600
C  -2.68800 -0.13600 43.81000
O  -3.37000 0.70100 43.27500
C  -3.33900 -1.20700 44.60500
N  1.85400 -2.87000 45.79100
C  0.51000 -3.15300 45.66700
C  0.14300 -4.59600 46.20800
C  1.42800 -5.06900 46.96000
C  2.41600 -3.92000 46.50300
C  -1.21400 -4.57400 47.04700
C  1.82700 -6.57500 46.56000
C  1.28400 -7.66200 47.49600
N  4.61600 -2.16300 45.76600
C  4.85900 -3.26200 46.53400
C  6.23800 -3.47200 46.72300
C  6.83300 -2.38400 46.06200
C  5.83600 -1.72700 45.37600
C  6.98800 -4.60500 47.36100
C  8.11500 -1.71100 45.66900
O  9.24400 -1.96300 45.85500
C  7.74700 -0.62500 44.70900
C  8.26800 0.67600 45.28900
O  7.66000 1.34800 46.11500
O  9.40000 1.02900 44.59800
C  9.81500 2.39600 44.91600
H  1.89800 2.30700 42.30600
H  -1.35700 -2.76700 44.87700
H  3.94200 -5.03500 47.47600
H  6.55400 1.99500 43.55700
H  4.35700 2.18500 41.56900
H  5.34600 4.18000 43.00300
H  4.58400 3.26300 44.29600
H  3.53100 3.97400 43.03200
H  6.00100 0.59200 40.91200
H  7.07600 -0.30200 41.85700
H  8.73300 0.73000 40.88400
H  8.27300 2.21100 41.83000
H  -0.91700 1.80200 41.38100
H  -0.23500 2.93900 42.48900
H  -1.90400 2.55500 42.67600
H  -3.14100 -1.14300 45.67400
H  -3.01000 -2.20200 44.30400
H  -4.41500 -1.29400 44.45500
H  -0.06100 -5.27100 45.37700
H  1.21800 -4.87400 48.01100
H  -1.93900 -5.18200 46.50600
H  -1.53300 -3.53800 47.16000
H  -0.96000 -5.07200 47.98200
H  2.90200 -6.62500 46.38600
H  1.47400 -6.78100 45.55000
H  1.00600 -7.22000 48.45200
H  2.10700 -8.37700 47.48400
H  0.44800 -8.20800 47.06000
H  7.16700 -5.41700 46.65700
H  6.38400 -4.83400 48.23900
H  7.94300 -4.23200 47.73200
H  8.30300 -0.82000 43.79200
H  10.62000 2.53200 44.19400
H  10.21000 2.51000 45.92500
H  9.08400 3.17600 44.70500
Mg 26.77500 50.59900 26.65900
C  24.75200 51.58400 29.19500
C  29.17200 49.81000 28.93600
C  28.80900 49.98600 24.11500
C  24.33500 51.58300 24.38000
N  27.00800 50.72300 28.90500
C  25.94200 51.03600 29.66100
C  26.37600 50.68000 31.19300
C  27.87100 50.25100 31.07900
C  28.01300 50.22700 29.57600
C  28.87500 51.19800 31.89200
C  25.40900 49.59500 31.81600
C  24.78200 49.99900 33.18600
H  24.99900 49.28900 34.49500
N  28.65100 49.89300 26.56300
C  29.50700 49.68200 27.57100
C  30.89500 49.46500 27.12300
C  30.82100 49.53100 25.68300
C  29.36600 49.85300 25.39800
C  32.15300 49.02100 27.90500
C  31.88500 49.37500 24.62100
O  31.53000 49.46500 23.49900
C  33.31000 49.08000 24.98100
N  26.64100 50.82200 24.50300
C  27.56000 50.28200 23.68400
C  27.03500 50.11200 22.23000
C  25.53600 50.48500 22.36400
C  25.45900 51.00900 23.82600
C  27.78200 51.14100 21.18900
C  24.58300 49.25100 22.08900
C  23.28100 49.54300 21.31600
N  25.06100 51.48700 26.73300
C  24.23600 51.91500 25.71300
C  23.02800 52.57300 26.25100
C  23.28700 52.48500 27.60400
C  24.47300 51.83200 27.83900
C  21.84700 53.03000 25.47400
C  22.63000 52.71000 28.89900
O  21.55300 53.17800 29.21100
C  23.61600 52.17300 30.01400
C  24.04300 53.24300 30.95000
O  24.80900 54.12200 30.62900
O  23.46900 53.16300 32.16600
C  23.76100 54.25300 33.17400
H  30.00000 49.61200 29.62000
H  29.36400 49.52900 23.29200
H  23.53300 51.80000 23.67100
H  26.17400 51.59700 31.74900
H  27.90800 49.20300 31.37800
H  28.33200 51.78500 32.63200
H  29.47200 51.70900 31.13600
H  29.48700 50.52500 32.49300
H  25.99900 48.68500 31.92700
H  24.61700 49.31800 31.12100
H  23.72900 49.88500 32.93000
H  24.83700 51.07300 33.36200
H  32.41600 48.01100 27.59300
H  32.02400 48.99900 28.98700
H  32.99000 49.63500 27.57300
H  33.28000 48.17300 25.58500
H  33.74000 49.94500 25.48600
H  33.84300 48.77600 24.08000
H  27.14200 49.04900 22.01100
H  25.34400 51.28500 21.64900
H  28.41400 51.70900 21.87200
H  27.14700 51.80800 20.60500
H  28.40700 50.45500 20.61700
H  24.28300 48.83400 23.05000
H  25.18200 48.65300 21.40200
H  23.06400 48.94900 20.42800
H  23.34400 50.61600 21.13500
H  22.44100 49.34200 21.98000
H  21.60600 52.31400 24.68900
H  22.08800 54.02200 25.09300
H  20.97100 53.12300 26.11600
H  23.03500 51.44100 30.57500
H  24.26300 53.70500 33.97200
H  22.78600 54.57300 33.54300
H  24.39100 55.05200 32.78500

