158

Mg -2.54000 17.46300 27.54200
C  -3.06700 15.22200 30.17600
C  -2.97200 20.10300 29.74500
C  -2.26900 19.43900 25.07200
C  -2.70800 14.73900 25.39700
N  -2.89100 17.62600 29.77900
C  -3.10600 16.58200 30.67100
C  -3.37100 17.14700 32.10500
C  -3.47200 18.70400 31.86500
C  -3.08900 18.83600 30.36100
C  -4.77800 19.40200 32.17400
C  -2.37500 16.55900 33.13500
C  -1.98900 17.42300 34.38900
H  -1.74900 16.68700 35.63900
N  -2.32000 19.47500 27.44400
C  -2.50100 20.42200 28.48100
C  -2.21400 21.70100 27.92600
C  -2.09700 21.59800 26.51700
C  -2.17200 20.17300 26.28400
C  -2.29900 22.88800 28.87700
C  -1.96300 22.71200 25.46700
O  -1.64300 22.44800 24.31700
C  -2.02800 24.18500 25.86000
N  -2.68800 17.14200 25.52700
C  -2.49900 18.09800 24.71100
C  -2.50600 17.62800 23.21000
C  -2.41600 16.06700 23.32600
C  -2.62700 15.98200 24.82900
C  -3.67000 18.13600 22.35100
C  -1.13600 15.29100 22.84800
C  0.17000 15.67100 23.58900
N  -2.92400 15.40700 27.67000
C  -2.94700 14.41200 26.72700
C  -3.03300 13.06500 27.34700
C  -3.07600 13.40000 28.73500
C  -3.01500 14.79500 28.83700
C  -3.02900 11.71900 26.79300
C  -3.29700 12.79600 30.07900
O  -3.55600 11.69800 30.37400
C  -3.24400 14.00200 31.11500
C  -2.02500 13.55200 31.89100
O  -0.88600 13.95600 31.65400
O  -2.36500 12.78900 32.99400
C  -1.22500 12.55800 33.91700
H  -3.12000 20.90700 30.46900
H  -2.08700 20.08200 24.20800
H  -2.58700 13.90900 24.69800
H  -4.29700 16.73900 32.51000
H  -2.65500 19.11600 32.45800
H  -5.03200 20.16700 31.44000
H  -4.70200 19.79100 33.18900
H  -5.63000 18.72300 32.21000
H  -1.45500 16.25100 32.63800
H  -2.85000 15.67300 33.55600
H  -2.91800 17.99000 34.46100
H  -1.06200 17.97300 34.22700
H  -1.65600 23.61200 28.37700
H  -1.79400 22.64100 29.81000
H  -3.25500 23.35000 29.12300
H  -2.26000 24.85400 25.03000
H  -1.08700 24.48700 26.31900
H  -2.73800 24.28200 26.68100
H  -1.54200 17.97700 22.84100
H  -3.27600 15.56200 22.88600
H  -4.16100 18.99400 22.81000
H  -4.40700 17.39900 22.03200
H  -3.20100 18.55600 21.46100
H  -1.03500 15.45800 21.77600
H  -1.29200 14.21400 22.91600
H  0.74800 16.33800 22.95000
H  0.76300 14.78600 23.82400
H  -0.05300 16.20800 24.51100
H  -2.81200 11.08800 27.65500
H  -2.35300 11.55000 25.95500
H  -4.03800 11.49100 26.45000
H  -4.20100 13.82600 31.60700
H  -1.46000 11.68800 34.53000
H  -0.93000 13.36000 34.59400
H  -0.28100 12.14900 33.55700
Mg 40.14100 10.00300 29.55500
C  42.16300 11.20800 32.01100
C  38.08800 8.63000 31.81700
C  38.29800 8.60600 26.94700
C  42.51800 11.01300 27.12000
N  40.15100 9.89600 31.69800
C  41.02500 10.60100 32.54000
C  40.54400 10.45400 33.98600
C  39.29900 9.49500 33.92200
C  39.22300 9.28700 32.38400
C  39.48900 8.22500 34.74500
C  40.23900 11.85900 34.46400
C  39.65100 12.10700 35.93400
H  40.31600 13.10300 36.93900
N  38.50300 8.75800 29.45000
C  37.71600 8.33400 30.49700
C  36.56800 7.59700 30.02600
C  36.56600 7.69800 28.65000
C  37.86700 8.38500 28.30900
C  35.65800 6.84600 30.99000
C  35.53900 7.19100 27.69100
O  35.62800 7.34800 26.50300
C  34.39700 6.51100 28.31000
N  40.36200 9.75800 27.38600
C  39.48700 9.16500 26.53600
C  39.88800 9.18100 25.10100
C  41.25600 9.99800 25.10800
C  41.39900 10.26700 26.66800
C  39.93700 7.76800 24.45000
C  41.13900 11.25900 24.14200
C  40.67500 12.60400 24.81000
N  41.95300 10.94700 29.51900
C  42.78800 11.35100 28.46100
C  43.89300 12.04600 29.00500
C  43.66800 12.03100 30.40800
C  42.48600 11.31800 30.61100
C  45.10100 12.42700 28.31900
C  44.22200 12.52200 31.63900
O  45.17300 13.29200 31.86300
C  43.07900 12.12200 32.75400
C  43.73500 11.48000 33.86800
O  44.26500 10.37900 33.83100
O  43.68400 12.28100 35.04600
C  44.16000 11.72600 36.33700
H  37.52200 8.32000 32.69800
H  37.72600 8.14300 26.14000
H  43.19500 11.28200 26.30700
H  41.30300 10.09200 34.68000
H  38.41500 10.08800 34.15500
H  38.67600 8.05200 35.45000
H  40.43800 8.23900 35.28000
H  39.59800 7.35600 34.09600
H  39.69400 12.27300 33.61600
H  41.15300 12.45200 34.51500
H  39.58100 11.14300 36.43900
H  38.56900 12.20500 35.84500
H  36.24600 6.79200 31.90700
H  35.41500 5.82900 30.68200
H  34.82500 7.51800 31.19700
H  34.76300 5.55000 28.67300
H  33.70400 6.28900 27.49800
H  33.95100 7.09600 29.11400
H  39.06100 9.68400 24.60100
H  42.07700 9.39500 24.72000
H  39.09900 7.55000 23.78900
H  40.08300 6.93600 25.13900
H  40.69400 7.65100 23.67500
H  40.43200 10.96900 23.36500
H  42.12700 11.49800 23.74800
H  40.28500 12.39800 25.80700
H  39.87500 13.04600 24.21600
H  41.40700 13.41200 24.82000
H  45.55700 11.62200 27.74200
H  45.79700 12.87100 29.03000
H  44.87700 13.23200 27.61900
H  42.71500 13.06600 33.16100
H  45.04400 12.28000 36.64900
H  44.49600 10.69300 36.24900
H  43.36700 11.84200 37.07500

