158

Mg -2.43500 17.17100 26.50500
C  -2.96000 14.98500 29.31500
C  -3.03500 19.83000 28.63800
C  -2.26100 19.05700 23.81600
C  -2.39200 14.29800 24.36100
N  -2.84600 17.38200 28.74800
C  -2.99500 16.34600 29.69200
C  -3.26000 17.00200 31.06400
C  -3.06500 18.51900 30.92200
C  -3.00700 18.64000 29.35700
C  -3.99000 19.48900 31.56700
C  -2.50700 16.27400 32.31300
C  -2.35000 17.15600 33.57900
H  -1.80100 16.51000 34.82000
N  -2.61700 19.12600 26.24100
C  -2.90000 20.10800 27.19100
C  -2.80400 21.46000 26.59900
C  -2.41600 21.24200 25.22500
C  -2.42600 19.77100 25.01100
C  -3.00700 22.73200 27.35300
C  -2.10000 22.20600 24.13900
O  -1.99600 21.96400 22.94500
C  -1.88800 23.71200 24.42000
N  -2.43000 16.72400 24.35900
C  -2.24300 17.69500 23.46900
C  -2.30300 17.12800 22.00900
C  -2.11200 15.60600 22.23000
C  -2.35100 15.52800 23.76900
C  -3.44700 17.63900 21.11200
C  -0.67200 14.98500 21.86200
C  0.58500 15.58300 22.52000
N  -2.43200 15.09500 26.77500
C  -2.58900 14.04700 25.79000
C  -2.81400 12.78600 26.46400
C  -2.85300 13.18600 27.81900
C  -2.64600 14.54600 27.97100
C  -2.98000 11.37100 25.98600
C  -3.11700 12.59500 29.19200
O  -3.44000 11.48300 29.59000
C  -3.08200 13.77000 30.15400
C  -1.95500 13.49100 31.08300
O  -0.75000 13.76200 30.91000
O  -2.45200 12.83300 32.19200
C  -1.48800 12.50400 33.27900
H  -3.04700 20.67100 29.33500
H  -2.23700 19.74000 22.96400
H  -2.46200 13.32300 23.87300
H  -4.31500 16.86600 31.30100
H  -2.04600 18.77300 31.21400
H  -4.51100 20.18600 30.91000
H  -3.47000 20.12200 32.28500
H  -4.74300 18.89000 32.07900
H  -1.54400 15.90700 31.95700
H  -3.15000 15.44700 32.61400
H  -3.30900 17.62500 33.80100
H  -1.51800 17.81800 33.33900
H  -3.25600 22.49100 28.38700
H  -3.81300 23.30700 26.89600
H  -2.12400 23.37100 27.34000
H  -1.10700 23.94300 25.14500
H  -2.84600 24.03600 24.82600
H  -1.64800 24.28800 23.52700
H  -1.42300 17.51000 21.49100
H  -2.97600 15.10800 21.79000
H  -4.11200 16.83900 20.78800
H  -2.98500 18.14000 20.26200
H  -4.14700 18.21100 21.72100
H  -0.53600 15.11800 20.78800
H  -0.72800 13.91500 22.05700
H  0.22800 16.27700 23.28200
H  1.24300 16.09200 21.81600
H  1.16900 14.77900 22.96800
H  -4.00100 11.00500 26.09600
H  -2.30200 10.67500 26.47900
H  -2.73100 11.26200 24.93000
H  -3.98300 13.83700 30.76400
H  -0.96900 11.56500 33.08600
H  -2.07700 12.38000 34.18800
H  -0.80200 13.33400 33.44400
Mg 30.29000 57.79300 40.48400
C  27.57400 55.96400 39.29400
C  32.42600 55.30400 39.30400
C  32.77900 59.99800 40.58100
C  28.07800 60.49100 41.18400
N  30.00300 55.88400 39.31100
C  28.79200 55.28600 38.99000
C  29.11200 53.98800 38.33400
C  30.52300 53.60100 38.80700
C  31.03700 55.01000 39.19700
C  30.55100 52.61600 40.08100
C  29.01500 53.83400 36.83600
C  28.05100 52.64500 36.35000
H  27.15400 53.04900 35.18300
N  32.33100 57.68700 39.95200
C  33.00900 56.57900 39.53200
C  34.38900 56.83200 39.52500
C  34.50100 58.21200 39.94700
C  33.15400 58.72200 40.16800
C  35.45300 55.82200 39.11600
C  35.86400 58.96400 40.10300
O  36.87900 58.41100 39.78500
C  36.13100 60.29800 40.72600
N  30.40000 59.98400 40.82400
C  31.56600 60.58400 40.87900
C  31.42300 62.07300 41.16800
C  29.84400 62.13500 41.55300
C  29.38500 60.82700 41.09400
C  32.39300 62.52700 42.35800
C  28.96500 63.33000 41.05300
C  29.63000 64.65100 40.84500
N  28.29300 58.09000 40.53900
C  27.52800 59.22000 40.83200
C  26.11100 58.98800 40.67000
C  26.15600 57.68700 40.06700
C  27.44000 57.24800 39.95100
C  25.06500 59.85600 41.17100
C  25.19400 56.63700 39.51100
O  23.96900 56.57300 39.34200
C  26.12700 55.45800 39.00800
C  25.80300 54.27400 39.78300
O  25.62400 54.25100 40.96000
O  25.58400 53.20700 38.94400
C  25.17800 51.96800 39.59200
H  32.99000 54.40000 39.06500
H  33.61700 60.69800 40.60900
H  27.45600 61.27900 41.61400
H  28.39600 53.29900 38.78200
H  31.11800 53.15100 38.01200
H  30.81100 51.70500 39.54200
H  29.66800 52.29000 40.63200
H  31.27000 52.95700 40.82600
H  29.97400 53.80100 36.31900
H  28.61800 54.76200 36.42400
H  27.42300 52.48500 37.22700
H  28.57300 51.74500 36.02600
H  35.36800 55.60400 38.05100
H  35.33400 54.86900 39.63200
H  36.39100 56.20700 39.51500
H  37.21400 60.39500 40.80600
H  35.60300 60.39000 41.67500
H  35.68700 61.05700 40.08300
H  31.56800 62.57800 40.21300
H  29.76600 62.21700 42.63700
H  33.09000 63.32200 42.09000
H  32.89700 61.71300 42.87800
H  31.81400 62.98800 43.15800
H  28.28000 63.39000 41.89800
H  28.49900 63.05100 40.10800
H  30.49300 64.55500 41.50400
H  28.88000 65.41700 41.04100
H  29.80000 64.69300 39.76900
H  25.47400 60.29500 42.08100
H  24.26300 59.17700 41.46100
H  24.70700 60.59300 40.45300
H  26.00400 55.27600 37.94000
H  24.52300 51.36100 38.96800
H  24.77600 52.06700 40.60000
H  26.10700 51.40900 39.70600

