158

Mg 50.20700 45.10100 43.47600
C  46.76900 45.23500 42.42500
C  50.18700 41.77800 42.89900
C  53.61600 45.27100 43.56200
C  50.10900 48.58300 43.53400
N  48.71000 43.70200 42.46900
C  47.29700 43.92700 42.38100
C  46.58200 42.58400 42.17500
C  47.60600 41.47300 42.68100
C  48.92900 42.34800 42.75500
C  47.44500 40.95700 44.14700
C  46.14300 42.31400 40.69000
C  46.73300 43.34100 39.63300
H  46.74800 42.81000 38.22000
N  51.71600 43.65700 43.29000
C  51.46800 42.33100 43.03800
C  52.71500 41.68700 43.08700
C  53.76600 42.67100 43.25300
C  53.10200 43.97400 43.37400
C  52.87700 40.18800 42.95400
C  55.32400 42.44300 43.21500
O  55.73900 41.30500 43.11100
C  56.36500 43.46700 43.15900
N  51.67600 46.67500 43.55200
C  52.99800 46.52500 43.68300
C  53.77800 47.86200 43.77700
C  52.59400 48.89800 43.70800
C  51.42900 47.99400 43.56600
C  54.59600 47.95700 45.04500
C  52.67100 49.90400 42.47900
C  52.39700 51.40200 42.90700
N  48.72600 46.61500 43.25900
C  48.90900 47.97000 43.22500
C  47.72600 48.63200 42.90000
C  46.81000 47.65300 42.61800
C  47.51500 46.44400 42.73200
C  47.47800 50.14500 42.86300
C  45.50500 47.30600 42.27800
O  44.56600 48.01800 42.01300
C  45.34500 45.74400 42.12100
C  44.38500 45.25800 43.13100
O  44.62200 45.16100 44.32500
O  43.17400 44.88100 42.56000
C  42.14500 44.57600 43.51900
H  50.20500 40.68900 42.97500
H  54.69400 45.38100 43.69700
H  49.98700 49.66600 43.60800
H  45.72200 42.75400 42.82300
H  47.64600 40.69700 41.91600
H  46.42400 41.10400 44.49900
H  48.00100 41.61400 44.81600
H  47.78000 39.92500 44.25300
H  45.06200 42.43200 40.61400
H  46.37400 41.28900 40.39800
H  47.75900 43.61100 39.88400
H  46.05100 44.19000 39.58500
H  53.89700 39.90900 42.68900
H  52.13500 39.83500 42.23700
H  52.60500 39.67700 43.87700
H  56.27400 43.97800 44.11700
H  56.14900 44.22700 42.40800
H  57.35700 43.10300 42.89200
H  54.47500 48.03300 42.95700
H  52.52000 49.43000 44.65700
H  55.62600 47.84000 44.70900
H  54.48400 47.16800 45.78800
H  54.44500 48.94600 45.47900
H  51.81300 49.66600 41.85000
H  53.63600 49.73000 42.00400
H  51.66900 51.79200 42.19500
H  53.37800 51.81500 42.67100
H  52.17500 51.66300 43.94100
H  47.70700 50.70700 43.76800
H  46.50300 50.46800 42.50000
H  48.11000 50.70300 42.17200
H  44.79900 45.50200 41.21000
H  42.46800 43.90400 44.31400
H  41.28400 44.20100 42.96500
H  41.87300 45.53900 43.95100
Mg 17.47100 51.45400 25.82000
C  19.21800 50.06100 28.59700
C  14.76100 52.16600 28.00800
C  15.60100 52.37600 23.24000
C  19.89500 50.12900 23.76700
N  16.98200 51.00500 28.04700
C  17.94700 50.65200 28.94400
C  17.52800 50.98500 30.40200
C  15.99200 51.47400 30.20300
C  15.81700 51.51000 28.64300
C  14.87700 50.57500 30.80000
C  18.41800 52.12800 30.98300
C  18.49300 52.12600 32.51300
H  17.47200 51.31700 33.24300
N  15.51700 52.28200 25.66900
C  14.59300 52.53600 26.67300
C  13.51500 53.33400 26.08700
C  13.72600 53.46000 24.66100
C  14.96600 52.66800 24.45700
C  12.35700 53.78800 26.99500
C  12.87500 54.09300 23.55500
O  13.19900 54.03300 22.35100
C  11.55600 54.74700 23.87900
N  17.64100 51.13500 23.80300
C  16.77700 51.64800 22.93200
C  17.16600 51.31700 21.55700
C  18.73900 50.97900 21.73600
C  18.78300 50.75300 23.21600
C  16.34400 50.15900 20.95600
C  19.70100 52.15500 21.23700
C  19.40400 53.51800 21.82900
N  19.21800 50.35200 26.04100
C  20.11300 49.95700 25.12700
C  21.21300 49.18600 25.75300
C  20.86800 49.28000 27.12400
C  19.70800 50.01600 27.20300
C  22.37000 48.46300 25.10600
C  21.33000 48.88400 28.41400
O  22.30900 48.33600 28.89100
C  20.22400 49.31700 29.40800
C  19.73800 48.14100 30.20700
O  19.13800 47.18000 29.85400
O  20.09800 48.28300 31.46700
C  19.64700 47.41000 32.54100
H  13.97100 52.36400 28.73500
H  15.10100 52.76900 22.35200
H  20.62800 49.86100 23.00400
H  17.62800 50.04400 30.94200
H  15.87600 52.49600 30.56400
H  14.27000 51.22400 31.43000
H  15.33600 49.73800 31.32700
H  14.26400 50.10900 30.02800
H  18.18200 53.11200 30.57900
H  19.45500 51.95400 30.69800
H  18.19500 53.14000 32.78000
H  19.51100 51.97300 32.87000
H  11.60100 54.38400 26.48400
H  12.84100 54.37700 27.77300
H  11.94100 52.89800 27.46700
H  10.79000 54.08700 24.28700
H  11.25200 55.29200 22.98600
H  11.68700 55.65000 24.47600
H  17.05100 52.22600 20.96700
H  18.98000 50.03500 21.24700
H  15.60500 50.62400 20.30300
H  15.80600 49.49000 21.62800
H  16.97200 49.57400 20.28400
H  19.75600 52.05800 20.15300
H  20.62700 51.75600 21.65000
H  20.32200 53.85100 22.31200
H  18.44400 53.55400 22.34400
H  19.40400 54.24800 21.01900
H  21.99400 48.05800 24.16700
H  22.60100 47.59400 25.72300
H  23.18300 49.18900 25.08200
H  20.68100 50.06500 30.05500
H  19.45100 48.06300 33.39200
H  20.37300 46.63300 32.78000
H  18.75300 46.81300 32.36100

