158

Mg 27.31200 49.99200 26.71700
C  25.07600 50.73500 29.25100
C  29.89600 49.57000 28.96000
C  29.38700 49.45200 24.15900
C  24.78600 50.90400 24.27700
N  27.42800 50.18400 28.83300
C  26.37400 50.32200 29.68100
C  26.83100 50.13400 31.15600
C  28.43300 49.91700 31.10400
C  28.60600 50.03500 29.53800
C  29.30700 50.89800 31.86900
C  26.12700 48.88500 31.77500
C  25.45600 49.05100 33.18300
H  26.36400 49.08700 34.40100
N  29.34600 49.58000 26.49900
C  30.20600 49.37200 27.57300
C  31.47900 49.01200 27.08500
C  31.34000 48.91800 25.68300
C  30.01100 49.33200 25.37000
C  32.61900 48.68100 27.98800
C  32.32400 48.48700 24.60400
O  32.06900 48.43200 23.39800
C  33.78300 48.30900 24.93200
N  27.07600 50.24200 24.47000
C  28.09100 49.83300 23.68100
C  27.65200 49.73100 22.22200
C  26.13800 50.05000 22.33400
C  25.97700 50.42400 23.82500
C  28.40100 50.66400 21.16300
C  25.19600 48.84500 21.90200
C  24.65800 47.88700 23.00300
N  25.37600 50.82400 26.67200
C  24.50000 51.16800 25.66900
C  23.24700 51.63100 26.30000
C  23.45300 51.55100 27.68500
C  24.71400 50.98200 27.84100
C  22.07200 52.08000 25.49500
C  22.83800 51.72600 28.97600
O  21.78400 52.25100 29.30200
C  23.87200 51.18600 29.99400
C  24.16100 52.36900 30.97800
O  24.60200 53.40600 30.50800
O  23.96000 52.03100 32.24200
C  24.35100 53.03400 33.19800
H  30.68600 49.50900 29.71100
H  30.01900 49.19800 23.30600
H  23.97800 50.95600 23.54500
H  26.45600 51.03100 31.64900
H  28.76700 48.90800 31.34700
H  29.54500 50.60800 32.89200
H  28.79500 51.85700 31.94600
H  30.30000 51.00200 31.43200
H  26.86700 48.09500 31.90300
H  25.29900 48.61500 31.11900
H  24.70500 48.28000 33.35700
H  24.87400 49.97200 33.13900
H  32.50500 47.79500 28.61100
H  32.87400 49.54500 28.60100
H  33.54100 48.61000 27.41100
H  34.35800 48.06300 24.03900
H  33.81300 47.48600 25.64500
H  34.32900 49.13200 25.39500
H  27.85900 48.69800 21.94100
H  25.76100 50.79100 21.62900
H  29.29500 51.06600 21.63900
H  27.78300 51.43000 20.69400
H  28.84400 49.98800 20.43200
H  25.76800 48.28800 21.16000
H  24.33100 49.26200 21.38700
H  25.35000 47.87900 23.84500
H  24.77500 46.85100 22.68400
H  23.59900 48.05400 23.20200
H  22.03000 51.46600 24.59600
H  22.13800 53.13300 25.21900
H  21.18800 51.94700 26.12000
H  23.49200 50.37200 30.61200
H  25.05400 53.77500 32.82000
H  24.87700 52.64000 34.06800
H  23.53100 53.64400 33.57800
Mg 1.35700 42.04600 24.83800
C  2.93500 41.78100 27.98500
C  -1.50300 40.75200 26.29200
C  0.19700 41.58000 21.72600
C  4.52000 42.66200 23.44600
N  0.79200 41.46500 26.87800
C  1.60700 41.52500 28.06400
C  0.74800 41.25800 29.34700
C  -0.65000 40.91900 28.74500
C  -0.46700 41.05700 27.20100
C  -1.12100 39.54000 29.13500
C  0.70700 42.50600 30.30800
C  1.17100 42.23900 31.76900
H  0.22300 42.56800 32.92600
N  -0.51800 41.48000 24.10600
C  -1.49800 40.89700 24.87200
C  -2.60500 40.44800 24.00100
C  -2.24600 40.92000 22.73100
C  -0.77600 41.39300 22.80000
C  -3.77200 39.72800 24.54400
C  -3.10200 40.89400 21.44800
O  -2.61900 41.23200 20.37500
C  -4.48900 40.36100 21.41600
N  2.23700 42.15600 22.84000
C  1.55400 41.95500 21.76100
C  2.32700 42.44100 20.48600
C  3.64000 42.99200 21.09700
C  3.47700 42.65600 22.58000
C  2.52100 41.37200 19.34400
C  3.84800 44.49800 20.92200
C  3.93200 45.07300 19.51900
N  3.36000 42.23000 25.49700
C  4.50200 42.47900 24.82200
C  5.63500 42.59000 25.79600
C  4.99600 42.35800 27.00100
C  3.63600 42.13000 26.79700
C  7.14800 42.95400 25.49500
C  5.36200 42.19700 28.45900
O  6.38400 42.30900 29.11100
C  3.96700 41.84900 29.12000
C  4.02900 40.65500 30.01400
O  3.80800 39.50000 29.76600
O  4.37900 41.05800 31.25900
C  4.63000 40.08700 32.31500
H  -2.40600 40.38900 26.78700
H  -0.19600 41.40200 20.72300
H  5.48800 42.86500 22.98300
H  1.25800 40.39300 29.77000
H  -1.39600 41.63100 29.09800
H  -2.06400 39.60600 29.67800
H  -0.45100 39.04900 29.84000
H  -1.22400 38.89800 28.25900
H  -0.28300 42.96000 30.35400
H  1.22200 43.35400 29.85700
H  1.96100 42.97000 31.94000
H  1.70000 41.29100 31.85800
H  -4.26600 39.12800 23.78100
H  -4.43700 40.46700 24.99000
H  -3.39200 38.91000 25.15600
H  -4.45700 39.29200 21.20800
H  -5.05200 40.95600 20.69700
H  -4.95400 40.60700 22.37200
H  1.81100 43.28000 20.01900
H  4.48100 42.38900 20.75500
H  2.09800 40.36700 19.37700
H  3.57900 41.29100 19.09700
H  2.15500 41.74500 18.38800
H  4.63900 44.81900 21.60100
H  2.96300 44.93900 21.38000
H  3.05100 45.68300 19.31600
H  4.14500 44.45000 18.65000
H  4.63600 45.90500 19.51300
H  7.66700 41.99600 25.47100
H  7.52200 43.54900 26.32900
H  7.32500 43.59800 24.63400
H  3.76400 42.71000 29.75700
H  3.74800 39.61900 32.75100
H  4.93700 40.63000 33.20900
H  5.43800 39.39600 32.07500

