158

Mg 24.59100 -5.88600 45.54600
C  26.98100 -3.63300 44.16600
C  22.18600 -4.41800 43.55400
C  22.67800 -8.50200 46.18600
C  27.11000 -7.14800 47.65600
N  24.65000 -4.33000 43.88000
C  25.69100 -3.51300 43.55100
C  25.28400 -2.50000 42.51500
C  23.73400 -2.53000 42.67800
C  23.44600 -3.82800 43.46000
C  23.03000 -1.39600 43.41500
C  25.83700 -2.80200 41.06600
C  26.46600 -1.67500 40.22000
H  26.05900 -1.73500 38.78800
N  22.65500 -6.45000 44.96400
C  21.80700 -5.65200 44.23500
C  20.55100 -6.37300 44.04500
C  20.69800 -7.58400 44.72900
C  22.03400 -7.56900 45.29700
C  19.34600 -6.01100 43.14500
C  19.66700 -8.75000 44.81500
O  18.55500 -8.52400 44.36300
C  19.94900 -10.16300 45.39800
N  24.92100 -7.67900 46.61900
C  23.97800 -8.62100 46.76000
C  24.44500 -9.79600 47.56700
C  25.82500 -9.31400 48.16800
C  26.02600 -7.92800 47.49500
C  23.53600 -10.55900 48.50600
C  27.03400 -10.30800 48.04200
C  27.84800 -10.40400 49.34600
N  26.63700 -5.47600 45.91300
C  27.46800 -5.99700 46.83800
C  28.79300 -5.34100 46.74200
C  28.65100 -4.45700 45.65800
C  27.34000 -4.58400 45.16500
C  30.06100 -5.70700 47.51600
C  29.33800 -3.39900 44.90100
O  30.47300 -2.91900 45.07700
C  28.27000 -2.85900 43.90100
C  28.05900 -1.36800 44.08600
O  27.38200 -0.86400 44.96400
O  28.68400 -0.63300 43.13900
C  28.47700 0.84000 43.23100
H  21.47200 -3.89700 42.91300
H  22.08200 -9.36900 46.47800
H  27.86600 -7.42200 48.39500
H  25.65900 -1.52800 42.83500
H  23.35500 -2.59900 41.65900
H  22.59900 -1.78600 44.33700
H  22.31600 -0.80300 42.84300
H  23.76500 -0.63800 43.68900
H  24.94900 -3.04900 40.48300
H  26.52500 -3.63900 41.18900
H  27.50700 -1.93600 40.40800
H  26.20300 -0.74700 40.72800
H  18.38500 -6.29500 43.57300
H  19.39000 -6.58700 42.22100
H  19.34700 -4.92100 43.15200
H  19.17500 -10.79800 44.96600
H  19.95600 -10.23100 46.48500
H  20.98300 -10.45200 45.21000
H  24.68500 -10.64200 46.92200
H  25.62900 -9.13300 49.22500
H  24.08400 -10.84200 49.40500
H  23.15600 -11.41800 47.95200
H  22.68200 -9.95500 48.81300
H  27.71600 -10.08100 47.22300
H  26.83300 -11.35900 47.83400
H  28.91300 -10.40200 49.11400
H  27.66700 -11.35700 49.84300
H  27.52500 -9.64300 50.05600
H  30.63200 -6.45500 46.96500
H  29.93900 -6.15800 48.50100
H  30.69200 -4.85400 47.76500
H  28.49200 -3.07700 42.85600
H  29.46200 1.30300 43.28800
H  27.81200 1.25300 43.98900
H  28.00600 1.23500 42.33000
Mg 47.48800 16.22400 28.05300
C  45.64600 15.76700 30.93000
C  50.01500 17.78400 29.80400
C  49.30000 16.50900 25.10200
C  44.78100 15.00600 26.21000
N  47.74700 16.81000 30.10600
C  46.90900 16.37100 31.11600
C  47.45900 16.80800 32.45500
C  48.64700 17.73900 32.10200
C  48.81800 17.51200 30.56900
C  48.59700 19.29400 32.41900
C  47.91700 15.69100 33.42900
C  48.40600 16.13200 34.83900
H  48.14900 17.59700 35.30200
N  49.37500 16.90700 27.55600
C  50.29400 17.43800 28.44700
C  51.55400 17.67700 27.79000
C  51.32600 17.39600 26.43800
C  49.92700 16.89200 26.27700
C  52.83800 18.11000 28.51500
C  52.30800 17.52600 25.27100
O  52.00900 17.36400 24.14500
C  53.75800 17.97300 25.59600
N  47.08200 15.79400 25.98400
C  47.98400 16.01800 24.93500
C  47.37400 15.68900 23.57200
C  46.03100 14.96300 24.02200
C  45.92900 15.23400 25.47600
C  47.09300 16.94100 22.65900
C  46.07300 13.40600 23.77600
C  44.93700 12.92100 22.88000
N  45.44700 15.81500 28.47500
C  44.51700 15.24100 27.61300
C  43.35300 14.83400 28.44200
C  43.72500 15.14100 29.71700
C  45.05200 15.66600 29.67300
C  42.08800 14.19500 27.93900
C  43.31000 15.02100 31.05500
O  42.29800 14.61600 31.54900
C  44.59300 15.37800 31.92400
C  44.30200 16.46100 32.93300
O  44.09900 17.66100 32.64100
O  44.44400 15.92200 34.20600
C  44.03200 16.74200 35.37300
H  50.79800 18.15400 30.46900
H  49.80800 16.75000 24.16600
H  43.97000 14.51900 25.66500
H  46.70900 17.43900 32.93200
H  49.59100 17.31800 32.44900
H  48.98800 19.82900 31.55300
H  49.15300 19.51900 33.32900
H  47.56800 19.60200 32.60600
H  48.64900 15.02900 32.96600
H  47.08700 14.98700 33.50000
H  49.45600 15.84900 34.90500
H  47.88100 15.54400 35.59200
H  53.53100 17.31200 28.25000
H  52.72800 18.24600 29.59100
H  53.23000 19.04700 28.12000
H  53.92200 19.03000 25.80500
H  54.27900 17.77600 24.65900
H  54.33100 17.28100 26.21400
H  48.04900 15.02900 23.02800
H  45.26600 15.50800 23.47000
H  47.83800 17.73600 22.66700
H  46.14900 17.43000 22.90000
H  46.99300 16.61400 21.62400
H  45.95300 12.92800 24.74800
H  47.01700 13.07100 23.34600
H  44.14400 12.35500 23.37000
H  45.33900 12.22000 22.15000
H  44.43700 13.73500 22.35400
H  42.10700 13.10600 27.98500
H  41.94200 14.55800 26.92200
H  41.21600 14.34200 28.57700
H  44.98200 14.50000 32.43900
H  43.17200 17.37700 35.16300
H  44.84200 17.31600 35.82300
H  43.74000 16.03800 36.15200

