158

Mg 40.69300 10.57900 30.04500
C  42.83400 12.01500 32.56100
C  38.97900 9.05900 32.64900
C  38.87100 9.01300 27.80900
C  43.18500 11.25800 27.76400
N  41.05600 10.53100 32.39500
C  41.77400 11.32700 33.17800
C  41.42900 11.19800 34.64000
C  40.23600 10.15900 34.66800
C  40.08500 9.86500 33.16700
C  40.54900 8.89500 35.48000
C  41.18400 12.60200 35.31300
C  41.54800 12.63300 36.82000
H  40.47300 13.20000 37.75000
N  39.07900 9.37500 30.19100
C  38.53500 8.82500 31.33500
C  37.39700 8.02200 31.02700
C  37.22000 8.07000 29.59200
C  38.39400 8.89800 29.13300
C  36.60600 7.15700 31.97600
C  36.22500 7.45600 28.66100
O  36.29600 7.58600 27.42100
C  35.13700 6.64500 29.21400
N  41.02000 10.10600 28.04000
C  40.06000 9.48500 27.29400
C  40.56000 9.35000 25.84000
C  41.99700 9.96000 25.91100
C  42.07700 10.48100 27.32400
C  40.50000 7.96400 25.22400
C  42.27300 11.11200 24.81300
C  41.74400 12.53300 25.14700
N  42.51300 11.56500 30.09000
C  43.36700 11.79000 29.04700
C  44.48100 12.56600 29.50600
C  44.30600 12.77300 30.88300
C  43.13400 12.03100 31.15100
C  45.64900 12.96300 28.63300
C  44.88200 13.27500 32.06300
O  45.99000 13.72900 32.27100
C  43.81700 12.96900 33.25900
C  44.51800 12.23200 34.40600
O  44.97900 11.06500 34.42700
O  44.73200 13.10700 35.48200
C  45.50700 12.66200 36.65700
H  38.35200 8.64700 33.44300
H  38.28300 8.48100 27.05900
H  44.06200 11.30000 27.11500
H  42.34500 10.78400 35.06200
H  39.37900 10.71900 35.04200
H  40.50600 8.06600 34.77400
H  39.80300 8.76500 36.26500
H  41.52800 8.97400 35.95200
H  40.14600 12.86600 35.11300
H  41.70800 13.47600 34.92700
H  42.46000 13.21000 36.97400
H  41.84500 11.64300 37.16600
H  36.77100 6.13500 31.63300
H  35.52400 7.26500 31.91300
H  36.92900 7.23800 33.01400
H  34.44400 6.31300 28.44200
H  34.52200 7.32600 29.80300
H  35.50200 5.79100 29.78400
H  39.91500 9.99700 25.24400
H  42.81900 9.26700 25.73300
H  39.83600 8.02400 24.36100
H  40.26200 7.16000 25.92000
H  41.46800 7.75400 24.77000
H  41.74800 10.83100 23.90000
H  43.35900 11.02100 24.81100
H  41.27200 12.95100 24.25800
H  42.47900 13.23000 25.54800
H  41.00800 12.49800 25.95000
H  46.45300 13.11300 29.35300
H  45.34000 13.83100 28.05000
H  45.99800 12.07800 28.10100
H  43.37500 13.90900 33.59000
H  44.97100 12.78100 37.59900
H  46.37800 13.31700 36.66900
H  45.86000 11.64200 36.50200
Mg -12.14700 37.77800 42.22400
C  -10.14300 34.89500 41.33900
C  -9.90700 39.61700 40.49200
C  -14.26300 40.22100 42.59600
C  -14.57600 35.50400 43.37100
N  -10.30300 37.20800 40.98400
C  -9.58700 36.06400 40.90900
C  -8.38600 36.22200 39.98300
C  -8.20300 37.78500 40.11100
C  -9.56300 38.24500 40.61800
C  -7.02300 38.18700 41.03500
C  -8.64200 35.60100 38.57900
C  -7.41500 35.20800 37.80300
H  -6.92600 36.05200 36.65300
N  -12.11700 39.67900 41.60800
C  -11.05800 40.30100 40.94300
C  -11.25300 41.76300 40.95400
C  -12.53700 41.96000 41.62500
C  -13.01800 40.59300 41.95700
C  -10.34800 42.78300 40.38000
C  -13.21200 43.31100 41.66500
O  -12.67400 44.31800 41.19700
C  -14.57900 43.47400 42.12100
N  -14.11000 37.92800 43.10300
C  -14.83600 39.01200 42.99400
C  -16.29100 38.91800 43.48400
C  -16.34000 37.40700 43.77100
C  -14.95600 36.86900 43.36300
C  -16.63400 40.04600 44.59400
C  -17.51100 36.66600 43.03900
C  -18.46200 35.79500 43.98200
N  -12.38600 35.56400 42.44200
C  -13.39100 34.84400 42.99000
C  -13.01400 33.41300 43.00700
C  -11.79400 33.34100 42.32300
C  -11.47600 34.70500 41.94700
C  -13.57400 32.24800 43.90300
C  -10.66800 32.45000 41.90900
O  -10.55000 31.24500 41.97900
C  -9.56500 33.40500 41.16900
C  -8.24700 33.28600 41.87100
O  -7.24700 32.98300 41.30600
O  -8.34500 33.44600 43.25600
C  -7.14100 33.08600 44.11000
H  -9.09400 40.28000 40.19000
H  -14.87000 41.10400 42.80400
H  -15.32000 34.77500 43.69800
H  -7.50300 35.77000 40.43400
H  -8.00600 38.14000 39.09900
H  -7.21500 38.93900 41.80000
H  -6.36900 38.70300 40.33200
H  -6.55100 37.30500 41.46800
H  -9.09300 36.40800 38.00100
H  -9.20500 34.66900 38.61500
H  -7.51000 34.18900 37.42600
H  -6.52300 35.20100 38.43000
H  -10.73700 43.27700 39.49000
H  -9.42400 42.29400 40.07000
H  -10.18600 43.57300 41.11400
H  -14.93800 44.46900 41.85800
H  -14.50200 43.27900 43.19100
H  -15.13100 42.71600 41.56600
H  -16.95500 39.07100 42.63300
H  -16.43500 37.31800 44.85300
H  -15.64000 40.45000 44.78400
H  -17.09200 39.53900 45.44400
H  -17.28900 40.83500 44.22400
H  -17.14400 35.95100 42.30300
H  -18.13000 37.38400 42.50000
H  -19.25900 36.33300 44.49500
H  -17.80100 35.38600 44.74600
H  -18.97000 34.97000 43.48300
H  -14.50500 32.58700 44.35800
H  -12.67500 31.95700 44.44500
H  -13.81600 31.39900 43.26400
H  -9.46800 32.99400 40.16400
H  -6.79400 32.19600 43.58500
H  -7.33500 32.91800 45.16900
H  -6.50200 33.96800 44.09500

