158

Mg -0.96900 17.81400 27.31800
C  -1.68900 15.66700 30.09800
C  -1.55200 20.45300 29.41300
C  -0.64100 19.79900 24.73500
C  -0.64400 14.95600 25.30200
N  -1.57800 18.01300 29.57100
C  -1.74000 17.05100 30.49600
C  -2.00400 17.68600 31.82700
C  -2.21200 19.15600 31.50400
C  -1.67200 19.22900 30.09200
C  -3.59400 19.73400 31.66900
C  -0.83300 17.53200 32.82000
C  -1.29100 16.81800 34.14800
H  -0.17800 16.57900 35.14300
N  -1.11100 19.82500 27.11400
C  -1.30300 20.78200 28.10200
C  -1.17400 22.15400 27.60000
C  -1.00800 21.99400 26.18800
C  -0.93700 20.54200 25.91700
C  -1.22300 23.39500 28.37700
C  -0.80700 23.03100 25.07300
O  -0.75400 22.76300 23.88200
C  -0.62300 24.46600 25.44300
N  -0.66700 17.40200 25.24700
C  -0.60600 18.44700 24.40600
C  -0.34300 17.92700 22.98100
C  -0.16000 16.39900 23.14200
C  -0.60000 16.20000 24.64200
C  -1.50900 18.40400 21.97300
C  1.31400 15.84600 22.93800
C  2.42000 16.31400 23.90600
N  -1.06200 15.77300 27.53900
C  -0.78800 14.76100 26.70200
C  -1.02900 13.52900 27.38200
C  -1.30700 13.79600 28.67900
C  -1.34600 15.24000 28.75500
C  -1.05300 12.16200 26.79600
C  -1.65300 13.18900 29.95100
O  -1.79300 12.02800 30.24100
C  -1.77800 14.38100 30.94700
C  -0.73800 14.17100 32.01300
O  0.39300 14.63800 31.98200
O  -1.33400 13.48100 32.99400
C  -0.55500 13.11700 34.15600
H  -1.79300 21.29900 30.06100
H  -0.53800 20.33800 23.79100
H  -0.47400 14.02500 24.75700
H  -2.89000 17.20900 32.24400
H  -1.58100 19.81200 32.10500
H  -3.98500 20.00700 30.68900
H  -3.52100 20.57800 32.35400
H  -4.31700 19.11800 32.20400
H  -0.44600 18.50300 33.12800
H  0.07500 17.08200 32.41900
H  -1.73500 15.86600 33.85600
H  -1.96300 17.44100 34.73700
H  -1.56200 23.25300 29.40300
H  -1.96500 24.04800 27.91600
H  -0.24700 23.87800 28.33400
H  -0.21000 24.94000 24.55300
H  0.10000 24.31700 26.24500
H  -1.50100 24.96100 25.85900
H  0.62600 18.25700 22.60600
H  -0.77900 15.85200 22.43100
H  -2.15900 17.62200 21.58100
H  -1.10100 19.12500 21.26400
H  -2.30500 18.88400 22.54200
H  1.66900 16.23600 21.98400
H  1.23600 14.75900 22.97500
H  1.91400 16.87300 24.69400
H  3.05200 17.09100 23.47600
H  3.00000 15.42200 24.14300
H  -0.50300 12.22000 25.85600
H  -2.07100 11.97800 26.45600
H  -0.77800 11.32900 27.44300
H  -2.75600 14.26000 31.41300
H  0.38300 13.67300 34.16600
H  -0.25600 12.06900 34.16300
H  -1.21000 13.43300 34.96800
Mg 34.85200 48.84900 26.22600
C  35.42100 46.73100 29.02000
C  34.05800 51.39700 28.29300
C  34.34900 50.82900 23.54100
C  35.94100 46.24600 24.21700
N  34.62300 49.06700 28.39400
C  34.96400 48.08500 29.34800
C  34.83200 48.62400 30.74500
C  34.10100 50.00600 30.48700
C  34.29700 50.24900 28.97900
C  32.61900 50.07800 30.94800
C  36.20900 48.65400 31.45600
C  36.25400 48.10600 32.92300
H  36.21600 49.18100 34.13900
N  34.28400 50.88300 25.96700
C  34.01000 51.77300 26.93900
C  33.67700 53.07400 26.43300
C  33.69400 52.88700 24.96900
C  34.12400 51.51300 24.73800
C  33.25800 54.34100 27.23400
C  33.42300 53.84500 23.83600
O  33.69400 53.62900 22.68900
C  32.99800 55.20900 24.17100
N  35.16000 48.55000 24.19300
C  34.76400 49.49500 23.28200
C  34.94300 48.96000 21.83400
C  35.77300 47.65500 22.02000
C  35.67200 47.46200 23.52100
C  33.67600 48.77700 21.03900
C  37.23000 47.80700 21.54500
C  37.68700 46.77300 20.51200
N  35.28800 46.81800 26.50200
C  35.74600 45.88600 25.59800
C  36.01400 44.49500 26.24500
C  36.04100 44.89600 27.62400
C  35.51800 46.27200 27.72000
C  36.45600 43.26100 25.58400
C  36.29500 44.47300 28.99100
O  36.66900 43.42300 29.37900
C  35.96400 45.69200 29.92200
C  34.84700 45.30100 30.89900
O  33.69800 44.96500 30.61900
O  35.42800 45.13000 32.17100
C  34.50700 44.86600 33.29800
H  33.81000 52.17400 29.02000
H  34.20200 51.31000 22.57200
H  36.52000 45.48900 23.68300
H  34.15100 48.09800 31.41500
H  34.67200 50.77100 31.01300
H  31.86300 50.34100 30.20800
H  32.68300 50.88200 31.68100
H  32.31700 49.20000 31.51900
H  36.54000 49.68500 31.58100
H  37.00700 48.20100 30.86700
H  37.12200 47.44600 32.91500
H  35.35000 47.50700 33.03200
H  34.14600 54.97000 27.29600
H  32.95200 54.18000 28.26700
H  32.40900 54.80500 26.73100
H  32.01800 55.30700 24.63900
H  32.82100 55.81400 23.28100
H  33.72300 55.77600 24.75500
H  35.47300 49.70900 21.24600
H  35.32100 46.77500 21.56300
H  33.83100 49.37700 20.14300
H  32.91300 49.14400 21.72500
H  33.45300 47.72400 20.86300
H  37.98200 47.86900 22.33200
H  37.33500 48.70700 20.94000
H  38.03500 47.20100 19.57100
H  36.92800 45.99600 20.42900
H  38.57700 46.25400 20.86900
H  36.98300 43.45100 24.64900
H  35.59100 42.61900 25.41500
H  37.16400 42.76900 26.25000
H  36.84500 45.90100 30.52900
H  34.25700 43.80800 33.37000
H  33.59300 45.44200 33.15600
H  35.05000 45.07400 34.22000

