158

Mg 1.63600 -1.10200 43.72500
C  4.87100 -0.28600 43.13100
C  0.71600 1.89900 42.26400
C  -1.57000 -2.29100 43.45300
C  2.59900 -4.26400 44.69000
N  2.71900 0.66900 42.79700
C  4.04600 0.75400 42.63800
C  4.50200 2.03400 41.83200
C  3.12200 2.76500 41.61600
C  2.09600 1.74400 42.25000
C  3.01200 4.24200 42.12500
C  5.30300 1.79300 40.52200
C  6.54100 2.67600 40.22000
H  6.87800 3.28100 38.88300
N  -0.17900 -0.21700 43.15000
C  -0.35500 1.04700 42.59500
C  -1.75200 1.32900 42.47800
C  -2.39300 0.08000 42.79700
C  -1.40300 -0.87600 43.20600
C  -2.29400 2.72500 42.14900
C  -3.94900 -0.05200 42.74900
O  -4.65300 0.89400 42.55900
C  -4.56700 -1.42600 42.81200
N  0.65500 -3.09400 43.98100
C  -0.66000 -3.30200 43.83400
C  -1.10200 -4.78400 44.09600
C  0.19600 -5.23100 44.74100
C  1.21900 -4.18500 44.44100
C  -2.44200 -5.01900 44.85300
C  0.81300 -6.66600 44.45800
C  -0.19200 -7.78300 44.18100
N  3.37800 -2.10200 43.97500
C  3.64700 -3.32400 44.44900
C  4.99400 -3.54600 44.75600
C  5.58600 -2.28700 44.25600
C  4.49400 -1.54800 43.69300
C  5.69000 -4.68000 45.36600
C  6.80800 -1.49600 43.94400
O  7.98200 -1.78500 44.12500
C  6.37300 -0.12900 43.20500
C  6.81900 1.07300 43.99700
O  6.24400 1.51800 44.99800
O  7.89200 1.69300 43.37700
C  8.47300 2.96600 43.88500
H  0.49900 2.88400 41.84700
H  -2.56200 -2.74300 43.39500
H  2.89600 -5.21200 45.14500
H  5.03700 2.74600 42.46000
H  2.85600 2.83300 40.56100
H  2.74600 4.78900 41.22000
H  3.98900 4.58300 42.46800
H  2.28500 4.25900 42.93700
H  4.63300 1.97100 39.68100
H  5.51000 0.73100 40.39000
H  7.34100 1.99700 40.51500
H  6.41100 3.45400 40.97200
H  -1.47800 3.44500 42.21800
H  -3.13200 3.11600 42.72700
H  -2.71700 2.76500 41.14600
H  -5.60000 -1.56900 42.49500
H  -4.37100 -1.71100 43.84500
H  -4.06500 -2.10000 42.11900
H  -1.15100 -5.11400 43.05800
H  -0.01600 -5.21000 45.81000
H  -2.19100 -5.34600 45.86300
H  -2.99200 -5.70700 44.21100
H  -3.06500 -4.14400 45.03700
H  1.33600 -6.94300 45.37300
H  1.54500 -6.49900 43.66800
H  -0.30000 -7.79800 43.09700
H  -1.11500 -7.73700 44.76000
H  0.23000 -8.75200 44.44500
H  4.98000 -5.42400 45.72800
H  6.33200 -4.41000 46.20500
H  6.24900 -5.13100 44.54600
H  6.81300 0.04200 42.22300
H  7.71200 3.69700 44.16000
H  9.17300 3.53800 43.27600
H  9.00900 2.81300 44.82200
Mg 28.16600 56.05300 40.60500
C  25.77900 53.60400 39.83700
C  30.69300 54.04900 39.38400
C  30.19300 58.78200 40.30000
C  25.41800 58.28900 41.18600
N  28.20000 54.14200 39.53500
C  27.12800 53.29000 39.50700
C  27.55100 51.91900 38.97800
C  29.10100 51.93300 39.15700
C  29.38400 53.42200 39.37200
C  29.62600 51.05700 40.27700
C  26.99200 51.59600 37.57500
C  26.66300 52.76300 36.67000
H  27.37000 52.85400 35.28000
N  30.20000 56.30000 40.06500
C  31.06400 55.36400 39.65900
C  32.44300 56.00700 39.59500
C  32.26300 57.31800 39.97300
C  30.82400 57.50400 40.16300
C  33.69600 55.29600 39.08300
C  33.42100 58.34400 40.10100
O  34.56000 57.93500 39.89000
C  33.27100 59.82600 40.42500
N  27.79100 58.17600 40.62800
C  28.83700 59.06300 40.48200
C  28.30100 60.49600 40.43400
C  26.80500 60.35100 40.72200
C  26.65500 58.83500 40.87000
C  29.07300 61.43000 41.40800
C  25.85300 61.06700 39.75300
C  24.61100 61.82100 40.33600
N  26.02200 55.94200 40.72600
C  25.00500 56.93300 40.98500
C  23.67700 56.32100 41.06700
C  23.95200 54.99800 40.61300
C  25.35800 54.79800 40.40500
C  22.34400 56.97100 41.33200
C  23.38700 53.63300 40.28500
O  22.28000 53.16600 40.37800
C  24.52800 52.69200 39.78400
C  24.49500 51.41200 40.49500
O  24.28600 50.27100 40.02600
O  25.02500 51.60000 41.75100
C  25.19000 50.38100 42.50800
H  31.55500 53.47700 39.03500
H  30.86200 59.64600 40.30500
H  24.60200 58.98900 41.37600
H  27.21100 51.21600 39.73900
H  29.61300 51.57700 38.26200
H  28.92600 51.05000 41.11200
H  30.57500 51.49500 40.58400
H  29.84500 50.02200 40.01500
H  26.13100 50.93300 37.65800
H  27.84300 50.99500 37.25500
H  27.00700 53.74400 36.99800
H  25.63200 52.85400 36.32900
H  33.89500 55.59400 38.05300
H  33.43500 54.24200 39.17000
H  34.61600 55.44800 39.64900
H  32.74500 60.00200 41.36300
H  32.82700 60.32000 39.56100
H  34.29200 60.17600 40.57300
H  28.41900 60.75400 39.38100
H  26.52900 60.71500 41.71100
H  29.74300 62.04300 40.80600
H  29.65900 60.87100 42.13800
H  28.36700 62.09300 41.90900
H  25.41400 60.37700 39.03200
H  26.47600 61.77900 39.21200
H  24.82400 62.89000 40.36100
H  24.48900 61.35500 41.31400
H  23.66100 61.61900 39.84100
H  21.89900 57.05700 40.34000
H  22.33100 57.91800 41.87100
H  21.79900 56.27100 41.96600
H  24.28500 52.49900 38.73900
H  25.77200 50.66700 43.38400
H  25.78400 49.63100 41.98400
H  24.27900 49.98400 42.95500

