158

Mg 48.12700 24.34100 28.30400
C  49.15000 26.48700 30.95600
C  47.53000 21.90600 30.80700
C  47.39700 22.14000 25.91200
C  49.50700 26.49900 26.08700
N  48.26900 24.22500 30.62900
C  48.68500 25.25200 31.49200
C  48.48200 24.89100 32.97600
C  48.00900 23.37300 32.90800
C  47.96900 23.13500 31.36900
C  48.90900 22.37500 33.68500
C  47.66500 25.91600 33.79900
C  48.19300 26.41800 35.14600
H  47.10500 26.65800 36.28200
N  47.51600 22.32300 28.36800
C  47.31300 21.53000 29.47600
C  46.63300 20.32300 28.98200
C  46.60800 20.37900 27.54600
C  47.20500 21.65800 27.23500
C  46.43700 19.20200 29.97900
C  46.14900 19.37700 26.54400
O  46.30900 19.52600 25.35500
C  45.61200 18.05500 27.01600
N  48.64300 24.20400 26.31900
C  48.05800 23.30900 25.49300
C  48.24300 23.72900 24.00700
C  48.70000 25.23000 24.15900
C  49.00200 25.30600 25.62500
C  49.15600 22.82000 23.17100
C  47.71400 26.29000 23.69900
C  46.38200 26.35200 24.43600
N  49.00300 26.20700 28.38500
C  49.55600 26.93700 27.37700
C  50.01000 28.18000 27.91400
C  49.81300 28.06800 29.35600
C  49.27300 26.77900 29.53100
C  50.72500 29.20900 27.22000
C  50.03100 28.72200 30.63000
O  50.43000 29.88100 30.90700
C  49.64700 27.72800 31.73200
C  50.83500 27.40800 32.44600
O  51.79200 26.74300 32.07900
O  50.65400 27.90500 33.73900
C  51.67200 27.46700 34.67800
H  47.44900 21.18000 31.61900
H  47.14300 21.54200 25.03500
H  49.92700 27.21500 25.37800
H  49.45800 24.91100 33.46200
H  46.99400 23.25200 33.28800
H  49.09800 21.60200 32.94000
H  48.33900 22.02100 34.54300
H  49.85600 22.74000 34.08300
H  46.69700 25.44500 33.96800
H  47.45400 26.79400 33.18800
H  48.59600 27.42700 35.05800
H  48.93900 25.72200 35.53000
H  46.91500 18.37100 29.46000
H  45.38600 19.10100 30.25100
H  46.91400 19.39400 30.94000
H  45.22300 17.48100 26.17500
H  44.76100 18.19100 27.68300
H  46.42900 17.48900 27.46300
H  47.22600 23.87900 23.64400
H  49.60300 25.49100 23.60500
H  50.10500 23.32600 22.99100
H  48.69000 22.65700 22.19900
H  49.46300 21.86700 23.60100
H  47.54200 26.19700 22.62700
H  48.15000 27.26900 23.89700
H  45.96600 25.41000 24.07800
H  45.85900 27.14000 23.89400
H  46.36000 26.43500 25.52300
H  50.68700 30.11800 27.82100
H  50.25600 29.46200 26.26900
H  51.74400 28.84400 27.09400
H  48.81200 28.23900 32.21000
H  51.49900 26.40100 34.83100
H  51.41800 27.91100 35.64100
H  52.65900 27.88800 34.49000
Mg 49.64800 34.45100 26.63200
C  47.42600 33.70900 29.35600
C  50.40900 37.33800 28.14900
C  51.25400 35.23900 23.94600
C  48.28400 31.52500 25.06900
N  48.94300 35.34000 28.60200
C  48.19700 34.83400 29.58600
C  48.14300 35.77900 30.82500
C  48.96600 37.03100 30.29600
C  49.42900 36.55100 28.92700
C  48.21500 38.35900 30.21000
C  48.70900 35.26200 32.22700
C  47.77000 35.37900 33.41600
H  48.18500 36.49100 34.40300
N  50.65400 36.15000 26.08100
C  50.92100 37.21000 26.83900
C  51.74900 38.16100 26.07900
C  52.09600 37.45700 24.84700
C  51.29400 36.22600 24.89700
C  52.26500 39.49200 26.64600
C  53.12700 37.83400 23.69400
O  53.18000 37.11700 22.67600
C  53.98800 39.14700 23.83800
N  49.80200 33.42000 24.85500
C  50.65500 33.97200 23.91900
C  50.65600 33.15500 22.58300
C  49.89300 31.85100 23.04800
C  49.32400 32.23200 24.45000
C  50.10700 33.97100 21.37500
C  50.90500 30.61300 23.27400
C  50.71400 29.35900 22.39300
N  48.21000 32.87000 27.06800
C  47.76400 31.79200 26.35000
C  46.71600 31.07000 27.13800
C  46.49600 31.91100 28.23100
C  47.45700 32.86800 28.21500
C  46.09000 29.78300 26.73100
C  45.72500 31.95000 29.47300
O  44.75900 31.29300 29.81500
C  46.36500 33.09900 30.31600
C  46.79600 32.40000 31.58500
O  47.79200 31.75600 31.78800
O  45.83200 32.71900 32.50300
C  45.89700 31.92800 33.73700
H  50.65500 38.20800 28.76100
H  51.86000 35.37300 23.04700
H  47.91800 30.62800 24.56600
H  47.12100 36.13100 30.96500
H  49.87300 37.11300 30.89500
H  48.80200 39.08600 30.76900
H  47.28500 38.39400 30.77700
H  48.04000 38.67900 29.18300
H  49.60300 35.85000 32.43100
H  49.10800 34.24800 32.19400
H  47.90100 34.44700 33.96400
H  46.72900 35.55000 33.13800
H  53.33900 39.51200 26.82900
H  51.80000 39.73000 27.60300
H  52.03100 40.36900 26.04200
H  53.47200 40.10700 23.84300
H  54.69400 39.05200 23.01400
H  54.42900 38.97600 24.82000
H  51.65700 32.79100 22.35100
H  49.10600 31.52200 22.36900
H  49.21500 33.43600 21.04800
H  50.86300 33.99000 20.59100
H  49.86400 34.99600 21.65600
H  50.75000 30.25600 24.29300
H  51.97100 30.82400 23.19200
H  51.64900 28.91200 22.05600
H  50.15200 29.55700 21.48000
H  50.16700 28.61600 22.97300
H  46.89000 29.04300 26.72500
H  45.52100 29.80300 25.80200
H  45.43900 29.46200 27.54300
H  45.59200 33.82000 30.58100
H  46.60900 31.10800 33.82700
H  44.93000 31.50000 33.99900
H  46.17200 32.65600 34.50100

