158

Mg 35.91400 48.95400 25.24300
C  36.28900 47.14700 28.07300
C  34.48000 51.53000 26.92400
C  35.26900 50.52500 22.23900
C  37.08800 46.30700 23.31200
N  35.46700 49.23300 27.29400
C  35.76000 48.38900 28.36500
C  35.28600 48.94300 29.68500
C  34.56900 50.27100 29.22300
C  34.81900 50.38000 27.70800
C  33.11900 50.43800 29.76400
C  36.48600 49.11600 30.66400
C  36.25000 48.55600 32.08100
H  34.79600 48.43600 32.59100
N  34.96300 50.76900 24.68900
C  34.52500 51.71600 25.54100
C  34.03000 52.85800 24.82300
C  34.21600 52.56100 23.44600
C  34.84300 51.25800 23.41400
C  33.44700 54.17600 25.45000
C  34.02400 53.41800 22.23600
O  34.32000 53.13500 21.07700
C  33.27400 54.74900 22.41900
N  36.10400 48.50600 23.00200
C  35.84900 49.32100 22.06000
C  36.09300 48.73700 20.63400
C  36.67900 47.42700 20.97600
C  36.58300 47.32500 22.50600
C  34.92700 48.63000 19.60100
C  38.19200 47.25800 20.52100
C  39.33000 47.71200 21.36000
N  36.51600 47.09000 25.58600
C  37.05600 46.14500 24.72500
C  37.35200 44.94200 25.53300
C  37.11300 45.32500 26.81600
C  36.59600 46.59200 26.80300
C  37.94500 43.68600 25.14400
C  37.08100 44.84500 28.22300
O  37.31200 43.75800 28.74500
C  36.63700 46.07600 29.07100
C  35.40400 45.65300 29.86700
O  34.19200 45.76800 29.56400
O  35.84100 44.98600 30.94400
C  34.87400 44.34500 31.76600
H  34.08900 52.40300 27.45200
H  35.10300 50.99200 21.26600
H  37.63900 45.53700 22.76800
H  34.51900 48.34500 30.17700
H  35.14000 51.13200 29.57100
H  32.80600 49.46600 30.14700
H  32.48400 50.61300 28.89500
H  33.08900 51.19300 30.55000
H  36.85700 50.14100 30.67400
H  37.27900 48.49800 30.24300
H  36.78500 49.22300 32.75800
H  36.74100 47.58500 32.02200
H  32.40300 53.95500 25.22500
H  33.86700 55.05600 24.96400
H  33.60200 54.33000 26.51800
H  33.93200 55.45000 22.93300
H  32.38100 54.38000 22.92400
H  32.94500 55.28500 21.52900
H  36.96900 49.23300 20.21600
H  36.13600 46.58500 20.54700
H  35.40000 48.66500 18.62000
H  34.21200 49.45300 19.61600
H  34.41300 47.67300 19.68500
H  38.36400 47.76700 19.57300
H  38.28700 46.18300 20.37200
H  39.02600 48.04300 22.35300
H  39.69500 48.54100 20.75400
H  40.14200 46.99000 21.45200
H  37.32700 42.83500 25.43000
H  38.97300 43.51500 25.46300
H  37.98200 43.74000 24.05600
H  37.43500 46.33300 29.76700
H  35.26600 44.30600 32.78200
H  34.77900 43.27400 31.58800
H  33.87700 44.78600 31.79000
Mg 6.30500 53.93600 40.53200
C  5.55700 50.57700 39.93000
C  9.64500 53.07100 39.62500
C  7.31400 57.09900 40.60700
C  3.12400 54.70200 41.24700
N  7.38900 52.07800 39.70000
C  6.83100 50.85400 39.51500
C  7.89900 49.82900 39.10700
C  9.23300 50.56400 39.43700
C  8.73100 52.05300 39.59300
C  9.86000 50.21400 40.80700
C  7.75700 49.29500 37.66400
C  7.48500 50.28400 36.57100
H  6.43500 49.88700 35.45900
N  8.25000 54.95300 40.13400
C  9.45100 54.42200 39.72500
C  10.47400 55.52200 39.66400
C  9.79800 56.70100 40.00700
C  8.36500 56.28300 40.36800
C  11.95000 55.43800 39.20700
C  10.39100 58.13200 39.96000
O  11.50100 58.28000 39.50800
C  9.75500 59.28500 40.47500
N  5.25700 55.67900 40.77400
C  5.86500 56.89400 40.73800
C  4.98100 58.11800 40.96700
C  3.64500 57.28800 41.29900
C  3.97100 55.82600 41.05500
C  5.40800 59.05300 42.16000
C  2.40500 57.72100 40.47900
C  2.15300 57.23400 39.02400
N  4.63000 52.93400 40.61000
C  3.37000 53.30800 40.97300
C  2.51100 52.14900 41.16400
C  3.37300 51.06800 40.77500
C  4.61900 51.59600 40.42300
C  1.17800 52.07700 41.80600
C  3.42800 49.62100 40.64700
O  2.55300 48.82100 40.89300
C  4.83000 49.26000 40.10800
C  4.65600 48.54900 38.84600
O  4.13100 49.02900 37.86000
O  4.96500 47.19000 38.88900
C  4.25700 46.23400 38.04900
H  10.67000 52.78500 39.37900
H  7.57600 58.15900 40.57800
H  2.10500 54.96700 41.53600
H  7.72400 48.90700 39.66200
H  9.94800 50.46600 38.62100
H  9.28200 49.32300 41.05400
H  9.72300 51.01500 41.53300
H  10.87100 49.80800 40.80800
H  7.16200 48.38200 37.63500
H  8.72100 48.86500 37.39400
H  8.42700 50.38100 36.03200
H  7.19600 51.28400 36.89500
H  12.61300 55.88500 39.94800
H  11.95300 55.77800 38.17100
H  12.30000 54.40600 39.21600
H  10.54700 59.98400 40.74500
H  9.25400 59.15200 41.43300
H  9.06400 59.69000 39.73500
H  4.80400 58.69100 40.05600
H  3.38100 57.21400 42.35400
H  4.58600 59.19800 42.86200
H  5.62700 59.99100 41.65100
H  6.23700 58.59500 42.70000
H  2.35600 58.81000 40.50300
H  1.48700 57.46100 41.00500
H  2.43300 57.89000 38.20000
H  1.09500 56.99700 39.13500
H  2.69000 56.30300 38.84100
H  0.64500 53.02600 41.86700
H  1.18100 51.64500 42.80600
H  0.63200 51.46400 41.08900
H  5.30400 48.54800 40.78400
H  4.25300 45.24300 38.50400
H  4.72600 46.22000 37.06600
H  3.21200 46.51600 37.92000

