158

Mg 30.79500 57.97300 38.42900
C  28.07100 55.97100 37.40100
C  32.68500 55.19700 38.17000
C  33.28400 59.94200 39.38300
C  28.72800 60.73700 38.25000
N  30.41300 55.84900 37.65200
C  29.23000 55.29000 37.35500
C  29.41700 53.78700 37.00000
C  30.92400 53.59500 37.24300
C  31.36600 54.93700 37.78800
C  31.39800 52.43000 38.19500
C  29.00600 53.39000 35.55400
C  29.48500 54.43700 34.46500
H  28.36600 54.79600 33.46000
N  32.75700 57.59500 38.79400
C  33.39300 56.39300 38.62100
C  34.73600 56.52800 38.98600
C  34.99900 57.88200 39.27500
C  33.68100 58.57900 39.16800
C  35.75100 55.39500 38.88600
C  36.33900 58.42800 39.51600
O  37.35400 57.76700 39.25100
C  36.61600 59.81500 40.20000
N  30.95700 60.05900 38.87800
C  32.08900 60.66800 39.31100
C  31.98900 62.24800 39.33700
C  30.55100 62.44900 39.02300
C  30.03600 61.03200 38.60100
C  32.67000 63.00800 40.50300
C  30.15300 63.69300 38.19500
C  29.06300 64.66800 38.71900
N  28.79800 58.32700 38.00500
C  28.08000 59.54100 37.98200
C  26.67700 59.25600 37.64400
C  26.58500 57.86500 37.51800
C  27.90900 57.34700 37.71300
C  25.54400 60.30000 37.55300
C  25.70500 56.80000 37.28100
O  24.47800 56.90700 37.26000
C  26.53200 55.58800 37.18600
C  25.99800 54.48200 38.12400
O  26.51000 54.15100 39.14000
O  24.91400 53.91700 37.46000
C  24.36800 52.73500 38.05700
H  33.24900 54.26200 38.19000
H  34.08000 60.62300 39.69200
H  28.00700 61.55100 38.34000
H  28.68900 53.22000 37.57800
H  31.33600 53.44200 36.24600
H  32.15200 51.78100 37.75000
H  30.57200 51.76200 38.44000
H  31.72900 52.79600 39.16700
H  27.93400 53.20000 35.60100
H  29.41600 52.39400 35.38900
H  30.26800 53.85200 33.98100
H  29.99100 55.31200 34.87400
H  36.38200 55.36200 39.77500
H  36.45700 55.73200 38.12700
H  35.35200 54.41600 38.62200
H  37.53100 59.80000 40.79300
H  35.84100 60.09200 40.91400
H  36.71500 60.49400 39.35300
H  32.53700 62.59300 38.46100
H  30.02800 62.61000 39.96600
H  33.21100 62.27700 41.10400
H  31.84300 63.37800 41.10900
H  33.38400 63.79400 40.26100
H  29.84400 63.33900 37.21100
H  31.05500 64.29700 38.09800
H  29.56800 65.29000 39.45700
H  28.17000 64.13300 39.04300
H  28.59600 65.22700 37.90800
H  24.65900 59.81100 37.14600
H  25.81500 61.02300 36.78400
H  25.40000 60.83800 38.49100
H  26.48100 55.14600 36.19100
H  25.17200 52.16700 38.52500
H  23.88800 52.19600 37.24000
H  23.62100 52.93600 38.82500
Mg 0.20400 44.03100 25.67000
C  1.93300 43.74200 28.77500
C  -2.67100 43.28200 27.58000
C  -1.31400 43.58400 22.86600
C  3.28600 44.30800 24.08800
N  -0.29900 43.75000 27.97600
C  0.57100 43.69100 29.04300
C  -0.16100 43.56900 30.34400
C  -1.66200 43.27200 29.94100
C  -1.55700 43.49400 28.37700
C  -2.26600 41.92100 30.32800
C  0.01800 44.93500 31.19600
C  0.33000 44.62500 32.70000
H  -0.33900 43.46800 33.42800
N  -1.77800 43.72800 25.26800
C  -2.78600 43.37100 26.16000
C  -3.96500 43.21100 25.42400
C  -3.70000 43.46500 24.06500
C  -2.17000 43.54200 23.96500
C  -5.30100 42.90900 26.04000
C  -4.55600 43.51100 22.78000
O  -4.12200 43.74000 21.67400
C  -6.07300 43.55100 22.91400
N  0.94600 43.91100 23.82400
C  0.03600 43.89000 22.78600
C  0.76000 43.67100 21.42800
C  2.21300 44.13400 21.83600
C  2.17300 44.27900 23.34000
C  0.69800 42.19900 21.00700
C  2.73900 45.35800 21.09900
C  2.86500 46.72900 21.75000
N  2.27300 44.02400 26.24400
C  3.35200 44.21300 25.48300
C  4.51900 44.29900 26.38500
C  4.02200 43.95100 27.68500
C  2.61000 43.91300 27.53700
C  5.92900 44.66300 25.98600
C  4.36600 43.85200 29.10800
O  5.44800 43.83900 29.67100
C  3.01400 43.64800 29.80900
C  3.08300 42.53100 30.77100
O  2.71300 41.35000 30.62500
O  3.51200 43.01400 31.97000
C  3.63500 42.10900 33.12800
H  -3.54700 42.98000 28.15700
H  -1.67900 43.48700 21.84200
H  4.22200 44.38800 23.53000
H  0.24500 42.68300 30.83300
H  -2.27900 44.07700 30.34000
H  -2.16300 41.19600 29.52100
H  -3.29600 42.07000 30.65200
H  -1.75500 41.59400 31.23400
H  -0.87500 45.55700 31.25900
H  0.82000 45.60500 30.88800
H  0.11600 45.53400 33.26200
H  1.39500 44.46100 32.86100
H  -6.10200 43.63700 25.91400
H  -5.15400 42.59600 27.07400
H  -5.67100 42.01600 25.53700
H  -6.55600 42.58200 23.04100
H  -6.39300 43.91900 21.93900
H  -6.34700 44.27700 23.68000
H  0.36800 44.30500 20.63200
H  2.85700 43.29000 21.58700
H  0.42600 41.61600 21.88700
H  1.55200 41.87000 20.41500
H  -0.24800 42.04100 20.48800
H  2.09400 45.57000 20.24700
H  3.68700 45.04400 20.66200
H  2.34400 46.64000 22.70300
H  2.29300 47.42200 21.13300
H  3.91500 47.01100 21.82900
H  6.42400 44.51300 26.94500
H  6.10900 45.71500 25.76500
H  6.23600 44.00500 25.17200
H  3.03200 44.52000 30.46300
H  4.68400 41.81300 33.12200
H  2.91300 41.29900 33.22700
H  3.51200 42.71000 34.02900

