158

Mg 24.96300 -4.20900 45.45200
C  26.55200 -1.59000 43.78900
C  22.32100 -3.75000 43.27700
C  23.97800 -7.27900 46.28200
C  28.07200 -4.89100 47.22200
N  24.51100 -2.76800 43.78600
C  25.27400 -1.82000 43.28700
C  24.61600 -1.10700 42.11700
C  23.12100 -1.61600 42.15100
C  23.29400 -2.82400 43.12300
C  21.97200 -0.71400 42.73100
C  25.38300 -1.45300 40.76000
C  25.73100 -0.26200 39.78100
H  25.88500 -0.47400 38.29100
N  23.28700 -5.25500 45.05500
C  22.29700 -4.87400 44.15500
C  21.20200 -5.83400 44.24700
C  21.61200 -6.85600 45.06200
C  22.99600 -6.53300 45.53600
C  19.82000 -5.64700 43.54200
C  20.72500 -8.01400 45.46900
O  19.55200 -8.17700 44.94500
C  21.15200 -8.98800 46.47400
N  25.91800 -5.90200 46.65500
C  25.23600 -7.02500 46.79100
C  26.03100 -8.18200 47.43200
C  27.36100 -7.36800 47.75700
C  27.12200 -5.93300 47.21100
C  25.39000 -8.83500 48.65700
C  28.63100 -7.99600 47.08700
C  29.77400 -8.43200 47.95400
N  26.90500 -3.29400 45.64600
C  27.99800 -3.70100 46.38700
C  29.10200 -2.84200 46.03100
C  28.50200 -1.95100 45.11000
C  27.25500 -2.34800 44.79700
C  30.43900 -2.57300 46.72300
C  28.75600 -0.83200 44.25300
O  29.75000 -0.11900 44.22400
C  27.51900 -0.55300 43.37000
C  27.03700 0.82100 43.76700
O  26.22900 1.10600 44.64700
O  27.68200 1.76100 42.94000
C  27.07700 3.10200 42.91500
H  21.52100 -3.65300 42.54100
H  23.67900 -8.31000 46.48200
H  29.00100 -5.32200 47.60100
H  24.68800 -0.04000 42.32900
H  22.62900 -1.97400 41.24600
H  22.29900 0.24100 42.32000
H  21.95800 -0.71300 43.82000
H  21.02400 -0.95100 42.24700
H  24.76600 -2.13100 40.17000
H  26.27200 -2.02700 41.02000
H  26.67200 0.15600 40.13800
H  24.91000 0.44600 39.88900
H  19.59100 -6.53500 42.95200
H  19.98000 -4.87700 42.78800
H  18.97000 -5.35600 44.15900
H  22.03100 -9.58500 46.23000
H  20.27700 -9.63700 46.51000
H  21.32000 -8.57400 47.46800
H  26.26200 -8.91900 46.66200
H  27.50800 -7.13100 48.81100
H  24.33700 -8.55800 48.61100
H  25.97800 -8.51400 49.51700
H  25.47700 -9.91900 48.58000
H  29.01300 -7.27300 46.36700
H  28.21100 -8.82300 46.51400
H  29.47000 -8.56900 48.99200
H  30.53900 -7.65600 47.96800
H  30.13900 -9.41300 47.65000
H  31.11100 -3.43000 46.69800
H  30.27700 -2.14200 47.71000
H  30.87700 -1.71700 46.20900
H  27.90800 -0.52100 42.35300
H  26.02400 3.02900 42.64300
H  27.49500 3.75600 42.15000
H  27.17000 3.63600 43.86000
Mg -5.79800 25.40400 26.14800
C  -4.40300 26.73700 29.12100
C  -7.45000 23.08200 27.93100
C  -6.32000 23.85100 23.27800
C  -3.42600 27.49700 24.34200
N  -5.74100 24.93500 28.21200
C  -5.33600 25.66800 29.24300
C  -5.89300 25.13800 30.56800
C  -6.63900 23.88600 30.22600
C  -6.64900 23.95100 28.71200
C  -5.89700 22.57600 30.68500
C  -6.73200 26.24800 31.29300
C  -6.38600 26.39800 32.82100
H  -5.68500 25.26400 33.52700
N  -6.93500 23.79100 25.63100
C  -7.57400 22.99200 26.52600
C  -8.36600 22.09900 25.78000
C  -8.13900 22.32300 24.39400
C  -7.12400 23.39300 24.36000
C  -9.28400 21.02800 26.41100
C  -8.78700 21.70500 23.21700
O  -8.59000 22.09600 22.06500
C  -9.60200 20.39600 23.32000
N  -4.87400 25.57700 24.08000
C  -5.32800 24.78800 23.12700
C  -4.63800 25.06700 21.73200
C  -3.88800 26.38400 22.02100
C  -4.04200 26.47800 23.54200
C  -3.85400 23.80300 21.23400
C  -4.52200 27.60700 21.35900
C  -3.95700 27.95000 19.96100
N  -4.36100 26.94100 26.60000
C  -3.43700 27.63700 25.75700
C  -2.58600 28.47700 26.57000
C  -2.95900 28.15300 27.85100
C  -3.97700 27.23500 27.85600
C  -1.69400 29.45400 26.03500
C  -2.65700 28.42300 29.33600
O  -1.84500 29.19100 29.84000
C  -3.62000 27.41900 30.19700
C  -2.70700 26.57400 30.89000
O  -2.10100 25.56500 30.51100
O  -2.51800 27.20900 32.13800
C  -1.47300 26.63900 32.97200
H  -8.13100 22.49800 28.55300
H  -6.44500 23.21100 22.40200
H  -2.68200 28.12100 23.84200
H  -5.04600 24.69700 31.09300
H  -7.66600 23.79900 30.58200
H  -5.34100 22.62400 31.62200
H  -5.08400 22.22700 30.04900
H  -6.63500 21.77400 30.68300
H  -7.76900 25.91300 31.29900
H  -6.64100 27.21000 30.78800
H  -7.35300 26.53100 33.30500
H  -5.74300 27.23700 33.08700
H  -10.25400 21.05700 25.91500
H  -9.49500 21.21800 27.46300
H  -8.84500 20.03100 26.41100
H  -9.09200 19.76900 24.05200
H  -9.72800 19.82100 22.40300
H  -10.60600 20.72400 23.59000
H  -5.44600 25.22300 21.01700
H  -2.86400 26.24200 21.67700
H  -2.77900 23.98200 21.20800
H  -4.23900 23.55800 20.24400
H  -4.07700 22.94300 21.86500
H  -4.35100 28.47000 22.00300
H  -5.56100 27.50100 21.04700
H  -3.51200 27.09200 19.45600
H  -3.20500 28.69800 20.21400
H  -4.69500 28.48400 19.36200
H  -0.69800 29.45100 26.47700
H  -2.14000 30.44800 26.06600
H  -1.45200 29.33000 24.98000
H  -4.27300 27.99500 30.85300
H  -1.81700 26.38500 33.97500
H  -0.69300 27.35600 33.22800
H  -0.90100 25.80200 32.57100

