158

Mg 2.11100 -1.37200 46.42900
C  5.34000 -0.17300 45.45900
C  0.83900 1.07800 44.28900
C  -0.87900 -2.78200 46.70600
C  3.71500 -4.31700 47.51100
N  2.97000 0.25900 45.04500
C  4.28300 0.51400 44.88300
C  4.52500 1.64300 43.90800
C  3.03100 2.35200 43.87900
C  2.20500 1.20400 44.49100
C  2.75200 3.74000 44.65800
C  5.11100 1.25800 42.44800
C  6.33100 2.05500 41.97800
H  7.38100 1.31500 41.13800
N  0.21000 -0.82800 45.71500
C  -0.12500 0.11900 44.81500
C  -1.49700 0.18400 44.67300
C  -2.08300 -0.81200 45.46600
C  -0.94500 -1.50200 46.04600
C  -2.17200 1.12800 43.74200
C  -3.57800 -0.94600 45.67900
O  -4.49000 -0.21700 45.29600
C  -4.13200 -2.17900 46.42100
N  1.49400 -3.27100 46.88000
C  0.16900 -3.60100 46.99800
C  0.01600 -4.98700 47.70200
C  1.48900 -5.54300 47.58500
C  2.32500 -4.29200 47.30600
C  -0.34400 -4.91900 49.16500
C  1.72900 -6.47400 46.34800
C  1.46900 -7.96300 46.64000
N  4.15500 -2.02000 46.80600
C  4.65300 -3.25500 47.19100
C  6.01000 -3.24600 47.24100
C  6.34200 -1.98600 46.61400
C  5.18100 -1.38800 46.24100
C  6.78700 -4.43800 47.69800
C  7.41200 -1.13500 46.18800
O  8.65800 -1.23400 46.37600
C  6.79100 0.12400 45.46300
C  7.19800 1.41000 46.14200
O  6.93800 1.70300 47.29400
O  7.74900 2.22400 45.20000
C  8.17000 3.56100 45.73600
H  0.37700 1.92300 43.77400
H  -1.79700 -3.30300 46.98600
H  4.12400 -5.25700 47.88600
H  5.17700 2.38900 44.36200
H  2.75400 2.55800 42.84500
H  3.59900 3.96400 45.30600
H  1.78700 3.71400 45.16300
H  2.95900 4.51800 43.92200
H  4.36400 1.51400 41.69600
H  5.15800 0.16900 42.47600
H  6.79800 2.56400 42.82200
H  6.04300 2.91900 41.37900
H  -3.23000 0.97900 43.52900
H  -1.53500 1.16200 42.85800
H  -2.01100 2.15300 44.07900
H  -3.59100 -2.43900 47.33100
H  -4.12200 -3.04300 45.75600
H  -5.15800 -1.98900 46.73700
H  -0.72000 -5.54900 47.12900
H  1.80900 -5.99500 48.52400
H  -0.54400 -3.86500 49.35400
H  0.35200 -5.40500 49.84900
H  -1.32500 -5.35900 49.34600
H  2.61300 -6.38600 45.71600
H  0.93400 -6.20200 45.65400
H  2.35800 -8.59300 46.63600
H  0.90100 -8.42900 45.83500
H  0.98100 -8.14400 47.59800
H  7.25400 -4.84900 46.80200
H  6.25200 -5.19500 48.27000
H  7.49900 -4.08700 48.44500
H  7.15500 0.10700 44.43600
H  7.27200 4.02700 46.14200
H  8.59500 4.11600 44.89900
H  8.87900 3.39400 46.54600
Mg 46.85000 16.68300 28.49600
C  44.98300 16.40900 31.46800
C  49.25300 18.44700 30.37100
C  48.46900 17.38500 25.66400
C  44.15900 15.37900 26.74900
N  47.04500 17.42000 30.66300
C  46.21600 17.03600 31.65300
C  46.87100 17.31900 32.97000
C  47.97300 18.30300 32.63500
C  48.16600 18.08000 31.11900
C  47.70800 19.73400 33.00200
C  47.32400 16.09200 33.75400
C  47.56700 16.33100 35.22600
H  47.16600 17.63100 35.90400
N  48.76800 17.61600 28.10100
C  49.60000 18.23600 28.99700
C  50.78000 18.71200 28.24600
C  50.44500 18.53800 26.88600
C  49.24500 17.79500 26.81800
C  51.96700 19.30600 28.92100
C  51.22700 19.06300 25.60900
O  50.81600 19.04100 24.48200
C  52.43000 19.86400 25.75700
N  46.41600 16.38200 26.52000
C  47.21200 16.78800 25.50400
C  46.55400 16.54900 24.10600
C  45.30800 15.66400 24.52300
C  45.25800 15.81600 26.04100
C  46.15200 17.71000 23.32600
C  45.32600 14.13700 24.05300
C  44.57300 14.03800 22.68200
N  44.89800 16.09400 28.97100
C  43.96900 15.49300 28.14700
C  42.84500 15.05200 28.97500
C  43.24900 15.34600 30.27300
C  44.45000 16.03900 30.21700
C  41.59200 14.43000 28.49500
C  42.91800 15.25800 31.67400
O  41.94400 14.78000 32.26300
C  43.93000 15.98500 32.41700
C  43.24200 17.12300 32.99700
O  43.20500 18.23400 32.45200
O  42.63000 16.89300 34.19100
C  42.28200 17.98700 35.02000
H  50.10100 18.90700 30.88400
H  48.83500 17.54100 24.64700
H  43.41500 14.81200 26.18500
H  46.20500 17.93200 33.57600
H  48.96600 18.06300 33.01400
H  47.24100 20.18100 32.12500
H  48.58800 20.25000 33.38700
H  46.98800 19.80700 33.81700
H  48.27700 15.82300 33.29800
H  46.70600 15.21500 33.56400
H  48.61000 16.10500 35.44400
H  46.84400 15.68800 35.72900
H  52.82100 19.54800 28.28800
H  52.23200 18.52000 29.62900
H  51.70100 20.12300 29.59200
H  52.17800 20.75700 26.32900
H  52.78600 20.28300 24.81500
H  53.20500 19.22500 26.17900
H  47.19800 15.96400 23.44800
H  44.35000 16.11400 24.26400
H  45.15600 17.53200 22.92000
H  46.85100 17.78100 22.49300
H  46.30500 18.49500 24.06600
H  44.72300 13.50100 24.70200
H  46.28900 13.65000 23.89700
H  45.17200 13.46800 21.97200
H  44.24200 15.02800 22.36900
H  43.77500 13.32600 22.89500
H  41.37000 13.55100 29.10000
H  41.53700 14.23600 27.42400
H  40.75900 15.10200 28.69700
H  44.29900 15.41000 33.26700
H  42.01300 18.89100 34.47500
H  43.01800 18.23900 35.78300
H  41.35800 17.68000 35.51000

