158

Mg 29.95500 57.37600 39.73700
C  27.23300 55.18400 38.91900
C  32.10900 54.79300 38.89700
C  32.40400 59.58600 40.07000
C  27.62500 59.90900 40.21100
N  29.69300 55.30200 38.95500
C  28.49800 54.55600 38.74700
C  28.75700 53.08000 38.47400
C  30.27600 52.97900 38.70300
C  30.77000 54.43400 38.84600
C  30.73000 52.12800 39.94600
C  28.19900 52.73000 37.01900
C  28.73000 53.38700 35.68400
H  27.73500 54.27900 34.83500
N  31.99400 57.19800 39.43800
C  32.67700 56.07400 39.05900
C  34.05800 56.44300 39.06500
C  34.24800 57.81700 39.39800
C  32.86800 58.24700 39.68700
C  35.01200 55.44800 38.54900
C  35.62200 58.58400 39.27400
O  36.62900 57.97500 38.92700
C  35.74200 60.11900 39.65600
N  29.96300 59.52800 40.18700
C  31.11400 60.17800 40.21900
C  30.86200 61.66600 40.59200
C  29.30600 61.69800 40.78900
C  28.91200 60.32100 40.38200
C  31.66300 62.11900 41.86300
C  28.60800 62.88200 40.01100
C  27.86700 63.96100 40.66900
N  27.87300 57.50300 39.73600
C  27.09500 58.63800 39.87100
C  25.76000 58.27700 39.73000
C  25.80500 56.96000 39.45400
C  27.10200 56.49600 39.32000
C  24.54700 59.16200 39.84900
C  24.92900 55.81600 39.25400
O  23.71800 55.75500 39.41800
C  25.80800 54.61800 38.79800
C  25.47600 53.43400 39.71800
O  25.98000 53.12600 40.76200
O  24.56500 52.67500 39.09400
C  23.97500 51.49200 39.73700
H  32.80100 53.97300 38.70000
H  33.21000 60.31900 40.14300
H  26.84300 60.66000 40.34300
H  28.28500 52.51200 39.27500
H  30.87900 52.63900 37.86100
H  31.71600 51.68500 39.80700
H  29.99700 51.32100 39.96200
H  30.67500 52.67300 40.88800
H  27.11400 52.72900 37.13000
H  28.49700 51.68200 36.99200
H  29.14100 52.57300 35.08700
H  29.60800 54.01900 35.81800
H  34.58400 54.97000 37.66800
H  35.14000 54.61900 39.24400
H  35.96800 55.83000 38.19200
H  35.43300 60.22600 40.69600
H  35.23700 60.74000 38.91700
H  36.80600 60.33500 39.75700
H  31.17700 62.34900 39.80400
H  29.03600 61.60800 41.84100
H  32.00200 63.13100 41.64500
H  32.43900 61.36400 41.98900
H  30.99000 62.12400 42.72000
H  27.96800 62.57600 39.18300
H  29.35500 63.40600 39.41400
H  26.83900 63.86700 40.31700
H  28.23700 64.93700 40.35300
H  27.91400 63.88200 41.75500
H  24.82500 60.18500 39.59400
H  24.21300 59.08600 40.88300
H  23.71800 58.71400 39.30100
H  25.68000 54.27700 37.77100
H  24.54500 50.79200 39.12600
H  22.90400 51.54400 39.53800
H  24.08300 51.47600 40.82100
Mg -11.74900 15.55500 41.88600
C  -8.54200 14.50800 41.14300
C  -10.85100 18.75900 40.66900
C  -15.02000 16.35500 41.74900
C  -12.65800 12.29100 42.70500
N  -9.90600 16.42100 40.87000
C  -8.69100 15.80600 40.77900
C  -7.62300 16.75100 40.29500
C  -8.33100 18.19600 40.43000
C  -9.80400 17.73800 40.66500
C  -7.76400 19.14100 41.59300
C  -7.12500 16.51000 38.77400
C  -5.66400 16.14600 38.61000
H  -4.96000 16.67200 37.33200
N  -12.79600 17.30600 41.30300
C  -12.21400 18.52000 40.88700
C  -13.27400 19.39400 40.47100
C  -14.52800 18.75100 40.72300
C  -14.16600 17.43200 41.31900
C  -13.04000 20.77500 40.00100
C  -15.86200 19.32500 40.44000
O  -15.94500 20.52500 40.08100
C  -17.26300 18.67300 40.60200
N  -13.61200 14.42700 42.00400
C  -14.77100 15.11100 42.23400
C  -15.99100 14.20200 42.74500
C  -15.12900 12.94300 43.13600
C  -13.71200 13.17800 42.51800
C  -16.92300 14.83400 43.90600
C  -15.79900 11.60500 43.00000
C  -16.52600 11.18300 44.32300
N  -10.83000 13.69900 42.04700
C  -11.31500 12.49800 42.45300
C  -10.30800 11.47800 42.36100
C  -9.18000 12.25600 41.90600
C  -9.56600 13.59700 41.69900
C  -10.32400 10.03100 42.62100
C  -7.75900 12.17700 41.61200
O  -6.99500 11.18000 41.63000
C  -7.33700 13.62800 41.17600
C  -6.36800 14.17100 42.11000
O  -6.53500 14.28600 43.33300
O  -5.13300 14.35800 41.54900
C  -3.93100 14.72200 42.40800
H  -10.54800 19.74300 40.30600
H  -16.08700 16.55200 41.63200
H  -12.90200 11.36500 43.23100
H  -6.76600 16.64500 40.96000
H  -8.23200 18.72900 39.48400
H  -7.10700 18.42300 42.08400
H  -8.54300 19.54400 42.24000
H  -7.20400 20.00700 41.23900
H  -7.37300 17.27100 38.03400
H  -7.71600 15.61900 38.56600
H  -5.73100 15.05900 38.58500
H  -5.07500 16.26000 39.52000
H  -13.42500 20.84100 38.98400
H  -12.04100 21.21200 40.03500
H  -13.61700 21.47900 40.60100
H  -18.13600 19.13200 40.13900
H  -17.42800 18.62300 41.67800
H  -17.23100 17.66100 40.19900
H  -16.53200 13.84800 41.86800
H  -14.89000 13.05900 44.19300
H  -17.93400 14.68300 43.52500
H  -16.79100 15.91400 43.96100
H  -16.75500 14.29800 44.84000
H  -15.11100 10.83100 42.65900
H  -16.51000 11.54800 42.17600
H  -17.57600 11.24500 44.03800
H  -16.33300 11.72800 45.24700
H  -16.37500 10.11700 44.49500
H  -9.32900 9.62600 42.80500
H  -10.79800 9.49600 41.79800
H  -10.85600 9.84100 43.55300
H  -6.90100 13.59300 40.17800
H  -3.01700 14.23300 42.07100
H  -4.06600 14.54300 43.47400
H  -3.76700 15.79500 42.31500

