158

Mg 0.38200 7.45300 25.85300
C  1.39100 9.57700 28.53700
C  0.69200 4.86500 27.99900
C  -0.14900 5.51300 23.27700
C  1.13700 10.12900 23.61000
N  1.30500 7.33300 27.92900
C  1.35800 8.26500 28.86000
C  1.30700 7.71200 30.32900
C  1.27300 6.20300 30.07600
C  1.16500 6.09500 28.53600
C  2.34700 5.33500 30.76100
C  0.11800 8.25100 31.17000
C  -0.04600 7.51500 32.51700
H  1.19300 6.84300 33.21300
N  0.18100 5.46600 25.77600
C  0.22100 4.55000 26.76500
C  -0.11300 3.22200 26.26500
C  -0.37700 3.37300 24.85200
C  -0.17800 4.86500 24.58400
C  0.02200 1.93100 27.15600
C  -0.76400 2.43900 23.83300
O  -1.00400 2.71000 22.64700
C  -0.91100 0.99600 24.28800
N  0.48300 7.81200 23.68200
C  0.27100 6.79500 22.84500
C  0.29600 7.27500 21.36400
C  0.78100 8.67500 21.45200
C  0.72600 8.95400 22.99900
C  1.01600 6.33200 20.36800
C  -0.02000 9.78100 20.63200
C  0.93000 10.67100 19.74200
N  1.05200 9.49800 25.98600
C  1.19200 10.47800 25.07400
C  1.44700 11.75700 25.72000
C  1.57800 11.43900 27.08100
C  1.35800 10.04300 27.14100
C  1.78200 13.01700 24.99400
C  1.84000 11.94700 28.36700
O  2.11500 13.08300 28.78800
C  1.58900 10.78700 29.36000
C  2.59200 10.71100 30.43300
O  3.64900 10.14200 30.32300
O  2.16900 11.34400 31.61500
C  3.16100 11.29000 32.73100
H  0.62000 4.08300 28.75700
H  -0.49900 4.87600 22.46200
H  1.30800 10.90700 22.86300
H  2.29600 7.91200 30.74000
H  0.30800 5.88500 30.47000
H  3.03400 5.89300 31.39700
H  2.95300 4.92400 29.95300
H  1.86900 4.58600 31.39200
H  -0.79900 8.10800 30.59800
H  0.23200 9.30000 31.44300
H  -0.89700 6.85300 32.35400
H  -0.29500 8.32800 33.19800
H  0.88600 1.30600 26.93100
H  -0.92700 1.41600 27.00500
H  0.02700 2.18300 28.21600
H  -1.16900 0.49700 23.35300
H  -1.77100 0.98100 24.95800
H  0.06100 0.72700 24.70100
H  -0.75300 7.26300 21.06800
H  1.80800 8.65300 21.08600
H  1.35900 5.54400 21.03900
H  1.71000 6.99300 19.84800
H  0.26100 5.97900 19.66600
H  -0.57100 10.46100 21.28100
H  -0.84600 9.38600 20.04000
H  0.82100 10.44000 18.68200
H  1.97700 10.51300 20.00000
H  0.70800 11.70700 20.00000
H  2.43000 13.63900 25.61200
H  0.88400 13.56400 24.70900
H  2.32200 12.72800 24.09200
H  0.69000 11.06300 29.91300
H  4.00100 11.85000 32.31900
H  3.28500 10.26600 33.08100
H  2.73100 11.80600 33.58900
Mg 42.97500 4.20700 47.90600
C  40.90300 6.97200 47.58300
C  40.12400 2.18500 47.77400
C  45.06600 1.54000 47.74700
C  45.83800 6.33800 47.81100
N  40.73800 4.60500 47.77600
C  40.11500 5.80400 47.68300
C  38.57200 5.66900 47.81200
C  38.42300 4.11000 48.06100
C  39.87000 3.58100 47.84000
C  37.85300 3.70900 49.38900
C  37.77400 6.23200 46.62200
C  38.17800 5.61200 45.22000
H  37.64300 6.48200 43.99300
N  42.62100 2.10200 47.67800
C  41.41100 1.49500 47.60900
C  41.69600 0.08500 47.41000
C  43.05200 -0.07000 47.38200
C  43.66700 1.18500 47.62300
C  40.61000 -0.87700 47.41500
C  43.77200 -1.46500 47.25500
O  43.16700 -2.52900 47.13000
C  45.31300 -1.51000 47.23500
N  45.16500 3.99300 47.70800
C  45.73500 2.75200 47.79100
C  47.24500 2.73400 47.90000
C  47.55300 4.27600 47.78600
C  46.09700 4.95300 47.74000
C  47.76300 2.05600 49.19200
C  48.23200 4.72200 46.52000
C  49.73400 4.77300 46.46700
N  43.36000 6.17600 47.76200
C  44.54900 6.92000 47.73500
C  44.20200 8.28000 47.58100
C  42.83500 8.32200 47.52000
C  42.33400 7.07700 47.64500
C  45.15300 9.39400 47.55200
C  41.71800 9.31500 47.35900
O  41.81100 10.53500 47.29500
C  40.38600 8.37400 47.31500
C  39.49600 8.81700 48.39000
O  39.68900 8.67200 49.59000
O  38.35300 9.38800 47.87100
C  37.55700 10.23500 48.78400
H  39.18900 1.62300 47.71900
H  45.85200 0.78300 47.78000
H  46.67900 7.02600 47.70000
H  38.18100 6.10600 48.73100
H  37.70600 3.72600 47.33400
H  38.58300 3.13600 49.96100
H  36.89300 3.21500 49.23500
H  37.63300 4.61300 49.95800
H  37.64800 7.31400 46.58100
H  36.75100 5.89600 46.79400
H  37.62600 4.68600 45.05900
H  39.26600 5.55800 45.18300
H  40.40800 -1.34000 46.45000
H  39.70200 -0.40600 47.79000
H  40.85400 -1.69900 48.08800
H  45.59000 -0.68300 46.58200
H  45.77300 -2.43900 46.90000
H  45.72200 -1.32100 48.22700
H  47.68400 2.29100 47.00600
H  48.13200 4.60900 48.64800
H  47.00200 1.65800 49.86300
H  48.38100 2.74600 49.76600
H  48.38100 1.24700 48.80400
H  48.00400 5.77400 46.34500
H  47.83400 4.16200 45.67400
H  50.08800 4.06600 47.21700
H  50.07700 5.76200 46.77100
H  50.15400 4.53000 45.49200
H  45.71900 9.45900 48.48200
H  44.56800 10.27700 47.29500
H  45.87300 9.29300 46.74000
H  39.86600 8.59500 46.38300
H  38.24300 10.74600 49.45900
H  36.96700 9.56400 49.40900
H  37.06200 10.98600 48.16800

