158

Mg -1.83700 17.14900 26.39800
C  -1.86500 14.92000 29.00300
C  -2.94200 19.63400 28.51600
C  -1.90600 19.21500 23.68900
C  -1.23900 14.41000 24.14100
N  -2.52700 17.20700 28.41100
C  -2.27100 16.26700 29.33200
C  -2.62000 16.73500 30.76000
C  -3.34900 18.12100 30.49000
C  -2.89200 18.35900 29.10500
C  -4.85100 18.06000 30.64900
C  -1.39500 16.80300 31.76800
C  -1.60600 17.67700 33.04300
H  -1.27000 16.98500 34.40800
N  -2.29200 19.07400 26.19900
C  -2.79500 19.96200 27.16100
C  -2.86100 21.31400 26.63000
C  -2.43900 21.17700 25.25100
C  -2.20300 19.80500 24.96700
C  -3.28400 22.47100 27.47400
C  -2.31700 22.30800 24.17000
O  -2.18000 22.07900 22.94300
C  -2.33200 23.80300 24.54500
N  -1.64900 16.83500 24.30200
C  -1.75100 17.83600 23.39500
C  -1.31700 17.34600 22.03400
C  -0.81000 15.95500 22.24500
C  -1.28100 15.68900 23.68500
C  -2.41000 17.55600 20.90500
C  0.66300 15.59100 22.00000
C  1.65500 16.35000 22.73700
N  -1.62000 15.06400 26.45800
C  -1.38400 14.12800 25.46800
C  -1.25400 12.84100 26.15900
C  -1.37300 13.11600 27.56100
C  -1.66400 14.47100 27.67300
C  -1.03900 11.51300 25.54500
C  -1.25200 12.55400 28.82800
O  -1.03500 11.42300 29.26400
C  -1.79300 13.61400 29.79000
C  -1.01500 13.55400 31.13000
O  0.12900 13.98400 31.23500
O  -1.60600 12.71000 32.03300
C  -0.79700 12.33600 33.22200
H  -3.39100 20.43200 29.11200
H  -1.73600 19.81400 22.79200
H  -0.90900 13.66600 23.41300
H  -3.28000 15.96000 31.14900
H  -3.00600 18.88400 31.18800
H  -5.37400 18.94800 31.00400
H  -5.13800 17.41900 31.48200
H  -5.22500 17.58500 29.74200
H  -0.58800 17.23600 31.17800
H  -1.13400 15.81000 32.13600
H  -2.55200 18.21700 33.04000
H  -0.84700 18.45900 33.04000
H  -4.02200 22.29400 28.25700
H  -3.74000 23.29000 26.91800
H  -2.38300 22.82400 27.97600
H  -1.92700 23.88200 25.55400
H  -3.38800 24.07100 24.58800
H  -1.80400 24.38100 23.78700
H  -0.38000 17.82200 21.74400
H  -1.32800 15.22600 21.62100
H  -2.13100 18.43300 20.32000
H  -3.42700 17.72200 21.26000
H  -2.52200 16.75500 20.17400
H  0.80400 16.00500 21.00100
H  0.72000 14.50400 21.95700
H  1.13000 16.75400 23.60200
H  2.00100 17.17300 22.11100
H  2.46500 15.71600 23.09700
H  -0.91200 11.64600 24.47000
H  -2.02300 11.06100 25.66300
H  -0.37700 10.79700 26.03400
H  -2.77100 13.18200 30.00000
H  0.20700 11.97800 32.99500
H  -1.45300 11.64700 33.75500
H  -0.56500 13.25500 33.75900
Mg 16.44200 51.51800 25.20300
C  18.02700 50.46300 27.97400
C  13.52800 52.08200 27.18200
C  14.73200 52.52600 22.52100
C  18.80100 50.04000 23.21800
N  15.84700 51.23100 27.30700
C  16.72700 50.94200 28.25900
C  16.31900 51.37900 29.70200
C  14.82300 51.63200 29.37200
C  14.71500 51.71400 27.88200
C  13.85700 50.63300 30.06900
C  17.03500 52.64600 30.24700
C  17.40700 52.70000 31.78700
H  16.55500 51.81200 32.73300
N  14.47100 52.41800 24.94700
C  13.45600 52.58400 25.90700
C  12.38100 53.46300 25.30500
C  12.71300 53.57900 23.90700
C  14.02800 52.87400 23.73600
C  11.23600 54.16500 26.07700
C  11.97600 54.28500 22.74200
O  12.29100 54.20500 21.54900
C  10.78600 55.05200 23.00400
N  16.72200 51.29700 23.14800
C  15.88000 51.80100 22.27600
C  16.37700 51.53600 20.87400
C  17.79700 50.83700 21.07300
C  17.74400 50.73700 22.59200
C  15.43800 50.60800 20.02000
C  18.86200 51.66900 20.40800
C  19.64700 50.94300 19.21600
N  18.10100 50.50000 25.52800
C  19.04200 49.93100 24.61800
C  20.13200 49.34200 25.35700
C  19.75700 49.55400 26.67100
C  18.48200 50.12700 26.69700
C  21.37500 48.70200 24.76700
C  20.23100 49.32200 28.01000
O  21.26600 48.81900 28.42900
C  19.09700 49.91000 28.90900
C  18.54400 48.87300 29.80800
O  17.64900 48.07800 29.63700
O  19.37900 48.83700 30.88700
C  19.01900 47.97200 32.03900
H  12.67800 52.34100 27.81700
H  14.12600 52.87200 21.68100
H  19.49100 49.46800 22.59500
H  16.50000 50.53200 30.36400
H  14.40700 52.55900 29.76700
H  14.38600 50.12100 30.87300
H  13.39100 49.90100 29.40900
H  13.07300 51.17500 30.59800
H  16.27100 53.42300 30.21500
H  17.93700 52.90600 29.69300
H  17.36000 53.71900 32.17000
H  18.37800 52.22100 31.91300
H  10.25300 53.88400 25.70000
H  11.34300 55.22600 25.85000
H  11.29400 53.91900 27.13800
H  11.01900 55.82100 23.74000
H  10.08600 54.41000 23.53800
H  10.30500 55.36700 22.07700
H  16.47600 52.58700 20.60500
H  17.87000 49.81000 20.71600
H  14.66700 50.15400 20.64200
H  15.93100 49.73600 19.58900
H  15.00800 51.14400 19.17400
H  19.58800 52.06700 21.11700
H  18.36200 52.52600 19.95600
H  20.69300 51.23700 19.30000
H  19.09600 51.12000 18.29200
H  19.63800 49.86800 19.39600
H  22.27200 49.02600 25.29600
H  21.52100 49.18400 23.80000
H  21.28200 47.61900 24.68500
H  19.53200 50.62400 29.60900
H  17.97500 47.69900 31.88700
H  19.00700 48.40100 33.04100
H  19.70500 47.12700 31.97400

