158

Mg 44.56900 4.13300 46.43800
C  42.31100 6.75100 46.54800
C  41.87600 1.89600 45.89800
C  46.78700 1.60700 45.56800
C  47.14100 6.40400 46.10500
N  42.38800 4.33600 46.24000
C  41.66600 5.52300 46.31300
C  40.17500 5.23700 46.36200
C  40.00700 3.67400 46.13900
C  41.51100 3.26100 46.15000
C  39.12000 2.88500 47.24300
C  39.36900 6.08100 45.39700
C  39.33100 5.85000 43.89500
H  39.51200 7.03700 42.90000
N  44.36200 2.02500 45.98700
C  43.18100 1.35800 45.86400
C  43.43300 -0.02000 45.44400
C  44.85200 -0.15800 45.47000
C  45.46400 1.18000 45.65900
C  42.34100 -1.02000 45.11800
C  45.60200 -1.43500 45.19100
O  45.08400 -2.54600 44.98000
C  47.16800 -1.53700 45.14800
N  46.74400 3.99600 45.88800
C  47.39100 2.79500 45.78700
C  48.88800 2.98600 45.53100
C  48.96600 4.58800 45.41500
C  47.58700 5.05000 45.90900
C  49.85700 2.28700 46.55300
C  49.09300 5.17400 43.98500
C  50.54500 5.25400 43.57500
N  44.73100 6.12800 46.31100
C  45.83900 6.89700 46.39500
C  45.55300 8.27600 46.69700
C  44.15900 8.24800 46.79500
C  43.71600 6.96100 46.46200
C  46.45800 9.44100 46.77300
C  42.99100 9.02100 47.25900
O  42.93900 10.18000 47.61000
C  41.71600 8.12200 46.94500
C  40.85000 8.09400 48.07000
O  40.95500 7.41700 49.10700
O  39.76600 8.85200 47.76800
C  38.56900 8.65200 48.66000
H  41.02100 1.21900 45.84700
H  47.45600 0.81800 45.21900
H  47.93200 7.15400 46.17700
H  39.82000 5.53000 47.35000
H  39.47900 3.40700 45.22400
H  38.24000 2.33800 46.90500
H  38.75200 3.69100 47.87800
H  39.81000 2.32400 47.87400
H  39.55900 7.15200 45.46600
H  38.33200 6.20300 45.71100
H  38.34400 5.46500 43.64000
H  40.09500 5.10800 43.66200
H  42.67400 -1.73900 44.37000
H  41.37900 -0.59400 44.83300
H  42.08300 -1.54800 46.03600
H  47.69100 -1.25700 46.06200
H  47.62200 -1.00900 44.31000
H  47.50100 -2.57200 45.06300
H  49.06300 2.59500 44.52900
H  49.81600 4.83000 46.05300
H  50.62300 1.90000 45.88000
H  49.39700 1.48400 47.12900
H  50.40100 3.05100 47.10700
H  48.67600 6.17600 43.88200
H  48.60000 4.64400 43.17000
H  51.16700 4.95600 44.41900
H  50.78500 6.27200 43.26800
H  50.73400 4.48900 42.82200
H  47.25200 9.44800 46.02600
H  46.83100 9.37200 47.79500
H  45.96600 10.38900 46.55500
H  41.19800 8.61300 46.12100
H  37.71200 8.68000 47.98800
H  38.40200 9.47900 49.35000
H  38.52600 7.72200 49.22700
Mg 17.27900 51.95000 27.01400
C  19.42600 50.75800 29.59200
C  15.10800 52.58200 29.44800
C  15.18900 52.84100 24.51700
C  19.62900 50.81600 24.62700
N  17.33400 51.79000 29.28700
C  18.32100 51.33700 30.08400
C  17.93600 51.37400 31.52800
C  16.38700 51.63900 31.42700
C  16.23400 52.01300 29.96500
C  15.40700 50.45900 31.71100
C  18.75700 52.48900 32.27400
C  18.40800 52.92400 33.73200
H  17.59400 52.02300 34.66300
N  15.37500 52.80500 26.94300
C  14.64800 53.00500 28.11500
C  13.31900 53.48300 27.71400
C  13.35100 53.61900 26.26100
C  14.66600 53.05100 25.80500
C  12.27200 53.92100 28.68800
C  12.36200 54.25500 25.32400
O  12.47600 54.41800 24.13500
C  11.14500 54.89000 25.96700
N  17.44000 51.84800 24.83600
C  16.38900 52.31100 24.04400
C  16.61700 52.07400 22.54500
C  18.21400 51.77100 22.59500
C  18.46800 51.42900 24.08900
C  15.70600 50.94200 22.00500
C  19.08000 52.92600 21.93800
C  20.42100 52.51500 21.46800
N  19.08200 50.87300 27.06200
C  19.95400 50.58100 26.02500
C  21.11200 49.87700 26.60100
C  20.96700 49.88900 28.00400
C  19.72300 50.57800 28.25300
C  22.28600 49.38300 25.87500
C  21.60900 49.59400 29.25600
O  22.65100 49.01600 29.46300
C  20.59600 49.91600 30.30400
C  20.14900 48.61300 30.85400
O  19.70000 47.65500 30.20100
O  20.20900 48.61700 32.22900
C  19.83300 47.42800 33.00900
H  14.41500 52.80700 30.26100
H  14.41500 53.10000 23.79100
H  20.43100 50.39100 24.01900
H  18.16900 50.38900 31.93300
H  16.07900 52.39400 32.15100
H  14.74500 50.81300 32.50200
H  15.89800 49.53600 32.01900
H  14.83900 50.25600 30.80300
H  18.57600 53.35000 31.63000
H  19.81100 52.21300 32.28700
H  17.86600 53.86900 33.70300
H  19.42300 53.03400 34.11500
H  11.30500 53.46400 28.47500
H  12.17900 54.98600 28.47700
H  12.58100 53.76600 29.72200
H  11.40600 55.71800 26.62600
H  10.60100 54.13100 26.53000
H  10.56800 55.32300 25.15000
H  16.49800 53.06200 22.10000
H  18.47600 50.86100 22.05400
H  14.95300 51.35700 21.33500
H  15.08400 50.39800 22.71500
H  16.34100 50.20300 21.51500
H  19.25400 53.68300 22.70300
H  18.64000 53.52100 21.13800
H  20.56600 51.44200 21.59600
H  21.20900 53.08700 21.95900
H  20.51300 52.81300 20.42400
H  22.64500 48.44300 26.29500
H  23.14300 50.03600 26.04300
H  22.07700 49.24800 24.81400
H  21.06700 50.52400 31.07800
H  20.48900 46.56400 32.90200
H  18.93900 46.97700 32.57800
H  19.69200 47.55400 34.08300

