158

Mg -1.26300 18.34500 27.27500
C  -1.58700 16.37000 30.29700
C  -1.52900 21.00300 29.28100
C  -1.56700 20.09600 24.45800
C  -1.43800 15.44400 25.36700
N  -1.64500 18.59000 29.59900
C  -1.45900 17.75000 30.63100
C  -1.66500 18.36000 31.97900
C  -1.89000 19.83800 31.57700
C  -1.70400 19.83600 30.01200
C  -3.27000 20.51700 31.99900
C  -0.62400 17.93300 33.07400
C  -1.09100 17.22800 34.36200
H  -0.09900 17.33600 35.58400
N  -1.46500 20.26800 26.93600
C  -1.58500 21.28500 27.88400
C  -1.64000 22.62200 27.22700
C  -1.40200 22.28400 25.82800
C  -1.50100 20.79900 25.65800
C  -1.63900 23.93500 27.94800
C  -1.15900 23.25400 24.70300
O  -1.03800 22.87400 23.53300
C  -0.96300 24.76200 24.89600
N  -1.64500 17.74800 25.15800
C  -1.55800 18.71500 24.21000
C  -1.47600 18.00400 22.77200
C  -1.20100 16.56500 23.13100
C  -1.41700 16.56300 24.63900
C  -2.74500 18.15000 21.97300
C  0.17900 15.99600 22.82800
C  1.38000 16.72500 23.57600
N  -1.51800 16.33000 27.69200
C  -1.47300 15.28100 26.79200
C  -1.53700 14.04800 27.61700
C  -1.60900 14.46300 28.97200
C  -1.62700 15.83800 28.96700
C  -1.50900 12.66900 27.02300
C  -1.80000 13.97200 30.32600
O  -2.03100 12.77600 30.67900
C  -1.64300 15.12600 31.30300
C  -0.36200 14.70700 31.98300
O  0.76300 15.07700 31.68000
O  -0.74600 13.83800 32.92600
C  0.32500 13.60500 33.84900
H  -1.50700 21.88000 29.93200
H  -1.73100 20.67100 23.54500
H  -1.17600 14.52700 24.83400
H  -2.58200 17.94600 32.39800
H  -1.13100 20.52800 31.94700
H  -3.39400 20.21900 33.04100
H  -4.00500 20.02000 31.36600
H  -3.25600 21.60400 31.93000
H  -0.05900 18.83000 33.32800
H  -0.01700 17.16200 32.59900
H  -1.27000 16.17400 34.14700
H  -2.06400 17.63800 34.63300
H  -0.59600 24.20600 27.78500
H  -1.92500 23.64100 28.95700
H  -2.26400 24.75400 27.59000
H  0.03000 24.90000 25.32300
H  -1.74900 25.28600 25.44100
H  -0.92400 25.17800 23.88900
H  -0.61300 18.47400 22.30100
H  -1.95500 15.91000 22.69400
H  -2.52400 18.61700 21.01300
H  -3.42300 18.84500 22.47000
H  -3.29000 17.24800 21.69700
H  0.34900 16.06400 21.75300
H  0.25900 14.94800 23.11700
H  1.07900 17.00100 24.58700
H  1.76200 17.60300 23.05500
H  2.21900 16.03500 23.66700
H  -0.76700 12.04100 27.51600
H  -1.15300 12.82000 26.00400
H  -2.47900 12.17300 27.03400
H  -2.46500 15.14200 32.01900
H  1.10000 13.10600 33.26700
H  -0.01700 13.02300 34.70500
H  0.63400 14.49100 34.40200
Mg 50.70200 44.54400 41.88800
C  47.79900 46.15200 40.86500
C  49.51800 41.57500 40.86800
C  53.88100 43.33700 41.91600
C  51.88500 47.66200 42.79400
N  48.87700 44.01400 40.83200
C  47.76200 44.74200 40.74800
C  46.54500 43.87800 40.18000
C  47.09900 42.48800 40.59000
C  48.60500 42.68400 40.76700
C  46.31000 41.67100 41.68900
C  46.30700 44.13000 38.63300
C  44.98600 43.91500 37.99700
H  44.85400 43.07100 36.74600
N  51.53500 42.68900 41.52800
C  50.86300 41.60400 41.15000
C  51.74300 40.42400 41.23200
C  53.02600 40.93900 41.43300
C  52.85100 42.39200 41.59000
C  51.37300 39.03200 40.96600
C  54.25300 40.09300 41.40600
O  54.19800 38.87100 41.28300
C  55.63500 40.65700 41.58200
N  52.57400 45.42100 42.35000
C  53.69700 44.69800 42.32300
C  54.86100 45.45500 42.87800
C  54.29500 46.93600 43.07600
C  52.83900 46.68800 42.70100
C  55.51900 44.81400 44.23000
C  54.81400 48.00200 41.98700
C  55.49500 49.29900 42.58700
N  49.98900 46.54300 41.87800
C  50.57400 47.68800 42.25000
C  49.64100 48.79000 42.12500
C  48.51200 48.23200 41.57000
C  48.77100 46.86100 41.41100
C  49.90600 50.16900 42.60100
C  47.24200 48.54600 41.01300
O  46.68800 49.63200 40.95600
C  46.66100 47.13500 40.63600
C  45.35800 46.93300 41.27900
O  45.19400 46.15000 42.22700
O  44.30700 47.65300 40.70400
C  43.10400 47.61400 41.55200
H  49.02700 40.60300 40.78000
H  54.92200 43.00800 41.89700
H  52.31400 48.60500 43.14000
H  45.54100 43.89800 40.60400
H  47.10800 41.82700 39.72300
H  45.66900 42.27600 42.33100
H  47.00800 41.20500 42.38400
H  45.68000 40.84800 41.35100
H  46.94800 43.45100 38.07100
H  46.61600 45.16200 38.46700
H  44.64000 44.90900 37.71300
H  44.40900 43.41100 38.77200
H  51.87800 38.72600 40.05000
H  50.30800 38.87200 40.80100
H  51.72200 38.32300 41.71700
H  55.80800 40.84100 42.64300
H  55.80000 41.55100 40.98200
H  56.38600 39.90300 41.34400
H  55.56500 45.42800 42.04600
H  54.33100 47.27100 44.11200
H  56.59800 44.77200 44.08300
H  55.34800 43.73800 44.24200
H  55.13900 45.33500 45.11000
H  53.92900 48.21600 41.38700
H  55.53400 47.51600 41.32900
H  54.84300 50.10500 42.25100
H  56.45600 49.33100 42.07300
H  55.54200 49.27600 43.67500
H  50.74900 50.68400 42.13900
H  50.04700 50.15600 43.68200
H  49.02000 50.78400 42.44300
H  46.34700 47.14800 39.59200
H  42.74600 46.58500 41.54800
H  42.34800 48.25500 41.09800
H  43.41300 47.98500 42.52900

