158

Mg 49.93200 46.25400 43.27100
C  46.61900 46.24600 42.10600
C  49.88300 42.85500 42.69100
C  53.24000 46.29100 43.90300
C  49.66100 49.55100 43.76200
N  48.35400 44.75700 42.48600
C  47.08900 44.92800 42.00800
C  46.37100 43.57000 41.68100
C  47.48600 42.50800 41.98900
C  48.61800 43.45100 42.43400
C  47.18200 41.46300 43.08700
C  45.61400 43.56400 40.31600
C  45.95000 42.37000 39.40400
H  45.26000 42.25100 38.02300
N  51.38000 44.74800 43.28500
C  51.12800 43.43700 42.99300
C  52.36600 42.77900 43.14900
C  53.42100 43.73300 43.48200
C  52.70300 45.00700 43.57900
C  52.51000 41.23200 42.93000
C  54.89400 43.41200 43.53500
O  55.24800 42.23800 43.42700
C  55.81600 44.48000 43.95200
N  51.23100 47.74700 43.66200
C  52.54200 47.47400 43.96700
C  53.25300 48.82700 44.24400
C  52.08100 49.90200 44.22700
C  50.93100 49.05400 43.82300
C  54.15300 48.82900 45.52400
C  52.34400 51.11800 43.32500
C  53.69000 51.91200 43.50700
N  48.48200 47.71700 42.99200
C  48.48100 49.00300 43.40200
C  47.10100 49.62500 43.24700
C  46.36000 48.51000 42.68900
C  47.19100 47.39200 42.56200
C  46.73900 51.01000 43.52900
C  45.05700 48.16400 42.11900
O  44.08700 48.82500 41.83900
C  45.15500 46.59800 41.90000
C  44.25200 45.96000 42.89600
O  44.22200 46.05300 44.09200
O  43.19400 45.38500 42.21500
C  42.13200 44.74800 42.97200
H  49.88500 41.77400 42.53300
H  54.26600 46.37000 44.26900
H  49.67300 50.60500 44.04600
H  45.56600 43.35800 42.38500
H  47.84100 41.93100 41.13500
H  46.14900 41.50200 43.43400
H  47.75400 41.48300 44.01400
H  47.34200 40.48900 42.62500
H  45.98400 44.43800 39.78000
H  44.53700 43.65800 40.45900
H  45.87800 41.39800 39.89200
H  46.99800 42.59100 39.19700
H  53.08400 41.15300 42.00800
H  51.60100 40.63400 42.99700
H  53.08600 40.82900 43.76400
H  55.46100 44.98100 44.85300
H  55.92400 45.20200 43.14300
H  56.74600 43.96100 44.18500
H  53.83800 49.07100 43.35700
H  51.90900 50.22700 45.25300
H  54.33700 47.81500 45.88100
H  53.74800 49.45300 46.32100
H  55.13300 49.25200 45.30300
H  51.51600 51.81700 43.44000
H  52.33800 50.83000 42.27300
H  54.30900 51.80800 42.61600
H  54.38200 51.68500 44.31800
H  53.45000 52.95500 43.71400
H  46.14700 51.38300 42.69300
H  47.58800 51.69200 43.57700
H  46.20000 51.11300 44.47100
H  44.77800 46.30200 40.92100
H  42.43000 43.73700 43.25100
H  41.27200 44.70700 42.30300
H  41.83100 45.22300 43.90500
Mg 10.71100 47.15800 25.52500
C  8.25800 47.61000 28.08300
C  13.06300 48.34900 27.60700
C  12.81500 46.85900 22.90300
C  8.05800 46.34100 23.31300
N  10.53300 48.00800 27.59700
C  9.52100 47.98200 28.51800
C  10.05200 48.38200 29.89400
C  11.43700 49.03500 29.44500
C  11.72700 48.35400 28.16100
C  11.49000 50.58500 29.29000
C  10.06000 47.39300 31.09800
C  10.19700 48.20200 32.40000
H  9.26000 47.86900 33.50700
N  12.72100 47.50300 25.27900
C  13.52900 48.00700 26.30600
C  14.89900 47.93500 25.84100
C  14.88500 47.56600 24.44700
C  13.40400 47.33600 24.11600
C  16.03300 48.36900 26.71200
C  15.99200 47.31900 23.58700
O  15.84100 47.03800 22.37800
C  17.26500 47.29900 24.12900
N  10.45900 46.86100 23.35700
C  11.47400 46.74300 22.51200
C  11.04600 46.00700 21.19400
C  9.48500 45.86800 21.37800
C  9.32500 46.36200 22.77300
C  11.46300 46.70100 19.89200
C  8.97200 44.38300 21.20200
C  7.57000 44.40800 20.48700
N  8.63300 47.04500 25.57900
C  7.65300 46.73800 24.63800
C  6.35400 46.84900 25.21900
C  6.57400 47.09300 26.56500
C  7.96300 47.21400 26.76300
C  5.12800 46.58000 24.55000
C  5.89500 47.18900 27.86400
O  4.69700 47.09500 28.12200
C  6.96800 47.64200 28.91900
C  6.86500 46.62200 29.95300
O  7.29200 45.51200 29.80100
O  6.04600 46.97700 30.93200
C  6.15100 46.10400 32.13300
H  13.83900 48.67500 28.30200
H  13.49400 46.58800 22.09200
H  7.26600 45.96400 22.66400
H  9.35100 49.16300 30.18900
H  12.16600 48.80600 30.22200
H  12.38200 50.89500 29.83400
H  10.66100 51.08000 29.79600
H  11.71800 51.00100 28.30800
H  11.00600 46.86700 30.96900
H  9.17100 46.76500 31.04200
H  9.89700 49.23200 32.21000
H  11.26800 48.26100 32.59200
H  15.66600 48.64000 27.70200
H  16.57000 49.22100 26.29700
H  16.82400 47.63400 26.85800
H  17.16700 46.66200 25.00700
H  17.58700 48.31200 24.37200
H  17.90700 46.92300 23.33300
H  11.50000 45.01700 21.16000
H  8.91100 46.60000 20.81100
H  12.05400 45.96000 19.35400
H  12.16100 47.53900 19.87900
H  10.55500 47.00200 19.37000
H  8.75500 43.85500 22.13000
H  9.58500 43.62200 20.71900
H  7.72700 44.27400 19.41700
H  7.08900 45.38400 20.54200
H  6.92900 43.67000 20.97000
H  4.21000 46.82800 25.08200
H  5.07100 45.49500 24.45500
H  5.13300 47.06200 23.57300
H  6.82100 48.62300 29.37000
H  7.09900 45.56900 32.09700
H  5.29500 45.43300 32.06500
H  6.04600 46.78500 32.97800

