158

Mg 1.66400 -1.22200 44.30500
C  5.12600 -0.61500 44.22200
C  1.23700 1.75300 42.58800
C  -1.51700 -2.10800 43.87900
C  2.37000 -4.51700 45.55400
N  3.05700 0.34300 43.53600
C  4.42100 0.39600 43.53800
C  5.04500 1.51400 42.64900
C  3.76200 2.44600 42.49300
C  2.62600 1.45700 42.81000
C  3.67500 3.76800 43.24500
C  5.56700 1.04500 41.28500
C  7.05700 1.37900 41.01400
H  7.39000 1.92400 39.65400
N  0.08100 -0.23700 43.48500
C  0.11700 0.96300 42.83800
C  -1.23400 1.32000 42.40300
C  -2.11100 0.27200 42.78400
C  -1.20900 -0.78300 43.47400
C  -1.56000 2.64700 41.72400
C  -3.59300 0.25800 42.56400
O  -4.10600 1.22100 41.95300
C  -4.41400 -0.81200 43.17300
N  0.61300 -3.02600 44.70800
C  -0.73500 -3.14200 44.45500
C  -1.29300 -4.53800 44.90600
C  0.00500 -5.32800 45.31500
C  1.06200 -4.26500 45.16800
C  -2.42000 -4.60200 46.01600
C  0.27900 -6.55900 44.45700
C  0.86400 -7.74700 45.23800
N  3.38500 -2.31200 44.86000
C  3.51100 -3.60800 45.33600
C  4.87100 -3.85600 45.67500
C  5.56500 -2.67300 45.35800
C  4.60400 -1.75500 44.83800
C  5.36100 -5.17000 46.26400
C  6.85500 -2.04300 45.31300
O  7.92400 -2.48900 45.68500
C  6.61900 -0.70100 44.56300
C  6.88900 0.39500 45.55000
O  6.34300 0.52200 46.68800
O  7.72800 1.41600 44.94400
C  7.78100 2.73100 45.56600
H  1.09100 2.67200 42.01600
H  -2.52800 -2.47800 43.69400
H  2.64800 -5.44300 46.06200
H  5.73400 2.06700 43.28800
H  3.60400 2.67700 41.44000
H  3.53000 4.53300 42.48200
H  4.63100 3.98300 43.72100
H  2.88500 3.86600 43.99000
H  5.05000 1.41500 40.39900
H  5.43200 -0.03400 41.35500
H  7.60900 0.45000 41.15800
H  7.52200 2.11900 41.66500
H  -2.24400 2.46500 40.89500
H  -0.76200 3.24900 41.29100
H  -2.18300 3.25600 42.37900
H  -4.26000 -1.71900 42.58900
H  -5.44000 -0.45200 43.24400
H  -3.98900 -0.92700 44.17000
H  -1.73700 -4.99600 44.02200
H  -0.02700 -5.60600 46.36900
H  -3.37200 -4.81600 45.53000
H  -2.56800 -3.71700 46.63400
H  -2.15700 -5.36700 46.74700
H  0.84600 -6.36500 43.54600
H  -0.64000 -7.00200 44.07400
H  1.42000 -8.34900 44.51900
H  -0.03100 -8.21000 45.65300
H  1.42800 -7.57100 46.15400
H  6.44300 -5.28400 46.20600
H  4.81100 -5.99700 45.81400
H  5.17600 -5.10300 47.33600
H  7.12500 -0.55200 43.60900
H  8.64800 3.34100 45.31100
H  7.64000 2.71800 46.64700
H  6.88800 3.25900 45.23300
Mg -12.37900 17.03100 42.24100
C  -9.24900 15.36700 42.08400
C  -10.73200 19.77000 40.90700
C  -15.34200 18.07300 41.42700
C  -13.73400 13.99100 43.46500
N  -10.20600 17.48000 41.58600
C  -9.09400 16.66000 41.53100
C  -7.80300 17.40600 41.15700
C  -8.36200 18.89700 41.11500
C  -9.86100 18.78800 41.15500
C  -7.80800 19.72600 42.22900
C  -7.23100 16.88600 39.84400
C  -5.72900 16.63700 39.86000
H  -5.25100 15.34600 39.18700
N  -12.95500 18.77600 41.39200
C  -12.12600 19.79500 40.97100
C  -13.05300 20.79200 40.36500
C  -14.36400 20.42200 40.58800
C  -14.30500 19.06600 41.21700
C  -12.59200 22.06700 39.55500
C  -15.58100 21.10400 40.08000
O  -15.54800 22.21800 39.49200
C  -16.93900 20.59000 40.37000
N  -14.21800 16.20300 42.54500
C  -15.34500 16.87700 42.14000
C  -16.64400 16.21300 42.58900
C  -16.16100 14.82300 43.17500
C  -14.58600 15.01600 43.05100
C  -17.46900 17.01100 43.56800
C  -16.66800 13.55200 42.47600
C  -17.67100 12.60800 43.20200
N  -11.69700 15.14600 42.70700
C  -12.33500 14.03800 43.25300
C  -11.34200 13.00700 43.61500
C  -10.15800 13.53700 43.18800
C  -10.42200 14.79100 42.61600
C  -11.63800 11.61600 44.17100
C  -8.81800 13.25000 43.09400
O  -8.18500 12.25400 43.45300
C  -8.16100 14.38300 42.36900
C  -7.08100 14.96300 43.31700
O  -7.41800 15.52800 44.31800
O  -5.86900 14.82300 42.81100
C  -4.77000 15.41400 43.65300
H  -10.29000 20.69500 40.53200
H  -16.33000 18.26200 41.00100
H  -14.07800 13.04900 43.89800
H  -7.00600 17.19500 41.87000
H  -8.14300 19.52200 40.24900
H  -7.35100 19.11200 43.00500
H  -8.65900 20.16100 42.75300
H  -7.13900 20.50100 41.85300
H  -7.41000 17.59800 39.03900
H  -7.76900 15.97100 39.59400
H  -5.36000 16.57900 40.88300
H  -5.31400 17.50900 39.35500
H  -13.04500 22.10700 38.56400
H  -11.50600 22.06600 39.46100
H  -12.76500 22.99200 40.10500
H  -17.73300 21.33600 40.33200
H  -16.80200 20.32100 41.41700
H  -17.13500 19.78600 39.66000
H  -17.23500 15.99000 41.70100
H  -16.39400 14.72300 44.23500
H  -17.55600 16.58500 44.56700
H  -18.43800 17.11700 43.07900
H  -17.05800 18.01200 43.70100
H  -15.75700 12.98700 42.27900
H  -17.10800 13.86500 41.53000
H  -17.14900 11.65600 43.28900
H  -18.51800 12.55300 42.51800
H  -17.84000 13.11700 44.15200
H  -11.96900 11.80400 45.19300
H  -10.71200 11.04200 44.14100
H  -12.41800 11.04600 43.66700
H  -7.74500 13.93100 41.46900
H  -5.16000 15.73300 44.62000
H  -4.34100 16.29200 43.17100
H  -3.96400 14.68500 43.73800

