158

Mg 47.80800 16.03600 28.44300
C  45.84600 15.90200 31.33900
C  50.14000 17.74000 30.12300
C  49.49700 16.58300 25.45500
C  45.14800 14.76800 26.60700
N  47.93200 16.74900 30.54100
C  47.03300 16.59600 31.58000
C  47.59800 17.24400 32.85000
C  48.81400 18.08700 32.25000
C  48.97400 17.47600 30.88700
C  48.58200 19.55300 32.27300
C  47.91200 16.14200 33.96800
C  48.58700 16.52800 35.26800
H  48.59900 17.95800 35.86900
N  49.59000 16.89400 27.88000
C  50.42500 17.49900 28.81600
C  51.63800 17.88800 28.13900
C  51.50900 17.45700 26.72400
C  50.14400 16.96600 26.63300
C  52.90200 18.46300 28.97800
C  52.61300 17.56700 25.61500
O  52.34500 17.24400 24.48100
C  54.01900 18.10900 25.91700
N  47.35400 15.75900 26.38000
C  48.19900 16.02300 25.33800
C  47.58700 15.84900 23.99100
C  46.32600 15.04100 24.34200
C  46.26100 15.17800 25.88100
C  47.22800 17.23600 23.30600
C  46.49900 13.53000 23.97400
C  45.84900 13.09900 22.58700
N  45.84700 15.41800 28.78400
C  44.91400 14.84100 28.01300
C  43.71700 14.52600 28.79800
C  44.10800 14.86400 30.10200
C  45.37200 15.45700 30.07600
C  42.45800 13.86700 28.25400
C  43.64400 14.83600 31.47200
O  42.64200 14.36200 31.93800
C  44.78400 15.56400 32.36900
C  44.19200 16.77900 32.99600
O  44.25000 17.91400 32.63200
O  43.53400 16.41800 34.16400
C  42.87100 17.44000 34.91400
H  50.75300 18.50600 30.60300
H  50.08300 16.62600 24.53500
H  44.32500 14.46600 25.95600
H  46.87700 17.79900 33.44900
H  49.73600 17.87800 32.79200
H  48.10900 19.81800 31.32800
H  49.53500 20.08100 32.28500
H  47.91900 19.93300 33.05000
H  48.55900 15.39000 33.51700
H  46.95500 15.71300 34.26600
H  49.63700 16.24100 35.22100
H  48.18000 15.83400 36.00300
H  53.19900 19.30300 28.34900
H  53.68300 17.76300 29.27200
H  52.53100 18.88400 29.91200
H  54.01600 19.19100 25.78700
H  54.64200 17.70400 25.12000
H  54.32500 17.74000 26.89600
H  48.34500 15.17800 23.58900
H  45.43900 15.44800 23.85700
H  47.39900 18.06900 23.98800
H  46.23800 17.18100 22.85300
H  47.79900 17.57700 22.44300
H  46.08800 12.85700 24.72600
H  47.56400 13.30000 23.93900
H  44.87900 12.62200 22.72700
H  46.54900 12.35000 22.21800
H  45.78800 13.91000 21.86100
H  41.59500 14.08600 28.88300
H  42.69700 12.80500 28.20700
H  42.21000 14.20900 27.24900
H  45.22900 14.89400 33.10400
H  41.92000 17.50600 34.38600
H  43.24800 18.46000 34.99400
H  42.56800 17.08800 35.90000
Mg 49.00600 34.72100 27.97700
C  46.89400 32.97900 30.26200
C  49.46600 37.12100 30.38200
C  50.33100 36.78400 25.51100
C  48.02400 32.48500 25.46500
N  48.36200 34.89600 30.11200
C  47.58300 34.04900 30.87000
C  47.70200 34.43500 32.30200
C  48.12300 35.93700 32.22900
C  48.73000 35.96700 30.84400
C  47.05400 37.12000 32.38600
C  48.74100 33.55700 33.11500
C  48.57000 33.38700 34.61200
H  47.95300 34.48700 35.39200
N  49.88100 36.67400 28.00600
C  50.07200 37.39600 29.10200
C  50.81400 38.60000 28.74400
C  51.04700 38.54200 27.32000
C  50.36600 37.30100 26.88200
C  51.08300 39.69100 29.80800
C  51.86100 39.51800 26.42200
O  51.90800 39.50200 25.21000
C  52.43600 40.69000 27.08900
N  49.20500 34.68200 25.76000
C  49.89500 35.52300 25.04600
C  50.15800 35.10600 23.58900
C  49.42900 33.65300 23.58600
C  48.83000 33.58500 25.02200
C  49.69400 36.07200 22.54800
C  50.34200 32.38400 23.28000
C  50.37700 32.02300 21.81600
N  47.83700 33.02000 27.90100
C  47.50400 32.26000 26.77900
C  46.65800 31.09300 27.23500
C  46.30900 31.42600 28.53100
C  47.08700 32.56400 28.93000
C  46.18500 29.99800 26.43200
C  45.42600 31.09300 29.67000
O  44.57600 30.23100 29.81900
C  45.75000 32.06900 30.84300
C  46.07600 31.36100 32.10900
O  46.69900 30.33300 32.21700
O  45.56100 32.07500 33.17400
C  45.46300 31.43500 34.55900
H  49.52700 37.90900 31.13500
H  50.85400 37.42100 24.79600
H  47.76800 31.78400 24.66800
H  46.68400 34.40500 32.68800
H  48.84200 36.12100 33.02700
H  45.97800 36.94300 32.40800
H  47.34100 37.83900 31.61900
H  47.17300 37.56100 33.37600
H  49.74800 33.93700 32.94200
H  48.72900 32.53200 32.74300
H  49.55700 33.21200 35.04100
H  47.92500 32.53100 34.80800
H  52.08100 40.11700 29.71300
H  50.98700 39.38700 30.85100
H  50.41700 40.52500 29.58400
H  53.44100 40.58900 27.49800
H  51.75800 40.98800 27.88900
H  52.67200 41.38200 26.28100
H  51.24700 35.08000 23.60600
H  48.61500 33.84800 22.88800
H  48.63100 35.89000 22.39100
H  50.26300 36.00400 21.62100
H  49.88300 37.09900 22.86100
H  49.99400 31.52000 23.84500
H  51.37900 32.57200 23.55600
H  51.40000 31.74300 21.56400
H  49.97800 32.83500 21.20700
H  49.68500 31.23900 21.50900
H  46.54200 28.99100 26.64900
H  46.51900 30.15100 25.40600
H  45.09600 30.00200 26.45700
H  44.90500 32.70100 31.11600
H  45.16200 32.22000 35.25300
H  46.43800 30.97200 34.71100
H  44.65600 30.71700 34.41800

