158

Mg 28.94400 57.50200 40.56000
C  26.07600 55.70600 39.65300
C  30.83800 55.03300 39.24900
C  31.52600 59.64400 40.25200
C  26.91800 60.30900 41.16400
N  28.42000 55.60800 39.38700
C  27.22000 55.10500 39.14000
C  27.29100 53.75600 38.52600
C  28.84700 53.51900 38.44900
C  29.43200 54.76700 39.15500
C  29.43800 52.23200 39.02800
C  26.54500 53.50400 37.18100
C  26.50200 54.61000 36.09800
H  26.72000 54.32800 34.55200
N  30.98700 57.27700 40.00600
C  31.56000 56.17300 39.57300
C  32.97500 56.38600 39.47800
C  33.26300 57.72300 39.85600
C  31.87400 58.25900 40.03300
C  33.95700 55.24600 39.11300
C  34.58100 58.39600 39.96800
O  35.61300 57.89600 39.55400
C  34.70800 59.72700 40.51500
N  29.21300 59.70900 40.81600
C  30.37600 60.32100 40.58000
C  30.37900 61.81800 40.96100
C  28.86100 61.97900 41.38300
C  28.27900 60.61000 41.09300
C  31.39500 62.21800 42.00100
C  28.12000 63.19400 40.74000
C  27.68200 64.27500 41.79100
N  27.05800 57.87600 40.79700
C  26.37900 59.03300 41.06800
C  24.96100 58.70300 41.28100
C  24.82000 57.41000 40.77000
C  26.10200 56.96300 40.39000
C  23.95100 59.59800 41.82400
C  23.80200 56.40700 40.43700
O  22.60700 56.34200 40.65500
C  24.60400 55.36700 39.53600
C  24.10400 53.98700 40.07700
O  23.32000 53.17400 39.54800
O  24.65000 53.79700 41.30200
C  24.31500 52.58800 41.94800
H  31.53400 54.24000 38.96800
H  32.34200 60.35500 40.10900
H  26.29300 61.17900 41.37600
H  26.93600 52.97400 39.19700
H  29.18000 53.54100 37.41100
H  30.33000 52.53700 39.57500
H  29.66500 51.49500 38.25700
H  28.73200 51.73700 39.69400
H  25.49500 53.30700 37.39700
H  27.02300 52.59300 36.82200
H  27.33400 55.29600 36.25700
H  25.57600 55.15500 36.27700
H  33.96000 54.51900 39.92400
H  34.98700 55.59900 39.05500
H  33.73900 54.80700 38.13900
H  34.09200 60.10500 41.33100
H  34.44000 60.35900 39.66800
H  35.78200 59.83200 40.66500
H  30.52200 62.26400 39.97700
H  28.70100 61.94800 42.46100
H  31.88000 61.32600 42.39700
H  30.96300 62.88600 42.74600
H  32.03500 62.93100 41.48000
H  27.28200 62.98000 40.07700
H  28.88900 63.74900 40.20300
H  27.34500 63.81100 42.71700
H  26.77100 64.74000 41.41300
H  28.51100 64.96500 41.94800
H  23.47300 60.16700 41.02700
H  24.38100 60.34300 42.49400
H  23.13200 59.09200 42.33500
H  24.34900 55.43000 38.47800
H  25.21900 52.24300 42.45000
H  23.91800 51.77300 41.34200
H  23.61900 52.95400 42.70300
Mg -2.25400 34.51700 27.01300
C  -4.36300 33.14100 29.46100
C  -1.21100 36.75600 29.42500
C  -0.62400 36.09000 24.57900
C  -3.79000 32.41800 24.69000
N  -2.87300 35.03100 29.13000
C  -3.54700 34.15300 29.98600
C  -3.31400 34.43600 31.48500
C  -2.55400 35.81000 31.42600
C  -2.23100 35.92500 29.89300
C  -3.39700 37.02900 31.99300
C  -2.66300 33.27300 32.38300
C  -3.51000 32.69700 33.54300
H  -2.76500 32.31300 34.80900
N  -0.97100 36.04500 26.98900
C  -0.66700 36.89000 28.08300
C  0.24500 37.93300 27.69500
C  0.33000 37.80700 26.28200
C  -0.42400 36.57500 25.88400
C  0.83000 38.96500 28.66700
C  1.04500 38.75100 25.30500
O  1.02300 38.48200 24.11500
C  1.80200 40.02900 25.76900
N  -2.31800 34.37300 24.87300
C  -1.49300 35.14900 24.08900
C  -1.44100 34.50600 22.62900
C  -2.20100 33.15200 22.85000
C  -2.76800 33.33100 24.21300
C  -2.20100 35.40100 21.56800
C  -1.29000 31.87700 22.92300
C  -1.88100 30.52000 22.21700
N  -3.75400 33.08700 26.96700
C  -4.27800 32.28700 26.00700
C  -5.18100 31.28100 26.56000
C  -5.20400 31.60900 27.97200
C  -4.35900 32.76500 28.14600
C  -5.84600 30.18800 25.79200
C  -5.74700 31.16300 29.16500
O  -6.43000 30.20900 29.53100
C  -5.20400 32.14800 30.24600
C  -6.28400 32.90000 30.94000
O  -6.87000 33.85800 30.52800
O  -6.54000 32.27700 32.10600
C  -7.72700 32.70200 32.89800
H  -0.68600 37.42900 30.10700
H  0.06500 36.49400 23.83400
H  -4.14800 31.60400 24.05600
H  -4.30500 34.62900 31.89400
H  -1.66400 35.77700 32.05300
H  -4.44700 36.98500 31.70200
H  -2.93600 37.82200 31.40400
H  -3.34000 37.15100 33.07500
H  -1.64300 33.58100 32.61000
H  -2.52700 32.37700 31.77600
H  -4.02100 31.80500 33.18000
H  -4.30800 33.40600 33.76200
H  0.81000 40.00600 28.34700
H  1.86300 38.61800 28.62200
H  0.52000 39.10400 29.70300
H  1.15200 40.85000 26.07000
H  2.40500 40.20900 24.87900
H  2.55200 39.80700 26.52800
H  -0.40900 34.33900 22.32200
H  -2.97000 32.95500 22.10400
H  -2.42800 36.40700 21.92000
H  -3.14600 34.95700 21.25200
H  -1.60700 35.53700 20.66400
H  -1.03800 31.62900 23.95400
H  -0.36100 32.10800 22.40200
H  -2.80700 30.71900 21.67800
H  -2.23000 29.73300 22.88600
H  -1.05400 30.23400 21.56700
H  -5.53300 29.40600 26.48400
H  -5.54000 30.17100 24.74600
H  -6.91600 30.39700 25.79900
H  -4.60900 31.60500 30.98000
H  -8.14400 31.80100 33.34800
H  -8.55100 33.10500 32.30900
H  -7.58300 33.43300 33.69400

