158

Mg -2.38000 16.99700 27.56400
C  -2.76200 14.96400 30.34300
C  -2.85300 19.76200 29.60600
C  -2.53800 19.03900 24.69900
C  -2.71500 14.24800 25.41700
N  -2.96600 17.30500 29.76900
C  -2.84200 16.33500 30.74100
C  -2.88000 16.98700 32.14900
C  -3.15600 18.44600 31.88600
C  -2.97900 18.56800 30.36400
C  -4.49300 19.02400 32.33000
C  -1.61400 16.65200 32.99600
C  -1.21100 17.61200 34.16700
H  -0.83400 16.78400 35.47200
N  -2.47900 19.13200 27.23400
C  -2.67400 20.05300 28.19100
C  -2.69700 21.37700 27.54300
C  -2.33400 21.16000 26.16100
C  -2.44900 19.69900 25.96000
C  -3.01500 22.58000 28.37900
C  -2.11400 22.14000 25.02100
O  -2.01300 21.85500 23.86700
C  -1.99100 23.60000 25.45200
N  -2.59200 16.65700 25.37500
C  -2.65100 17.61700 24.39800
C  -2.77900 17.00000 23.01000
C  -2.62100 15.47100 23.23100
C  -2.62600 15.45500 24.72400
C  -4.03500 17.44200 22.26100
C  -1.41900 14.99900 22.40300
C  -0.09400 14.68900 23.17900
N  -2.67400 15.01000 27.79300
C  -2.70400 13.97500 26.90500
C  -2.80700 12.69600 27.50400
C  -2.63000 13.03400 28.81900
C  -2.66300 14.44500 28.99400
C  -3.03000 11.38600 26.95400
C  -2.59300 12.47800 30.16400
O  -2.54800 11.30400 30.56000
C  -2.66200 13.67900 31.24500
C  -1.68000 13.51000 32.23600
O  -0.51600 13.82300 32.14500
O  -2.23700 13.05900 33.46500
C  -1.39400 12.88700 34.67700
H  -2.98200 20.58700 30.30900
H  -2.48100 19.64100 23.79000
H  -2.72500 13.35900 24.78200
H  -3.68600 16.64200 32.79700
H  -2.48200 19.14800 32.37700
H  -5.23400 18.32300 32.71400
H  -4.98700 19.58400 31.53500
H  -4.39300 19.73100 33.15300
H  -0.71100 16.47900 32.41000
H  -1.78100 15.70700 33.51300
H  -2.12800 18.08100 34.52300
H  -0.42600 18.34600 33.98400
H  -2.14700 23.22300 28.53000
H  -3.45600 22.32100 29.34200
H  -3.77200 23.08900 27.78300
H  -2.05100 24.13200 24.50300
H  -1.19500 23.85800 26.15100
H  -2.94300 23.79800 25.94500
H  -1.91000 17.35300 22.45500
H  -3.53900 14.95400 22.95100
H  -4.74800 17.90100 22.94600
H  -4.39000 16.59900 21.66800
H  -3.88500 18.19200 21.48400
H  -1.12600 15.59500 21.53900
H  -1.74900 14.03300 22.02200
H  -0.11500 14.95600 24.23500
H  0.64100 15.27500 22.62700
H  0.24100 13.65600 23.08100
H  -2.36400 10.66600 27.43000
H  -2.88900 11.27800 25.87800
H  -4.02400 11.10300 27.30100
H  -3.57500 13.71700 31.83900
H  -1.79700 13.47500 35.50200
H  -0.33600 13.13900 34.59500
H  -1.41900 11.82700 34.92900
Mg 24.97800 2.13100 29.28900
C  27.18100 1.96200 31.98800
C  22.36200 2.15900 31.49400
C  22.91300 1.95500 26.62000
C  27.64700 1.83900 27.10900
N  24.82600 2.15700 31.50400
C  25.84200 2.08900 32.41000
C  25.28500 2.09000 33.80100
C  23.75000 2.08600 33.60900
C  23.60600 2.20500 32.13900
C  23.09900 0.80200 34.09300
C  25.74700 3.38100 34.57700
C  24.87100 3.71800 35.78500
H  25.54700 4.13100 37.16400
N  22.87900 2.07400 29.09200
C  21.98100 2.14900 30.09300
C  20.65400 2.15600 29.46800
C  20.86700 2.17000 28.01700
C  22.28200 2.12800 27.86800
C  19.39200 2.19700 30.30700
C  19.85400 2.23200 26.84200
O  20.18300 2.40300 25.66400
C  18.44100 2.06800 27.17000
N  25.19300 1.71600 27.15700
C  24.22200 1.83700 26.22200
C  24.73400 1.89300 24.76600
C  26.28200 2.14200 24.97400
C  26.36600 1.90600 26.50800
C  24.30600 0.68200 23.92300
C  26.89200 3.58700 24.56200
C  26.32900 4.69700 25.41100
N  26.94700 1.83900 29.48200
C  27.91300 1.74600 28.51000
C  29.23900 1.56100 29.18700
C  28.96800 1.68400 30.53500
C  27.58900 1.85800 30.70400
C  30.55100 1.26800 28.60200
C  29.57000 1.54200 31.85300
O  30.70300 1.31400 32.22900
C  28.42500 1.85100 32.83000
C  28.40300 0.97400 33.99500
O  28.00300 -0.17400 34.02400
O  28.95700 1.69500 35.08200
C  28.92700 1.01500 36.41400
H  21.50600 2.18000 32.17200
H  22.31200 1.91200 25.70900
H  28.41800 2.08300 26.37400
H  25.58200 1.15400 34.27400
H  23.29000 3.00600 33.97000
H  23.62100 0.44900 34.98200
H  23.10700 0.14600 33.22300
H  22.06100 0.89400 34.41300
H  25.86000 4.26400 33.94800
H  26.76000 3.33700 34.97700
H  24.23500 2.86100 36.00400
H  24.25300 4.55800 35.46900
H  18.73800 1.34100 30.14700
H  18.65700 2.90300 29.92100
H  19.52800 2.36100 31.37600
H  18.31300 1.12100 27.69500
H  17.90700 1.99200 26.22300
H  18.17700 2.95200 27.75100
H  24.18800 2.74100 24.35300
H  26.90100 1.31400 24.63000
H  24.03100 1.05000 22.93400
H  23.45100 0.19600 24.39400
H  25.08600 -0.07800 23.87700
H  26.67800 3.72500 23.50200
H  27.94100 3.60700 24.85900
H  25.43200 4.45800 25.98200
H  26.25400 5.51500 24.69500
H  27.06600 5.01500 26.14800
H  31.19600 1.94700 29.16000
H  30.63300 1.46500 27.53300
H  31.01500 0.33100 28.90900
H  28.60400 2.83000 33.27500
H  28.39600 1.59700 37.16700
H  29.97400 0.79100 36.61800
H  28.48600 0.03000 36.26700

