158

Mg 26.44000 50.23000 26.34300
C  24.24900 51.24100 28.83900
C  28.79100 49.24300 28.86300
C  28.66300 49.55200 23.91700
C  24.21500 51.52100 24.01700
N  26.50500 50.26100 28.53500
C  25.39900 50.59100 29.35300
C  25.68100 50.28900 30.85400
C  27.22900 49.91500 30.84000
C  27.52700 49.71400 29.29500
C  28.17900 50.97700 31.43900
C  24.77400 49.12700 31.48500
C  24.22400 49.27600 32.89000
H  24.84000 50.15200 33.97100
N  28.39300 49.48800 26.39800
C  29.22600 49.14800 27.52300
C  30.52600 48.78200 27.00300
C  30.53500 49.07700 25.60000
C  29.16600 49.42400 25.25900
C  31.68300 48.35400 27.83300
C  31.65400 49.04000 24.47500
O  31.48600 49.22800 23.28700
C  32.97700 48.71200 24.98800
N  26.48900 50.59300 24.25700
C  27.40700 49.95800 23.45300
C  26.97400 49.95200 21.93800
C  25.45800 50.47200 22.06000
C  25.40300 50.94600 23.52900
C  27.87000 50.78600 20.94500
C  24.33200 49.46900 21.79400
C  23.30600 49.96600 20.75000
N  24.62900 51.20500 26.34500
C  23.77800 51.66500 25.36100
C  22.60800 52.21300 25.92700
C  22.71200 52.00800 27.28900
C  23.97500 51.45700 27.52600
C  21.51500 53.05900 25.30300
C  22.06000 52.25400 28.58200
O  21.06300 52.79900 28.81800
C  22.99700 51.66200 29.64300
C  23.33700 52.76700 30.69400
O  24.16800 53.61200 30.52600
O  22.41800 52.71200 31.72600
C  22.57400 53.71000 32.76700
H  29.44800 48.95800 29.68800
H  29.20600 49.15500 23.05700
H  23.45800 51.87600 23.31400
H  25.43700 51.14300 31.48500
H  27.32000 49.03300 31.47300
H  29.13700 50.62000 31.81600
H  27.58400 51.29700 32.29400
H  28.24300 51.76300 30.68600
H  25.35100 48.20500 31.42500
H  23.93600 48.95700 30.80900
H  24.13100 48.23400 33.19500
H  23.18200 49.59200 32.83900
H  32.04300 47.43900 27.36300
H  31.49600 48.12500 28.88200
H  32.41600 49.16100 27.80700
H  33.62700 49.00600 24.16400
H  33.24900 47.66000 25.08200
H  33.23800 49.28100 25.88000
H  26.90000 48.91100 21.62500
H  25.38500 51.35300 21.42200
H  28.59300 51.50300 21.33500
H  27.17500 51.24500 20.24200
H  28.49000 50.01700 20.48300
H  23.84100 49.18100 22.72400
H  24.84800 48.61400 21.35900
H  23.40700 49.27600 19.91300
H  23.49000 50.98100 20.39600
H  22.25300 49.88800 21.02100
H  21.79300 53.22400 24.26200
H  21.44400 54.02100 25.81000
H  20.52600 52.62500 25.44800
H  22.58100 50.89600 30.29700
H  23.57300 53.58100 33.18400
H  21.74800 53.72600 33.47700
H  22.71300 54.67700 32.28300
Mg 6.01900 53.60000 40.70300
C  4.87400 50.26600 40.39100
C  9.14400 52.66100 39.60700
C  6.84800 56.79700 40.70800
C  2.66700 54.47700 41.11600
N  6.88600 51.70800 40.10300
C  6.23700 50.48700 40.05900
C  7.27400 49.45000 39.71700
C  8.66300 50.19300 39.94200
C  8.18600 51.62300 39.81800
C  9.47700 49.75200 41.21000
C  7.18400 48.82900 38.29100
C  7.00100 49.74600 37.10100
H  6.14200 49.17600 35.96600
N  7.79100 54.65700 40.21500
C  8.94300 54.05700 39.77100
C  9.89100 55.14000 39.49500
C  9.36100 56.34900 40.03300
C  7.95000 55.97100 40.34100
C  11.25300 54.81500 38.97600
C  10.08900 57.70100 40.20700
O  11.24200 57.81600 39.83300
C  9.50400 58.76400 41.08300
N  4.94100 55.34500 40.68900
C  5.53600 56.49900 40.88200
C  4.51700 57.61700 40.94300
C  3.13600 56.94600 41.06900
C  3.63200 55.47400 40.99300
C  4.75100 58.64800 42.06700
C  2.03200 57.28700 40.01700
C  0.65800 57.59800 40.61600
N  4.14800 52.62700 40.75300
C  2.86000 53.07600 40.96400
C  1.93300 52.01300 41.18500
C  2.72400 50.86100 40.92300
C  4.02500 51.31900 40.67100
C  0.47400 52.07600 41.51600
C  2.68100 49.40800 40.83800
O  1.79400 48.67800 41.22900
C  4.08300 48.98100 40.46100
C  3.95400 48.17400 39.28900
O  3.51400 48.54700 38.21500
O  4.20100 46.86500 39.57300
C  3.84300 45.90500 38.48000
H  10.11500 52.26700 39.29800
H  7.04800 57.84700 40.48600
H  1.65700 54.71000 41.46100
H  7.14600 48.72900 40.52500
H  9.33500 50.11200 39.08700
H  9.39500 50.53500 41.96500
H  10.52500 49.64000 40.93200
H  9.15200 48.79800 41.62500
H  6.48800 47.99500 38.37700
H  8.10600 48.28400 38.08900
H  8.06600 49.86700 36.90100
H  6.66400 50.73200 37.42100
H  11.16200 54.13000 38.13400
H  11.87000 54.48700 39.81300
H  11.69200 55.74000 38.60300
H  10.13900 59.39000 41.71100
H  8.76400 58.27400 41.71400
H  8.96800 59.27100 40.28100
H  4.59200 58.07600 39.95800
H  2.80200 57.23100 42.06700
H  3.79200 59.13500 42.24300
H  5.41900 59.47800 41.83600
H  5.14000 58.18000 42.97200
H  2.03600 56.54700 39.21600
H  2.24800 58.27300 39.60500
H  0.44100 58.65500 40.46100
H  0.66000 57.34000 41.67500
H  -0.08600 57.01300 40.07600
H  0.60100 52.17500 42.59500
H  -0.13200 51.22100 41.21600
H  0.02800 52.98500 41.11300
H  4.52400 48.39000 41.26300
H  2.80400 45.98500 38.16000
H  4.27700 44.97100 38.83500
H  4.56300 46.17200 37.70600

