158

Mg 35.94100 48.99600 24.81900
C  36.23300 47.31400 27.95200
C  34.98700 51.81000 26.58900
C  35.33100 50.54600 21.96300
C  37.18600 46.20600 23.31000
N  35.50900 49.40100 27.03000
C  35.73400 48.60700 28.12900
C  35.42000 49.34200 29.41100
C  35.29100 50.75000 28.92700
C  35.23000 50.68900 27.39400
C  34.01000 51.53500 29.52400
C  36.46600 49.03700 30.49400
C  36.54800 49.94000 31.72200
H  35.25900 50.13800 32.56200
N  35.15200 50.91600 24.35300
C  34.86700 51.90800 25.15500
C  34.56300 53.12800 24.44200
C  34.52500 52.74000 23.08400
C  35.01500 51.35600 23.04800
C  34.39200 54.52100 25.06600
C  34.07400 53.55800 21.85100
O  34.03900 53.08100 20.72400
C  33.67700 54.99600 21.86100
N  36.14800 48.42600 22.89400
C  35.78600 49.24700 21.81400
C  36.24300 48.59400 20.49200
C  36.86100 47.23400 20.94600
C  36.74800 47.26300 22.44000
C  35.27000 48.49400 19.35200
C  38.27700 47.00600 20.23400
C  39.47900 47.41300 21.14900
N  36.66200 47.16000 25.44600
C  37.05800 46.12100 24.69800
C  37.47500 44.98600 25.51000
C  37.07100 45.40100 26.77500
C  36.65600 46.74500 26.70800
C  37.88500 43.66300 25.07700
C  36.97300 44.98900 28.15800
O  37.21400 43.93800 28.65800
C  36.45400 46.19200 28.96400
C  35.17400 45.83900 29.63500
O  34.08400 45.66200 29.10400
O  35.35300 45.62000 31.00300
C  34.18100 45.41200 31.86400
H  35.05500 52.77500 27.09600
H  35.42200 51.10300 21.02800
H  37.52100 45.31800 22.77000
H  34.49500 49.00200 29.87700
H  36.11200 51.38700 29.25700
H  34.20400 52.58900 29.72700
H  33.61200 51.01600 30.39600
H  33.18400 51.65400 28.82300
H  37.45100 48.74500 30.13000
H  36.16100 48.12300 31.00300
H  36.92200 50.92200 31.43300
H  37.29900 49.42300 32.31900
H  34.94000 55.32000 24.56700
H  34.65600 54.45300 26.12100
H  33.35200 54.84100 25.01100
H  33.15300 55.25400 22.78100
H  33.19200 55.22800 20.91300
H  34.68200 55.40400 21.75400
H  36.97900 49.29900 20.10700
H  36.16500 46.45800 20.62700
H  34.31500 48.90300 19.68200
H  35.10500 47.45200 19.07900
H  35.64200 48.94300 18.43200
H  38.41200 47.53200 19.28900
H  38.40700 45.94100 20.04000
H  40.26300 48.04600 20.73400
H  39.97600 46.50800 21.49700
H  39.08500 47.96500 22.00200
H  36.97200 43.08300 24.94400
H  38.51300 43.27900 25.88100
H  38.44000 43.73700 24.14200
H  37.13000 46.44900 29.77900
H  34.37900 44.49800 32.42200
H  33.23500 45.19900 31.36600
H  34.04200 46.28600 32.50100
Mg 7.22900 53.69200 41.47100
C  6.39100 50.30300 40.90800
C  10.40600 52.89000 40.52100
C  7.91100 56.90100 41.17000
C  3.84900 54.37700 42.06100
N  8.20800 51.78800 40.63600
C  7.72200 50.50200 40.58600
C  8.77100 49.45400 40.04600
C  10.05700 50.27500 40.32000
C  9.55300 51.75000 40.51300
C  10.87100 49.83000 41.52500
C  8.52600 48.99900 38.52600
C  7.81500 50.11300 37.66000
H  7.90400 49.87300 36.17000
N  8.91700 54.70300 40.86400
C  10.15500 54.22600 40.59200
C  11.04100 55.22900 40.24600
C  10.37100 56.40500 40.34500
C  9.03200 56.08500 40.85500
C  12.48100 55.05600 40.06200
C  10.84300 57.77900 39.90600
O  11.97000 57.93900 39.44300
C  9.92700 58.85900 39.77700
N  5.98300 55.40600 41.32500
C  6.63600 56.59700 41.52500
C  5.64300 57.58800 42.08200
C  4.31700 56.84300 42.37400
C  4.71500 55.48000 41.83900
C  6.17100 58.35300 43.21000
C  3.05600 57.57300 41.79100
C  1.80200 57.46100 42.60100
N  5.43300 52.56000 41.67100
C  4.15900 53.03700 41.92500
C  3.34800 51.85900 41.98600
C  4.15900 50.76300 41.63500
C  5.42900 51.30300 41.35900
C  1.85100 51.85700 42.37200
C  4.18700 49.31900 41.52400
O  3.41400 48.42800 41.83000
C  5.61700 48.93200 40.98600
C  5.39800 47.97800 39.77900
O  4.73700 48.22400 38.78700
O  5.87200 46.73300 40.13500
C  5.47900 45.66600 39.13800
H  11.44700 52.64400 40.30000
H  8.21500 57.94200 41.29800
H  2.81700 54.61800 42.32400
H  8.72900 48.56400 40.67400
H  10.76900 50.27100 39.49500
H  10.15000 49.71200 42.33400
H  11.73900 50.47500 41.66500
H  11.22600 48.82200 41.31300
H  7.93300 48.09200 38.41400
H  9.53000 48.91400 38.10900
H  8.27600 51.09400 37.77200
H  6.77900 50.20800 37.98500
H  12.83900 55.01700 39.03300
H  12.76700 54.13900 40.57600
H  13.03700 55.82000 40.60700
H  8.90300 58.53500 39.59500
H  10.14200 59.49200 38.91700
H  9.96000 59.54000 40.62700
H  5.42100 58.28300 41.27200
H  4.18300 56.66300 43.44000
H  7.03000 57.78700 43.56700
H  5.39400 58.38000 43.97400
H  6.33100 59.42400 43.07900
H  2.95300 56.86700 40.96700
H  3.23700 58.60500 41.49300
H  1.48600 58.40800 43.03900
H  1.97500 56.73700 43.39700
H  0.96200 57.15600 41.97800
H  1.70200 50.94300 42.94800
H  1.32400 51.86300 41.41800
H  1.66000 52.76700 42.94100
H  6.13500 48.38400 41.77300
H  5.96600 46.06000 38.24500
H  4.41500 45.52900 38.94900
H  5.81800 44.71500 39.54900

