158

Mg 8.48500 3.86300 27.72100
C  10.05400 2.48900 30.40200
C  6.63600 5.86600 29.86200
C  7.10900 5.31500 24.94900
C  10.26200 1.76800 25.53900
N  8.42100 4.13200 29.85400
C  9.16500 3.46000 30.77700
C  8.94200 3.98100 32.21100
C  7.67800 4.98000 32.02300
C  7.51800 5.00800 30.49500
C  6.43400 4.75600 32.85000
C  10.17000 4.62800 32.89500
C  9.82100 5.16400 34.29000
H  10.69000 4.70000 35.42900
N  7.11900 5.41500 27.47200
C  6.46800 6.10900 28.47800
C  5.48900 7.01100 27.79200
C  5.61700 6.86700 26.38200
C  6.66100 5.80100 26.18300
C  4.52600 7.82000 28.60100
C  4.85200 7.60300 25.32200
O  4.88700 7.39800 24.13300
C  3.95400 8.67200 25.70800
N  8.65600 3.61500 25.53600
C  8.06300 4.39500 24.62200
C  8.39100 3.98900 23.11300
C  9.56300 3.00400 23.32000
C  9.46000 2.74800 24.89800
C  7.13600 3.52000 22.32000
C  10.94900 3.43100 22.83700
C  11.63100 4.62000 23.64100
N  9.80600 2.38400 27.84400
C  10.45000 1.60600 26.92000
C  11.27000 0.70100 27.66100
C  11.20200 0.94900 28.99000
C  10.31200 2.03300 29.07700
C  12.07300 -0.38800 26.97100
C  11.62300 0.60200 30.34200
O  12.34400 -0.31400 30.79700
C  10.99000 1.69900 31.30200
C  10.31300 0.97800 32.35600
O  9.15800 0.53800 32.14600
O  11.07000 0.88000 33.46100
C  10.53900 0.03700 34.59600
H  5.97500 6.27800 30.62800
H  6.54800 5.56900 24.04800
H  10.78000 1.19600 24.76600
H  8.72800 3.13100 32.85900
H  8.06400 5.93200 32.38900
H  5.73500 4.10900 32.31800
H  5.91100 5.69700 33.01900
H  6.70600 4.35000 33.82400
H  10.40700 5.51300 32.30500
H  11.04400 3.99700 33.05600
H  8.82300 4.89600 34.63500
H  9.82400 6.25400 34.28800
H  4.63600 7.51700 29.64200
H  3.50700 7.64200 28.25500
H  4.68400 8.89800 28.63100
H  3.01700 8.34200 26.15700
H  3.65000 9.38100 24.93700
H  4.47900 9.22100 26.48900
H  8.82900 4.86300 22.63000
H  9.38200 2.03700 22.85100
H  6.25300 3.89500 22.83800
H  6.96700 2.44900 22.20200
H  7.17000 3.97100 21.32900
H  10.86500 3.58700 21.76100
H  11.54300 2.53300 23.00600
H  12.10500 4.20100 24.52900
H  10.79300 5.26400 23.90900
H  12.25500 5.24000 22.99700
H  12.35600 -0.09000 25.96100
H  11.41300 -1.24700 26.84800
H  12.94800 -0.65900 27.56100
H  11.85800 2.29000 31.59300
H  10.02600 0.81800 35.15800
H  11.29100 -0.38500 35.26300
H  9.82800 -0.67300 34.17300
Mg 49.56800 35.47800 27.44000
C  47.54100 34.15800 29.97400
C  50.26600 38.15200 29.40000
C  51.42900 36.64500 24.79100
C  48.45600 32.83300 25.32100
N  48.97900 36.03600 29.44200
C  48.22000 35.31200 30.31800
C  48.22500 35.96900 31.62700
C  48.61600 37.46000 31.30100
C  49.35800 37.24000 30.00400
C  47.40300 38.36100 31.11700
C  49.15000 35.33300 32.70200
C  48.80000 35.30500 34.24700
H  47.94100 36.47900 34.69100
N  50.78000 37.19200 27.21300
C  50.89800 38.12500 28.14100
C  51.80300 39.13200 27.55600
C  52.24700 38.63900 26.28300
C  51.47600 37.45800 26.01600
C  52.17400 40.35600 28.38200
C  53.27500 39.27500 25.33200
O  53.58700 38.77200 24.24200
C  54.12000 40.47600 25.83800
N  49.72100 34.90800 25.34100
C  50.71600 35.48400 24.52100
C  50.77000 34.75500 23.16500
C  49.88200 33.51000 23.35900
C  49.36600 33.73500 24.78600
C  50.36600 35.63600 21.92800
C  50.68500 32.10200 23.24400
C  50.10100 31.05700 22.24500
N  48.21700 33.84300 27.56300
C  47.95900 32.85700 26.62700
C  47.06600 31.91900 27.18300
C  46.80400 32.39100 28.47800
C  47.65600 33.47300 28.70600
C  46.43100 30.70400 26.51800
C  45.96700 32.19600 29.66600
O  45.07200 31.35300 29.78500
C  46.39200 33.33800 30.63200
C  46.75900 32.66500 31.94000
O  47.84400 32.15800 32.06300
O  45.76800 32.79900 32.85000
C  46.10100 32.21000 34.18100
H  50.50200 38.92800 30.13100
H  51.98700 36.95300 23.90500
H  48.07700 32.12500 24.58200
H  47.19200 35.78400 31.92300
H  49.30300 37.93700 31.99900
H  47.11900 38.25300 30.07000
H  47.64200 39.41500 31.26200
H  46.55100 38.06500 31.72900
H  50.12400 35.81600 32.62300
H  49.18700 34.28300 32.41300
H  49.78200 35.43700 34.70200
H  48.44400 34.32300 34.55800
H  53.22500 40.19800 28.62200
H  51.64500 40.57300 29.31000
H  51.95800 41.27200 27.83300
H  53.56000 41.38700 26.05000
H  54.98300 40.71300 25.21700
H  54.61700 40.16300 26.75600
H  51.84100 34.60000 23.03200
H  49.01700 33.67000 22.71600
H  50.45100 36.72000 21.99900
H  49.34500 35.39300 21.63500
H  51.09900 35.35600 21.17200
H  50.72500 31.59100 24.20600
H  51.70000 32.43900 23.03500
H  49.34500 31.54400 21.62900
H  49.67200 30.18600 22.73800
H  50.93700 30.76400 21.61000
H  46.53900 29.79100 27.10400
H  46.72900 30.45100 25.50100
H  45.38900 30.95800 26.32300
H  45.55400 34.01600 30.79700
H  47.17100 32.11500 34.36900
H  45.74500 31.20000 34.38300
H  45.60900 32.91300 34.85200

