158

Mg 24.69700 2.16200 29.09100
C  26.78300 1.44600 31.92400
C  22.02700 1.94100 31.05500
C  23.01000 2.39500 26.30800
C  27.63600 1.44900 27.06400
N  24.48800 1.90900 31.22700
C  25.42100 1.81500 32.23700
C  24.81400 2.17700 33.60300
C  23.28500 1.88000 33.28600
C  23.26000 1.96700 31.75600
C  22.71500 0.57100 33.89800
C  25.23500 3.52000 34.24300
C  26.16500 3.38000 35.44700
H  26.06800 4.41700 36.61400
N  22.80000 2.28900 28.74200
C  21.80400 2.12200 29.70900
C  20.55100 2.19600 28.97900
C  20.80500 2.40400 27.53400
C  22.26000 2.42000 27.48300
C  19.20900 2.21400 29.60900
C  19.86600 2.81700 26.46400
O  20.28400 3.25700 25.38900
C  18.34500 2.96400 26.73900
N  25.31500 2.02000 26.92200
C  24.37500 2.19900 26.01800
C  24.93500 2.29500 24.56100
C  26.47800 2.25400 24.83800
C  26.52300 1.86300 26.34500
C  24.31700 1.41500 23.48700
C  27.34000 3.41200 24.42100
C  27.55400 4.48300 25.50500
N  26.77800 1.58600 29.39800
C  27.78700 1.32500 28.45300
C  29.02700 0.97500 29.08500
C  28.70300 1.08900 30.50700
C  27.30000 1.38800 30.60400
C  30.38100 0.74700 28.48400
C  29.23000 0.94600 31.90000
O  30.34100 0.59400 32.31800
C  28.02100 1.35600 32.83800
C  27.80000 0.40500 33.93900
O  27.02800 -0.51400 34.05000
O  28.42300 1.01200 35.06100
C  28.32800 0.28000 36.32900
H  21.17600 1.72400 31.70400
H  22.49600 2.48500 25.34900
H  28.59700 1.30700 26.56600
H  25.12800 1.42400 34.32500
H  22.63000 2.65000 33.69400
H  22.67900 0.67200 34.98300
H  23.38300 -0.28600 33.80000
H  21.76100 0.22500 33.50000
H  24.35100 4.15200 34.32300
H  25.79100 3.98000 33.42600
H  27.19300 3.41500 35.08700
H  26.02000 2.40100 35.90400
H  18.66700 3.14500 29.44600
H  19.26800 2.01700 30.67900
H  18.60500 1.43100 29.14900
H  18.32500 3.83900 27.38900
H  17.86600 2.09800 27.19400
H  17.84000 3.33900 25.84900
H  24.66400 3.32100 24.31200
H  26.94200 1.42000 24.31100
H  23.79100 0.58100 23.95200
H  25.15200 0.97700 22.94000
H  23.64500 1.89500 22.77500
H  26.80400 3.96300 23.64800
H  28.33900 3.12000 24.09600
H  27.07500 4.17900 26.43500
H  27.06000 5.43300 25.30000
H  28.60300 4.77200 25.57200
H  30.52400 1.56000 27.77300
H  30.39800 -0.24700 28.03500
H  31.10500 0.87600 29.28800
H  28.27500 2.29900 33.32000
H  28.35500 -0.80300 36.20600
H  27.39200 0.58000 36.80200
H  29.18600 0.65800 36.88600
Mg -1.86800 34.07900 26.89800
C  -3.89900 32.43300 29.48000
C  -0.35300 35.86000 29.46600
C  -0.42800 35.84400 24.57300
C  -3.93800 32.48100 24.53800
N  -2.20600 34.14300 29.18600
C  -3.00200 33.38700 30.03600
C  -2.70700 33.65300 31.50800
C  -1.77700 34.96300 31.40700
C  -1.40500 34.99000 29.92500
C  -2.38100 36.40600 31.92900
C  -2.13600 32.37100 32.13600
C  -2.96200 31.93000 33.30500
H  -2.14900 31.71400 34.60600
N  -0.45300 35.57400 26.98700
C  0.07900 36.10700 28.06900
C  1.14800 37.04500 27.71500
C  1.10400 37.07100 26.28900
C  -0.03800 36.20200 25.89000
C  1.99400 37.79300 28.68900
C  1.99500 37.80300 25.34100
O  1.67800 38.04400 24.17700
C  3.31600 38.31900 25.82300
N  -2.24100 34.21900 24.85100
C  -1.45400 35.02000 24.11900
C  -1.86500 34.87600 22.59300
C  -2.69100 33.61700 22.60400
C  -2.99700 33.39800 24.07900
C  -2.55100 36.11300 22.01100
C  -1.97200 32.47300 21.94000
C  -0.81200 31.72900 22.62100
N  -3.51200 32.68500 26.96100
C  -4.19800 32.12500 25.87100
C  -5.19900 31.22900 26.42400
C  -5.12500 31.33600 27.77800
C  -4.06600 32.26600 28.09800
C  -6.19700 30.41000 25.72800
C  -5.67500 30.82600 29.01300
O  -6.47100 29.92500 29.21800
C  -4.95800 31.59600 30.12500
C  -5.99900 32.37900 30.93100
O  -6.51900 33.46300 30.67400
O  -6.32600 31.72200 32.01800
C  -7.39500 32.24400 32.90100
H  0.25300 36.40000 30.19700
H  0.03000 36.45800 23.79400
H  -4.58200 31.97200 23.81800
H  -3.58200 34.04700 32.02600
H  -0.84300 34.71700 31.91200
H  -2.57600 37.08800 31.10100
H  -1.74000 36.89500 32.66300
H  -3.38900 36.25000 32.31200
H  -1.13700 32.39900 32.57200
H  -2.16600 31.48900 31.49600
H  -3.60100 31.05600 33.18100
H  -3.63700 32.76100 33.51000
H  1.42800 37.96800 29.60500
H  2.54500 38.69000 28.41000
H  2.68900 36.98900 28.93200
H  3.04500 39.19500 26.41300
H  3.96400 38.63800 25.00700
H  3.77100 37.66100 26.56300
H  -0.87700 34.71800 22.16000
H  -3.67500 33.63800 22.13600
H  -3.23400 35.65700 21.29500
H  -1.81600 36.74700 21.51500
H  -3.03400 36.61800 22.84700
H  -1.54700 32.85300 21.01100
H  -2.76700 31.76100 21.71700
H  -0.42800 32.49700 23.29200
H  -0.09300 31.33800 21.90100
H  -1.16200 30.86700 23.18800
H  -7.23300 30.65500 25.96100
H  -6.15800 29.35600 26.00500
H  -6.05200 30.52500 24.65400
H  -4.52500 30.84700 30.78700
H  -8.23600 32.69000 32.36800
H  -7.01900 32.96200 33.62900
H  -7.77200 31.35200 33.40000

