158

Mg 17.11700 52.95000 26.17700
C  18.75500 51.11400 28.58600
C  14.70700 53.84400 28.54400
C  15.15200 54.26800 23.74900
C  19.13000 51.45300 23.83800
N  16.79500 52.52300 28.32800
C  17.63400 51.78100 29.10600
C  17.13200 51.82700 30.55600
C  15.75700 52.50100 30.48900
C  15.73200 52.97100 29.01500
C  14.55300 51.63400 30.90800
C  18.18100 52.65800 31.42800
C  18.58200 52.04400 32.70700
H  18.06000 52.71300 33.97700
N  15.32100 54.09100 26.14600
C  14.61600 54.45700 27.25900
C  13.60600 55.41400 26.83500
C  13.55300 55.33800 25.42600
C  14.68100 54.52400 25.01600
C  12.61200 56.02000 27.88500
C  12.57000 56.01000 24.40700
O  12.51000 55.90100 23.19500
C  11.38800 56.71400 25.09200
N  17.15100 52.86400 24.10400
C  16.30200 53.55500 23.36600
C  16.57500 53.34200 21.88600
C  18.07300 52.88200 21.90700
C  18.15600 52.37800 23.36100
C  15.54700 52.60800 20.99200
C  19.08300 53.95000 21.46700
C  20.37200 54.12600 22.27900
N  18.66500 51.55600 26.18200
C  19.31700 50.97200 25.14500
C  20.30200 50.08200 25.61100
C  20.14400 50.01600 27.04300
C  19.11700 51.01900 27.27400
C  21.39100 49.38500 24.87000
C  20.63500 49.54400 28.30700
O  21.52900 48.74000 28.58000
C  19.72000 50.19400 29.29600
C  19.01600 49.10000 30.09100
O  18.00400 48.45600 29.78700
O  19.78100 49.03800 31.27000
C  19.06200 48.35100 32.38000
H  13.93500 54.10600 29.27000
H  14.70000 54.84900 22.94200
H  19.93400 51.17500 23.15400
H  17.15900 50.80200 30.92600
H  15.75200 53.43100 31.05800
H  14.07200 51.89900 31.84900
H  14.90200 50.60200 30.90700
H  13.82400 51.72200 30.10200
H  17.83000 53.67000 31.62800
H  19.06500 52.92600 30.84800
H  19.67000 52.06700 32.75700
H  18.27400 50.99900 32.67000
H  12.30800 57.02200 27.58500
H  13.08300 56.05100 28.86800
H  11.76500 55.34100 27.78400
H  11.69200 57.66100 25.53800
H  10.78900 56.10100 25.76400
H  10.73900 57.04500 24.28100
H  16.51800 54.30700 21.38000
H  18.20200 52.08800 21.17200
H  15.06500 53.40400 20.42400
H  14.73300 52.29700 21.64700
H  16.00900 51.82600 20.39000
H  18.67200 54.95700 21.54100
H  19.46200 53.72700 20.46900
H  20.96700 53.26400 21.97600
H  20.27200 53.99800 23.35700
H  20.95500 55.02600 22.08500
H  21.93200 50.07200 24.21900
H  20.90400 48.62600 24.25800
H  22.04800 48.94200 25.62000
H  20.26800 50.74500 30.06100
H  19.34600 47.30000 32.41500
H  17.98900 48.53300 32.44600
H  19.37000 48.64200 33.38400
Mg 9.54700 48.20500 26.69100
C  7.18300 48.13200 29.31800
C  11.96300 48.68100 28.98900
C  11.71200 48.28500 24.19000
C  6.90500 47.90700 24.45200
N  9.52200 48.31900 28.89300
C  8.54700 48.27900 29.80100
C  9.04200 48.33300 31.24600
C  10.61600 48.47000 31.02500
C  10.71800 48.55500 29.55400
C  11.14000 49.79100 31.74700
C  8.51800 47.19600 32.22200
C  9.33600 46.62100 33.40300
H  8.66800 46.56300 34.83300
N  11.53200 48.67500 26.62700
C  12.37600 48.80100 27.62600
C  13.67700 49.09000 27.13600
C  13.65000 48.86800 25.77000
C  12.25500 48.55900 25.46700
C  14.83200 49.38800 28.10100
C  14.70000 48.95700 24.77600
O  14.47100 48.80100 23.56500
C  16.06500 49.29900 25.15200
N  9.34800 48.08000 24.55200
C  10.41800 48.10400 23.70400
C  10.03500 47.74700 22.28100
C  8.46300 47.55800 22.41500
C  8.15900 47.88900 23.91000
C  10.48400 48.80300 21.24700
C  8.01100 46.16500 21.92300
C  7.25100 46.20500 20.60400
N  7.46500 48.19600 26.82100
C  6.53100 47.99300 25.86200
C  5.18500 47.97000 26.40700
C  5.44200 47.97600 27.78900
C  6.80800 48.14700 27.97600
C  3.83500 47.79900 25.76400
C  4.76300 47.88200 29.00300
O  3.56800 47.85700 29.29900
C  5.92000 47.85800 30.09300
C  5.87500 46.48500 30.63400
O  6.24500 45.46900 30.10700
O  5.12800 46.51600 31.74300
C  4.91400 45.21500 32.42400
H  12.86200 48.88100 29.57600
H  12.37900 48.29400 23.32600
H  6.18800 47.73000 23.64700
H  8.74100 49.25800 31.73800
H  11.02700 47.53300 31.40200
H  11.70100 49.37700 32.58600
H  10.38800 50.47100 32.14800
H  11.79600 50.42700 31.15300
H  8.32500 46.34300 31.57100
H  7.55200 47.56500 32.56700
H  10.31100 47.10700 33.43800
H  9.66400 45.62900 33.09200
H  15.76400 49.03800 27.65800
H  14.80600 48.79000 29.01100
H  14.85600 50.45100 28.34100
H  16.65400 49.61000 24.29000
H  16.58900 48.48700 25.65600
H  15.94600 50.19100 25.76800
H  10.62000 46.86000 22.03600
H  7.94500 48.30000 21.80700
H  11.43600 48.50000 20.81100
H  10.62100 49.77900 21.71200
H  9.72600 48.92600 20.47400
H  7.30200 45.85100 22.68900
H  8.81600 45.43000 21.90600
H  6.19500 45.99500 20.77300
H  7.65800 45.55500 19.83000
H  7.32200 47.23000 20.24100
H  3.46900 46.77200 25.76000
H  3.95800 48.15700 24.74200
H  3.11800 48.40900 26.31500
H  5.71200 48.60400 30.86000
H  3.93500 44.80400 32.17800
H  4.97300 45.31100 33.50800
H  5.80300 44.60800 32.24900

