158

Mg 23.75400 -3.90800 45.30100
C  25.84900 -1.38100 44.02200
C  21.29800 -2.91000 43.16300
C  22.43800 -6.92800 45.57200
C  26.73200 -5.22300 46.91100
N  23.66600 -2.35900 43.68400
C  24.62200 -1.45800 43.34900
C  24.17400 -0.58100 42.19700
C  22.56000 -0.75000 42.25100
C  22.49400 -2.15000 43.05100
C  21.61400 0.17100 43.10200
C  24.85600 -1.13400 40.91500
C  25.11600 -0.07700 39.89200
H  25.27000 -0.39000 38.37600
N  22.02300 -4.81300 44.55100
C  21.10100 -4.17300 43.74900
C  20.00100 -5.05400 43.49500
C  20.33800 -6.25900 44.21100
C  21.62200 -6.05300 44.84200
C  18.86400 -4.73800 42.60000
C  19.40900 -7.42400 44.20100
O  18.36900 -7.50600 43.55300
C  19.86200 -8.63100 44.95900
N  24.53800 -5.80700 46.12100
C  23.70900 -6.82500 46.07500
C  24.29000 -7.99400 46.88000
C  25.68100 -7.52300 47.33100
C  25.67500 -6.04800 46.79400
C  23.43600 -8.77300 48.03300
C  26.88500 -8.27900 46.77200
C  27.65900 -9.01200 47.88600
N  25.76500 -3.32400 45.65400
C  26.78000 -3.89000 46.41100
C  27.97200 -3.01500 46.31500
C  27.62600 -2.03500 45.42800
C  26.30200 -2.23900 44.98600
C  29.30500 -3.38300 47.01900
C  28.25500 -0.94100 44.71300
O  29.38400 -0.38200 44.79700
C  27.14300 -0.46200 43.71700
C  26.76400 0.92300 44.08100
O  25.99200 1.20700 44.98300
O  27.50900 1.82000 43.33000
C  27.31700 3.27000 43.47900
H  20.42300 -2.46000 42.68900
H  22.13500 -7.95900 45.77000
H  27.59300 -5.75200 47.32500
H  24.44800 0.43700 42.47200
H  22.21300 -1.07200 41.27000
H  20.76900 0.50900 42.50100
H  22.14200 1.08500 43.37400
H  21.36400 -0.28400 44.06000
H  24.16500 -1.87900 40.52000
H  25.82100 -1.53900 41.22200
H  26.00500 0.48900 40.17000
H  24.27600 0.61400 39.82100
H  19.07100 -5.06000 41.57900
H  18.69400 -3.66200 42.56700
H  17.90900 -5.09600 42.98600
H  19.22600 -9.51600 44.96900
H  19.89400 -8.35100 46.01200
H  20.83800 -8.94000 44.58500
H  24.48800 -8.76400 46.13400
H  25.71200 -7.50300 48.42100
H  22.63100 -8.06500 48.22800
H  23.93100 -8.88700 48.99800
H  23.09300 -9.74900 47.69100
H  27.57500 -7.62500 46.23800
H  26.65300 -9.06400 46.05200
H  27.40700 -10.03900 47.61900
H  27.43000 -8.61700 48.87600
H  28.73200 -8.84600 47.79200
H  29.26700 -4.43200 47.31400
H  29.55800 -2.83100 47.92400
H  30.10700 -3.27800 46.28800
H  27.55100 -0.53200 42.70900
H  26.51600 3.47400 44.19000
H  27.20900 3.75700 42.51000
H  28.13100 3.75400 44.02000
Mg -2.08400 34.24400 26.53600
C  -3.77300 32.95100 29.29600
C  -0.60100 36.54000 28.65000
C  -0.53300 35.77300 23.84200
C  -3.84900 32.23500 24.44000
N  -2.27400 34.76700 28.68200
C  -2.89800 33.99500 29.64700
C  -2.44400 34.31100 31.05100
C  -1.60700 35.62300 30.79100
C  -1.51200 35.62700 29.25200
C  -2.09600 36.92500 31.38300
C  -1.64800 33.14600 31.76000
C  -1.01300 33.55000 33.09400
H  -1.46600 32.85700 34.34200
N  -0.79000 36.01400 26.25100
C  -0.21900 36.73600 27.25100
C  0.73000 37.70200 26.65300
C  0.74000 37.49500 25.20800
C  -0.20200 36.37200 25.00300
C  1.60000 38.64000 27.46800
C  1.43100 38.16400 24.09700
O  1.16600 37.90200 22.91000
C  2.49700 39.07200 24.40400
N  -2.28200 34.16900 24.41800
C  -1.52400 34.78900 23.53800
C  -1.52500 34.17400 22.16100
C  -2.48200 32.95900 22.33400
C  -2.92900 33.10700 23.85600
C  -2.17700 35.13200 20.97300
C  -1.77600 31.56100 22.10100
C  -2.83200 30.51800 21.69100
N  -3.59800 32.91200 26.72900
C  -4.13600 32.10700 25.79400
C  -4.93600 31.11500 26.42300
C  -4.89600 31.44300 27.83600
C  -4.07300 32.53100 27.93500
C  -5.67700 30.03900 25.73100
C  -5.39200 31.08600 29.15700
O  -6.17200 30.17400 29.52200
C  -4.59800 32.03800 30.16600
C  -5.57500 32.65700 31.00200
O  -6.70900 33.00500 30.60400
O  -5.22000 32.59200 32.31900
C  -6.36800 32.71100 33.28700
H  -0.04500 37.10400 29.40300
H  -0.06000 35.93700 22.87200
H  -4.48700 31.72000 23.71800
H  -3.40100 34.48800 31.54200
H  -0.63100 35.52900 31.26700
H  -2.57800 37.66700 30.74700
H  -1.30000 37.46900 31.89200
H  -2.85600 36.58400 32.08700
H  -0.94700 32.70900 31.04900
H  -2.40400 32.37500 31.90900
H  -1.03500 34.63200 33.22300
H  0.05700 33.34900 33.04100
H  2.62800 38.63800 27.10400
H  1.62400 38.30300 28.50500
H  1.14300 39.62900 27.46300
H  2.15000 39.94700 24.95300
H  2.86300 39.46700 23.45700
H  3.34800 38.60500 24.90000
H  -0.52500 33.90800 21.81800
H  -3.35200 33.04300 21.68200
H  -3.26400 35.09700 20.90000
H  -1.78400 34.89000 19.98600
H  -1.91500 36.18600 21.06200
H  -1.52700 31.28800 23.12600
H  -0.80600 31.52300 21.60500
H  -2.39400 29.92500 20.88800
H  -3.83800 30.92500 21.58900
H  -3.02000 29.75500 22.44700
H  -5.43600 29.09900 26.22700
H  -5.52000 29.87600 24.66400
H  -6.75700 30.12900 25.84400
H  -3.98900 31.37800 30.78400
H  -6.80000 31.73300 33.49800
H  -7.07400 33.43400 32.87800
H  -6.05800 33.26800 34.17100

