158

Mg 6.45100 55.13500 39.32500
C  5.81000 51.71500 39.10500
C  9.75900 54.52000 38.43900
C  6.79400 58.44600 38.83000
C  2.97400 55.63900 39.58300
N  7.71100 53.32800 38.96900
C  7.17000 52.00800 38.88200
C  8.36000 51.02300 38.58900
C  9.63900 51.89200 38.64400
C  9.05300 53.33600 38.78400
C  10.69900 51.47400 39.83200
C  8.05900 50.29300 37.20300
C  7.69200 51.26100 36.03800
H  6.70900 50.75700 34.94400
N  8.00500 56.29500 38.79900
C  9.29700 55.89400 38.40400
C  10.12900 56.99300 38.20400
C  9.24900 58.21800 38.33600
C  7.92700 57.67500 38.61900
C  11.55800 56.90400 37.91600
C  9.76100 59.65400 38.18800
O  10.96200 59.93100 38.01400
C  8.77900 60.84400 38.40500
N  5.04200 56.83500 39.34000
C  5.45300 58.07300 39.09900
C  4.38600 59.14900 39.28900
C  3.10700 58.21200 39.43800
C  3.71800 56.82900 39.43600
C  4.64400 60.04100 40.60300
C  2.03100 58.46600 38.38300
C  1.32300 59.82800 38.49500
N  4.71800 53.95200 39.48500
C  3.42100 54.30500 39.66000
C  2.55200 53.09300 39.91600
C  3.53000 52.06000 39.73900
C  4.77600 52.63200 39.38600
C  0.98300 53.05700 40.07300
C  3.75900 50.68900 39.82500
O  3.04000 49.78400 40.20000
C  5.14100 50.40700 39.28400
C  4.94000 49.50300 38.15900
O  4.55400 49.90400 37.07400
O  5.38800 48.19400 38.44400
C  5.10900 47.26300 37.35900
H  10.79300 54.35400 38.12700
H  6.87500 59.53400 38.78000
H  1.89900 55.81300 39.66600
H  8.28500 50.23200 39.33500
H  10.13200 51.79400 37.67700
H  10.21700 50.94700 40.65600
H  11.09500 52.42000 40.20100
H  11.40300 50.92500 39.20700
H  7.25200 49.57800 37.36200
H  8.99500 49.78800 36.96200
H  8.63100 51.54500 35.56400
H  7.23700 52.18900 36.38300
H  11.58000 56.20800 37.07800
H  12.04400 56.50600 38.80700
H  12.01900 57.80600 37.51500
H  9.38700 61.70100 38.11600
H  8.41400 61.02300 39.41600
H  8.06100 60.64700 37.60900
H  4.29700 59.79900 38.41900
H  2.72600 58.33900 40.45100
H  5.63100 59.76300 40.97400
H  3.88700 59.96000 41.38300
H  4.61100 61.08900 40.30600
H  1.18100 57.78700 38.31200
H  2.60400 58.48500 37.45600
H  1.84300 60.42900 39.24200
H  0.30800 59.58800 38.81000
H  1.16000 60.29000 37.52100
H  0.90300 51.97300 40.15200
H  0.49600 53.53500 39.22300
H  0.63000 53.59200 40.95500
H  5.61200 49.90100 40.12600
H  4.03900 47.10500 37.22400
H  5.59900 46.31000 37.56300
H  5.62500 47.54700 36.44200
Mg 0.48400 42.98200 25.40300
C  1.78300 43.01300 28.63700
C  -2.40100 41.67800 26.79000
C  -0.63400 42.03200 22.32300
C  3.61400 43.54800 24.10300
N  -0.25700 42.38000 27.55000
C  0.37900 42.70100 28.71600
C  -0.51200 42.41500 29.94200
C  -1.85900 41.96000 29.32300
C  -1.49600 42.01800 27.77600
C  -2.43200 40.59900 29.82200
C  -0.62000 43.77200 30.84300
C  0.09500 43.74100 32.13000
H  -0.75200 43.68400 33.43500
N  -1.31300 42.10600 24.65100
C  -2.36800 41.64900 25.34100
C  -3.42600 41.36800 24.40600
C  -2.90900 41.41500 23.08500
C  -1.54800 41.88100 23.32000
C  -4.76400 41.01200 24.88200
C  -3.56100 41.15700 21.73100
O  -3.02400 41.32200 20.59200
C  -4.99000 40.80900 21.55600
N  1.33400 42.83200 23.52800
C  0.68400 42.39200 22.40100
C  1.55400 42.48300 21.11000
C  2.88400 43.13900 21.60100
C  2.60500 43.16300 23.16700
C  1.83300 41.12300 20.41400
C  3.07700 44.46600 20.86500
C  2.22100 45.64900 21.34300
N  2.27600 43.32100 26.17900
C  3.47500 43.58200 25.50100
C  4.53600 43.79700 26.46900
C  3.88800 43.61500 27.69900
C  2.50700 43.24600 27.47000
C  5.96300 44.10900 26.17900
C  4.12000 43.61600 29.21700
O  5.05500 43.88000 29.89100
C  2.73600 43.21100 29.80500
C  2.93000 42.02800 30.62300
O  2.44700 40.92900 30.40500
O  3.32500 42.38300 31.89400
C  2.91600 41.47900 33.04300
H  -3.38400 41.35400 27.13600
H  -0.95000 41.87200 21.29000
H  4.61600 43.72300 23.70600
H  -0.09900 41.57100 30.49600
H  -2.62000 42.69100 29.59800
H  -2.56700 40.02400 28.90600
H  -3.33900 40.74600 30.40900
H  -1.66300 40.11500 30.42500
H  -1.65300 44.09100 30.98200
H  -0.23700 44.55500 30.18800
H  0.60800 44.70200 32.16600
H  0.93300 43.04300 32.14700
H  -5.56000 41.29100 24.19100
H  -4.87700 41.49900 25.85100
H  -4.79500 39.92900 24.99900
H  -5.53200 41.71000 21.84200
H  -5.17700 39.99800 22.26100
H  -5.34000 40.47000 20.58200
H  0.99000 43.10100 20.41200
H  3.76400 42.50900 21.47400
H  1.89100 40.32600 21.15600
H  2.79000 41.15900 19.89200
H  1.12200 40.87900 19.62400
H  2.73900 44.30300 19.84200
H  4.13600 44.72100 20.82100
H  1.48800 45.31200 22.07600
H  1.65300 46.07800 20.51800
H  2.83100 46.49500 21.66100
H  6.17500 45.17700 26.20900
H  6.22000 43.94500 25.13300
H  6.68000 43.71000 26.89700
H  2.40200 44.08400 30.36600
H  3.90600 41.05500 33.21100
H  2.13800 40.76600 32.77200
H  2.67900 41.99000 33.97700

