158

Mg 17.65500 -0.28700 27.56600
C  16.80800 1.37800 30.61700
C  19.50600 -2.43800 29.43300
C  18.69100 -1.56300 24.70500
C  15.66400 2.07200 25.93300
N  18.28100 -0.34700 29.71700
C  17.67200 0.29300 30.77500
C  18.01400 -0.33000 32.14100
C  19.17600 -1.33500 31.73600
C  18.99600 -1.39500 30.21500
C  20.66300 -0.88300 31.92400
C  16.84700 -1.08000 32.83900
C  16.72200 -0.85900 34.33600
H  18.05300 -0.56100 35.09600
N  18.84300 -1.83200 27.15500
C  19.50100 -2.70100 28.03200
C  20.19000 -3.74100 27.27600
C  19.91300 -3.50300 25.92300
C  19.13700 -2.28200 25.85800
C  21.03500 -4.86400 27.98200
C  20.51000 -4.27200 24.77100
O  20.24100 -3.99900 23.60500
C  21.46800 -5.47600 24.97500
N  17.19500 0.16500 25.67000
C  17.89100 -0.42800 24.60200
C  17.79400 0.38500 23.36200
C  16.50800 1.27000 23.69500
C  16.44100 1.21200 25.22200
C  19.04300 1.18500 22.83000
C  15.11900 1.06100 22.95200
C  14.96600 1.97000 21.67100
N  16.54800 1.39400 28.12400
C  15.71400 2.26200 27.34500
C  15.03300 3.18700 28.16300
C  15.37000 2.82900 29.40800
C  16.39900 1.85900 29.37700
C  14.10600 4.28000 27.68000
C  15.08200 3.12300 30.88500
O  14.42600 4.03400 31.41600
C  15.99900 2.17800 31.63800
C  16.89300 3.05100 32.54900
O  17.99900 3.47500 32.23400
O  16.32200 3.27800 33.75600
C  17.05900 4.17100 34.65500
H  20.05100 -3.20900 29.98100
H  18.98100 -1.95000 23.72600
H  15.12800 2.75200 25.26700
H  18.27000 0.47800 32.82600
H  19.04300 -2.32100 32.18200
H  21.16800 -0.70600 30.97500
H  21.16900 -1.73800 32.37400
H  20.53500 -0.00900 32.56200
H  16.96200 -2.16300 32.82700
H  15.93200 -0.83600 32.29900
H  16.37700 -1.74500 34.86900
H  16.05400 -0.02100 34.53600
H  20.96000 -4.75900 29.06400
H  22.07800 -4.72800 27.69800
H  20.62000 -5.84400 27.74300
H  22.39100 -5.12300 25.43500
H  21.65200 -5.66600 23.91800
H  21.02600 -6.33700 25.47700
H  17.65300 -0.36200 22.58100
H  16.80100 2.30600 23.52500
H  19.99100 0.76700 23.16900
H  19.09500 2.26600 22.95700
H  19.24500 0.90600 21.79500
H  14.33900 1.26300 23.68700
H  14.97500 0.01000 22.70400
H  14.27100 2.80600 21.74600
H  14.59000 1.38900 20.82900
H  16.00700 2.25600 21.51700
H  14.11300 4.39500 26.59700
H  14.23500 5.22900 28.20000
H  13.13600 3.93200 28.03600
H  15.51400 1.53800 32.37500
H  17.11300 3.63400 35.60200
H  16.48000 5.08100 34.81700
H  18.07800 4.33900 34.30700
Mg 35.68600 2.87900 30.41200
C  33.31900 4.11500 32.63500
C  37.81400 2.48800 33.04300
C  38.04600 1.75100 28.29600
C  33.55200 3.60100 27.73100
N  35.63700 3.46800 32.58400
C  34.54500 3.89400 33.26300
C  34.82100 3.72100 34.74900
C  36.35800 3.63000 34.80500
C  36.63000 3.13200 33.43000
C  37.07000 4.98100 35.04300
C  34.09100 2.52400 35.39500
C  33.76500 2.53700 36.82400
H  34.47100 3.68200 37.58700
N  37.65800 2.32100 30.65000
C  38.30500 2.16000 31.75100
C  39.59600 1.38100 31.54700
C  39.67200 1.20000 30.13700
C  38.43100 1.83400 29.62700
C  40.54200 0.86000 32.60100
C  40.65400 0.38900 29.32200
O  40.53700 0.16700 28.12100
C  41.76500 -0.33700 30.04900
N  35.84400 2.85600 28.23600
C  36.79800 2.10000 27.73100
C  36.55600 1.92200 26.17000
C  35.07600 2.46600 26.02100
C  34.75900 2.96300 27.41300
C  37.62200 2.51800 25.25100
C  34.03900 1.47100 25.49000
C  32.96500 2.04800 24.58600
N  33.79400 3.60100 30.20400
C  33.09200 3.86200 29.04200
C  31.78100 4.35600 29.48200
C  31.83400 4.50700 30.85600
C  33.08800 4.05900 31.24800
C  30.52800 4.56400 28.62400
C  31.02600 4.84700 32.05000
O  29.88800 5.24800 32.17700
C  32.07500 4.67000 33.28500
C  32.29700 6.01200 33.97500
O  33.14100 6.85200 33.61000
O  31.64300 6.08600 35.18900
C  31.65500 7.27300 35.96600
H  38.53700 2.36700 33.85300
H  38.70700 1.22600 27.60300
H  32.81000 3.82000 26.96000
H  34.43100 4.63300 35.20100
H  36.62900 2.86100 35.52900
H  36.50300 5.64700 35.69300
H  37.26200 5.43700 34.07200
H  38.03600 4.81400 35.52000
H  34.64800 1.63300 35.10400
H  33.10800 2.56000 34.92500
H  34.14900 1.64100 37.31200
H  32.74100 2.58100 37.19600
H  41.51400 1.34300 32.49700
H  40.60200 -0.22700 32.54600
H  40.10300 0.91000 33.59800
H  42.36300 -0.90600 29.33700
H  41.23500 -1.08200 30.64200
H  42.43100 0.29500 30.63700
H  36.49100 0.85200 25.97000
H  35.08300 3.38000 25.42800
H  38.46000 2.92700 25.81600
H  37.19300 3.27900 24.59900
H  38.00100 1.70000 24.63800
H  33.66300 1.01700 26.40700
H  34.50000 0.72600 24.84200
H  33.10700 1.63000 23.58900
H  32.91000 3.13500 24.52600
H  31.94800 1.79800 24.88600
H  29.72600 3.97200 29.06600
H  30.70100 4.28200 27.58500
H  30.16600 5.58500 28.74500
H  31.70600 4.01000 34.07100
H  30.61100 7.53000 36.14400
H  32.05100 8.14400 35.44400
H  32.19900 7.28800 36.91000

