158

Mg 49.22700 35.09700 27.57700
C  47.33200 33.49200 30.16800
C  49.69800 37.69400 29.85500
C  50.87600 36.70100 25.17300
C  48.58100 32.40100 25.53900
N  48.60500 35.50300 29.78200
C  48.00100 34.65500 30.60500
C  48.07500 35.15500 32.03200
C  48.39900 36.73900 31.86200
C  48.91300 36.70700 30.43500
C  47.15200 37.71500 31.88200
C  49.21500 34.48000 32.84700
C  49.03300 34.42800 34.36700
H  47.94500 35.30700 35.03400
N  50.23500 36.93300 27.49700
C  50.34400 37.84000 28.59500
C  50.95300 39.01200 28.01800
C  51.36800 38.67900 26.71900
C  50.90000 37.37300 26.43600
C  51.24400 40.17600 28.95700
C  52.06000 39.58500 25.69800
O  52.21000 39.28100 24.53100
C  52.23500 41.04600 26.06400
N  49.64400 34.63900 25.61800
C  50.46000 35.40400 24.79100
C  50.85100 34.63100 23.45100
C  50.19100 33.25400 23.76400
C  49.48300 33.33600 25.06200
C  50.48000 35.31100 22.12500
C  51.14200 32.02800 23.76300
C  50.74400 30.76100 22.95600
N  48.02100 33.39600 27.71600
C  47.87400 32.41700 26.77500
C  46.90000 31.45000 27.23900
C  46.71000 31.76900 28.57700
C  47.37000 32.98400 28.80900
C  46.54600 30.10100 26.57400
C  46.01200 31.37000 29.76900
O  45.23000 30.47100 29.98400
C  46.35800 32.44600 30.86000
C  46.58400 31.85200 32.21300
O  47.57100 31.21600 32.59200
O  45.50200 32.27500 33.08600
C  45.80700 32.01900 34.49900
H  49.72300 38.55800 30.52200
H  51.40300 37.11600 24.31200
H  48.47300 31.58300 24.82400
H  47.06200 35.04700 32.42000
H  49.21700 37.00600 32.53100
H  47.18300 38.12400 30.87300
H  47.28100 38.57200 32.54400
H  46.22100 37.16300 32.01200
H  50.16200 34.99100 32.67100
H  49.26400 33.47500 32.42900
H  50.02000 34.68400 34.75200
H  48.92300 33.40100 34.71400
H  50.36900 40.43800 29.55300
H  51.48500 41.09700 28.42500
H  52.06500 40.05400 29.66300
H  52.82000 41.53400 25.28500
H  52.75000 41.24600 27.00400
H  51.25500 41.51500 25.98900
H  51.92500 34.52600 23.60300
H  49.36500 33.06900 23.07700
H  49.95800 36.20600 22.46500
H  49.78900 34.74500 21.50000
H  51.41200 35.62900 21.65900
H  51.29500 31.63600 24.76900
H  52.15800 32.29800 23.47900
H  51.18500 29.93800 23.51900
H  51.21100 30.83900 21.97400
H  49.65700 30.73400 22.88200
H  45.48000 30.00900 26.36800
H  46.90800 29.26500 27.17200
H  47.04000 29.91000 25.62100
H  45.45100 33.03200 31.00600
H  45.05200 32.53600 35.09100
H  46.75600 32.44700 34.82300
H  45.66200 30.95200 34.66800
Mg 42.58200 42.42000 26.53100
C  41.31900 44.77500 28.92400
C  44.09600 40.69700 29.06200
C  43.98400 40.45800 24.21600
C  41.54800 44.67200 23.95100
N  42.88000 42.86700 28.79200
C  42.06100 43.75200 29.57500
C  42.07900 43.26600 31.07900
C  43.20000 42.18900 31.09400
C  43.36300 41.82700 29.53700
C  44.51400 42.79000 31.57300
C  40.72300 42.73000 31.71100
C  40.16200 43.28800 33.01100
H  40.24600 42.44200 34.22500
N  43.64300 40.57000 26.67000
C  44.20900 40.08500 27.76700
C  44.89800 38.88800 27.37500
C  44.80500 38.78300 25.99400
C  44.04100 39.95100 25.55300
C  45.69500 38.09600 28.44800
C  45.39600 37.73300 25.04100
O  45.08700 37.71300 23.85400
C  46.39900 36.74600 25.48700
N  42.79700 42.65200 24.43500
C  43.40700 41.71500 23.70300
C  43.48400 42.18900 22.19500
C  42.33600 43.12800 22.09200
C  42.15500 43.47200 23.56800
C  44.91500 42.59300 21.66600
C  41.02800 42.53000 21.41300
C  40.19600 41.54800 22.21700
N  41.59300 44.36200 26.44300
C  41.28800 45.12300 25.28100
C  40.63900 46.31200 25.71800
C  40.42800 46.11100 27.16400
C  41.20200 44.94600 27.52400
C  40.19300 47.51200 24.97500
C  39.92000 46.79800 28.34000
O  39.42000 47.89500 28.46400
C  40.38800 45.88300 29.53200
C  41.01500 46.62900 30.64200
O  42.22400 46.82000 30.84700
O  39.99700 46.86000 31.57500
C  40.57000 47.21200 32.85000
H  44.51000 40.04500 29.83400
H  44.45900 39.87900 23.42100
H  41.30300 45.26400 23.06700
H  42.41700 44.11400 31.67500
H  43.06000 41.27800 31.67600
H  45.16600 41.92600 31.70400
H  44.39900 43.23300 32.56200
H  44.90600 43.43100 30.78400
H  40.81600 41.64400 31.73300
H  40.03300 43.02700 30.92100
H  39.09800 43.48900 32.88400
H  40.68200 44.22400 33.21700
H  45.11900 37.87500 29.34700
H  46.43400 38.82800 28.77300
H  46.32100 37.24100 28.19100
H  46.04300 36.13100 26.31400
H  47.28500 37.34700 25.69400
H  46.49100 36.14300 24.58400
H  43.23500 41.28300 21.64300
H  42.50900 44.07500 21.58000
H  45.79600 42.16500 22.14400
H  45.06600 43.66200 21.51400
H  44.96000 42.08400 20.70300
H  41.47800 42.02700 20.55700
H  40.43300 43.36500 21.04500
H  40.67700 41.41300 23.18600
H  40.10700 40.57900 21.72700
H  39.20200 41.95600 22.40300
H  40.40500 48.38500 25.59300
H  39.10600 47.54400 24.89600
H  40.61200 47.60900 23.97400
H  39.44900 45.43400 29.85600
H  41.12400 46.30700 33.09600
H  39.84700 47.47700 33.62100
H  41.29200 48.02200 32.74700

