158

Mg 2.20700 -1.66000 44.68400
C  5.47400 -0.85200 44.25300
C  1.46800 0.80800 42.37600
C  -0.88500 -2.75200 44.60100
C  3.19900 -4.52300 46.63900
N  3.40000 -0.27200 43.25600
C  4.71500 -0.08900 43.42100
C  5.24500 0.98700 42.41000
C  3.91400 1.61800 41.83500
C  2.87300 0.74100 42.60600
C  3.76100 3.12400 41.98000
C  6.23000 0.48700 41.29500
C  7.42500 1.44900 41.09600
H  7.63200 1.91300 39.65300
N  0.56700 -1.06000 43.70400
C  0.43400 0.02400 42.86100
C  -1.02800 0.28000 42.56900
C  -1.65500 -0.86200 43.02700
C  -0.69100 -1.59200 43.86100
C  -1.47500 1.41700 41.67500
C  -3.15200 -1.18200 42.70800
O  -3.81400 -0.62000 41.86400
C  -3.84800 -2.26500 43.42700
N  1.29000 -3.53600 45.42900
C  -0.05100 -3.62500 45.34300
C  -0.61600 -4.90500 46.05700
C  0.77500 -5.53700 46.63100
C  1.81800 -4.48300 46.21500
C  -1.58900 -4.51800 47.23300
C  1.09900 -6.90400 45.94900
C  1.23400 -8.18600 46.85500
N  3.93300 -2.54400 45.35300
C  4.19200 -3.68000 46.17000
C  5.62900 -3.84300 46.32500
C  6.19800 -2.67600 45.66300
C  5.10700 -1.91200 45.11300
C  6.37000 -4.90000 47.17500
C  7.40100 -1.87700 45.32800
O  8.57100 -2.15300 45.51200
C  6.97400 -0.66300 44.51300
C  7.19300 0.67400 45.21800
O  6.68600 1.12900 46.23500
O  7.87700 1.45600 44.41100
C  8.14600 2.84300 44.80900
H  1.19200 1.55800 41.63100
H  -1.92300 -3.06900 44.72100
H  3.52000 -5.45000 47.11900
H  5.69500 1.76000 43.03300
H  3.83300 1.46000 40.76000
H  3.57600 3.46400 40.96100
H  4.68600 3.59100 42.31600
H  2.90800 3.38500 42.60600
H  5.64800 0.43700 40.37400
H  6.44900 -0.53900 41.59000
H  8.27500 0.77900 41.23000
H  7.39400 2.27700 41.80400
H  -2.54800 1.54200 41.52800
H  -0.98200 1.19300 40.73000
H  -0.90900 2.27600 42.03600
H  -3.79100 -2.18000 44.51200
H  -3.50200 -3.25200 43.12100
H  -4.91300 -2.12100 43.24400
H  -1.06900 -5.58000 45.33100
H  0.82400 -5.57000 47.71900
H  -1.05200 -4.23900 48.14000
H  -2.14400 -5.43100 47.44700
H  -2.27800 -3.68900 47.07400
H  2.07800 -6.75900 45.49200
H  0.37100 -7.13000 45.16900
H  2.27800 -8.48600 46.93900
H  0.86900 -9.08700 46.36100
H  0.78800 -8.05200 47.84000
H  5.75300 -5.02300 48.06500
H  7.43500 -4.81600 47.39200
H  6.35000 -5.77600 46.52700
H  7.50800 -0.57500 43.56700
H  7.24800 3.38200 45.10900
H  8.61200 3.48600 44.06300
H  8.85400 2.85300 45.63800
Mg -11.74300 38.25600 42.33500
C  -9.53000 35.61900 41.78700
C  -9.23100 40.34600 41.41100
C  -14.02300 40.66700 42.21500
C  -14.25700 35.89100 42.86300
N  -9.61600 37.99200 41.71000
C  -8.91100 36.82200 41.50600
C  -7.48900 37.08800 40.94400
C  -7.28900 38.56900 41.19400
C  -8.78500 39.06000 41.50400
C  -6.27200 39.17200 42.24600
C  -7.27800 36.55900 39.42200
C  -6.32700 35.30400 39.24900
H  -6.54500 34.35600 38.09800
N  -11.67200 40.25800 41.82900
C  -10.53400 40.95600 41.62600
C  -10.89200 42.37900 41.53200
C  -12.29300 42.51500 41.64900
C  -12.73000 41.12800 41.84800
C  -9.87900 43.48600 41.23200
C  -13.11200 43.85700 41.54500
O  -12.55500 44.97200 41.34100
C  -14.55800 43.79600 41.59500
N  -13.80600 38.30600 42.48800
C  -14.47400 39.42400 42.48800
C  -16.06000 39.17700 42.60700
C  -16.00700 37.64700 42.98700
C  -14.63300 37.27500 42.74000
C  -16.61300 40.07600 43.77700
C  -17.14900 36.85800 42.32300
C  -16.81900 36.23700 40.92100
N  -11.94500 36.14500 42.42400
C  -13.02000 35.31200 42.53300
C  -12.61900 33.92200 42.57300
C  -11.22400 33.98300 42.27800
C  -10.89500 35.37200 42.17800
C  -13.57800 32.80700 42.75500
C  -9.98500 33.26200 41.93900
O  -9.89600 32.02500 41.75300
C  -8.86000 34.24200 41.73900
C  -7.71200 34.13800 42.71200
O  -7.70600 34.75000 43.79700
O  -6.72000 33.39000 42.19600
C  -5.46200 33.22300 42.92100
H  -8.40100 41.05300 41.35400
H  -14.80800 41.42300 42.27100
H  -14.97500 35.16300 43.24600
H  -6.82600 36.59700 41.65500
H  -6.94400 38.95900 40.23700
H  -5.74800 38.43600 42.85500
H  -6.80000 39.85500 42.91300
H  -5.51200 39.74300 41.71200
H  -6.81200 37.31100 38.78600
H  -8.21100 36.28500 38.93000
H  -6.15300 34.78400 40.19100
H  -5.35700 35.78000 39.11100
H  -9.98900 43.66800 40.16300
H  -8.92600 43.07100 41.56000
H  -10.04900 44.35900 41.86200
H  -15.02000 43.04500 40.95500
H  -14.92300 44.78300 41.31200
H  -14.88200 43.70800 42.63200
H  -16.49600 39.36200 41.62600
H  -16.10100 37.56800 44.07000
H  -15.81500 40.64400 44.25500
H  -17.12100 39.59100 44.61200
H  -17.39400 40.74800 43.42100
H  -18.03500 37.49200 42.30000
H  -17.28300 36.01700 43.00300
H  -17.65900 36.36900 40.23900
H  -16.68700 35.16200 41.04500
H  -16.01500 36.72100 40.36700
H  -13.92600 32.70900 43.78300
H  -13.05300 31.90000 42.45700
H  -14.39700 32.94400 42.04800
H  -8.51600 34.01000 40.73000
H  -4.70400 32.95700 42.18400
H  -5.41900 32.55200 43.77800
H  -5.13400 34.19400 43.29300

