158

Mg 23.88100 -5.54100 46.01800
C  26.12500 -3.57400 44.19800
C  21.37400 -4.70500 43.83600
C  22.23700 -8.37400 46.98100
C  26.56900 -6.61400 48.03200
N  23.77500 -4.42900 44.20800
C  24.79600 -3.67800 43.61700
C  24.29800 -2.77000 42.50000
C  22.75800 -3.12000 42.55500
C  22.55200 -4.09600 43.59200
C  21.86100 -1.86800 42.74300
C  25.06600 -3.06600 41.13400
C  25.69600 -1.91000 40.43800
H  25.91600 -2.00200 38.90600
N  21.94000 -6.27900 45.63600
C  21.08000 -5.76200 44.77100
C  19.76200 -6.46100 44.95300
C  19.99800 -7.44000 45.95400
C  21.46300 -7.38600 46.24500
C  18.48100 -6.07800 44.21900
C  18.98800 -8.44700 46.53800
O  17.84800 -8.51500 46.09800
C  19.28800 -9.31300 47.71000
N  24.41900 -7.32200 47.22800
C  23.57600 -8.38300 47.42200
C  24.19600 -9.47900 48.37700
C  25.32800 -8.69200 48.98200
C  25.44100 -7.45700 48.09700
C  23.29500 -10.25800 49.37200
C  26.74900 -9.46300 49.12100
C  27.62600 -9.03200 50.27700
N  25.92800 -5.17100 46.17400
C  26.91700 -5.68400 47.06400
C  28.11300 -4.95100 46.89500
C  27.92000 -4.05600 45.80900
C  26.53400 -4.32500 45.33500
C  29.26500 -5.15300 47.83900
C  28.45200 -3.02300 44.93800
O  29.54200 -2.48100 44.99200
C  27.34700 -2.72800 43.85900
C  27.11300 -1.25000 43.96900
O  26.38900 -0.73700 44.80500
O  27.95000 -0.62800 43.10300
C  28.00300 0.80400 43.31100
H  20.50400 -4.38500 43.25900
H  21.76000 -9.34700 47.11200
H  27.28500 -6.85600 48.82000
H  24.43300 -1.71900 42.75400
H  22.37800 -3.53200 41.62100
H  21.14500 -1.93500 43.56200
H  21.28900 -1.74800 41.82300
H  22.39100 -0.91600 42.76200
H  24.33000 -3.49300 40.45200
H  25.78300 -3.88500 41.19500
H  26.61200 -1.87200 41.02700
H  25.25000 -0.92900 40.60100
H  18.13100 -6.79600 43.47700
H  18.58200 -5.15800 43.64400
H  17.75600 -5.86400 45.00400
H  18.36200 -9.62900 48.19000
H  19.96100 -8.69500 48.30400
H  19.68800 -10.23700 47.29500
H  24.50000 -10.27300 47.69400
H  24.95000 -8.41700 49.96700
H  22.38600 -9.70300 49.60400
H  23.78100 -10.37200 50.34100
H  23.03800 -11.23400 48.96000
H  27.27300 -9.21700 48.19800
H  26.56100 -10.53000 49.24300
H  27.90600 -9.80000 50.99800
H  27.01000 -8.31400 50.81800
H  28.48200 -8.44900 49.93800
H  30.00200 -4.50300 47.36800
H  29.45900 -6.22500 47.88500
H  29.08600 -4.89300 48.88200
H  27.62200 -2.98700 42.83600
H  26.96100 1.11600 43.37700
H  28.47300 1.31900 42.47200
H  28.60500 1.01800 44.19400
Mg 31.76500 58.50800 41.03500
C  28.96000 56.79500 39.29400
C  33.76700 55.99200 39.88000
C  34.29300 60.53300 41.74600
C  29.41100 61.14200 41.73900
N  31.38700 56.68100 39.68500
C  30.25900 56.20500 39.10900
C  30.62900 54.91000 38.29600
C  32.06700 54.62900 38.69000
C  32.44200 55.82500 39.49300
C  32.36100 53.24800 39.24000
C  30.28600 55.02800 36.82300
C  29.21100 54.14600 36.13700
H  28.29400 54.72700 35.02900
N  33.78200 58.26100 40.87400
C  34.47200 57.11500 40.43600
C  35.92200 57.42500 40.53200
C  36.08900 58.74800 41.06200
C  34.73900 59.24500 41.22200
C  36.92300 56.39900 40.09800
C  37.38400 59.44700 41.46500
O  38.51700 58.98600 41.38600
C  37.45900 60.78000 42.11800
N  31.83400 60.51600 41.71100
C  33.02300 61.13500 41.94100
C  32.83600 62.59000 42.44800
C  31.24400 62.72400 42.53400
C  30.77100 61.37100 41.96100
C  33.49300 62.93000 43.81700
C  30.58400 63.96400 41.88200
C  29.76500 64.86000 42.84200
N  29.53600 58.91400 40.75900
C  28.79000 60.05600 41.14100
C  27.41000 59.89700 40.53900
C  27.47400 58.58200 39.86800
C  28.75800 58.04700 40.05000
C  26.20800 60.72100 40.66000
C  26.65500 57.69000 39.10900
O  25.49500 57.76800 38.72600
C  27.57500 56.43500 38.74100
C  27.00700 55.23700 39.39900
O  27.46400 54.62500 40.37800
O  26.04300 54.65700 38.62400
C  25.35300 53.46600 39.17900
H  34.32200 55.11900 39.52900
H  35.08200 61.23400 42.02800
H  28.84300 62.02300 42.04400
H  29.99400 54.09000 38.63200
H  32.61900 54.86600 37.78100
H  32.57700 53.24500 40.30900
H  33.22900 52.79500 38.76200
H  31.48700 52.62500 39.04800
H  31.18700 54.96400 36.21300
H  29.91600 56.02100 36.56600
H  28.59100 53.78800 36.95800
H  29.75300 53.29800 35.71800
H  37.65000 57.05200 39.61500
H  36.45200 55.70000 39.40700
H  37.39300 55.82900 40.89900
H  38.51800 60.97100 42.29000
H  36.99800 60.70000 43.10300
H  37.12800 61.66700 41.57700
H  33.39200 63.12600 41.67900
H  30.91400 62.54600 43.55800
H  33.83800 62.08400 44.41000
H  32.88500 63.60100 44.42400
H  34.37800 63.53300 43.61800
H  29.99700 63.76400 40.98500
H  31.46600 64.51500 41.55600
H  28.87700 65.32700 42.41700
H  30.25600 65.76500 43.20000
H  29.34100 64.31900 43.68800
H  26.20200 61.26500 39.71500
H  26.28000 61.37300 41.53100
H  25.35800 60.03900 40.67500
H  27.59800 56.20300 37.67700
H  26.08000 52.66300 39.30400
H  24.46500 53.14600 38.63300
H  24.86500 53.67200 40.13100

