158

Mg 49.08100 35.17900 27.45300
C  47.33900 33.61300 30.01200
C  49.78000 37.77700 29.88800
C  50.14700 36.97100 25.06300
C  48.03500 32.68600 25.23700
N  48.51500 35.68500 29.66100
C  47.96000 34.75000 30.49800
C  47.90000 35.19400 31.98900
C  48.55300 36.62000 31.89700
C  48.96900 36.77400 30.40800
C  47.55100 37.70400 32.28500
C  48.93200 34.32200 32.77900
C  48.61100 34.09600 34.29100
H  47.57700 35.00300 35.03300
N  49.99700 37.03400 27.48200
C  50.27500 37.92800 28.53800
C  51.07600 38.99300 28.02200
C  51.09300 38.75600 26.62400
C  50.37100 37.55300 26.35200
C  51.71000 40.03400 28.92700
C  51.71400 39.65200 25.56300
O  51.71700 39.27100 24.35600
C  52.37600 40.91800 26.01900
N  48.94200 34.92600 25.39200
C  49.53500 35.83100 24.59700
C  49.40800 35.36500 23.16900
C  48.83400 33.87100 23.27000
C  48.65300 33.85700 24.73900
C  48.64500 36.27700 22.30200
C  49.83300 32.74000 22.71300
C  49.18300 31.59400 21.78200
N  47.99500 33.44900 27.54600
C  47.64400 32.58800 26.57100
C  46.87600 31.53500 27.08700
C  46.60200 31.99800 28.39100
C  47.41100 33.12300 28.68500
C  46.39100 30.30300 26.40900
C  45.79700 31.71100 29.58700
O  44.93100 30.88000 29.84300
C  46.27400 32.68300 30.65300
C  46.70100 31.89400 31.85500
O  47.59000 31.10500 31.94300
O  45.77400 32.13100 32.83300
C  45.83900 31.28800 34.02000
H  50.03200 38.55100 30.61600
H  50.52900 37.44900 24.15800
H  47.68900 31.88000 24.58600
H  46.85100 35.20600 32.28500
H  49.49600 36.82600 32.40400
H  46.89600 37.29600 33.05400
H  47.06700 38.15000 31.41600
H  48.17100 38.53900 32.61000
H  49.92900 34.76100 32.81500
H  48.90200 33.35100 32.28500
H  49.53200 34.01900 34.86900
H  48.40400 33.02600 34.30800
H  52.79400 39.93000 28.87200
H  51.44900 39.86600 29.97200
H  51.42700 41.05900 28.68600
H  51.61300 41.49400 26.54300
H  52.85700 41.58100 25.29900
H  53.08700 40.50000 26.73200
H  50.42400 35.25500 22.78900
H  47.85500 33.78100 22.79800
H  47.62500 35.89100 22.28300
H  49.08600 36.37500 21.31000
H  48.62900 37.22800 22.83400
H  50.23400 32.24300 23.59600
H  50.71400 33.15200 22.22000
H  49.77500 31.54200 20.86900
H  48.15100 31.80900 21.50300
H  49.26700 30.67100 22.35600
H  45.62300 29.90900 27.07400
H  47.11700 29.50000 26.53400
H  46.21700 30.44300 25.34200
H  45.45500 33.39900 30.72400
H  45.26500 30.37500 33.86500
H  45.60300 31.81800 34.94300
H  46.83400 30.90900 34.25200
Mg -11.66400 38.91700 41.92800
C  -9.65700 36.08200 40.69100
C  -9.34800 40.92400 40.25900
C  -13.83200 41.41100 42.24600
C  -13.88800 36.53000 43.17100
N  -9.79800 38.50500 40.55100
C  -9.16600 37.33100 40.18900
C  -7.96900 37.56800 39.30200
C  -7.84100 39.19500 39.24000
C  -9.01700 39.55800 40.10700
C  -6.43900 39.60800 39.69700
C  -8.09300 36.85600 37.91400
C  -6.83700 35.88300 37.65100
H  -5.76900 36.43100 36.60300
N  -11.55400 40.96800 41.39300
C  -10.50100 41.61200 40.78400
C  -10.77400 42.99400 40.80500
C  -12.14300 43.17500 41.26200
C  -12.58800 41.83600 41.69200
C  -9.86700 44.00900 40.34300
C  -12.95600 44.50900 41.20800
O  -12.41100 45.55100 40.74400
C  -14.36900 44.62400 41.76600
N  -13.68500 38.97500 42.36700
C  -14.29400 40.14200 42.65400
C  -15.56700 39.92100 43.50400
C  -15.47500 38.38100 43.79500
C  -14.28800 37.89900 43.05900
C  -15.61300 40.74300 44.79400
C  -16.79200 37.56800 43.52600
C  -17.99300 37.91800 44.43400
N  -11.72700 36.83700 41.99100
C  -12.62700 35.99800 42.66300
C  -12.21700 34.66600 42.55100
C  -11.02800 34.69700 41.80000
C  -10.80900 36.01300 41.43300
C  -12.90700 33.49800 43.32600
C  -10.02600 33.82700 41.18600
O  -9.92800 32.55500 41.19000
C  -8.92000 34.78200 40.68000
C  -7.92000 34.76700 41.75400
O  -8.01600 35.29500 42.85700
O  -6.89800 33.85700 41.51500
C  -5.96500 33.37300 42.54600
H  -8.69500 41.61000 39.71600
H  -14.49700 42.24500 42.47900
H  -14.47700 35.82300 43.75800
H  -7.13600 37.21100 39.90700
H  -7.97000 39.63700 38.25200
H  -6.38800 39.53900 40.78400
H  -6.18400 40.55800 39.22800
H  -5.71300 38.93900 39.23500
H  -7.99100 37.55300 37.08300
H  -9.01600 36.27900 37.95900
H  -7.22500 34.98400 37.17200
H  -6.24000 35.71900 38.54900
H  -9.76000 44.86100 41.01500
H  -10.32300 44.30800 39.40000
H  -8.88600 43.59000 40.12200
H  -15.04400 43.97900 41.20300
H  -14.66300 45.66700 41.65300
H  -14.48400 44.25000 42.78300
H  -16.36200 40.17400 42.80200
H  -15.08300 38.16000 44.78800
H  -16.41600 41.47700 44.73900
H  -14.70000 41.32300 44.93100
H  -15.55900 40.09700 45.66900
H  -16.66800 36.49800 43.69400
H  -17.12200 37.67700 42.49300
H  -18.91000 37.99700 43.85100
H  -17.89600 38.83600 45.01300
H  -18.02500 37.02700 45.06100
H  -13.75900 33.71200 43.97100
H  -12.12000 33.13800 43.98800
H  -13.20700 32.85700 42.49700
H  -8.51100 34.39300 39.74700
H  -5.71300 32.32400 42.39100
H  -6.38300 33.34800 43.55200
H  -5.07900 34.00800 42.55900

