158

Mg -11.60200 15.33200 41.32800
C  -8.34300 14.02600 41.23500
C  -10.42600 18.21800 39.84200
C  -14.80900 16.41900 40.87800
C  -12.78200 12.13700 42.32900
N  -9.53100 16.02300 40.65500
C  -8.38600 15.32200 40.74500
C  -7.24400 16.13200 40.07400
C  -7.83100 17.53000 39.92300
C  -9.34500 17.25800 40.10800
C  -7.26300 18.59900 40.97500
C  -6.65400 15.61600 38.72200
C  -5.14600 15.76500 38.56100
H  -4.78800 16.06000 37.12500
N  -12.43800 17.17100 40.65600
C  -11.79300 18.20300 40.13200
C  -12.75100 19.28500 39.89000
C  -13.99800 18.88600 40.33200
C  -13.81700 17.38700 40.59200
C  -12.46500 20.63400 39.39600
C  -15.31000 19.70100 40.39800
O  -15.30300 20.88300 40.04800
C  -16.59100 19.20800 40.92300
N  -13.51300 14.43600 41.67500
C  -14.71200 15.08100 41.44200
C  -15.92700 14.18000 41.69100
C  -15.26200 12.84800 42.12000
C  -13.78500 13.10300 42.02400
C  -16.92800 14.88300 42.65100
C  -15.66200 11.72300 41.10500
C  -16.16200 10.35800 41.71400
N  -10.82800 13.38500 41.69800
C  -11.38500 12.21500 42.10800
C  -10.24700 11.30700 42.43100
C  -9.06300 11.98300 42.02800
C  -9.42400 13.23600 41.59700
C  -10.42000 9.92400 42.99800
C  -7.60300 11.81700 41.98500
O  -6.85400 10.85200 42.23300
C  -7.12500 13.08300 41.31100
C  -6.08800 13.73200 42.19000
O  -6.27300 14.42400 43.21500
O  -4.82100 13.42600 41.70900
C  -3.70700 13.98000 42.39600
H  -10.02000 19.10700 39.35500
H  -15.81800 16.76200 40.63900
H  -13.13400 11.19600 42.75800
H  -6.36000 16.22500 40.70500
H  -7.61900 17.86700 38.90800
H  -8.05500 19.19400 41.42800
H  -6.63500 19.30400 40.43100
H  -6.72300 18.05000 41.74600
H  -7.08700 16.09800 37.84500
H  -6.89200 14.55400 38.67700
H  -4.66800 14.83700 38.87500
H  -4.76200 16.58900 39.16200
H  -11.52700 20.72400 38.84800
H  -12.36300 21.36300 40.20000
H  -13.33100 20.99800 38.84400
H  -16.97000 18.57400 40.12100
H  -17.14900 20.07700 41.27100
H  -16.34500 18.52600 41.73700
H  -16.38800 14.01900 40.71600
H  -15.49900 12.69300 43.17200
H  -16.93700 14.43300 43.64300
H  -17.88700 15.01100 42.14900
H  -16.53100 15.88700 42.79700
H  -14.80300 11.38500 40.52400
H  -16.47100 12.04400 40.44900
H  -17.14100 10.16500 41.27500
H  -16.08000 10.35100 42.80100
H  -15.38800 9.65500 41.40300
H  -10.72100 9.82200 44.04100
H  -9.47100 9.43600 42.77700
H  -11.05100 9.31900 42.34600
H  -6.63700 12.83800 40.36700
H  -3.54300 15.01700 42.10000
H  -2.88700 13.33800 42.07200
H  -3.87200 13.96200 43.47300
Mg -4.89100 24.97700 25.51900
C  -3.30100 26.00900 28.41500
C  -7.11000 23.16100 27.37800
C  -5.95700 23.56100 22.66100
C  -2.24200 26.48600 23.59600
N  -5.06600 24.57200 27.71000
C  -4.44500 25.26400 28.72700
C  -5.07900 24.96100 30.10600
C  -6.23700 23.92200 29.73700
C  -6.19100 23.89400 28.17300
C  -5.98400 22.48400 30.40100
C  -5.68600 26.27500 30.72600
C  -5.32200 26.66400 32.10300
H  -4.89600 25.51300 33.09300
N  -6.32200 23.53500 25.07600
C  -7.16800 22.92400 25.99900
C  -8.14300 22.12200 25.31800
C  -7.82800 22.17700 23.95500
C  -6.66700 23.16400 23.82000
C  -9.22300 21.34200 26.02600
C  -8.50500 21.45000 22.81600
O  -8.05100 21.57200 21.66300
C  -9.70800 20.65400 23.03700
N  -4.25100 25.10400 23.44900
C  -4.84200 24.40700 22.46100
C  -4.36700 24.77000 21.03700
C  -3.21700 25.80100 21.35000
C  -3.25500 25.83900 22.87300
C  -3.90500 23.51500 20.18400
C  -3.37000 27.22300 20.74800
C  -2.34800 27.66800 19.74200
N  -3.15700 26.05800 25.87600
C  -2.24400 26.67100 25.00300
C  -1.31100 27.43500 25.76600
C  -1.68500 27.20200 27.09500
C  -2.74600 26.28600 27.11300
C  -0.36100 28.50500 25.16000
C  -1.38300 27.55500 28.45500
O  -0.59900 28.37000 28.84400
C  -2.37300 26.74000 29.36700
C  -1.58200 25.92400 30.29000
O  -1.08400 24.84400 29.95400
O  -1.29100 26.61500 31.39100
C  -0.46600 25.99400 32.37800
H  -7.91900 22.66700 27.91900
H  -6.20700 23.17700 21.67000
H  -1.31800 26.89800 23.18500
H  -4.38200 24.54000 30.83100
H  -7.13400 24.39500 30.13600
H  -6.06000 21.65500 29.69700
H  -6.66000 22.39800 31.25200
H  -4.96800 22.35900 30.77500
H  -6.77000 26.15900 30.70800
H  -5.50800 27.10400 30.04100
H  -6.27000 26.97600 32.53900
H  -4.66100 27.52900 32.16500
H  -10.22600 21.61800 25.70100
H  -9.39600 21.54900 27.08200
H  -9.02400 20.28800 25.83300
H  -9.34400 19.85100 23.67800
H  -10.12900 20.32600 22.08700
H  -10.57300 21.17300 23.45200
H  -5.27400 25.24300 20.66000
H  -2.24900 25.37500 21.08500
H  -4.37600 23.64900 19.21000
H  -4.19400 22.59800 20.69700
H  -2.81700 23.52200 20.11700
H  -3.36700 27.96600 21.54500
H  -4.28000 27.19800 20.14900
H  -2.80200 27.84600 18.76700
H  -1.58100 26.91200 19.57700
H  -1.88900 28.58100 20.12200
H  -0.14300 29.20500 25.96700
H  -0.78500 28.93300 24.25200
H  0.61800 28.11500 24.88200
H  -3.01900 27.40800 29.93700
H  0.59900 26.04900 32.14800
H  -0.83300 24.97900 32.52800
H  -0.66300 26.51200 33.31600

