158

Mg -3.20900 17.42300 27.09600
C  -3.76200 15.23300 29.86500
C  -3.68600 19.97200 29.27900
C  -3.11400 19.42300 24.44100
C  -3.41000 14.64200 24.99600
N  -3.65500 17.52100 29.35600
C  -3.71800 16.56600 30.26500
C  -3.79600 17.14000 31.74400
C  -4.10300 18.66100 31.43500
C  -3.81700 18.75400 29.90700
C  -5.48600 19.24600 31.98600
C  -2.54600 16.80700 32.60500
C  -2.30900 17.61600 33.93300
H  -1.87300 16.73900 35.10500
N  -3.28300 19.41600 26.93500
C  -3.52800 20.30200 27.91500
C  -3.48900 21.63600 27.35500
C  -3.23800 21.53900 25.95200
C  -3.22500 20.07000 25.72200
C  -3.70100 22.88500 28.32900
C  -3.00900 22.59100 24.89500
O  -3.02700 22.40000 23.69100
C  -2.67700 23.99900 25.40900
N  -3.20800 17.04700 25.10400
C  -3.09200 18.05700 24.17300
C  -3.01800 17.45500 22.73900
C  -2.86400 15.96500 22.99100
C  -3.21800 15.88500 24.41800
C  -4.16500 17.91200 21.71600
C  -1.50500 15.36400 22.62400
C  -0.24600 15.98400 23.41600
N  -3.49200 15.40800 27.41300
C  -3.57200 14.37000 26.39500
C  -3.80100 13.04500 26.97600
C  -3.81300 13.40700 28.33800
C  -3.67600 14.77800 28.57400
C  -3.93300 11.69300 26.27000
C  -3.89800 12.79600 29.66000
O  -3.96400 11.64700 29.93800
C  -3.92700 13.96100 30.71400
C  -2.91100 13.65000 31.71900
O  -1.71400 13.88800 31.61300
O  -3.51300 13.02300 32.74300
C  -2.73700 12.59200 33.88200
H  -3.55800 20.76800 30.01600
H  -3.14100 20.08800 23.57600
H  -3.57600 13.83300 24.28200
H  -4.69700 16.73000 32.20100
H  -3.25900 19.18500 31.88400
H  -5.35000 20.13200 32.60600
H  -6.09700 18.50900 32.50900
H  -6.16000 19.54100 31.18200
H  -1.71900 17.04100 31.93400
H  -2.56300 15.75800 32.90000
H  -3.19100 18.20200 34.19100
H  -1.55200 18.35000 33.66000
H  -4.32900 23.66200 27.89300
H  -2.73500 23.37700 28.44000
H  -4.14200 22.73000 29.31400
H  -2.04900 24.13200 26.28900
H  -3.58700 24.52900 25.69200
H  -2.15700 24.62700 24.68500
H  -2.08500 17.78600 22.28200
H  -3.73700 15.49100 22.54100
H  -5.12400 17.73900 22.20300
H  -3.99300 17.45200 20.74300
H  -4.20200 18.99400 21.59500
H  -1.40300 15.33200 21.54000
H  -1.47300 14.32900 22.96200
H  -0.17700 15.86000 24.49700
H  -0.24200 17.05900 23.24100
H  0.68600 15.57200 23.03000
H  -3.22200 10.97800 26.68500
H  -3.87400 11.63900 25.18300
H  -4.92200 11.47900 26.67600
H  -4.93200 13.94400 31.13400
H  -2.10100 11.71900 33.74100
H  -3.40100 12.16100 34.63100
H  -2.20900 13.39100 34.40200
Mg 16.13400 -1.46000 27.83500
C  14.81000 0.40800 30.47600
C  17.99800 -3.28000 30.09600
C  17.43200 -3.12600 25.35800
C  14.08300 0.38000 25.68600
N  16.45500 -1.38500 29.98600
C  15.76600 -0.57300 30.91500
C  16.22900 -0.82700 32.26400
C  17.36800 -1.88500 32.18300
C  17.32000 -2.20300 30.64700
C  18.77500 -1.47100 32.65900
C  15.04300 -1.08300 33.20400
C  15.05600 -0.27200 34.44600
H  16.35100 0.24600 35.14000
N  17.41800 -3.10500 27.73000
C  18.02700 -3.70700 28.73400
C  18.79200 -4.83200 28.21500
C  18.57800 -4.90300 26.84000
C  17.77100 -3.66900 26.56900
C  19.49600 -5.81200 29.14900
C  19.14400 -5.89700 25.90300
O  18.97300 -5.72700 24.73800
C  20.02500 -6.98000 26.28300
N  15.87500 -1.21400 25.85900
C  16.62300 -2.05000 25.04100
C  16.39300 -1.64300 23.48400
C  15.21700 -0.65000 23.61300
C  15.02900 -0.49800 25.13900
C  17.69200 -1.10400 22.77500
C  13.83300 -0.97100 22.95500
C  13.50600 -0.07800 21.79400
N  14.72900 0.09100 27.98700
C  13.98500 0.74100 27.02500
C  13.11400 1.72300 27.57800
C  13.36600 1.69100 28.92800
C  14.36400 0.63300 29.13600
C  12.13700 2.55400 26.86300
C  13.06900 2.22300 30.22800
O  12.35500 3.22000 30.55300
C  13.95900 1.43000 31.30700
C  14.87900 2.38300 32.05200
O  15.92100 2.85800 31.63500
O  14.28700 2.68700 33.30600
C  14.99700 3.70700 34.20400
H  18.59500 -3.86000 30.80400
H  18.02800 -3.49900 24.52200
H  13.41700 0.88300 24.98200
H  16.68300 0.04800 32.73000
H  17.06600 -2.75100 32.77200
H  18.69900 -0.63100 33.35000
H  19.29100 -1.30800 31.71300
H  19.31600 -2.21000 33.25200
H  15.23500 -2.05800 33.65100
H  14.04500 -1.09300 32.76600
H  14.65300 -0.84300 35.28300
H  14.26200 0.46200 34.30800
H  20.27000 -6.32100 28.57400
H  18.83300 -6.54600 29.60700
H  19.93800 -5.28200 29.99200
H  19.54200 -7.66700 26.97700
H  20.94500 -6.52700 26.65100
H  20.29900 -7.56200 25.40400
H  16.12400 -2.56500 22.96800
H  15.53900 0.32800 23.25700
H  18.40400 -0.92500 23.58000
H  17.48200 -0.11700 22.36100
H  18.01800 -1.86200 22.06300
H  13.03600 -1.00600 23.69700
H  13.93800 -1.96000 22.50700
H  13.71400 -0.56100 20.84000
H  13.94700 0.90100 21.98400
H  12.44200 0.10300 21.94800
H  11.44100 2.78200 27.67000
H  11.56700 1.96700 26.14300
H  12.61500 3.46500 26.50300
H  13.32600 0.95000 32.05300
H  16.08200 3.71500 34.09300
H  14.75300 3.37400 35.21300
H  14.68800 4.70300 33.88600

