158

Mg 25.26000 0.55900 29.58700
C  27.46000 0.15900 32.36000
C  22.61900 0.54200 31.87600
C  23.23700 0.39700 27.02800
C  27.94700 -0.30700 27.43800
N  25.08300 0.35400 31.82600
C  26.08600 0.44400 32.73600
C  25.54900 0.60800 34.24400
C  23.98700 0.48000 33.98800
C  23.85100 0.38100 32.48800
C  23.33900 -0.75400 34.79300
C  26.01900 1.90800 34.92300
C  26.92600 1.85500 36.12400
H  26.56800 2.83500 37.15900
N  23.26500 0.60300 29.48600
C  22.36500 0.62200 30.51300
C  21.03600 0.75700 29.92900
C  21.16900 0.84100 28.54700
C  22.58100 0.56800 28.30800
C  19.73100 0.91800 30.65600
C  20.10300 1.00000 27.41000
O  20.44200 1.01500 26.27000
C  18.53200 1.22400 27.65600
N  25.54400 -0.11000 27.46700
C  24.54100 0.03800 26.62400
C  25.04800 -0.09900 25.20200
C  26.59900 -0.18000 25.23500
C  26.75900 -0.16600 26.75500
C  24.32500 -1.21600 24.30900
C  27.36200 0.97800 24.53400
C  28.37300 0.52500 23.48900
N  27.28800 0.02500 29.71700
C  28.25400 -0.23500 28.78300
C  29.55100 -0.40900 29.46200
C  29.22500 -0.27500 30.85000
C  27.83800 -0.04300 31.00400
C  30.87200 -0.57200 28.78600
C  29.84400 -0.23300 32.14000
O  31.00100 -0.43300 32.44900
C  28.69900 0.11500 33.16900
C  28.64000 -0.91700 34.23300
O  28.11000 -2.03100 34.08400
O  29.43700 -0.60000 35.32200
C  29.50300 -1.59000 36.43700
H  21.69900 0.55200 32.46500
H  22.61700 0.50500 26.13500
H  28.78500 -0.60400 26.80400
H  26.03200 -0.27300 34.66700
H  23.42900 1.29500 34.44800
H  24.04600 -1.55600 35.00500
H  22.50200 -1.20500 34.25800
H  22.80700 -0.18500 35.55500
H  25.10500 2.39100 35.26700
H  26.55100 2.45600 34.14500
H  27.94300 1.98900 35.75600
H  26.72900 0.89800 36.60800
H  18.98800 0.23000 30.25200
H  19.25500 1.87900 30.46300
H  19.72800 0.85500 31.74400
H  17.97500 1.39800 26.73500
H  18.32100 1.94000 28.45100
H  18.28300 0.20800 27.96100
H  24.82700 0.89600 24.81500
H  26.94000 -1.12200 24.80600
H  23.48400 -1.74500 24.75700
H  25.06700 -1.96600 24.03600
H  23.86000 -0.67800 23.48400
H  27.89600 1.52200 25.31300
H  26.72500 1.75800 24.11900
H  28.46400 -0.56100 23.48300
H  29.27000 1.08500 23.75600
H  27.89600 0.88300 22.57700
H  31.61400 0.08300 29.24300
H  30.72000 -0.21800 27.76600
H  31.28000 -1.58100 28.72700
H  29.03400 1.06500 33.58500
H  29.45600 -2.61400 36.06500
H  28.63700 -1.39900 37.07100
H  30.41600 -1.39800 37.00000
Mg 35.11900 2.25300 29.04400
C  33.16000 3.53000 31.63200
C  37.74400 2.45500 31.27200
C  37.22600 1.38000 26.46900
C  32.51300 2.63400 26.85100
N  35.38300 3.02800 31.20200
C  34.48300 3.33700 32.08200
C  34.95100 3.53100 33.54500
C  36.49400 3.30600 33.33400
C  36.54200 2.92600 31.84700
C  37.40600 4.49100 33.69800
C  34.29100 2.63400 34.59600
C  34.20100 3.29000 36.04400
H  35.40800 4.00000 36.56400
N  37.18300 1.82800 28.86800
C  38.07100 2.03700 29.92600
C  39.36300 1.58100 29.51300
C  39.29300 1.33000 28.13500
C  37.89200 1.49900 27.72200
C  40.44800 1.58900 30.42300
C  40.41100 0.98100 27.15000
O  40.13400 0.88900 25.96600
C  41.78900 0.81200 27.72700
N  34.96700 2.21000 26.95500
C  35.91900 1.72900 26.05100
C  35.48900 1.80600 24.62600
C  33.91500 1.76600 24.86200
C  33.79000 2.34600 26.31800
C  36.10100 2.99700 23.96400
C  33.22000 0.37500 24.76800
C  31.94600 0.26800 24.00600
N  33.25900 2.90600 29.17500
C  32.22800 2.90300 28.23200
C  30.93200 3.25000 28.82800
C  31.26200 3.47700 30.16500
C  32.70000 3.35000 30.29600
C  29.68000 3.30300 28.16500
C  30.72700 3.77100 31.40900
O  29.52800 3.98600 31.62800
C  31.88800 3.81400 32.42200
C  31.92000 5.19900 33.08500
O  32.33400 6.15300 32.55300
O  31.50400 5.14000 34.37300
C  31.62900 6.43100 35.03100
H  38.48800 2.39900 32.06900
H  37.87500 1.36400 25.59100
H  31.60500 2.63300 26.24500
H  34.65700 4.55800 33.76000
H  36.84900 2.41100 33.84500
H  38.13700 4.68700 32.91400
H  38.09700 4.21100 34.49300
H  36.75500 5.32800 33.95400
H  34.94000 1.76700 34.72000
H  33.28900 2.28000 34.35600
H  34.05100 2.49900 36.77900
H  33.42300 4.05300 36.03100
H  40.81400 2.61500 30.40300
H  41.35900 1.03600 30.19100
H  40.21500 1.24500 31.43100
H  41.77600 -0.00800 28.44300
H  42.20700 1.70300 28.19700
H  42.56200 0.46100 27.04300
H  35.75700 0.84700 24.18300
H  33.46200 2.47000 24.16400
H  35.30300 3.46000 23.38300
H  36.87800 2.63400 23.29200
H  36.58700 3.70200 24.63800
H  33.01200 0.07200 25.79400
H  33.90400 -0.45600 24.59600
H  31.64300 1.19100 23.51100
H  31.32600 0.09300 24.88600
H  32.00800 -0.63500 23.39900
H  29.28300 4.31500 28.23300
H  28.99100 2.69700 28.75500
H  29.79900 2.81000 27.20000
H  31.82500 3.10800 33.25000
H  30.76300 6.32700 35.68500
H  31.47300 7.33300 34.44000
H  32.51800 6.55000 35.65000

