158

Mg 45.51200 4.32700 47.47300
C  43.23900 6.98700 47.01600
C  42.84900 2.09800 47.10300
C  47.82100 1.81700 47.49600
C  48.10400 6.70500 47.41100
N  43.28100 4.54500 47.22200
C  42.59100 5.69700 46.97400
C  41.09100 5.48500 46.65100
C  40.91700 3.93300 46.81200
C  42.44500 3.45600 47.13200
C  39.81700 3.56200 47.94300
C  40.72100 5.94000 45.20700
C  39.29800 6.48200 45.15200
H  38.45200 6.13800 43.97000
N  45.33700 2.19600 47.19200
C  44.17800 1.44300 47.19500
C  44.52700 0.12900 47.07100
C  45.95100 0.04200 47.18700
C  46.51200 1.36800 47.30900
C  43.48000 -0.93700 46.86200
C  46.69500 -1.29800 47.10400
O  46.09000 -2.32700 46.79800
C  48.20000 -1.33300 47.18000
N  47.64900 4.25700 47.34600
C  48.33100 3.11800 47.52300
C  49.83300 3.31800 47.74100
C  49.92300 4.86500 47.61700
C  48.44700 5.30600 47.39800
C  50.28600 2.76200 49.07500
C  51.00600 5.37000 46.55600
C  52.37600 5.83800 47.06300
N  45.74200 6.44500 47.22800
C  46.83400 7.25400 47.30200
C  46.46500 8.64700 47.21900
C  45.07400 8.58100 47.05700
C  44.61800 7.22200 47.12500
C  47.36100 9.91500 47.31500
C  43.91900 9.42300 47.00000
O  43.81500 10.61700 46.96400
C  42.64600 8.42600 46.86500
C  41.62700 8.72700 47.89300
O  41.45000 8.07900 48.91200
O  40.93500 9.86500 47.61100
C  40.54100 10.59000 48.86100
H  42.08900 1.37800 46.79300
H  48.67000 1.13100 47.47800
H  48.93600 7.40900 47.46900
H  40.43400 5.96300 47.37700
H  40.56900 3.53000 45.86100
H  39.30500 2.68100 47.55600
H  39.00800 4.28600 48.03800
H  40.19200 3.19600 48.89900
H  40.89500 5.07500 44.56700
H  41.49600 6.67600 44.99200
H  39.34200 7.57100 45.18400
H  38.78000 6.31200 46.09600
H  43.73800 -1.55500 46.00100
H  42.45800 -0.60600 46.67800
H  43.53700 -1.62000 47.71000
H  48.55000 -2.35900 47.06300
H  48.54300 -1.11400 48.19100
H  48.66000 -0.78700 46.35700
H  50.30900 2.82900 46.89100
H  50.16000 5.19200 48.62900
H  49.48400 2.29600 49.64800
H  50.85000 3.45800 49.69500
H  51.06100 2.01100 48.91600
H  50.64700 6.20300 45.95100
H  51.16300 4.63400 45.76800
H  53.13800 5.25100 46.55100
H  52.39500 5.75300 48.14900
H  52.46400 6.90300 46.84800
H  47.02100 10.56900 48.11800
H  47.29800 10.49700 46.39600
H  48.41600 9.64300 47.32400
H  42.15800 8.70800 45.93300
H  41.42500 10.52900 49.49600
H  39.57200 10.28800 49.26000
H  40.55800 11.65000 48.60900
Mg -11.08300 17.50700 40.38100
C  -7.56100 17.09200 40.55300
C  -10.52300 20.93300 39.66700
C  -14.28400 17.81800 39.53300
C  -11.41700 14.03700 40.54000
N  -9.11800 18.85900 40.13300
C  -7.89500 18.47000 40.30400
C  -6.95900 19.64200 39.97000
C  -7.93100 20.88500 40.04500
C  -9.30800 20.24000 39.94500
C  -7.87800 21.80900 41.29900
C  -6.37700 19.50900 38.45600
C  -4.94700 19.04000 38.26300
H  -4.67000 17.96400 37.21700
N  -12.29300 19.23000 39.81600
C  -11.85100 20.51900 39.49900
C  -12.95800 21.23100 39.04000
C  -14.08100 20.38100 38.91200
C  -13.63100 19.07900 39.42900
C  -12.77200 22.67900 38.67900
C  -15.37100 20.76700 38.34600
O  -15.65800 21.95600 38.06900
C  -16.46900 19.84400 38.01900
N  -12.61400 16.14700 40.13200
C  -13.88200 16.52000 39.89700
C  -14.88700 15.28600 39.80300
C  -13.93200 14.09600 40.02500
C  -12.54700 14.73100 40.31500
C  -16.05100 15.55800 40.79800
C  -13.81500 13.02600 38.87800
C  -14.25400 11.61000 39.42800
N  -9.83000 15.81600 40.56300
C  -10.13900 14.49100 40.60100
C  -8.93100 13.74500 40.85000
C  -7.87700 14.69500 40.77800
C  -8.47300 15.96500 40.60000
C  -8.85200 12.27200 40.96500
C  -6.43300 14.95700 40.81000
O  -5.49100 14.24100 40.82800
C  -6.15500 16.44100 40.71900
C  -5.35100 16.93800 41.90300
O  -4.61100 17.84400 41.89800
O  -5.41800 16.04300 42.94800
C  -4.22100 16.11300 43.82800
H  -10.37200 22.01300 39.60000
H  -15.31500 17.97900 39.21000
H  -11.54600 12.95300 40.54800
H  -6.16700 19.70900 40.71600
H  -7.82300 21.45400 39.12200
H  -7.76000 22.86000 41.03400
H  -7.01700 21.44400 41.85900
H  -8.68900 21.57200 41.98700
H  -6.51000 20.44800 37.91700
H  -6.90800 18.66500 38.01700
H  -4.62500 18.59700 39.20500
H  -4.27100 19.86900 38.04900
H  -13.28100 22.84900 37.73100
H  -11.71400 22.88700 38.51500
H  -13.22600 23.29400 39.45600
H  -16.10800 18.96200 37.49000
H  -17.14800 20.39100 37.36500
H  -17.08300 19.74600 38.91500
H  -15.32300 15.17900 38.80900
H  -14.29700 13.51300 40.87000
H  -15.95800 16.62900 40.98200
H  -16.11300 14.84800 41.62300
H  -17.01900 15.46000 40.30700
H  -12.85000 12.95700 38.37500
H  -14.52800 13.23400 38.08000
H  -15.31500 11.37100 39.50800
H  -13.83700 11.38300 40.40900
H  -13.75100 10.93100 38.74000
H  -7.93500 11.82400 40.58100
H  -9.59100 11.69200 40.41100
H  -8.99800 11.97500 42.00400
H  -5.57300 16.46000 39.79700
H  -3.77700 15.12500 43.95000
H  -4.55700 16.47700 44.79800
H  -3.46000 16.83700 43.53500

