158

Mg 24.12000 -5.71400 45.23500
C  26.46700 -3.63900 43.97100
C  21.83700 -4.35500 43.24400
C  22.26900 -8.57500 45.58700
C  26.67900 -7.35200 47.07200
N  24.14900 -4.12800 43.89400
C  25.17800 -3.34100 43.53800
C  24.78600 -2.30500 42.45300
C  23.21600 -2.27700 42.66200
C  23.00300 -3.67700 43.27000
C  22.64200 -1.16100 43.53300
C  25.29500 -2.79300 41.01500
C  26.13400 -1.87600 40.11400
H  25.77600 -1.93000 38.62800
N  22.26200 -6.39400 44.53000
C  21.39800 -5.62300 43.77200
C  20.22000 -6.35100 43.49000
C  20.34000 -7.59500 44.17300
C  21.64700 -7.61000 44.80600
C  19.04300 -5.76300 42.80400
C  19.31200 -8.70500 44.18000
O  18.29400 -8.58700 43.48400
C  19.47600 -9.94600 44.94600
N  24.52800 -7.80100 46.10900
C  23.50100 -8.65600 46.22500
C  23.85200 -9.77000 47.27900
C  25.22100 -9.29300 47.92300
C  25.48300 -8.02900 47.02700
C  22.69200 -10.01700 48.31000
C  26.33300 -10.31700 47.86100
C  26.99100 -10.62200 49.22800
N  26.18800 -5.60400 45.51200
C  27.13500 -6.29200 46.30100
C  28.47600 -5.78100 46.08300
C  28.27300 -4.76700 45.16200
C  26.89500 -4.65900 44.88200
C  29.70600 -6.20000 46.93100
C  28.87500 -3.66300 44.38800
O  30.08400 -3.30300 44.40300
C  27.76000 -2.95200 43.54000
C  27.91400 -1.49100 43.86000
O  28.54800 -0.66100 43.25000
O  27.22700 -1.24500 45.04900
C  27.39100 0.14700 45.50100
H  21.05100 -3.91300 42.62800
H  21.66200 -9.48200 45.62300
H  27.48400 -7.68400 47.73100
H  25.19200 -1.33500 42.73900
H  22.75000 -2.18500 41.68000
H  23.43100 -0.48000 43.84900
H  22.09200 -1.57300 44.37900
H  21.97800 -0.61800 42.86000
H  24.45300 -3.23700 40.48500
H  25.88700 -3.69700 41.15500
H  27.16700 -2.19200 40.25800
H  25.92300 -0.85600 40.43500
H  18.65200 -6.46700 42.06900
H  19.24400 -4.79200 42.35200
H  18.25900 -5.62900 43.54900
H  20.31900 -10.55600 44.62100
H  18.63000 -10.60800 44.76600
H  19.37600 -9.62000 45.98100
H  24.04400 -10.68700 46.72300
H  25.09000 -8.91600 48.93700
H  22.20400 -10.97400 48.12500
H  21.94700 -9.22300 48.37100
H  23.16400 -10.24500 49.26500
H  27.01600 -9.96800 47.08700
H  25.97400 -11.24000 47.40700
H  26.20800 -10.95000 49.91200
H  27.47300 -9.69900 49.55000
H  27.61400 -11.51500 49.17000
H  30.21500 -7.04800 46.47300
H  29.34600 -6.51300 47.91100
H  30.39200 -5.38300 47.15100
H  27.97100 -3.02000 42.47300
H  26.70300 0.37000 46.31700
H  27.35800 0.97600 44.79400
H  28.38600 0.20500 45.94300
Mg 40.77900 8.32500 30.02300
C  42.62100 9.83300 32.60000
C  38.48800 7.12500 32.08700
C  39.18100 7.26200 27.38100
C  43.62000 9.25600 27.91800
N  40.65700 8.39300 32.18700
C  41.39000 9.14600 33.02800
C  40.91100 8.94100 34.48600
C  39.58300 8.11600 34.27800
C  39.56600 7.82500 32.72600
C  39.58300 6.87400 35.23400
C  40.65200 10.32700 35.16400
C  39.72300 10.27100 36.46300
H  40.13000 11.32900 37.53800
N  39.01700 7.29800 29.82700
C  38.16600 6.89900 30.77300
C  37.05500 6.27300 30.14000
C  37.22700 6.40200 28.75800
C  38.56400 6.98600 28.62300
C  35.99500 5.50200 30.91300
C  36.32600 5.97300 27.67000
O  36.73000 5.93400 26.49700
C  34.89300 5.67300 27.93600
N  41.37300 8.10700 27.96900
C  40.48100 7.78200 27.04200
C  41.11800 7.87800 25.61900
C  42.45500 8.59100 25.83200
C  42.50800 8.65600 27.39200
C  41.22000 6.53000 24.91900
C  42.54400 9.90700 25.15200
C  41.57200 11.03600 25.62000
N  42.64600 9.46300 30.15100
C  43.67200 9.75500 29.22800
C  44.73600 10.51400 29.80500
C  44.37000 10.66200 31.13200
C  43.11600 9.90900 31.29800
C  46.03100 10.91300 29.17300
C  44.62800 11.17800 32.40200
O  45.53700 11.85200 32.79800
C  43.52200 10.67900 33.43600
C  44.18800 9.85000 34.46900
O  44.50200 8.69900 34.40100
O  44.44800 10.63100 35.61700
C  45.07900 9.92900 36.77800
H  37.76800 6.72300 32.80200
H  38.73300 6.90900 26.45000
H  44.44800 9.55500 27.27300
H  41.61600 8.25700 34.95900
H  38.68300 8.70500 34.45500
H  38.53200 6.74900 35.49300
H  40.10700 7.01000 36.18000
H  40.00700 6.03200 34.68700
H  40.31200 11.08400 34.45600
H  41.60400 10.64500 35.58900
H  39.71300 9.25400 36.85600
H  38.71200 10.56500 36.18300
H  35.04700 6.03400 30.83000
H  36.26200 5.43100 31.96700
H  36.00400 4.48600 30.51700
H  34.71900 4.82400 28.59800
H  34.41700 5.63500 26.95700
H  34.51200 6.54000 28.47700
H  40.36600 8.34400 24.98200
H  43.32100 8.01100 25.51500
H  42.24300 6.15400 24.91000
H  40.84900 6.65200 23.90100
H  40.63700 5.79900 25.48000
H  42.40100 9.71000 24.09000
H  43.54900 10.29000 25.32800
H  41.10300 10.75800 26.56400
H  40.83500 11.38900 24.89800
H  42.07400 11.97900 25.83700
H  46.01400 10.92700 28.08300
H  46.75200 10.16600 29.50700
H  46.21300 11.93600 29.50200
H  43.20200 11.62700 33.86800
H  45.62600 9.02600 36.50900
H  44.37300 9.54600 37.51500
H  45.78000 10.57100 37.31100

