158

Mg -2.26600 18.51300 27.16500
C  -2.96300 16.24000 29.88600
C  -3.22100 21.02400 29.25500
C  -1.96500 20.40800 24.45200
C  -2.21300 15.60800 25.07500
N  -3.07600 18.59100 29.34200
C  -3.10000 17.59400 30.26700
C  -3.45000 18.08000 31.62900
C  -3.67900 19.61600 31.38700
C  -3.30900 19.74200 29.90700
C  -5.01800 20.30100 31.70100
C  -2.34600 17.91100 32.68600
C  -2.80600 17.23200 34.01300
H  -1.73300 17.21600 35.15300
N  -2.47600 20.40700 26.90700
C  -2.85700 21.32300 27.87600
C  -2.79100 22.64600 27.20200
C  -2.22800 22.48800 25.89500
C  -2.26800 21.05700 25.67500
C  -3.16700 23.88500 28.03900
C  -1.69700 23.58800 24.98900
O  -1.36300 23.36900 23.80700
C  -1.57600 25.01700 25.49500
N  -2.08200 18.06200 25.07700
C  -1.90900 19.03600 24.18900
C  -1.88100 18.36300 22.79700
C  -1.63600 16.91000 23.07300
C  -2.11000 16.85200 24.44700
C  -3.22400 18.58300 22.07100
C  -0.19800 16.32500 22.91700
C  0.92000 17.20900 23.64500
N  -2.54900 16.38900 27.34300
C  -2.41800 15.37600 26.35200
C  -2.71700 14.07600 27.09100
C  -2.87000 14.38000 28.44400
C  -2.81200 15.75600 28.54600
C  -2.85800 12.80200 26.35600
C  -3.04100 13.80700 29.77900
O  -3.22800 12.66200 30.05300
C  -3.15000 15.02300 30.79000
C  -2.06200 14.87100 31.76200
O  -0.94200 15.37300 31.71500
O  -2.37900 13.97500 32.69600
C  -1.34000 13.68500 33.66800
H  -3.49900 21.87800 29.87600
H  -1.90000 20.93300 23.49700
H  -2.03700 14.66200 24.55900
H  -4.38600 17.55100 31.80200
H  -2.85700 20.15000 31.86300
H  -5.59500 19.69200 32.39700
H  -5.76100 20.30900 30.90300
H  -4.86400 21.28100 32.15400
H  -2.15100 18.91100 33.07200
H  -1.42700 17.53200 32.23900
H  -3.34100 16.29300 33.87500
H  -3.53400 17.91300 34.45200
H  -3.45300 23.63600 29.06100
H  -3.99500 24.35200 27.50500
H  -2.46400 24.69900 28.21300
H  -2.63900 25.23700 25.59500
H  -0.97300 25.58200 24.78500
H  -0.99300 25.03300 26.41600
H  -1.07000 18.79900 22.21400
H  -2.28800 16.28200 22.46600
H  -4.00100 19.02700 22.69400
H  -3.72500 17.67100 21.74800
H  -3.07200 19.33400 21.29500
H  0.16400 16.15700 21.90300
H  -0.23400 15.29400 23.26700
H  0.57700 17.15600 24.67800
H  0.88600 18.25200 23.32900
H  1.94700 16.84500 23.65700
H  -1.93400 12.46400 25.88700
H  -3.58700 12.87000 25.54900
H  -3.21200 12.06900 27.08200
H  -4.16700 14.98900 31.18100
H  -1.73700 12.97900 34.39800
H  -1.12400 14.56300 34.27700
H  -0.44700 13.44800 33.08900
Mg 46.26400 3.76300 47.52900
C  44.25400 6.43300 47.38500
C  43.53100 1.70400 47.21200
C  48.36200 1.20500 47.25000
C  49.10500 5.91700 47.24100
N  44.08600 4.04400 47.37700
C  43.54500 5.26800 47.25300
C  41.99800 5.07900 46.78000
C  41.72500 3.58900 47.05800
C  43.17600 3.05000 47.16500
C  40.82700 3.20200 48.29800
C  41.68000 5.58600 45.31500
C  40.83200 6.84400 45.07500
H  40.76200 7.48200 43.71100
N  45.94000 1.74100 47.17100
C  44.76900 1.12900 47.04100
C  45.05500 -0.31700 46.73200
C  46.46100 -0.51000 46.72300
C  47.00600 0.80600 47.11400
C  44.00700 -1.28500 46.36900
C  47.10100 -1.77800 46.25000
O  46.39800 -2.71900 45.94100
C  48.58900 -1.94600 46.12500
N  48.46500 3.60300 46.90000
C  49.09400 2.44800 47.17900
C  50.64000 2.65500 47.42700
C  50.83700 4.10900 46.96300
C  49.40300 4.60800 46.99800
C  51.09700 2.50000 48.89000
C  51.36700 4.18700 45.50200
C  52.87400 4.44400 45.36100
N  46.68300 5.77300 47.40200
C  47.81500 6.49300 47.35400
C  47.46200 7.89800 47.55400
C  46.02700 7.93000 47.53800
C  45.66100 6.57000 47.41100
C  48.39600 9.04300 47.61400
C  44.81800 8.78400 47.66300
O  44.80000 9.98800 47.87800
C  43.65000 7.84300 47.46600
C  42.73300 7.99400 48.57700
O  42.84700 7.77900 49.78600
O  41.66500 8.54200 48.00000
C  40.51300 8.86100 48.92800
H  42.67800 1.09500 46.90300
H  49.00000 0.32300 47.34000
H  49.93000 6.63200 47.27200
H  41.40100 5.70000 47.44700
H  41.22900 3.13600 46.19800
H  40.23100 3.99200 48.75400
H  41.56200 2.85200 49.02300
H  40.24000 2.33300 47.99800
H  41.16500 4.84700 44.70200
H  42.61300 5.79000 44.79000
H  41.32400 7.59900 45.68800
H  39.81600 6.61900 45.40000
H  43.93800 -1.34200 45.28300
H  43.09600 -0.92300 46.84500
H  44.20700 -2.24400 46.84700
H  49.08800 -1.81400 47.08500
H  48.96100 -1.27200 45.35300
H  48.67400 -2.95900 45.73100
H  51.21700 1.97200 46.80300
H  51.58700 4.61600 47.57100
H  51.37200 3.42900 49.38900
H  51.87200 1.76600 49.10800
H  50.25200 2.11500 49.46000
H  50.72900 4.80600 44.87200
H  51.20500 3.18400 45.10800
H  53.15000 5.37700 45.85300
H  53.26700 4.46400 44.34400
H  53.39500 3.62200 45.85200
H  47.95600 9.75500 46.91600
H  49.45700 8.83300 47.47500
H  48.28600 9.35400 48.65300
H  43.29200 8.17200 46.49000
H  39.72200 8.38200 48.35200
H  40.27400 9.92300 48.86700
H  40.59300 8.64700 49.99400

