158

Mg 48.12100 34.93400 27.20900
C  46.24800 33.82100 29.98400
C  48.93800 37.85800 29.18800
C  50.06300 36.00600 24.64700
C  47.00000 32.25500 25.39400
N  47.83200 35.58800 29.35800
C  47.00300 34.93700 30.28600
C  47.13600 35.60700 31.67000
C  47.51400 37.09700 31.19700
C  48.05000 36.91900 29.77800
C  46.44000 38.18700 31.37000
C  48.14400 34.99500 32.65300
C  47.68200 34.74100 34.08500
H  47.76200 35.85600 35.08200
N  49.32100 36.68900 26.91100
C  49.46400 37.69000 27.82400
C  50.35400 38.72100 27.18400
C  50.76200 38.16900 25.93400
C  50.00300 36.90500 25.77700
C  50.73300 40.06800 27.76400
C  51.76300 38.81500 24.83300
O  52.01400 38.16200 23.77500
C  52.36200 40.21400 25.00800
N  48.45900 34.26900 25.28800
C  49.37500 34.80400 24.48700
C  49.75400 33.84800 23.36700
C  48.72300 32.68000 23.54400
C  47.98400 33.08100 24.86600
C  49.78400 34.43800 21.87000
C  49.32400 31.29700 23.55000
C  48.71200 30.35700 22.55900
N  46.82700 33.42600 27.49700
C  46.48200 32.37200 26.66900
C  45.50600 31.41800 27.33100
C  45.43400 31.97800 28.61200
C  46.20300 33.15900 28.66700
C  44.80500 30.15800 26.81000
C  44.85000 31.78700 29.89600
O  44.22200 30.83500 30.32400
C  45.26000 32.98200 30.78500
C  45.74600 32.47900 32.07600
O  46.84200 31.96900 32.38500
O  44.71800 32.46500 32.95000
C  45.12000 32.14000 34.41400
H  49.10000 38.81700 29.68500
H  50.67600 36.28100 23.78600
H  46.71000 31.40300 24.77600
H  46.15000 35.55400 32.13100
H  48.35300 37.57200 31.70500
H  45.51900 37.74600 31.75300
H  46.29300 38.72900 30.43600
H  46.86600 38.80300 32.16200
H  48.86900 35.80300 32.75700
H  48.70500 34.15000 32.25400
H  48.19400 33.89000 34.53500
H  46.63500 34.49000 33.91600
H  51.73000 39.97100 28.19400
H  50.05800 40.22100 28.60700
H  50.65300 40.86900 27.03000
H  51.52100 40.90200 24.93200
H  53.08100 40.45800 24.22500
H  52.81500 40.41700 25.97800
H  50.80300 33.55500 23.39600
H  47.93800 32.75100 22.79100
H  49.59100 35.50100 22.01100
H  48.92600 34.18400 21.24800
H  50.72000 34.30800 21.32800
H  49.19100 30.99900 24.58900
H  50.39800 31.31800 23.36500
H  47.80900 29.81800 22.84300
H  49.36900 29.55100 22.23200
H  48.45200 30.91700 21.66100
H  45.14500 29.34500 27.45100
H  45.06500 29.80100 25.81300
H  43.72800 30.26400 26.93900
H  44.36800 33.56300 31.01900
H  46.11200 32.38400 34.79400
H  45.05200 31.06100 34.55200
H  44.50700 32.62600 35.17400
Mg 29.91100 57.21600 41.11100
C  27.05000 55.82300 39.65600
C  31.83000 55.04400 39.29900
C  32.61900 59.23500 41.72300
C  27.86100 59.89500 42.31600
N  29.41400 55.66500 39.53800
C  28.22200 55.15300 39.24500
C  28.32800 53.81700 38.45600
C  29.88200 53.61800 38.35300
C  30.43500 54.82700 39.14200
C  30.45200 52.21700 38.86200
C  27.51500 53.81600 37.12100
C  27.29100 55.09400 36.33300
H  27.76000 55.08100 34.82700
N  31.90200 57.00700 40.79700
C  32.49500 56.03400 40.04400
C  33.94500 56.24400 39.99500
C  34.25700 57.47300 40.71600
C  32.88300 57.99500 41.10800
C  34.85300 55.28500 39.39800
C  35.62300 58.03400 40.86400
O  36.62600 57.47500 40.45700
C  35.84200 59.37100 41.43700
N  30.14500 59.25500 41.90700
C  31.38300 59.84900 42.06000
C  31.32100 61.36300 42.49200
C  29.88400 61.40900 43.02400
C  29.20700 60.15000 42.36400
C  32.53900 61.78900 43.42700
C  29.21800 62.72300 42.75200
C  28.63300 63.42300 43.90700
N  27.88000 57.69800 41.11400
C  27.21800 58.77200 41.68500
C  25.81100 58.53500 41.55500
C  25.66900 57.38500 40.79800
C  26.93600 56.96600 40.47000
C  24.69300 59.39400 42.10100
C  24.74100 56.51900 40.13400
O  23.51200 56.49800 40.05800
C  25.62500 55.41300 39.36200
C  25.34100 54.04400 39.95200
O  25.79000 53.53200 40.99300
O  24.33900 53.51000 39.24800
C  23.94400 52.16800 39.70400
H  32.44700 54.39500 38.67400
H  33.43000 59.95800 41.83500
H  27.27900 60.69600 42.77700
H  27.96400 52.99000 39.06500
H  30.18800 53.62400 37.30700
H  31.11900 52.27400 39.72300
H  31.07100 51.73000 38.10900
H  29.63300 51.56000 39.15400
H  26.53100 53.41800 37.36900
H  27.87700 52.98500 36.51600
H  27.74900 55.92400 36.87200
H  26.22000 55.27800 36.25000
H  35.80400 55.74700 39.13200
H  34.45800 54.92000 38.45000
H  35.03400 54.43700 40.05800
H  35.39200 60.10700 40.77100
H  36.91300 59.52700 41.56700
H  35.35800 59.55300 42.39700
H  31.43600 61.98800 41.60700
H  29.93300 61.27900 44.10500
H  33.26800 62.41000 42.90500
H  33.06100 60.91200 43.80900
H  32.13200 62.32600 44.28400
H  28.47500 62.52400 41.97900
H  29.87000 63.43300 42.24500
H  27.61100 63.69300 43.63900
H  29.28400 64.26100 44.15400
H  28.56800 62.84200 44.82700
H  24.24200 60.01100 41.32400
H  25.04400 60.01600 42.92400
H  23.89400 58.81700 42.56600
H  25.25600 55.47500 38.33800
H  23.24500 51.79300 38.95700
H  23.48500 52.21800 40.69200
H  24.84600 51.55800 39.75000

