158

Mg 8.81900 3.73000 27.52100
C  10.13800 2.23100 30.37800
C  6.72600 5.53700 29.55200
C  7.32300 5.07100 24.69400
C  10.53600 1.47400 25.50600
N  8.39500 3.68700 29.69300
C  9.14600 3.20400 30.67500
C  8.62800 3.67500 32.09200
C  7.45600 4.63100 31.76500
C  7.50100 4.58400 30.23900
C  5.99000 4.29600 32.24400
C  9.74600 4.19800 33.06300
C  9.18800 5.00000 34.29900
H  9.85900 4.70200 35.63300
N  7.21200 5.09700 27.10200
C  6.52200 5.78900 28.08000
C  5.73300 6.83900 27.46500
C  6.01800 6.81300 26.07500
C  6.88100 5.61800 25.90800
C  4.86800 7.76100 28.25100
C  5.51700 7.66100 25.02200
O  5.83200 7.44300 23.87500
C  4.69400 8.87300 25.29500
N  8.87100 3.29500 25.40600
C  8.16800 3.96900 24.46700
C  8.41600 3.47700 22.99100
C  9.47800 2.37200 23.25800
C  9.73900 2.41400 24.76000
C  6.96900 3.10100 22.43700
C  10.85200 2.62000 22.46800
C  11.39900 1.39100 21.77000
N  9.97800 2.16800 27.80200
C  10.60200 1.27200 26.90700
C  11.43900 0.34500 27.65500
C  11.31900 0.71900 28.98800
C  10.42000 1.83000 29.07500
C  12.15300 -0.84900 27.09600
C  11.81000 0.43400 30.33500
O  12.53400 -0.40000 30.71200
C  11.06000 1.45000 31.28100
C  10.21300 0.65700 32.24100
O  9.33300 -0.15800 31.91600
O  10.71900 0.85500 33.54600
C  9.76000 0.42500 34.59400
H  6.10300 6.21300 30.14000
H  6.91500 5.46200 23.75900
H  11.17100 0.80900 24.91600
H  8.16900 2.89200 32.69500
H  7.66800 5.65400 32.07700
H  5.81900 3.30700 31.82000
H  5.33600 5.08300 31.86900
H  5.80300 4.32800 33.31700
H  10.34100 4.68000 32.28700
H  10.32000 3.38800 33.51400
H  8.10600 4.90600 34.39400
H  9.39800 6.05800 34.14300
H  3.80600 7.53700 28.15100
H  5.03400 8.79700 27.95400
H  5.10100 7.69800 29.31400
H  3.89700 8.59600 25.98400
H  4.38500 9.26600 24.32600
H  5.46300 9.48700 25.76500
H  8.87400 4.29300 22.43100
H  9.05900 1.45800 22.83700
H  6.77900 2.03400 22.32300
H  6.70100 3.69800 21.56600
H  6.20800 3.35700 23.17400
H  11.63200 2.98300 23.13800
H  10.75300 3.47200 21.79600
H  11.22900 1.53500 20.70300
H  11.04100 0.46500 22.22000
H  12.46900 1.46700 21.95900
H  12.28500 -1.53500 27.93300
H  13.09200 -0.65900 26.57700
H  11.58300 -1.34200 26.30900
H  11.67600 2.09700 31.90600
H  8.77100 0.13600 34.24000
H  9.63800 1.20300 35.34700
H  10.15400 -0.41300 35.16900
Mg 26.06900 0.58300 30.10700
C  28.12000 0.73200 33.02000
C  23.29600 1.08700 32.22200
C  24.02800 0.05900 27.59900
C  28.85000 -0.19600 28.16800
N  25.74300 0.72900 32.42500
C  26.69900 0.85700 33.37100
C  26.12000 1.32900 34.75400
C  24.64500 1.35500 34.40400
C  24.54600 0.99800 32.94200
C  23.71500 0.46200 35.33300
C  26.70300 2.69700 35.19200
C  27.64100 2.62200 36.38200
H  27.08000 3.08600 37.73900
N  23.93300 0.64200 29.94900
C  23.01900 0.90700 30.89800
C  21.71000 0.85300 30.28500
C  21.83800 0.64400 28.91600
C  23.30400 0.42400 28.73800
C  20.40900 1.08100 31.06900
C  20.77200 0.58400 27.81400
O  21.06100 0.35700 26.61700
C  19.35300 0.60100 28.13800
N  26.41400 0.18200 28.12000
C  25.36800 -0.04400 27.29400
C  25.82200 -0.40700 25.89500
C  27.36900 0.01800 25.96400
C  27.62000 -0.07800 27.45000
C  25.52900 -1.83400 25.54300
C  27.88700 1.38900 25.36200
C  28.59400 1.27500 24.02400
N  28.07900 0.27800 30.45800
C  29.09600 -0.04600 29.56400
C  30.38400 -0.03800 30.26700
C  30.02500 0.24600 31.62800
C  28.60900 0.42400 31.69900
C  31.71700 -0.37600 29.75200
C  30.50600 0.41400 32.94900
O  31.67800 0.47600 33.32800
C  29.29700 0.66800 33.89300
C  29.27100 -0.57600 34.64000
O  28.45500 -1.50400 34.50500
O  30.23100 -0.54800 35.65000
C  30.08800 -1.50000 36.70600
H  22.53900 1.30000 32.98000
H  23.37000 -0.15300 26.75300
H  29.76300 -0.46700 27.63400
H  26.33500 0.61500 35.54900
H  24.18700 2.34300 34.44500
H  23.24500 -0.34500 34.77100
H  22.85600 1.08000 35.59300
H  24.20800 0.05100 36.21400
H  25.91200 3.40000 35.45100
H  27.26200 3.21300 34.41100
H  28.46900 3.30300 36.18500
H  28.02500 1.62800 36.61100
H  19.65500 0.37600 30.71900
H  20.12400 2.12500 30.93900
H  20.51100 0.81900 32.12200
H  18.70200 0.60100 27.26400
H  19.15100 1.48300 28.74500
H  19.12500 -0.24800 28.78300
H  25.27100 0.20700 25.18300
H  27.96400 -0.79000 25.53900
H  25.01000 -2.35000 26.35000
H  26.46400 -2.33000 25.28200
H  24.98800 -1.90400 24.59900
H  28.51800 1.96800 26.03700
H  26.95600 1.94100 25.23600
H  27.89600 1.34100 23.19000
H  29.13500 0.32900 24.00400
H  29.45500 1.93900 24.10200
H  31.83300 -0.81700 28.76200
H  31.99400 -1.16800 30.44800
H  32.30700 0.53600 29.66600
H  29.44800 1.65600 34.32800
H  29.88800 -2.51000 36.34900
H  29.16400 -1.23400 37.22000
H  30.95600 -1.50100 37.36500

