158

Mg 40.84100 7.84200 29.79600
C  42.56300 9.08100 32.58400
C  38.38500 6.63500 31.86600
C  39.38200 6.39600 27.16500
C  43.73900 8.45200 27.83700
N  40.44400 7.83500 32.04600
C  41.19800 8.57400 32.93000
C  40.42100 8.71100 34.26700
C  39.15300 7.71000 34.07900
C  39.30700 7.36000 32.62500
C  39.01000 6.46500 35.06400
C  40.17200 10.18600 34.50200
C  39.83400 10.50300 36.01000
H  40.88000 11.32100 36.80700
N  39.07800 6.81200 29.54100
C  38.18000 6.43700 30.47300
C  37.00500 5.74900 29.91900
C  37.32900 5.59500 28.54500
C  38.64800 6.26200 28.36200
C  35.84100 5.12000 30.69000
C  36.61100 4.79700 27.50400
O  37.12900 4.53100 26.40800
C  35.21800 4.14100 27.74900
N  41.45700 7.41600 27.79600
C  40.69700 6.74300 26.90000
C  41.44600 6.70300 25.55200
C  42.79600 7.27700 25.80300
C  42.67800 7.75600 27.24600
C  41.59000 5.20000 24.91800
C  43.14800 8.44000 24.80100
C  42.29900 9.69300 24.99300
N  42.76300 8.51600 30.10200
C  43.82200 8.81000 29.25600
C  44.95800 9.41000 29.92300
C  44.50200 9.58800 31.18600
C  43.16500 8.94400 31.32200
C  46.26400 9.85200 29.27800
C  44.77700 10.14400 32.51600
O  45.76500 10.68900 32.95100
C  43.59500 9.75100 33.50300
C  44.09300 8.90500 34.66900
O  45.12700 8.25000 34.65400
O  43.20200 8.90200 35.69100
C  43.52500 8.05100 36.84500
H  37.51000 6.38600 32.47000
H  38.91400 6.04800 26.24200
H  44.59100 8.74500 27.22000
H  40.95800 8.24700 35.09500
H  38.19600 8.23000 34.03800
H  38.18100 6.63600 35.75000
H  39.88700 6.26900 35.68200
H  38.83900 5.58700 34.44200
H  39.30500 10.49000 33.91600
H  41.06200 10.74500 34.21500
H  39.72700 9.59800 36.61000
H  38.94900 11.12000 36.16400
H  34.85800 5.13600 30.21900
H  35.65900 5.55100 31.67400
H  36.14700 4.08800 30.86000
H  34.55800 4.90100 28.16800
H  35.37500 3.15300 28.18400
H  34.65300 3.97300 26.83200
H  40.82400 7.27100 24.86000
H  43.63000 6.57800 25.85100
H  41.29500 4.52700 25.72300
H  42.62800 4.96100 24.68800
H  41.06400 5.06200 23.97300
H  42.99800 8.08100 23.78300
H  44.22500 8.59700 24.85900
H  41.71900 9.80600 24.07700
H  42.93400 10.56900 25.12600
H  41.55900 9.59800 25.78800
H  46.49900 9.26500 28.39000
H  46.96300 9.44500 30.00900
H  46.29500 10.93900 29.20400
H  43.24100 10.66800 33.97400
H  43.37100 6.98700 36.67000
H  42.93700 8.39500 37.69600
H  44.55300 8.09600 37.20500
Mg 47.24900 34.81600 28.42400
C  45.78000 33.02000 30.79500
C  47.52500 37.62000 30.56600
C  47.95200 37.01500 25.80100
C  46.68000 32.27900 26.15000
N  46.71900 35.20900 30.41100
C  46.23400 34.28600 31.27900
C  46.10600 34.74800 32.73800
C  46.20700 36.29900 32.56700
C  46.86000 36.40100 31.08600
C  44.98200 37.13500 32.82400
C  47.24000 34.14700 33.67200
C  46.84000 33.76300 35.11400
H  47.52700 34.74200 36.09100
N  47.67800 36.94300 28.18600
C  47.86900 37.84900 29.21900
C  48.53300 39.10400 28.74600
C  48.62800 38.93900 27.34600
C  48.04300 37.61600 27.07600
C  49.14400 40.09800 29.63200
C  49.20000 39.90500 26.32200
O  49.35800 39.68100 25.10700
C  49.67500 41.31000 26.76200
N  47.31000 34.64800 26.34400
C  47.63300 35.70700 25.49900
C  47.76600 35.16600 24.00600
C  47.34300 33.65700 24.12000
C  47.14300 33.42600 25.60900
C  47.04700 35.96400 22.93300
C  48.29000 32.57500 23.44600
C  49.68100 32.48500 24.01500
N  46.52000 32.87300 28.46300
C  46.28800 31.97900 27.45300
C  45.72800 30.79800 27.93800
C  45.36800 31.17000 29.22700
C  45.87100 32.44500 29.49700
C  45.41000 29.53000 27.19300
C  44.70900 30.81100 30.44800
O  44.16500 29.75500 30.65900
C  44.88800 31.94800 31.52000
C  45.53100 31.29200 32.72000
O  46.68900 30.94500 32.81900
O  44.60900 31.07400 33.77600
C  45.17100 30.33600 34.93100
H  47.41200 38.53600 31.14900
H  48.39000 37.52000 24.93600
H  46.70000 31.48500 25.40000
H  45.11300 34.49700 33.11300
H  46.93500 36.77100 33.22700
H  44.99500 37.47500 33.86000
H  44.03900 36.59900 32.71700
H  45.00500 38.04000 32.21800
H  47.88300 35.02300 33.75900
H  47.83200 33.36900 33.19100
H  47.03000 32.73100 35.40800
H  45.77600 33.91100 35.29700
H  49.29100 39.67000 30.62300
H  48.48600 40.96700 29.60400
H  50.13300 40.34800 29.24800
H  49.68400 42.08000 25.99100
H  50.69700 41.14900 27.10500
H  49.09200 41.63200 27.62600
H  48.83300 35.18200 23.78500
H  46.34300 33.60900 23.68900
H  46.74300 36.98300 23.17200
H  46.14800 35.42700 22.63400
H  47.70200 36.00900 22.06200
H  48.41900 32.83300 22.39500
H  47.70800 31.65800 23.35300
H  49.90700 31.55500 24.53700
H  49.89800 33.30100 24.70400
H  50.45300 32.56500 23.25000
H  45.71100 29.74400 26.16800
H  44.33300 29.37000 27.14500
H  46.00000 28.69200 27.56400
H  43.90100 32.37700 31.69600
H  44.42300 30.50400 35.70600
H  46.18500 30.66700 35.15700
H  45.29600 29.28100 34.68700

