158

Mg 16.18500 -1.33300 28.51100
C  15.06700 0.64300 31.11000
C  18.32300 -3.00800 30.65800
C  17.55100 -2.94000 25.80600
C  14.36100 0.74800 26.39300
N  16.82700 -0.96300 30.65600
C  16.01900 -0.30400 31.55800
C  16.55500 -0.59000 32.95600
C  17.57700 -1.77600 32.71900
C  17.59100 -1.96800 31.25800
C  18.99000 -1.63500 33.40600
C  15.35600 -1.01500 33.93000
C  15.75500 -1.13900 35.39600
H  16.94800 -0.41800 35.95900
N  17.80200 -2.79900 28.21000
C  18.45300 -3.38300 29.29000
C  19.27700 -4.40600 28.75200
C  19.09300 -4.50600 27.33100
C  18.12900 -3.44000 27.00900
C  20.18400 -5.23400 29.70000
C  19.81700 -5.45300 26.35100
O  19.53500 -5.56300 25.09100
C  20.94200 -6.33300 26.83800
N  15.91000 -1.25200 26.38000
C  16.72800 -1.89100 25.50400
C  16.60300 -1.29600 24.08200
C  15.39200 -0.29600 24.30700
C  15.21100 -0.22300 25.79900
C  17.90800 -0.76500 23.44200
C  14.09200 -0.52400 23.53700
C  12.83700 -1.11600 24.23900
N  14.98800 0.33200 28.61000
C  14.14200 0.99900 27.73100
C  13.35100 2.02000 28.31900
C  13.66200 1.89900 29.68800
C  14.70700 0.92300 29.78100
C  12.47700 2.96200 27.65800
C  13.40900 2.49500 30.94900
O  12.63800 3.39400 31.29800
C  14.24300 1.67400 31.98100
C  15.16900 2.55600 32.74400
O  16.17200 3.08300 32.28100
O  14.68800 2.80200 33.99200
C  15.42700 3.80800 34.72000
H  18.79100 -3.61400 31.43600
H  18.02100 -3.54600 25.02800
H  13.75900 1.36700 25.72500
H  17.15300 0.20100 33.41000
H  17.30000 -2.77600 33.05100
H  19.73900 -1.74100 32.62100
H  19.15300 -2.37800 34.18700
H  19.02000 -0.71000 33.98200
H  15.11400 -2.06000 33.73900
H  14.56600 -0.27600 33.79400
H  15.95000 -2.19400 35.59000
H  14.84000 -0.84600 35.91100
H  21.26300 -5.22700 29.54600
H  19.81000 -6.22100 29.42800
H  19.97400 -5.20600 30.76900
H  21.29700 -7.02300 26.07200
H  20.48200 -7.01500 27.55300
H  21.77900 -5.77300 27.25400
H  16.26200 -2.17900 23.54100
H  15.71300 0.72700 24.11000
H  18.74200 -1.12900 24.04200
H  17.71800 0.30800 23.41100
H  17.90700 -1.10000 22.40500
H  14.39800 -1.29800 22.83300
H  13.69700 0.35100 23.02100
H  12.14900 -0.37500 24.64800
H  13.08000 -1.68100 25.13800
H  12.25800 -1.74000 23.55700
H  12.82500 3.16500 26.64500
H  12.55600 3.91500 28.18100
H  11.47100 2.55400 27.75900
H  13.59100 1.09800 32.63700
H  16.48700 3.55900 34.69000
H  14.92500 4.01800 35.66400
H  15.31100 4.72200 34.13700
Mg -12.02700 38.08300 42.20600
C  -9.82000 35.28700 41.49500
C  -9.62500 40.10200 40.67100
C  -14.37900 40.44200 42.11300
C  -14.29100 35.74200 43.42300
N  -9.98400 37.67600 41.08500
C  -9.34300 36.49700 40.91800
C  -7.95400 36.69500 40.19000
C  -7.77500 38.33700 40.28800
C  -9.22900 38.76300 40.67400
C  -6.63300 38.94000 41.14000
C  -7.94300 36.13300 38.72800
C  -6.82400 35.06000 38.57200
H  -5.66400 35.31400 37.50300
N  -11.94800 40.03800 41.53400
C  -10.90800 40.67200 40.95900
C  -11.27200 42.07600 40.85100
C  -12.67700 42.24400 41.18100
C  -13.06600 40.84300 41.70900
C  -10.33000 43.16500 40.38600
C  -13.46600 43.57200 41.18200
O  -12.88500 44.65900 41.06800
C  -14.97000 43.61000 41.57500
N  -14.04600 38.00900 42.51700
C  -14.81700 39.15000 42.46300
C  -16.26300 38.82100 42.93200
C  -16.28800 37.27100 43.13900
C  -14.75700 36.97900 42.98900
C  -16.80500 39.65400 44.10800
C  -17.32800 36.37900 42.31100
C  -16.75300 35.78300 40.97200
N  -12.06800 35.97800 42.47100
C  -13.00500 35.24600 43.12900
C  -12.56400 33.90500 43.27800
C  -11.32200 33.85800 42.60700
C  -11.07200 35.19400 42.17800
C  -13.38300 32.83400 43.79900
C  -10.24600 33.04500 42.15300
O  -10.06700 31.83800 42.24000
C  -9.24100 33.91200 41.38800
C  -7.86000 33.74200 42.01300
O  -7.17600 32.76300 41.81100
O  -7.44200 34.82200 42.78500
C  -6.25900 34.58900 43.52900
H  -8.82800 40.79700 40.40000
H  -15.12300 41.23100 42.24500
H  -15.10300 35.02800 43.58000
H  -7.22100 36.23000 40.84900
H  -7.47300 38.63500 39.28400
H  -6.98900 39.87700 41.57000
H  -5.83200 39.10500 40.42000
H  -6.41600 38.24500 41.95000
H  -7.88500 36.95700 38.01700
H  -8.92300 35.70400 38.51700
H  -7.24500 34.06800 38.41200
H  -6.24800 35.03200 39.49700
H  -10.12200 43.85100 41.20700
H  -10.86500 43.76400 39.64900
H  -9.38500 42.80300 39.98300
H  -15.32000 43.31200 42.56400
H  -15.45700 42.87000 40.94000
H  -15.31700 44.60000 41.27800
H  -16.89500 38.97900 42.05800
H  -16.48400 37.05900 44.19000
H  -17.13800 38.98400 44.90000
H  -17.61300 40.28100 43.72900
H  -16.04700 40.35000 44.46800
H  -18.15900 37.00000 41.97700
H  -17.78000 35.62000 42.94900
H  -16.96800 34.72100 40.84700
H  -15.66900 35.77100 40.86200
H  -17.18200 36.21300 40.06700
H  -14.39100 32.88400 43.38800
H  -13.29000 32.82400 44.88500
H  -13.01700 31.86100 43.47200
H  -9.12300 33.56900 40.36000
H  -5.96200 33.54500 43.62800
H  -6.31700 34.96000 44.55300
H  -5.37900 35.09300 43.12900

