158

Mg 34.88100 3.68500 30.38300
C  32.76200 4.80500 32.91700
C  37.47000 3.87200 32.72200
C  37.02800 2.98200 28.03200
C  32.35500 4.02300 28.06700
N  34.98700 4.17800 32.56500
C  34.03100 4.57800 33.40200
C  34.47500 4.60400 34.81400
C  36.04900 4.58600 34.72300
C  36.18200 4.24500 33.24800
C  36.74700 5.90400 35.09400
C  33.88100 3.40000 35.56200
C  33.74500 3.51200 37.09400
H  34.32400 4.61900 37.94100
N  36.88700 3.24500 30.39600
C  37.74300 3.35600 31.44700
C  39.03400 2.82900 31.04700
C  38.96500 2.46800 29.68100
C  37.58900 2.94600 29.27600
C  40.30300 2.72800 31.91900
C  39.92300 1.71100 28.78500
O  39.62800 1.44700 27.60800
C  41.35300 1.46500 29.16200
N  34.71800 3.79100 28.34500
C  35.81900 3.42500 27.60600
C  35.46000 3.55700 26.05800
C  33.91600 3.66000 26.13400
C  33.61300 3.78800 27.59600
C  36.05600 4.83000 25.32200
C  33.23100 2.45100 25.39600
C  32.90600 1.18300 26.22600
N  32.92300 4.36500 30.45300
C  31.94400 4.38300 29.45300
C  30.59100 4.73200 30.05700
C  30.88500 4.93200 31.44200
C  32.31800 4.75300 31.62200
C  29.37100 4.96300 29.33200
C  30.35100 5.35000 32.67500
O  29.26700 5.72300 33.02600
C  31.48400 5.18500 33.69800
C  31.69900 6.38500 34.58400
O  32.39500 7.34500 34.32600
O  30.99600 6.22600 35.77600
C  30.75000 7.38600 36.60300
H  38.23300 4.10800 33.46800
H  37.71800 2.88100 27.19200
H  31.64100 4.18500 27.25600
H  34.09100 5.48200 35.33500
H  36.37700 3.79800 35.40100
H  37.24000 5.82400 36.06300
H  35.96400 6.65500 35.19100
H  37.42600 6.22400 34.30300
H  34.54500 2.53800 35.49500
H  32.94100 3.06300 35.12500
H  34.11200 2.59800 37.56100
H  32.67400 3.56000 37.29000
H  40.68600 1.72200 32.09300
H  40.21200 2.98000 32.97600
H  41.01000 3.34300 31.36100
H  41.82800 0.89900 28.36100
H  41.42800 0.79900 30.02100
H  41.85700 2.41700 29.32600
H  35.73400 2.73000 25.40300
H  33.58600 4.59800 25.68800
H  36.40500 5.61400 25.99300
H  35.32900 5.29000 24.65200
H  36.91400 4.42900 24.78300
H  33.84000 2.17100 24.53600
H  32.33000 2.83600 24.92000
H  31.83700 0.97000 26.23900
H  33.31100 1.16300 27.23800
H  33.40100 0.43300 25.60900
H  28.90100 5.70700 29.97600
H  28.74500 4.09500 29.12300
H  29.56300 5.36700 28.33800
H  31.18600 4.36000 34.34500
H  29.81000 7.13000 37.09200
H  30.62900 8.26800 35.97400
H  31.57300 7.52500 37.30300
Mg 46.72100 25.25300 28.46900
C  47.75500 27.53500 31.00600
C  45.62500 23.14200 30.84800
C  45.97100 23.21600 25.96000
C  48.30000 27.51200 26.11200
N  46.79500 25.26900 30.71600
C  47.19900 26.32000 31.51600
C  46.96600 25.95600 32.99800
C  46.18800 24.54700 32.90700
C  46.19000 24.26600 31.35100
C  46.67600 23.28800 33.84800
C  46.38400 27.05000 33.93900
C  45.62000 26.63000 35.10200
H  46.37300 26.34700 36.44200
N  45.78800 23.56700 28.39600
C  45.43700 22.77000 29.48600
C  44.79200 21.61400 29.01400
C  44.89300 21.50300 27.59800
C  45.59700 22.81600 27.22400
C  44.24600 20.60200 29.83400
C  44.52100 20.41500 26.61500
O  44.83900 20.42000 25.46300
C  43.76600 19.25000 27.04600
N  46.97800 25.48500 26.38400
C  46.64200 24.40700 25.60800
C  47.03200 24.59800 24.13000
C  47.40000 26.09600 24.13000
C  47.62000 26.39600 25.65000
C  48.20500 23.70800 23.64900
C  46.42400 27.12800 23.48800
C  47.04600 28.35100 22.84400
N  47.84600 27.09200 28.51700
C  48.44100 27.85900 27.48900
C  48.90200 29.17400 27.98900
C  48.66400 29.07500 29.38500
C  47.99400 27.80700 29.63100
C  49.63100 30.14900 27.17500
C  48.82200 29.77100 30.62100
O  49.22300 30.91900 30.84900
C  48.40500 28.75600 31.73800
C  49.65500 28.38200 32.49300
O  50.70500 27.93500 32.05000
O  49.47500 28.56200 33.84000
C  50.45700 28.06800 34.81700
H  45.19200 22.34400 31.45600
H  45.67200 22.56300 25.13800
H  48.69600 28.30400 25.47200
H  48.00500 25.76500 33.26900
H  45.15900 24.69300 33.23500
H  47.30800 23.67500 34.64700
H  47.26500 22.65900 33.18100
H  45.85900 22.74400 34.32100
H  45.81300 27.78500 33.37100
H  47.28300 27.41100 34.43900
H  44.95400 25.80000 34.86600
H  45.04200 27.53500 35.28700
H  44.80500 19.66600 29.82800
H  43.23100 20.31000 29.56200
H  44.19100 20.98500 30.85300
H  42.88600 19.69100 27.51400
H  44.44600 18.59100 27.58600
H  43.38800 18.77800 26.14000
H  46.12700 24.31500 23.59200
H  48.43900 26.32400 23.88900
H  48.62900 23.05500 24.41200
H  48.94100 24.40300 23.24500
H  47.79800 23.16000 22.80000
H  45.65700 27.38500 24.21900
H  45.72900 26.67800 22.77900
H  46.66600 28.50100 21.83300
H  48.11900 28.19000 22.95000
H  46.84200 29.20100 23.49600
H  49.40300 31.15200 27.53400
H  49.32000 30.20700 26.13200
H  50.67900 30.01300 27.44300
H  47.65900 29.28300 32.33400
H  50.67700 28.92600 35.45200
H  51.43100 27.78700 34.41700
H  49.98400 27.23600 35.33800

