158

Mg 39.88100 41.48200 26.86700
C  39.05300 43.69100 29.47900
C  40.36000 38.94900 29.17500
C  40.81600 39.45000 24.27000
C  39.20700 43.99100 24.56100
N  39.90100 41.42800 29.21200
C  39.40500 42.39700 30.03400
C  39.29800 41.86100 31.44900
C  39.76600 40.34600 31.26200
C  40.04400 40.24200 29.76300
C  41.00300 39.97900 32.23500
C  37.88900 42.05400 32.09000
C  37.58700 41.34900 33.44500
H  37.06400 42.37000 34.51600
N  40.59500 39.44300 26.79600
C  40.74500 38.60100 27.88600
C  41.14300 37.24500 27.37500
C  41.23800 37.39500 25.95100
C  40.88700 38.79900 25.60800
C  41.46100 36.02700 28.24100
C  41.68500 36.40300 24.87700
O  41.83600 36.65600 23.69600
C  41.83800 34.91300 25.21300
N  40.06800 41.71400 24.69900
C  40.47300 40.72000 23.90900
C  40.29500 41.05200 22.43900
C  39.52900 42.39700 22.54100
C  39.64500 42.76100 23.96700
C  41.51300 41.13000 21.52300
C  38.11000 42.41200 21.82100
C  37.15300 41.46900 22.31500
N  39.31700 43.41000 26.95600
C  39.10800 44.33700 25.92500
C  38.72900 45.60600 26.43300
C  38.67500 45.34900 27.84600
C  39.09200 44.04200 28.10000
C  38.45500 46.94100 25.63700
C  38.14600 45.97600 29.08600
O  37.54000 47.05200 29.27700
C  38.45200 44.90500 30.21900
C  39.34100 45.55500 31.22500
O  40.50000 45.91600 30.97500
O  38.73100 45.83500 32.42200
C  39.36300 46.72300 33.40100
H  40.48800 38.17800 29.93700
H  40.96300 38.74500 23.44900
H  38.97100 44.74900 23.81200
H  39.98700 42.43900 32.06500
H  38.95000 39.67800 31.53700
H  40.95000 38.94600 32.57900
H  41.13500 40.69100 33.05000
H  41.86800 39.93600 31.57300
H  37.07600 41.93300 31.37400
H  37.94200 43.12700 32.27000
H  38.45900 40.86700 33.88900
H  36.84300 40.62500 33.11500
H  42.54100 36.02400 28.38700
H  41.12200 35.12200 27.73700
H  40.90200 36.01200 29.17700
H  42.01500 34.27600 24.34600
H  40.91900 34.66200 25.74100
H  42.70100 34.71700 25.84900
H  39.63800 40.28900 22.02100
H  39.98900 43.23400 22.01700
H  42.42000 40.80600 22.03400
H  41.51800 42.17200 21.20200
H  41.33500 40.55600 20.61300
H  38.40800 42.04800 20.83800
H  37.59300 43.37200 21.82600
H  36.50600 42.01700 23.00000
H  37.72800 40.73600 22.88200
H  36.66300 41.02300 21.45000
H  37.41600 46.97500 25.30700
H  39.23700 47.03300 24.88400
H  38.55400 47.71200 26.40100
H  37.49700 44.63800 30.66900
H  40.22500 46.36600 33.96500
H  38.56700 47.15800 34.00500
H  39.69100 47.58000 32.81300
Mg 7.96100 49.10200 24.95100
C  6.04600 48.90800 28.07800
C  10.62800 50.30500 26.76900
C  9.70700 48.84800 22.25300
C  4.98800 48.32400 23.16900
N  8.24800 49.48500 27.15500
C  7.42000 49.31300 28.24600
C  8.15000 49.78600 29.53100
C  9.50300 50.42400 28.98700
C  9.47200 50.02600 27.51700
C  9.39700 51.98200 29.13600
C  8.38500 48.64500 30.61700
C  8.03800 49.11500 32.10500
H  8.37200 48.23600 33.24900
N  9.92400 49.59500 24.51600
C  10.88200 50.01100 25.40300
C  12.13300 50.18800 24.72000
C  11.95300 49.60300 23.38800
C  10.49200 49.33800 23.32100
C  13.44900 50.59500 25.46300
C  12.94100 49.28100 22.31200
O  12.70800 48.75900 21.24300
C  14.44500 49.59400 22.55300
N  7.49200 48.42400 23.03500
C  8.36600 48.56100 22.05600
C  7.78900 48.04000 20.69000
C  6.22900 48.16600 20.99400
C  6.19200 48.37900 22.49600
C  8.21300 48.73400 19.39800
C  5.50300 46.85800 20.55500
C  4.48800 47.09700 19.52600
N  5.98500 48.64400 25.45300
C  4.90900 48.32800 24.60100
C  3.67800 48.08900 25.45000
C  4.16400 48.27300 26.82300
C  5.49200 48.66800 26.78700
C  2.35200 47.86000 25.05600
C  3.70300 48.15200 28.16600
O  2.58800 47.84400 28.60200
C  4.93900 48.66700 29.07800
C  5.18700 47.50000 30.04200
O  5.59100 46.39300 29.73900
O  4.73900 47.80400 31.26300
C  4.82000 46.79700 32.36200
H  11.42000 50.64600 27.44000
H  10.25500 48.57800 21.34700
H  4.11900 48.13900 22.53500
H  7.57600 50.57600 30.01600
H  10.35900 49.96700 29.48200
H  9.60900 52.43400 28.16700
H  10.19700 52.23100 29.83300
H  8.46300 52.37400 29.53900
H  9.40900 48.27400 30.57900
H  7.73600 47.79100 30.42800
H  6.95100 49.04200 32.09700
H  8.31500 50.15900 32.24900
H  13.94600 49.63200 25.35100
H  13.25700 50.70600 26.53000
H  14.09700 51.38500 25.08400
H  14.66800 50.64500 22.73800
H  14.98600 49.38900 21.63000
H  14.72400 48.92900 23.37000
H  8.10200 46.99800 20.75800
H  5.80100 49.02500 20.47600
H  8.97300 49.50600 19.51700
H  7.33200 49.22100 18.97800
H  8.50000 47.90100 18.75600
H  5.02800 46.31900 21.37500
H  6.17400 46.15500 20.06200
H  3.52700 47.44500 19.90400
H  4.33300 46.14000 19.02800
H  4.72500 47.90600 18.83500
H  2.48700 47.49700 24.03700
H  1.83700 48.82000 25.08200
H  1.91200 47.13700 25.74400
H  4.72300 49.59400 29.60900
H  5.01000 47.37400 33.26700
H  5.71200 46.17400 32.30500
H  3.86600 46.29800 32.53200

