158

Mg 26.85400 50.91600 26.23100
C  25.25300 52.19700 29.01900
C  29.01800 49.25300 28.29500
C  28.58700 50.04700 23.47800
C  24.66100 52.55400 24.21800
N  27.01600 50.64400 28.44100
C  26.31300 51.32300 29.37700
C  26.81500 51.00400 30.79000
C  28.19700 50.37700 30.44800
C  28.00700 49.93600 28.95100
C  29.41600 51.33600 30.64400
C  25.77300 49.94800 31.50300
C  24.82500 50.47400 32.62000
H  24.96500 49.77600 33.95400
N  28.53500 49.69600 25.94000
C  29.27100 48.99600 26.87600
C  30.30500 48.21500 26.24900
C  30.26800 48.52800 24.80300
C  29.12100 49.51900 24.69800
C  31.16300 47.22800 27.07800
C  30.98200 47.79500 23.62800
O  30.86400 48.15100 22.44900
C  31.82400 46.61700 23.87300
N  26.81800 51.56600 24.17600
C  27.53500 50.90700 23.23000
C  27.21500 51.26400 21.75800
C  25.81000 51.94400 22.00300
C  25.72700 51.99500 23.56600
C  28.20600 52.26400 21.20900
C  24.72700 51.22600 21.20500
C  23.50500 52.11500 20.76800
N  25.37000 52.22300 26.46700
C  24.48500 52.77100 25.58500
C  23.48900 53.60800 26.30100
C  23.75700 53.33800 27.61200
C  24.87500 52.47600 27.67500
C  22.36100 54.21600 25.57400
C  23.35000 53.56300 28.97200
O  22.43100 54.20500 29.39200
C  24.32300 52.88900 29.91900
C  24.86300 53.90900 30.83900
O  25.81600 54.64800 30.72500
O  24.05200 53.93900 31.99900
C  24.36800 54.95300 33.11800
H  29.67500 48.69700 28.96700
H  29.11800 49.65600 22.60700
H  23.92400 52.95200 23.51800
H  26.84600 51.98500 31.26300
H  28.46100 49.53500 31.08800
H  29.71600 51.64100 29.64100
H  30.16900 50.68400 31.08700
H  29.11700 52.16000 31.29100
H  26.41900 49.14200 31.85100
H  25.00000 49.56800 30.83400
H  23.80900 50.37900 32.23900
H  25.11300 51.51400 32.77200
H  31.21800 47.45000 28.14400
H  32.12200 47.33300 26.57100
H  30.79100 46.23800 26.81200
H  32.69200 46.93600 24.45100
H  32.00100 46.04100 22.96400
H  31.14900 45.99000 24.45500
H  27.27800 50.40600 21.08900
H  25.72400 52.95900 21.61600
H  27.81400 53.08700 20.61200
H  28.93000 51.70600 20.61600
H  28.69500 52.68900 22.08600
H  24.31000 50.47000 21.87100
H  25.20200 50.73800 20.35400
H  22.75800 51.89200 21.53000
H  23.06000 51.85000 19.80900
H  23.78900 53.16700 20.75800
H  22.76300 54.88000 24.80900
H  21.82900 54.72000 26.38100
H  21.61900 53.55300 25.13000
H  23.73200 52.20800 30.53200
H  23.38300 55.04200 33.57600
H  24.67900 55.90600 32.68900
H  25.11400 54.55100 33.80400
Mg -1.48900 34.84800 26.73800
C  -3.37300 33.16500 29.39800
C  0.02100 36.69200 29.04300
C  -0.37500 36.65200 24.17000
C  -3.30300 32.80800 24.45500
N  -1.70000 34.86800 28.96900
C  -2.43500 34.13700 29.81300
C  -2.17200 34.47100 31.32400
C  -1.11000 35.69700 31.13100
C  -0.86500 35.70900 29.58500
C  -1.39600 37.04800 31.84600
C  -1.52900 33.25100 32.15400
C  -2.41900 32.82300 33.35400
H  -1.64400 32.37900 34.57200
N  -0.37000 36.37200 26.62500
C  0.23000 37.02100 27.69400
C  1.05400 38.12000 27.18300
C  0.88500 38.17300 25.77500
C  -0.00900 37.06400 25.48000
C  1.78300 39.10700 28.08500
C  1.44400 39.19600 24.77800
O  1.02000 39.20300 23.62500
C  2.61700 39.94500 25.12400
N  -1.88200 34.77300 24.53500
C  -1.22600 35.60600 23.74000
C  -1.39600 35.15600 22.29200
C  -2.22300 33.81900 22.32500
C  -2.43000 33.72200 23.85400
C  -1.93600 36.23900 21.27800
C  -1.48000 32.57300 21.67400
C  -0.37800 31.94500 22.41600
N  -3.03800 33.37600 26.82600
C  -3.59600 32.63000 25.81500
C  -4.41500 31.53800 26.42200
C  -4.27900 31.79100 27.77900
C  -3.48500 32.88700 27.98700
C  -4.95300 30.40600 25.57400
C  -4.71800 31.16500 29.00100
O  -5.35800 30.12900 29.13800
C  -4.18900 32.06900 30.16900
C  -5.36300 32.60400 30.88800
O  -6.23800 33.27500 30.42200
O  -5.33800 32.24800 32.19700
C  -6.49500 32.47300 33.08300
H  0.42400 37.18800 29.92900
H  0.02000 37.20000 23.31200
H  -3.71000 32.13600 23.69600
H  -3.09200 34.90800 31.71100
H  -0.17200 35.38200 31.58800
H  -0.50400 37.42300 32.34800
H  -2.20700 36.94900 32.56900
H  -1.69900 37.71600 31.04000
H  -0.51400 33.51100 32.45500
H  -1.39900 32.39400 31.49300
H  -2.88700 31.84900 33.20500
H  -3.13500 33.61400 33.57700
H  1.35800 40.08000 27.83700
H  2.85600 38.98900 27.93900
H  1.53400 38.89400 29.12500
H  2.33700 40.68800 25.87100
H  3.04700 40.41100 24.23800
H  3.32900 39.22000 25.51700
H  -0.32800 35.04200 22.10800
H  -3.21800 33.98700 21.91200
H  -1.38400 36.25000 20.33800
H  -1.90100 37.20300 21.78400
H  -2.98400 35.98700 21.11600
H  -1.19100 32.90600 20.67700
H  -2.26000 31.83000 21.50600
H  -0.13900 32.56300 23.28100
H  0.36500 31.71900 21.65100
H  -0.70000 30.99600 22.84300
H  -4.35700 30.18400 24.68900
H  -5.84900 30.70800 25.03100
H  -4.95100 29.54900 26.24700
H  -3.57700 31.39400 30.76700
H  -7.24900 33.16800 32.71300
H  -6.07200 32.66300 34.06900
H  -7.00800 31.52200 33.22400

