158

Mg 16.74700 52.30500 26.70500
C  18.73100 50.80600 29.18600
C  14.50600 53.39800 29.12600
C  14.80100 53.37800 24.26800
C  18.66700 50.61300 24.31400
N  16.60900 51.98100 28.94900
C  17.57900 51.42700 29.70500
C  17.28200 51.68700 31.18200
C  15.80100 52.35900 31.12500
C  15.52500 52.52500 29.66000
C  14.70000 51.62600 31.86000
C  18.35600 52.76200 31.79000
C  18.83600 52.62100 33.22800
H  17.78900 52.20100 34.20300
N  14.95300 53.40100 26.71700
C  14.20400 53.79900 27.80700
C  13.17900 54.64100 27.36100
C  13.14900 54.55900 25.96600
C  14.31600 53.76000 25.57400
C  12.21200 55.27100 28.41700
C  12.06500 55.18800 24.98700
O  12.21000 54.91900 23.77800
C  10.97600 56.11300 25.44300
N  16.77900 52.08000 24.50000
C  15.89700 52.70000 23.77000
C  16.38300 52.59900 22.26500
C  17.69400 51.78800 22.31600
C  17.79500 51.51200 23.82800
C  15.40000 52.07200 21.30600
C  18.86500 52.64600 21.80000
C  19.03700 52.61700 20.24000
N  18.35900 50.97300 26.65000
C  19.01800 50.36000 25.57800
C  20.05300 49.55300 26.10300
C  19.98900 49.70000 27.51500
C  18.92900 50.56500 27.76800
C  21.20300 48.81000 25.53400
C  20.66300 49.27700 28.73000
O  21.63700 48.60100 28.97200
C  19.84800 49.96500 29.87000
C  19.41700 49.00400 30.91100
O  18.79600 48.00200 30.59200
O  19.86400 49.35900 32.17600
C  19.73800 48.48000 33.30800
H  13.85100 53.85600 29.87100
H  14.20300 53.71800 23.42100
H  19.40300 50.17700 23.63500
H  17.31800 50.73100 31.70600
H  15.91700 53.34100 31.58200
H  13.85300 51.38400 31.21900
H  14.23800 52.16400 32.68800
H  15.08200 50.66600 32.20700
H  18.05300 53.77400 31.52200
H  19.24600 52.47300 31.23100
H  19.27300 53.60400 33.40200
H  19.72000 51.98400 33.23000
H  11.49000 55.88300 27.87700
H  12.71400 55.88300 29.16700
H  11.72000 54.51600 29.03100
H  11.40200 57.02400 25.86300
H  10.27900 55.56200 26.07500
H  10.42400 56.37100 24.53900
H  16.56100 53.60900 21.89500
H  17.75200 50.82800 21.80200
H  15.72000 51.18400 20.76100
H  15.21300 52.89000 20.61000
H  14.39200 51.87100 21.66900
H  19.83700 52.29600 22.15000
H  18.74900 53.64400 22.22300
H  19.92600 52.07300 19.92100
H  19.17400 53.64000 19.88700
H  18.22000 52.07900 19.75900
H  22.07400 49.44800 25.39000
H  20.92100 48.49100 24.53000
H  21.48100 47.99600 26.20400
H  20.56900 50.66900 30.28600
H  20.73000 48.60700 33.74100
H  19.67100 47.41200 33.09800
H  19.07300 48.84800 34.08900
Mg -5.47600 25.92700 26.13000
C  -3.79100 27.19500 28.88400
C  -6.92100 23.55400 28.30200
C  -6.76000 24.35100 23.42300
C  -3.67200 27.99300 24.02800
N  -5.46400 25.45500 28.42600
C  -4.62500 26.12000 29.29500
C  -4.86600 25.61800 30.70800
C  -5.62700 24.28400 30.48700
C  -6.07700 24.40700 29.00400
C  -4.63300 23.02700 30.65800
C  -5.72000 26.80400 31.46100
C  -5.29800 27.07400 32.96900
H  -6.15200 26.36700 34.03300
N  -6.82300 24.31400 25.86900
C  -7.23600 23.46800 26.88000
C  -8.15700 22.47900 26.27100
C  -8.12700 22.69200 24.87100
C  -7.25700 23.82500 24.65000
C  -8.87900 21.41100 27.12500
C  -8.80200 21.94300 23.69900
O  -8.92100 22.33200 22.56400
C  -9.51900 20.70600 24.04700
N  -5.21900 26.06800 24.07500
C  -5.93300 25.41400 23.17600
C  -5.55400 25.71500 21.82300
C  -4.59700 26.88600 21.97500
C  -4.58300 27.09400 23.43800
C  -4.88000 24.54600 20.86100
C  -4.84700 28.23100 21.12200
C  -5.24500 28.10100 19.64200
N  -3.97200 27.29000 26.37100
C  -3.38300 28.12900 25.40500
C  -2.66400 29.10700 26.11400
C  -2.65300 28.73400 27.44500
C  -3.59100 27.66100 27.56700
C  -1.74300 30.12100 25.41000
C  -2.07100 29.03300 28.76700
O  -1.17700 29.80300 29.07100
C  -2.85100 28.12000 29.70200
C  -1.91700 27.36100 30.58300
O  -1.31000 26.27900 30.40500
O  -1.90200 28.02800 31.80200
C  -1.27400 27.38000 32.90100
H  -7.46800 22.86300 28.94700
H  -7.12300 23.74600 22.58900
H  -3.37200 28.86100 23.43800
H  -4.00200 25.41300 31.34100
H  -6.45200 24.19400 31.19200
H  -5.03500 22.45800 31.49600
H  -3.65500 23.35800 31.00800
H  -4.49700 22.42600 29.75900
H  -6.79000 26.59900 31.44400
H  -5.45800 27.74500 30.97800
H  -5.19400 28.13000 33.21400
H  -4.31200 26.61600 33.04800
H  -8.43600 20.42500 26.98100
H  -9.86000 21.29500 26.66300
H  -8.99400 21.55000 28.20000
H  -9.74900 20.10100 23.17000
H  -10.45800 20.95200 24.54300
H  -8.97000 20.11000 24.77600
H  -6.44600 26.11500 21.34100
H  -3.63200 26.51900 21.62700
H  -3.89300 24.83400 20.49900
H  -5.57300 24.45500 20.02500
H  -4.79900 23.60800 21.41000
H  -3.96100 28.86600 21.13700
H  -5.62700 28.80700 21.62100
H  -5.98100 28.88000 19.44400
H  -5.70400 27.15500 19.35300
H  -4.31500 28.16600 19.07700
H  -0.66800 30.10200 25.58700
H  -2.12800 31.14100 25.41100
H  -1.77600 29.84000 24.35700
H  -3.40200 28.84100 30.30500
H  -0.41900 27.81200 33.42100
H  -1.13700 26.30100 32.97300
H  -2.00100 27.55400 33.69400

