158

Mg 29.67600 59.49100 40.86700
C  26.67600 58.00100 39.66700
C  31.35800 56.83000 39.38100
C  32.46800 61.23400 41.17200
C  27.71900 62.30800 41.57000
N  29.07200 57.67100 39.63900
C  27.79800 57.27200 39.32000
C  27.76600 55.99600 38.36600
C  29.27700 55.58500 38.35600
C  29.94600 56.74800 39.16900
C  29.57400 54.21000 38.95600
C  27.24700 56.24600 36.87600
C  25.92600 55.54800 36.37300
H  26.06800 54.78200 35.03900
N  31.67700 59.05200 40.48700
C  32.14800 57.86700 39.94900
C  33.57200 57.89300 39.99400
C  33.96800 59.17400 40.47300
C  32.68100 59.90900 40.70400
C  34.38100 56.70200 39.58700
C  35.39300 59.55300 40.63600
O  36.32000 58.81300 40.32200
C  35.72900 60.84800 41.35100
N  30.04700 61.50900 41.32100
C  31.31800 62.03200 41.42000
C  31.26000 63.51000 41.86400
C  29.74500 63.86500 41.86600
C  29.11700 62.48100 41.64500
C  32.05400 63.89900 43.12900
C  29.53200 64.99400 40.81300
C  29.32200 66.40900 41.33500
N  27.57800 60.00000 40.98700
C  26.97700 61.23200 41.23000
C  25.53000 61.01800 41.17300
C  25.35800 59.80300 40.55600
C  26.64000 59.20700 40.43100
C  24.44900 61.99300 41.51100
C  24.39800 58.82000 39.94700
O  23.19700 58.90300 39.84300
C  25.24000 57.66300 39.34800
C  24.69200 56.44800 39.96200
O  24.89900 56.06900 41.08600
O  24.00600 55.79800 38.96900
C  23.49200 54.46000 39.29500
H  31.77800 55.88600 39.03000
H  33.27900 61.95800 41.27200
H  27.18600 63.20700 41.88700
H  27.21100 55.28000 38.97100
H  29.75600 55.56900 37.37700
H  29.89600 54.39800 39.98100
H  30.41700 53.73800 38.45200
H  28.68800 53.57700 38.93200
H  28.05200 56.13100 36.15100
H  27.06600 57.31800 36.80000
H  25.12300 56.27000 36.22200
H  25.61800 54.75500 37.05400
H  35.25700 56.61700 40.23000
H  34.74900 56.84600 38.57100
H  33.93300 55.72600 39.77300
H  36.77400 60.79300 41.65800
H  35.08200 60.68100 42.21200
H  35.57800 61.71400 40.70800
H  31.82900 63.98000 41.06300
H  29.46400 64.28600 42.83100
H  31.55800 64.66900 43.72100
H  32.99400 64.28800 42.73800
H  32.19800 62.97300 43.68500
H  28.76000 64.71100 40.09800
H  30.43100 65.14900 40.21700
H  29.21000 66.31500 42.41600
H  28.44900 66.89400 40.89800
H  30.19100 67.00100 41.04700
H  24.72100 62.93200 41.02900
H  24.46600 62.02500 42.60000
H  23.46200 61.74800 41.11800
H  25.07700 57.62800 38.27100
H  23.70500 53.83800 38.42600
H  22.43300 54.71200 39.35900
H  23.83300 54.03800 40.24000
Mg 15.42800 51.68900 25.77500
C  17.63500 50.48400 28.41100
C  13.38200 52.68800 28.04700
C  13.80500 52.71200 23.19700
C  17.96700 50.22100 23.50900
N  15.63700 51.60500 27.93500
C  16.55100 51.26300 28.83900
C  16.15000 51.52000 30.32500
C  14.72600 52.09600 30.05300
C  14.58500 52.08400 28.57000
C  13.59100 51.39900 30.82600
C  17.18300 52.47100 31.05500
C  16.55900 53.13500 32.31100
H  15.95200 52.24000 33.36800
N  13.78600 52.68900 25.63700
C  12.93700 52.94800 26.72100
C  11.66600 53.33500 26.18500
C  11.74700 53.22100 24.77100
C  13.11700 52.84100 24.44400
C  10.55100 53.76800 27.05600
C  10.69500 53.38200 23.73100
O  10.89600 53.41000 22.51700
C  9.24900 53.57100 24.09500
N  15.93900 51.60300 23.62000
C  14.99500 52.15200 22.78900
C  15.33900 51.79500 21.33000
C  16.78600 51.14900 21.42000
C  16.93100 50.97000 22.94100
C  14.35600 50.78100 20.67900
C  18.01900 51.90800 20.80200
C  18.71300 51.26600 19.62500
N  17.39200 50.58100 25.90500
C  18.23400 50.06700 24.90700
C  19.36300 49.41900 25.50200
C  19.08600 49.50800 26.87100
C  17.92900 50.26900 27.07500
C  20.44500 48.84900 24.79300
C  19.57500 49.05700 28.16900
O  20.58800 48.36300 28.37800
C  18.74100 49.83200 29.28000
C  18.19100 48.91000 30.27300
O  17.46700 47.90500 29.99600
O  18.64900 49.19900 31.55100
C  18.12600 48.45600 32.64400
H  12.61000 53.09000 28.70700
H  13.20700 52.90600 22.30400
H  18.65500 49.78300 22.78400
H  16.05500 50.71300 31.05200
H  14.70700 53.14300 30.35700
H  13.90800 50.62100 31.52100
H  12.90700 50.83700 30.19100
H  13.06300 52.18300 31.36900
H  17.44100 53.22300 30.30800
H  17.95900 51.86300 31.51900
H  15.83100 53.91500 32.08800
H  17.39400 53.65400 32.78100
H  9.95500 54.61900 26.72800
H  10.85000 53.90400 28.09600
H  9.81800 52.96600 26.97400
H  8.66100 53.41900 23.19000
H  9.23600 54.59900 24.45600
H  8.91000 52.88200 24.86900
H  15.48200 52.75400 20.83100
H  16.66300 50.13400 21.04200
H  13.82200 51.24800 19.85200
H  13.74300 50.36700 21.47900
H  14.84200 49.93400 20.19400
H  18.75500 51.98200 21.60300
H  17.71300 52.91200 20.50700
H  18.76700 51.90100 18.74100
H  17.97600 50.54400 19.27600
H  19.70600 50.98400 19.97500
H  20.14000 47.92800 24.29600
H  21.25600 48.74600 25.51500
H  20.73700 49.62600 24.08700
H  19.24800 50.67000 29.76000
H  18.90900 47.79800 33.02100
H  17.23700 47.88800 32.36900
H  17.75900 49.12800 33.41900

