158

Mg 7.26500 3.13300 28.13200
C  8.55600 1.64400 31.03300
C  5.22500 5.09000 30.04900
C  5.66300 4.33500 25.27100
C  8.92700 0.81500 26.14300
N  6.96000 3.28000 30.24200
C  7.65700 2.70500 31.32400
C  7.51100 3.44200 32.64800
C  6.32700 4.44800 32.23300
C  6.12800 4.23500 30.73800
C  5.12800 4.19800 33.14600
C  8.85700 4.26200 33.01000
C  8.79300 4.92200 34.37900
H  9.58700 4.23700 35.49000
N  5.73100 4.62500 27.73800
C  4.94200 5.30600 28.66500
C  4.09300 6.23500 28.00100
C  4.30000 6.06600 26.61500
C  5.28300 4.93900 26.48800
C  3.21300 7.23500 28.74200
C  3.79900 6.84000 25.43600
O  4.23500 6.77300 24.29700
C  2.76100 7.83000 25.73900
N  7.07400 2.45100 26.07500
C  6.46000 3.18900 25.09300
C  6.64400 2.57900 23.76400
C  7.66500 1.39400 23.91300
C  7.91800 1.58500 25.46900
C  5.33100 2.15700 23.01200
C  8.99700 1.33400 23.19900
C  9.37000 -0.07600 22.67500
N  8.53600 1.52000 28.46300
C  9.06800 0.61900 27.57400
C  9.92900 -0.31000 28.33600
C  9.81400 0.11900 29.66300
C  8.90500 1.17000 29.67600
C  10.75100 -1.55100 27.79000
C  10.20900 -0.12700 31.00700
O  10.94600 -0.98000 31.52100
C  9.51300 0.95000 31.94900
C  8.84200 0.19700 32.98800
O  7.98500 -0.67900 32.84800
O  9.39100 0.56500 34.20300
C  8.60900 0.17700 35.35200
H  4.65800 5.72300 30.73500
H  5.05900 4.69400 24.43500
H  9.44200 0.17100 25.42700
H  7.24800 2.76600 33.46200
H  6.63600 5.46000 32.49400
H  5.37600 4.15700 34.20700
H  4.66800 3.24500 32.88500
H  4.46800 5.02900 32.89800
H  9.02800 4.92200 32.16000
H  9.64900 3.51400 32.98600
H  7.76500 5.05200 34.71800
H  9.37600 5.83500 34.25600
H  3.56200 8.26000 28.61600
H  3.09600 7.01900 29.80400
H  2.24000 7.11300 28.26500
H  3.16800 8.57500 26.42200
H  1.92900 7.29300 26.19400
H  2.39000 8.23600 24.79800
H  7.04400 3.40800 23.18000
H  7.13800 0.47600 23.65500
H  4.45800 2.63500 23.45700
H  5.06900 1.11100 22.85500
H  5.40600 2.63200 22.03400
H  9.81800 1.70300 23.81400
H  8.95000 1.94000 22.29400
H  9.37400 -0.01900 21.58700
H  8.71300 -0.82600 23.11600
H  10.29300 -0.45900 23.11100
H  10.34300 -1.58600 26.78000
H  10.37500 -2.38900 28.37600
H  11.83600 -1.44500 27.81900
H  10.33700 1.54100 32.34900
H  8.81800 -0.82900 35.71600
H  7.52600 0.18200 35.23500
H  8.92200 0.88100 36.12400
Mg 24.93200 1.66200 29.62100
C  27.08200 1.67400 32.29800
C  22.30500 2.05300 31.75100
C  23.02800 1.98800 26.88600
C  27.80700 1.58200 27.42700
N  24.71100 1.61400 31.80400
C  25.71400 1.67100 32.73200
C  25.20900 2.04900 34.08000
C  23.59800 1.87700 33.96800
C  23.51000 1.87300 32.46600
C  22.86200 0.67300 34.61700
C  25.58400 3.47900 34.61200
C  26.39400 3.61400 35.91500
H  25.85600 4.43800 37.09400
N  22.92900 1.78000 29.37400
C  22.03400 1.95200 30.36100
C  20.69100 1.97900 29.78200
C  20.88100 2.06300 28.35800
C  22.28900 1.95200 28.11100
C  19.40100 2.17800 30.64700
C  19.77700 2.20700 27.32900
O  20.01700 2.25000 26.15700
C  18.35500 2.08200 27.81200
N  25.39600 1.48600 27.38300
C  24.32900 1.73300 26.53500
C  24.84300 2.00800 25.15000
C  26.44200 2.00400 25.28000
C  26.59300 1.66400 26.80100
C  24.25200 1.04900 24.02600
C  27.12300 3.36000 24.97200
C  26.48300 4.61900 25.50000
N  26.94300 1.36300 29.76800
C  27.98600 1.40700 28.81300
C  29.27500 1.39000 29.50500
C  29.00900 1.55400 30.85700
C  27.56300 1.40500 30.94600
C  30.63100 1.21100 28.81000
C  29.54500 1.78100 32.14100
O  30.71100 1.84700 32.55300
C  28.34200 1.91800 33.08300
C  28.61700 0.89700 34.12600
O  28.24200 -0.25600 34.01100
O  29.14100 1.49400 35.25600
C  29.08600 0.50500 36.38000
H  21.44700 2.29000 32.38300
H  22.32100 2.15800 26.07100
H  28.65200 1.64400 26.73900
H  25.71300 1.26400 34.64400
H  23.01000 2.70900 34.35700
H  22.34900 0.12400 33.82800
H  22.14200 0.95500 35.38600
H  23.66400 0.08200 35.06000
H  24.62800 3.97000 34.79600
H  26.23300 3.99900 33.90700
H  27.28000 4.16500 35.60200
H  26.64800 2.62000 36.28400
H  19.08700 3.21200 30.50800
H  19.56700 1.82700 31.66600
H  18.62800 1.48900 30.30800
H  18.31600 1.07000 28.21500
H  17.64800 2.01600 26.98500
H  17.95200 2.81100 28.51500
H  24.60300 3.03800 24.88500
H  26.76800 1.12000 24.73200
H  23.50000 1.50500 23.38200
H  23.72700 0.23800 24.53100
H  25.08900 0.60500 23.48800
H  26.97100 3.50700 23.90300
H  28.19500 3.37100 25.17100
H  25.87300 4.51700 26.39800
H  25.71200 4.94600 24.80300
H  27.20600 5.43200 25.56900
H  30.70700 1.82500 27.91300
H  30.77700 0.21100 28.40100
H  31.43300 1.43200 29.51500
H  28.22500 2.86600 33.60800
H  28.20000 0.71500 36.97900
H  29.92100 0.76300 37.03200
H  28.93300 -0.53200 36.08100

