158

Mg 30.39100 58.52100 39.09900
C  27.40700 56.66500 37.77000
C  32.22600 55.81100 37.93500
C  33.09900 60.33800 39.22000
C  28.35500 61.35400 39.23800
N  29.76500 56.36100 38.28300
C  28.59400 55.91000 37.82900
C  28.77300 54.52700 37.19000
C  30.26800 54.19900 37.50300
C  30.82000 55.49100 38.02000
C  30.48100 53.08600 38.52700
C  28.43300 54.50300 35.66800
C  27.62200 53.25000 35.21900
H  26.88300 53.39500 33.91800
N  32.38500 58.05300 38.75500
C  32.92600 56.90100 38.31600
C  34.41100 56.95800 38.25500
C  34.65100 58.37200 38.51800
C  33.35000 58.99700 38.85600
C  35.36600 55.87700 37.91900
C  36.01900 59.02500 38.57300
O  36.95500 58.35900 38.08100
C  36.35600 60.45700 39.02900
N  30.67500 60.50200 39.07100
C  31.87200 61.05000 39.26300
C  31.81000 62.51600 39.75700
C  30.32300 62.82900 39.65000
C  29.72500 61.47700 39.30500
C  32.35500 62.80200 41.16700
C  30.00100 63.98200 38.63700
C  28.89400 64.98100 39.00200
N  28.25500 58.91200 38.79200
C  27.69300 60.12700 38.83400
C  26.29900 59.99600 38.46000
C  26.11300 58.69000 37.93700
C  27.30100 58.00100 38.22100
C  25.37600 61.14800 38.39300
C  25.29300 57.73200 37.28000
O  24.16000 57.95600 36.79000
C  26.08600 56.37800 37.18600
C  25.45100 55.25500 37.99800
O  25.43900 55.07900 39.21200
O  25.03700 54.34100 37.04300
C  24.74600 53.03900 37.67600
H  32.71000 54.84400 37.78100
H  33.96100 60.97100 39.44200
H  27.71900 62.22800 39.39700
H  28.10500 53.82900 37.69500
H  30.83200 53.95200 36.60400
H  30.45300 52.10100 38.06200
H  29.73500 53.17200 39.31700
H  31.52000 53.18600 38.83900
H  29.39900 54.45300 35.16500
H  27.98600 55.45400 35.37900
H  26.78300 53.04100 35.88300
H  28.35800 52.45700 35.08200
H  35.37900 55.66000 36.85100
H  34.90900 54.96800 38.31100
H  36.39500 56.03300 38.24300
H  37.44000 60.56700 39.08100
H  35.90900 60.76100 39.97600
H  36.02800 61.18500 38.28800
H  32.34800 63.18300 39.08300
H  29.89700 63.07000 40.62400
H  32.52700 61.86000 41.68600
H  31.79100 63.57200 41.69300
H  33.32200 63.24800 40.93500
H  29.86800 63.54400 37.64800
H  30.87000 64.63600 38.55700
H  28.37700 64.45900 39.80700
H  28.38900 65.25700 38.07700
H  29.20300 65.96900 39.34300
H  25.28600 61.54000 37.38000
H  25.59200 62.00800 39.02700
H  24.35000 60.81600 38.55100
H  26.12100 56.13900 36.12300
H  24.30600 52.35300 36.95200
H  24.04700 53.10000 38.51000
H  25.61200 52.58100 38.15500
Mg 6.86300 53.90400 41.73800
C  6.24500 50.39400 41.65800
C  10.06000 53.33600 41.12800
C  7.16800 57.25500 41.29500
C  3.43900 54.37700 42.54200
N  7.89600 52.06500 41.31800
C  7.57400 50.78500 41.49500
C  8.79600 49.87600 41.33400
C  9.99300 50.83400 41.53000
C  9.27800 52.20400 41.38100
C  10.79500 50.72600 42.81100
C  8.87000 49.13100 39.96900
C  8.75200 49.96200 38.70700
H  7.36200 49.96800 38.12000
N  8.34900 55.06500 41.03600
C  9.64000 54.67400 40.96000
C  10.46800 55.80000 40.58300
C  9.69400 56.97600 40.76200
C  8.31000 56.47700 40.94600
C  11.93400 55.63800 40.14400
C  10.22700 58.42500 40.59300
O  11.39300 58.57000 40.34900
C  9.49700 59.69600 40.83400
N  5.36900 55.62700 41.66200
C  5.89900 56.87200 41.77000
C  4.83000 57.82200 42.32200
C  3.49900 56.95900 42.44100
C  4.12200 55.55100 42.30200
C  5.21500 58.62000 43.60600
C  2.46200 57.34400 41.32300
C  1.19200 56.49200 41.31200
N  5.20200 52.72000 42.00200
C  3.89100 53.03900 42.35100
C  3.11500 51.84100 42.57400
C  4.00700 50.71800 42.30600
C  5.20700 51.35500 41.97300
C  1.66500 51.67600 42.88400
C  4.14300 49.29300 42.35800
O  3.35400 48.39300 42.69300
C  5.57500 49.01400 41.80900
C  5.29900 48.35400 40.45000
O  4.59500 48.83800 39.49900
O  5.83700 47.06100 40.50200
C  5.52600 46.20100 39.40300
H  11.13000 53.11800 41.10000
H  7.25900 58.34000 41.37800
H  2.45500 54.43300 43.01500
H  8.85200 49.24200 42.22000
H  10.58500 50.68100 40.62800
H  11.75900 50.22200 42.74700
H  10.37300 50.16800 43.64600
H  10.98000 51.74500 43.15100
H  8.07300 48.38800 39.97700
H  9.73300 48.46700 39.89900
H  9.49600 49.57600 38.01000
H  9.03700 50.99900 38.88100
H  12.31400 54.62600 40.00400
H  12.51200 56.38700 40.68500
H  11.91100 56.11200 39.16300
H  8.86100 59.91200 39.97600
H  10.25100 60.47700 40.93500
H  8.98900 59.66300 41.79800
H  4.54900 58.48300 41.50200
H  2.98500 57.00200 43.40200
H  4.89200 58.18500 44.55100
H  4.87800 59.65300 43.68400
H  6.30200 58.56700 43.66400
H  2.87500 57.39700 40.31600
H  2.22800 58.39200 41.51100
H  1.47200 55.68900 40.63000
H  0.45200 57.10700 40.79900
H  0.76900 56.13700 42.25100
H  1.35400 50.80800 42.30300
H  1.28400 52.68900 42.75600
H  1.66500 51.35500 43.92600
H  5.94300 48.31300 42.55800
H  4.45900 45.99200 39.49200
H  6.07300 45.26400 39.50900
H  5.80700 46.75200 38.50500

