158

Mg 25.27300 -6.85500 48.44900
C  27.47300 -4.68600 46.94000
C  22.90200 -6.12800 46.14300
C  23.79700 -9.74100 49.31000
C  28.13100 -8.03000 50.36000
N  25.27700 -5.55100 46.65800
C  26.23300 -4.67400 46.27500
C  25.77500 -3.86100 45.07700
C  24.23600 -4.12300 45.04000
C  24.09200 -5.31800 46.06600
C  23.30400 -2.93400 45.34000
C  26.49600 -4.27200 43.79400
C  27.00500 -3.06300 42.96300
H  26.19200 -2.61400 41.76600
N  23.49300 -7.80700 47.83900
C  22.64600 -7.29100 46.91400
C  21.50200 -8.25700 46.86200
C  21.74700 -9.33500 47.77300
C  23.06100 -9.04500 48.34000
C  20.40300 -8.08600 45.89600
C  20.82600 -10.44200 48.00800
O  19.73000 -10.46100 47.47900
C  21.20900 -11.68000 48.83600
N  25.87600 -8.56800 49.75300
C  24.96700 -9.54400 50.04000
C  25.41200 -10.48500 51.22000
C  26.96900 -10.06700 51.28500
C  27.01400 -8.79500 50.42100
C  24.64800 -10.22400 52.57500
C  27.90400 -11.25300 50.89700
C  28.97400 -11.73200 51.88400
N  27.27400 -6.26400 48.88500
C  28.28200 -6.80800 49.71100
C  29.48800 -6.10400 49.53700
C  29.17400 -5.21500 48.48700
C  27.84900 -5.41500 48.07400
C  30.81900 -6.35600 50.21000
C  29.76300 -4.18800 47.66700
O  30.87800 -3.75300 47.63400
C  28.73000 -3.86700 46.58600
C  28.49400 -2.38400 46.66800
O  28.65000 -1.51900 45.81600
O  27.71400 -2.21900 47.84300
C  27.05100 -0.90600 47.95900
H  22.11800 -5.87700 45.42500
H  23.39200 -10.69400 49.65600
H  28.98200 -8.40500 50.93200
H  25.94500 -2.83100 45.39200
H  23.95400 -4.33000 44.00800
H  22.84900 -2.59400 44.41000
H  23.74200 -2.10000 45.88800
H  22.40900 -3.14700 45.92500
H  25.80800 -4.77300 43.11400
H  27.28700 -5.00900 43.93000
H  27.99600 -3.42600 42.69000
H  27.20900 -2.18200 43.57200
H  20.65500 -8.45400 44.90200
H  20.22400 -7.01400 45.80900
H  19.40700 -8.41100 46.19600
H  22.24700 -11.93000 48.61900
H  20.57800 -12.47400 48.43600
H  20.99700 -11.44200 49.87800
H  25.30900 -11.53100 50.93200
H  27.31500 -9.77100 52.27600
H  23.57300 -10.37000 52.47300
H  24.69500 -9.15900 52.79900
H  24.97000 -10.79200 53.44800
H  28.41000 -10.87700 50.00700
H  27.30300 -12.13000 50.65700
H  29.05000 -12.81800 51.93700
H  28.89600 -11.36100 52.90600
H  29.95700 -11.43200 51.52000
H  30.89200 -7.40000 50.51500
H  30.91600 -5.68900 51.06700
H  31.73200 -6.14200 49.65500
H  29.04000 -4.08600 45.56400
H  25.98400 -1.09100 48.07700
H  27.22600 -0.25200 47.10500
H  27.36800 -0.34500 48.83800
Mg 30.28700 57.63400 40.58800
C  27.53900 55.68200 40.01400
C  32.30200 55.16600 39.38200
C  32.87400 59.76700 40.65000
C  28.10500 60.41500 41.16400
N  29.93400 55.64400 39.90300
C  28.70400 55.01000 39.69900
C  28.89400 53.70800 38.93800
C  30.43700 53.41100 39.22900
C  30.96200 54.86300 39.53300
C  30.83200 52.41700 40.25300
C  28.59400 53.84100 37.42900
C  27.43600 53.13400 36.74100
H  26.75500 53.88600 35.56600
N  32.35300 57.43300 40.14200
C  32.99100 56.34800 39.72300
C  34.32200 56.54000 39.48800
C  34.52700 57.91700 39.94200
C  33.20000 58.46000 40.25700
C  35.29500 55.50300 38.84900
C  35.91300 58.50000 39.87900
O  36.90500 57.93800 39.40200
C  36.11500 59.83700 40.29100
N  30.51000 59.86500 40.79500
C  31.72200 60.44100 40.99300
C  31.54800 61.84100 41.38500
C  29.99100 61.93300 41.78300
C  29.49400 60.68700 41.17500
C  32.47100 62.29800 42.49800
C  29.23500 63.17800 41.23100
C  28.66500 63.94900 42.38200
N  28.25300 57.99400 40.73200
C  27.51200 59.15500 40.95000
C  26.13600 58.88500 40.83300
C  26.07400 57.45500 40.54000
C  27.37000 57.00700 40.47500
C  25.09700 59.90500 40.93500
C  25.20600 56.33100 40.31000
O  23.99400 56.32800 40.15600
C  26.09800 55.18200 39.83900
C  25.81300 53.98100 40.71500
O  25.82300 53.95000 41.91300
O  25.41000 52.91300 39.93400
C  24.84100 51.75800 40.66100
H  32.80600 54.34600 38.86600
H  33.70100 60.47800 40.59400
H  27.42500 61.18600 41.53300
H  28.26700 52.96900 39.43600
H  30.87000 53.15500 38.26200
H  31.22100 51.50900 39.79100
H  29.94700 52.21200 40.85500
H  31.49200 52.83300 41.01500
H  29.49100 53.52500 36.89700
H  28.35900 54.88900 37.24200
H  26.71400 52.75500 37.46400
H  27.96100 52.25200 36.37500
H  35.79300 55.99300 38.01200
H  34.77400 54.57100 38.63000
H  36.02400 55.17300 39.58900
H  35.69900 60.00600 41.28500
H  35.97200 60.59900 39.52500
H  37.18600 59.78100 40.48500
H  31.66700 62.40800 40.46200
H  29.87600 61.78700 42.85700
H  33.16900 62.98900 42.02600
H  33.11400 61.48800 42.84400
H  31.86700 62.75100 43.28400
H  28.42700 63.10200 40.50300
H  29.97800 63.85100 40.80200
H  27.70800 63.57400 42.74500
H  28.52300 64.97700 42.04800
H  29.33800 63.88600 43.23700
H  24.15400 59.56600 40.50500
H  25.32900 60.76100 40.30200
H  24.88600 60.14600 41.97800
H  25.81900 54.82400 38.84800
H  23.76800 51.62400 40.52200
H  24.98500 51.80900 41.74000
H  25.28300 50.85700 40.23400

