158

Mg 8.78400 3.61500 27.48000
C  9.97200 2.13800 30.36000
C  7.15000 6.03700 29.30900
C  7.69200 5.07700 24.60500
C  10.16700 1.01300 25.61800
N  8.47900 3.94100 29.61900
C  9.16800 3.28300 30.59100
C  8.97700 4.03600 31.97100
C  7.94200 5.14300 31.63100
C  7.82000 5.03300 30.05300
C  6.60800 5.08100 32.43800
C  10.32400 4.55500 32.55300
C  10.62100 4.11600 34.02500
H  11.08700 5.15400 35.10900
N  7.52900 5.35800 27.00500
C  7.05900 6.21500 27.91800
C  6.48600 7.30300 27.20900
C  6.53400 7.07500 25.83300
C  7.19600 5.77500 25.75800
C  5.85000 8.46900 27.93600
C  5.99300 7.73900 24.63800
O  6.16100 7.25400 23.53300
C  5.38400 9.03100 24.75100
N  8.76400 2.98000 25.45400
C  8.47800 3.90800 24.52100
C  8.75000 3.40200 23.06200
C  9.48900 2.08000 23.38600
C  9.49800 1.98900 24.90100
C  7.55900 3.30400 22.12800
C  10.82200 1.79300 22.70100
C  10.78200 1.36400 21.21500
N  9.78700 1.82000 27.84600
C  10.32100 0.85400 26.95400
C  11.05500 -0.10700 27.67800
C  10.93600 0.35300 29.05100
C  10.11400 1.48300 29.05800
C  11.71600 -1.36100 27.18900
C  11.37300 0.13400 30.37000
O  12.10400 -0.68300 30.82000
C  10.77600 1.25600 31.31900
C  9.93500 0.61700 32.33200
O  9.08400 -0.27500 32.08300
O  10.38700 0.92000 33.60900
C  9.87000 0.09700 34.69800
H  6.84000 6.85900 29.95800
H  7.46200 5.50700 23.62800
H  10.71800 0.30000 25.00100
H  8.62200 3.28800 32.67900
H  8.35900 6.13900 31.77800
H  5.81500 4.55100 31.91000
H  6.22600 6.09100 32.58500
H  6.84600 4.67600 33.42100
H  10.22500 5.64000 32.57600
H  11.18100 4.27400 31.94100
H  11.40000 3.39600 33.77500
H  9.72400 3.55300 34.28200
H  5.79800 8.31600 29.01400
H  4.78100 8.50700 27.72700
H  6.09600 9.51200 27.73700
H  5.22200 9.51800 23.78900
H  6.04500 9.71900 25.27800
H  4.49500 8.92500 25.37200
H  9.46000 4.12800 22.66600
H  8.74700 1.33600 23.09600
H  6.62900 3.54400 22.64300
H  7.34900 2.26800 21.86300
H  7.77800 3.95700 21.28200
H  11.54400 1.13100 23.17900
H  11.29300 2.77000 22.59900
H  9.72500 1.25800 20.97400
H  11.26400 0.40700 21.01700
H  11.22300 2.08500 20.52700
H  12.26400 -1.12800 26.27600
H  10.97700 -2.13800 26.99200
H  12.35400 -1.78200 27.96600
H  11.56100 1.82600 31.81700
H  10.11900 -0.96000 34.79100
H  8.78800 0.18700 34.79400
H  10.18900 0.48500 35.66500
Mg 6.20000 54.00600 40.34600
C  5.95500 50.45300 40.29900
C  9.53500 53.60500 39.32300
C  6.29200 57.23700 39.64100
C  2.75500 54.16900 40.96800
N  7.56300 52.21600 39.90800
C  7.22000 50.91000 39.99100
C  8.44200 50.06400 39.59100
C  9.61600 51.05900 39.55700
C  8.86400 52.39600 39.61300
C  10.80200 50.93900 40.59600
C  8.32300 49.15100 38.35800
C  7.81900 49.78400 37.07000
H  6.69300 49.02800 36.35800
N  7.72500 55.29200 39.64100
C  8.99500 54.92400 39.41100
C  9.79400 56.11400 39.12500
C  8.96400 57.23100 39.29300
C  7.60000 56.63900 39.48400
C  11.28900 56.12900 38.87000
C  9.41300 58.76400 39.17700
O  10.55600 59.02900 38.92800
C  8.38400 59.81700 39.34500
N  4.74300 55.43300 40.10800
C  5.02100 56.74300 39.91900
C  3.86000 57.64400 40.23200
C  2.66100 56.68200 40.43600
C  3.42900 55.35400 40.54600
C  4.13100 58.41800 41.53100
C  1.50900 56.82900 39.38400
C  0.11700 57.13900 39.84700
N  4.59800 52.64200 40.62800
C  3.26200 52.88700 41.01000
C  2.66900 51.60700 41.25200
C  3.64400 50.64500 41.06100
C  4.79400 51.31400 40.58300
C  1.33600 51.44100 41.82300
C  3.94000 49.31500 41.25500
O  3.36100 48.42600 41.84600
C  5.32900 49.07800 40.66800
C  5.09100 48.23100 39.50500
O  4.27700 48.37700 38.60500
O  5.86500 47.11000 39.61100
C  5.55100 45.92100 38.89100
H  10.61400 53.52700 39.17800
H  6.39600 58.30300 39.42800
H  1.72600 54.40900 41.24500
H  8.57400 49.38600 40.43400
H  9.99900 51.05600 38.53700
H  11.77400 50.95200 40.10400
H  10.69900 50.08900 41.27100
H  10.77900 51.76100 41.31000
H  7.96900 48.15700 38.63100
H  9.36900 48.97900 38.10300
H  8.54400 49.75000 36.25600
H  7.49700 50.80200 37.29200
H  11.47400 56.58200 37.89500
H  11.66700 55.10800 38.90400
H  11.74000 56.72600 39.66300
H  8.00600 59.77200 40.36600
H  7.56400 59.75800 38.63000
H  8.85400 60.78700 39.18500
H  3.72000 58.34200 39.40600
H  2.16000 56.87200 41.38500
H  3.48000 58.26100 42.39100
H  4.03300 59.47900 41.30000
H  5.17400 58.24500 41.79500
H  1.41900 55.81300 39.00000
H  1.77000 57.47000 38.54200
H  -0.59400 56.39800 39.48300
H  -0.20400 58.09900 39.44200
H  -0.10100 57.07600 40.91300
H  0.72100 51.15300 40.97100
H  1.12600 52.34100 42.40100
H  1.26100 50.61400 42.52900
H  5.86900 48.48700 41.40700
H  5.76500 45.91100 37.82200
H  4.50000 45.63400 38.91700
H  5.98600 45.09600 39.45500

