158

Mg 49.30800 35.37300 28.34600
C  47.32900 34.01300 30.82400
C  49.68400 38.21100 30.22500
C  50.80300 36.91200 25.61400
C  48.60000 32.60100 26.27500
N  48.46100 36.06100 30.26700
C  47.83600 35.24800 31.17000
C  47.91300 35.92800 32.64600
C  48.33100 37.39800 32.29800
C  48.93300 37.23500 30.87800
C  47.17600 38.40400 32.30200
C  48.89900 35.15200 33.52100
C  49.82300 35.83600 34.60100
H  49.14500 36.39600 35.87800
N  50.14200 37.28700 27.97800
C  50.24600 38.25900 28.94500
C  50.80100 39.47800 28.35600
C  51.21900 39.18400 26.99500
C  50.72600 37.75200 26.80100
C  51.00400 40.74200 29.13100
C  51.89200 39.95900 25.89200
O  52.24800 39.46500 24.85100
C  52.27500 41.40700 26.10600
N  49.55500 34.85600 26.29500
C  50.37400 35.61900 25.42500
C  50.73500 34.80100 24.19100
C  50.34100 33.34200 24.51400
C  49.42000 33.61900 25.74700
C  50.02100 35.41500 22.92300
C  51.51000 32.28100 24.79400
C  51.55600 31.17800 23.70800
N  48.29800 33.63200 28.52100
C  48.07600 32.59000 27.61600
C  47.43600 31.51200 28.22500
C  46.97100 32.07000 29.47400
C  47.55800 33.37300 29.60300
C  47.13900 30.15300 27.64700
C  46.23400 31.77600 30.62800
O  45.62800 30.78400 30.93300
C  46.32500 33.05000 31.49000
C  46.71300 32.53900 32.83100
O  47.75900 32.08100 33.16800
O  45.69200 32.91400 33.66800
C  46.05600 32.88900 35.10400
H  49.95500 39.01700 30.90900
H  51.24100 37.32700 24.70400
H  48.57100 31.69100 25.67200
H  46.94000 35.85900 33.13400
H  49.13000 37.74300 32.95400
H  46.80900 38.31100 33.32400
H  46.45000 38.19800 31.51500
H  47.56900 39.40400 32.12200
H  49.49200 34.57400 32.81300
H  48.41300 34.48500 34.23400
H  50.31600 36.65900 34.08300
H  50.64600 35.18600 34.90100
H  51.02000 40.53700 30.20200
H  50.23700 41.45900 28.83600
H  51.95500 41.23300 28.92400
H  52.43500 41.96200 25.18100
H  53.00400 41.64900 26.87900
H  51.31100 41.81600 26.40600
H  51.82400 34.82100 24.18000
H  49.72800 33.06900 23.65500
H  49.67100 36.40800 23.20800
H  49.23900 34.82400 22.44700
H  50.74300 35.65500 22.14300
H  51.50800 31.99100 25.84500
H  52.48000 32.76900 24.69900
H  50.62800 31.06100 23.14900
H  51.64500 30.18600 24.15200
H  52.38700 31.37500 23.03000
H  47.90700 29.47800 28.02300
H  47.20600 30.15800 26.55900
H  46.13900 29.91800 28.01100
H  45.29000 33.38200 31.56800
H  47.03500 33.35300 35.22100
H  45.92900 31.85800 35.43500
H  45.38300 33.52400 35.67900
Mg -12.30300 16.61600 41.93300
C  -9.76300 14.29700 41.53900
C  -10.24000 18.98600 40.78900
C  -15.07600 18.57900 41.48700
C  -14.52000 13.96700 42.53900
N  -10.34500 16.62400 41.10500
C  -9.45900 15.56100 41.09000
C  -8.08200 15.99400 40.64200
C  -8.15200 17.54200 40.89200
C  -9.67200 17.79300 40.95800
C  -7.48400 17.99000 42.21900
C  -7.85500 15.61000 39.17800
C  -6.37000 15.68800 38.80100
H  -6.02700 16.35200 37.47200
N  -12.59400 18.55900 41.18100
C  -11.59800 19.37700 40.75200
C  -12.16300 20.59600 40.38200
C  -13.57100 20.41100 40.42500
C  -13.83900 19.15200 41.11200
C  -11.39900 21.76700 39.79100
C  -14.61600 21.29700 39.68400
O  -14.24600 22.37100 39.12800
C  -16.10900 20.99200 39.60200
N  -14.57700 16.31600 41.95300
C  -15.50200 17.28600 41.90200
C  -16.96200 16.75900 41.98000
C  -16.66600 15.34300 42.61800
C  -15.14500 15.15200 42.22200
C  -17.99200 17.62100 42.70100
C  -17.54600 14.21400 42.05600
C  -18.74000 13.79400 42.87100
N  -12.16000 14.58300 42.24800
C  -13.17200 13.67700 42.55900
C  -12.51200 12.35900 42.61400
C  -11.21300 12.52600 42.29500
C  -11.01300 13.89400 42.08300
C  -13.22900 11.05200 42.89800
C  -9.89100 11.94500 42.06800
O  -9.49200 10.73900 42.05600
C  -8.95200 13.00400 41.62600
C  -7.74900 13.26900 42.39100
O  -7.68900 13.87600 43.47600
O  -6.62400 12.77300 41.66900
C  -5.32600 13.47200 42.06500
H  -9.57200 19.84800 40.72400
H  -15.90300 19.28800 41.40700
H  -15.22400 13.24200 42.95400
H  -7.32300 15.66800 41.35400
H  -7.62500 17.92600 40.01800
H  -7.06600 17.14300 42.76200
H  -8.27400 18.38900 42.85600
H  -6.74100 18.77700 42.08500
H  -8.41500 16.27100 38.51600
H  -8.10900 14.57800 38.93400
H  -5.98300 14.66900 38.80500
H  -5.83100 16.09100 39.65800
H  -11.85400 22.68000 40.17500
H  -11.41800 21.75200 38.70100
H  -10.35000 21.80100 40.08500
H  -16.74600 21.07200 40.48300
H  -16.12800 19.91100 39.46600
H  -16.48000 21.43300 38.67700
H  -17.43500 16.61300 41.00900
H  -16.90900 15.48400 43.67100
H  -18.56700 17.00900 43.39600
H  -18.73700 18.08900 42.05800
H  -17.54800 18.37000 43.35600
H  -17.11100 13.25100 41.78800
H  -17.97600 14.46100 41.08500
H  -18.77400 12.71100 42.98300
H  -19.67400 14.10900 42.40600
H  -18.65600 14.26700 43.85000
H  -12.57200 10.46300 43.53800
H  -13.66400 10.64300 41.98700
H  -14.09200 11.23200 43.53900
H  -8.68700 12.68400 40.61800
H  -5.63100 14.49900 42.26700
H  -4.73700 13.47300 41.14800
H  -4.76200 13.01500 42.87700

