158

Mg 42.70600 4.83400 47.71800
C  41.00000 7.94000 47.29900
C  39.78900 3.19200 47.43900
C  44.51000 2.02700 47.16400
C  45.79800 6.76200 47.37600
N  40.59000 5.49000 47.39000
C  40.12600 6.73500 47.30700
C  38.54000 6.80400 47.52600
C  38.18100 5.29700 47.75200
C  39.59200 4.59500 47.50500
C  37.52000 4.84600 49.07300
C  37.74700 7.55800 46.39000
C  38.09200 7.05100 44.91800
H  38.50400 8.08900 43.92400
N  42.25200 2.83500 47.52300
C  40.96200 2.33300 47.46700
C  40.98400 0.91200 47.47500
C  42.35600 0.54200 47.22000
C  43.15500 1.78200 47.28800
C  39.66700 0.12300 47.60500
C  42.73000 -0.83600 47.01900
O  41.95300 -1.78600 46.96200
C  44.11600 -1.12000 46.84700
N  44.81700 4.48100 47.17100
C  45.25500 3.17400 47.15100
C  46.79400 3.13400 47.13100
C  47.18500 4.65800 47.08300
C  45.85500 5.41200 47.16600
C  47.42400 2.34900 48.33700
C  48.06900 5.05400 45.82300
C  49.51300 5.11200 45.97600
N  43.34500 6.92100 47.46900
C  44.63600 7.53300 47.34500
C  44.41300 9.02700 47.26800
C  43.02200 9.20000 47.34400
C  42.45700 7.89400 47.33100
C  45.44400 9.93500 47.11500
C  41.97200 10.21100 47.24300
O  41.98700 11.40700 47.12100
C  40.63300 9.37800 47.31700
C  39.91800 9.84800 48.55700
O  40.16300 9.47000 49.67300
O  38.95800 10.78800 48.17600
C  38.10700 11.42300 49.18300
H  38.86200 2.62000 47.35300
H  45.25700 1.23200 47.20400
H  46.71200 7.35300 47.29500
H  38.43200 7.37600 48.44800
H  37.56500 4.92300 46.93500
H  37.10400 5.60700 49.73300
H  38.27800 4.27200 49.60500
H  36.74500 4.10300 48.88600
H  38.05000 8.60400 46.44200
H  36.68200 7.39200 46.55000
H  37.22200 6.56800 44.47300
H  38.86500 6.28800 45.00500
H  39.14400 0.21300 46.65300
H  39.00700 0.47800 48.39800
H  39.57100 -0.95500 47.73400
H  44.66600 -0.66800 47.67200
H  44.54500 -0.74800 45.91700
H  44.26400 -2.19100 46.98200
H  47.13600 2.65700 46.21300
H  47.77700 4.82600 47.98200
H  46.71300 2.15600 49.14000
H  48.27600 2.91700 48.71200
H  47.72800 1.35600 48.00300
H  47.69200 6.03900 45.55000
H  47.81300 4.33600 45.04400
H  49.80700 4.97300 47.01700
H  49.99500 6.05700 45.72600
H  50.10000 4.44600 45.34300
H  46.03000 9.97100 48.03400
H  45.09100 10.91600 46.79700
H  46.07000 9.61300 46.28200
H  39.93200 9.66500 46.53400
H  37.83600 12.46000 48.98100
H  38.56500 11.33300 50.16800
H  37.20300 10.87100 49.43800
Mg -11.29200 36.84800 42.54100
C  -8.95400 34.32900 41.79800
C  -9.14400 38.99900 40.87000
C  -13.73700 39.01400 42.37900
C  -13.50000 34.32000 43.46200
N  -9.41700 36.55400 41.17700
C  -8.66900 35.45500 41.08100
C  -7.31400 35.77900 40.31200
C  -7.23800 37.32900 40.51400
C  -8.64900 37.67400 41.01200
C  -6.08900 37.79100 41.41700
C  -7.23100 35.08200 38.93400
C  -6.08000 34.12800 38.57300
H  -5.01800 34.65100 37.58800
N  -11.43600 38.78700 41.72000
C  -10.45300 39.52400 41.09300
C  -10.98200 40.81600 40.72700
C  -12.36500 40.77700 41.01700
C  -12.55200 39.50400 41.81300
C  -10.19300 41.80500 39.95900
C  -13.37800 41.80100 40.62900
O  -13.02700 42.80100 40.00900
C  -14.83400 41.68000 40.95200
N  -13.36600 36.71900 42.73500
C  -14.12500 37.75000 42.82200
C  -15.53400 37.35200 43.24100
C  -15.48100 35.77400 43.36800
C  -13.98700 35.55900 43.16100
C  -15.86800 38.11500 44.57200
C  -16.42500 34.84300 42.40500
C  -17.60700 34.10100 43.00400
N  -11.27500 34.75400 42.76800
C  -12.21800 33.87100 43.17700
C  -11.55800 32.52100 43.13900
C  -10.23000 32.74600 42.80000
C  -10.13900 34.07700 42.43100
C  -12.23100 31.16900 43.46200
C  -8.96400 32.07100 42.59900
O  -8.70000 30.92600 42.67000
C  -8.06200 33.11200 41.97000
C  -6.82800 33.26700 42.75400
O  -6.69600 33.97000 43.81800
O  -5.79900 32.53900 42.25800
C  -4.69500 32.18300 43.20300
H  -8.38700 39.69600 40.50400
H  -14.63200 39.63200 42.47300
H  -14.11400 33.50600 43.85200
H  -6.59600 35.16400 40.85500
H  -7.13700 37.89000 39.58500
H  -5.29500 37.04700 41.46600
H  -6.45500 37.89400 42.43800
H  -5.61200 38.74200 41.17900
H  -6.98500 35.90400 38.26200
H  -8.20900 34.69500 38.64800
H  -6.46400 33.16200 38.24400
H  -5.60200 33.89200 39.52300
H  -10.65100 41.62500 38.98700
H  -9.13600 41.54200 39.96500
H  -10.38100 42.79900 40.36500
H  -15.35000 42.54900 40.54300
H  -14.99400 41.80000 42.02300
H  -15.18400 40.74200 40.52200
H  -16.01500 37.58900 42.29200
H  -15.50900 35.48800 44.42000
H  -16.13000 39.15400 44.37300
H  -14.97300 38.14800 45.19300
H  -16.65700 37.67900 45.18600
H  -15.78400 34.11000 41.91400
H  -16.75300 35.51400 41.61100
H  -17.42700 33.02600 43.00400
H  -18.48000 34.23900 42.36600
H  -17.82400 34.32300 44.04900
H  -11.53400 30.66400 44.13100
H  -12.45800 30.67200 42.51900
H  -13.13000 31.41200 44.02700
H  -7.87000 32.70600 40.97700
H  -3.85000 32.85100 43.03800
H  -4.38400 31.14800 43.06100
H  -5.03200 32.35600 44.22500

