158

Mg 2.34700 -1.46900 43.29700
C  5.63700 -0.51000 43.11800
C  1.54600 1.51200 41.71800
C  -0.86500 -2.63200 42.65500
C  3.29900 -4.46700 44.80000
N  3.49800 0.24900 42.36900
C  4.80400 0.50400 42.58300
C  5.18500 1.83000 41.99700
C  3.78100 2.57500 41.90200
C  2.89200 1.39300 42.02300
C  3.61300 3.86600 42.77500
C  6.22300 1.83800 40.77300
C  5.97400 0.71900 39.82300
H  5.15600 1.19300 38.56800
N  0.60200 -0.71700 42.24700
C  0.53900 0.57000 41.78600
C  -0.76600 0.80400 41.22100
C  -1.51200 -0.44200 41.46800
C  -0.58400 -1.34700 42.17100
C  -1.21500 2.03300 40.52900
C  -2.82100 -0.64200 40.78800
O  -3.29100 0.21200 40.03200
C  -3.57300 -1.96000 41.03900
N  1.42600 -3.31200 43.51700
C  0.05900 -3.50400 43.32000
C  -0.41100 -4.87400 43.87200
C  0.91200 -5.37500 44.60300
C  2.00700 -4.39300 44.25000
C  -1.60900 -4.88300 44.85800
C  1.24700 -6.84900 44.18900
C  1.24200 -7.77500 45.38800
N  4.02100 -2.42800 43.80600
C  4.32700 -3.64600 44.38900
C  5.72900 -3.83300 44.61600
C  6.34300 -2.58800 44.12900
C  5.21600 -1.81300 43.60600
C  6.31400 -4.96200 45.45300
C  7.57400 -1.83500 44.04300
O  8.71900 -2.14000 44.33400
C  7.18100 -0.55000 43.31200
C  7.60400 0.55900 44.28600
O  7.22100 0.64400 45.46700
O  8.45600 1.50300 43.68400
C  8.79000 2.61200 44.50400
H  1.31500 2.54000 41.43000
H  -1.85200 -3.07000 42.49300
H  3.50200 -5.39500 45.33800
H  5.84000 2.32600 42.71400
H  3.64700 2.83100 40.85100
H  3.45500 3.68100 43.83800
H  2.66300 4.29300 42.45400
H  4.43800 4.54900 42.57300
H  7.22700 1.94700 41.18300
H  6.16100 2.75200 40.18200
H  5.22900 0.00800 40.18000
H  6.90400 0.18700 39.62300
H  -2.15800 2.35100 40.97300
H  -1.45200 1.80700 39.48900
H  -0.52500 2.86600 40.66200
H  -3.16600 -2.77800 40.44600
H  -4.58600 -1.76800 40.68500
H  -3.62600 -2.16700 42.10800
H  -0.68900 -5.36100 42.93800
H  0.84500 -5.35500 45.69100
H  -1.43900 -5.40700 45.79900
H  -2.44700 -5.36000 44.35000
H  -1.84200 -3.85200 45.12600
H  2.19000 -6.82200 43.64400
H  0.50100 -7.22800 43.49000
H  0.85300 -8.78600 45.26700
H  0.62500 -7.46000 46.22900
H  2.16800 -7.83200 45.95900
H  7.27800 -4.57600 45.78600
H  6.52600 -5.81900 44.81400
H  5.63400 -5.29800 46.23600
H  7.64800 -0.25100 42.37400
H  8.00100 2.86800 45.21000
H  8.87400 3.29300 43.65700
H  9.73700 2.44100 45.01700
Mg 30.91900 59.80200 39.44900
C  27.98900 58.32200 38.20200
C  32.71700 56.88600 38.48900
C  33.83400 61.46700 39.90000
C  29.19900 62.81700 39.71600
N  30.37200 57.90700 38.33700
C  29.10600 57.46800 38.04000
C  29.14200 56.17300 37.28500
C  30.62700 55.65100 37.56700
C  31.29300 56.84200 38.29100
C  30.75100 54.36800 38.49700
C  28.79700 56.08900 35.74900
C  27.50500 55.32600 35.40100
H  26.64400 55.83800 34.33500
N  33.05900 59.27000 39.15800
C  33.49400 58.00500 38.83600
C  34.87700 58.06800 38.80500
C  35.30400 59.43300 39.06600
C  34.08800 60.19200 39.41000
C  35.77400 56.85600 38.53400
C  36.77700 59.85500 39.13100
O  37.69700 59.12300 38.81500
C  37.09700 61.23500 39.57100
N  31.40800 61.65300 39.72200
C  32.65500 62.14200 39.99200
C  32.76600 63.68800 40.09400
C  31.24600 64.04800 39.99100
C  30.57100 62.74600 39.82000
C  33.44300 64.15800 41.44200
C  30.95200 65.13900 38.94800
C  30.22700 66.43200 39.46300
N  28.90900 60.52200 39.12400
C  28.38100 61.76500 39.19400
C  27.00300 61.68100 39.05200
C  26.74800 60.36200 38.57700
C  28.01100 59.67800 38.64700
C  26.07100 62.77300 39.46700
C  25.71900 59.35600 38.19000
O  24.51900 59.45500 38.17800
C  26.52600 58.06700 37.84900
C  25.95700 57.00200 38.68000
O  26.20100 56.83000 39.84200
O  25.23300 56.14600 37.87000
C  24.64000 55.03400 38.57000
H  33.23200 55.97800 38.16700
H  34.77000 62.00400 40.07100
H  28.70600 63.78000 39.86600
H  28.48200 55.50900 37.84200
H  31.09900 55.50500 36.59500
H  31.07300 53.46900 37.97300
H  29.81900 54.09900 38.99500
H  31.41500 54.63600 39.31800
H  29.58100 55.59800 35.17400
H  28.64900 57.12900 35.45500
H  27.00900 55.02100 36.32200
H  27.95500 54.42400 34.98800
H  36.48200 56.66400 39.34100
H  36.38500 57.23300 37.71400
H  35.28300 55.92400 38.25200
H  38.15200 61.50600 39.53400
H  36.61600 61.48600 40.51600
H  36.72200 61.89900 38.79200
H  33.30900 64.14400 39.26600
H  31.01300 64.34200 41.01500
H  33.81100 63.34700 42.07000
H  32.77000 64.78100 42.03200
H  34.27400 64.81800 41.19100
H  30.53400 64.54400 38.13500
H  31.91700 65.48200 38.57500
H  29.27100 66.21800 38.98500
H  30.70700 67.33200 39.07700
H  30.03600 66.33100 40.53200
H  26.54500 63.73200 39.67600
H  25.53600 62.46600 40.36500
H  25.26100 62.92800 38.75400
H  26.42300 57.76600 36.80600
H  23.88500 55.35000 39.28900
H  25.42000 54.40600 39.00000
H  24.24400 54.31900 37.84800

