158

Mg 16.54500 51.54100 26.92900
C  18.41900 50.00500 29.45200
C  14.41500 52.61800 29.42500
C  14.84400 52.95400 24.54700
C  18.67500 50.02100 24.55600
N  16.33800 51.18700 29.24800
C  17.32600 50.71100 30.10800
C  17.10500 51.09400 31.61800
C  15.59600 51.63000 31.47500
C  15.40500 51.84300 29.92900
C  14.54900 50.79300 32.05600
C  18.04400 52.07900 32.28600
C  18.41800 51.96700 33.77400
H  17.49400 51.05600 34.65100
N  14.83200 52.58400 27.02200
C  14.12900 53.02500 28.13800
C  13.08000 53.93400 27.68600
C  13.27300 54.17000 26.26800
C  14.39900 53.19700 25.87300
C  12.18200 54.52100 28.74500
C  12.48900 55.10300 25.37000
O  12.61700 55.18300 24.16600
C  11.35000 55.87300 26.01400
N  16.59900 51.29800 24.82200
C  15.80500 52.08000 24.06900
C  16.13500 51.89200 22.56500
C  17.28500 50.73900 22.59800
C  17.54800 50.67000 24.06900
C  15.02200 51.72100 21.53800
C  18.44300 50.99200 21.61700
C  19.55100 52.04600 22.12100
N  18.20800 50.31400 26.88200
C  19.03400 49.73300 25.84500
C  20.10300 48.97200 26.44800
C  19.87900 49.20200 27.82900
C  18.69800 49.90400 28.07700
C  21.22700 48.20600 25.80300
C  20.47100 48.82900 29.09100
O  21.48200 48.09600 29.30400
C  19.53700 49.34600 30.24800
C  19.06700 48.31600 31.15200
O  18.06800 47.64800 31.10800
O  19.91900 48.40700 32.25500
C  19.61700 47.66400 33.48500
H  13.83700 53.01900 30.26100
H  14.39200 53.50900 23.72300
H  19.37100 49.59700 23.82800
H  17.13700 50.19500 32.23400
H  15.43700 52.61400 31.91600
H  14.95600 50.41200 32.99200
H  14.41600 49.95800 31.36800
H  13.57000 51.18000 32.34000
H  17.46700 52.98800 32.11000
H  18.95200 52.05300 31.68400
H  18.36600 52.99400 34.13500
H  19.42700 51.57200 33.89100
H  11.28700 55.02200 28.37700
H  12.89300 55.18500 29.23600
H  11.85500 53.72800 29.41800
H  10.91700 56.60100 25.32900
H  11.56000 56.46100 26.90800
H  10.52100 55.16600 26.05600
H  16.53400 52.86900 22.29300
H  16.90500 49.78900 22.22100
H  15.10800 50.78900 20.98000
H  15.01700 52.53800 20.81700
H  14.08300 51.78400 22.09000
H  18.13300 51.31400 20.62300
H  18.98000 50.05700 21.45500
H  19.70600 52.77500 21.32700
H  20.44500 51.58400 22.54100
H  19.21400 52.57100 23.01500
H  20.82400 47.70000 24.92600
H  21.73000 47.58600 26.54500
H  21.96700 48.91000 25.42300
H  20.10000 50.08800 30.81400
H  18.71600 47.05200 33.53400
H  19.58700 48.33600 34.34200
H  20.55400 47.11600 33.58000
Mg -2.30000 35.12700 26.75300
C  -3.93900 33.13000 29.01300
C  -0.71100 36.64200 29.40300
C  -0.73300 37.24100 24.47500
C  -3.94100 33.60500 24.12900
N  -2.37400 34.96400 28.89700
C  -3.08100 34.00100 29.66600
C  -2.89900 34.08300 31.16800
C  -2.07900 35.41400 31.25300
C  -1.70700 35.70600 29.74700
C  -2.81700 36.68000 31.93200
C  -2.15400 32.84400 31.75200
C  -2.78800 32.09400 32.98500
H  -2.18700 32.20500 34.33400
N  -0.88500 36.71400 26.94500
C  -0.30500 37.16000 28.09900
C  0.75900 38.13200 27.70800
C  0.76800 38.24700 26.30300
C  -0.34200 37.41800 25.84400
C  1.62100 38.80000 28.71600
C  1.58200 39.11700 25.40900
O  1.36600 39.27400 24.22400
C  2.84800 39.74000 25.97100
N  -2.49700 35.60400 24.60400
C  -1.60100 36.30500 23.87300
C  -1.86100 36.13900 22.35000
C  -2.79800 34.85800 22.34400
C  -3.02700 34.58800 23.80500
C  -2.43700 37.44500 21.67100
C  -2.20300 33.55100 21.61300
C  -0.67900 33.37300 21.43300
N  -3.74000 33.62400 26.52300
C  -4.36500 33.15900 25.42800
C  -5.35700 32.10700 25.85300
C  -5.27200 32.13000 27.29500
C  -4.25200 33.11100 27.64300
C  -6.22100 31.21100 25.09600
C  -5.71500 31.45400 28.45400
O  -6.49000 30.42400 28.55700
C  -4.92200 32.11200 29.70200
C  -5.83600 32.74200 30.67900
O  -6.54000 33.73900 30.46900
O  -5.97400 31.92200 31.80400
C  -6.98000 32.23200 32.87100
H  -0.21100 37.11800 30.24900
H  -0.09000 37.62500 23.68000
H  -4.50800 33.03300 23.39100
H  -3.85900 34.19700 31.67200
H  -1.19100 35.19200 31.84500
H  -2.50300 36.85200 32.96200
H  -3.89700 36.55400 32.01400
H  -2.72700 37.58900 31.33700
H  -1.17900 33.22300 32.05900
H  -2.02300 32.11000 30.95600
H  -2.95700 31.08800 32.60000
H  -3.77700 32.50600 33.18000
H  2.66500 38.75000 28.40900
H  1.52300 38.32400 29.69200
H  1.21000 39.80900 28.66600
H  3.43300 40.25200 25.20700
H  3.40600 38.91800 26.42000
H  2.48100 40.47900 26.68300
H  -0.87800 35.98900 21.90300
H  -3.76900 35.09400 21.90900
H  -3.31400 37.23100 21.05900
H  -1.63700 37.83900 21.04600
H  -2.82300 38.10200 22.45100
H  -2.72000 33.44900 20.65800
H  -2.54900 32.65400 22.12700
H  -0.25100 33.83200 20.54200
H  -0.56400 32.29000 21.38700
H  -0.02300 33.73100 22.22600
H  -5.74800 31.04200 24.12900
H  -7.20000 31.69100 25.11800
H  -6.36000 30.26000 25.61100
H  -4.24200 31.41500 30.19200
H  -7.43800 33.21900 32.79500
H  -6.53200 32.42200 33.84600
H  -7.76500 31.47600 32.86000

