158

Mg 50.70200 44.54400 41.88800
C  47.79900 46.15200 40.86500
C  49.51800 41.57500 40.86800
C  53.88100 43.33700 41.91600
C  51.88500 47.66200 42.79400
N  48.87700 44.01400 40.83200
C  47.76200 44.74200 40.74800
C  46.54500 43.87800 40.18000
C  47.09900 42.48800 40.59000
C  48.60500 42.68400 40.76700
C  46.31000 41.67100 41.68900
C  46.30700 44.13000 38.63300
C  44.98600 43.91500 37.99700
H  44.85400 43.07100 36.74600
N  51.53500 42.68900 41.52800
C  50.86300 41.60400 41.15000
C  51.74300 40.42400 41.23200
C  53.02600 40.93900 41.43300
C  52.85100 42.39200 41.59000
C  51.37300 39.03200 40.96600
C  54.25300 40.09300 41.40600
O  54.19800 38.87100 41.28300
C  55.63500 40.65700 41.58200
N  52.57400 45.42100 42.35000
C  53.69700 44.69800 42.32300
C  54.86100 45.45500 42.87800
C  54.29500 46.93600 43.07600
C  52.83900 46.68800 42.70100
C  55.51900 44.81400 44.23000
C  54.81400 48.00200 41.98700
C  55.49500 49.29900 42.58700
N  49.98900 46.54300 41.87800
C  50.57400 47.68800 42.25000
C  49.64100 48.79000 42.12500
C  48.51200 48.23200 41.57000
C  48.77100 46.86100 41.41100
C  49.90600 50.16900 42.60100
C  47.24200 48.54600 41.01300
O  46.68800 49.63200 40.95600
C  46.66100 47.13500 40.63600
C  45.35800 46.93300 41.27900
O  45.19400 46.15000 42.22700
O  44.30700 47.65300 40.70400
C  43.10400 47.61400 41.55200
H  49.02700 40.60300 40.78000
H  54.92200 43.00800 41.89700
H  52.31400 48.60500 43.14000
H  45.54100 43.89800 40.60400
H  47.10800 41.82700 39.72300
H  45.66900 42.27600 42.33100
H  47.00800 41.20500 42.38400
H  45.68000 40.84800 41.35100
H  46.94800 43.45100 38.07100
H  46.61600 45.16200 38.46700
H  44.64000 44.90900 37.71300
H  44.40900 43.41100 38.77200
H  51.87800 38.72600 40.05000
H  50.30800 38.87200 40.80100
H  51.72200 38.32300 41.71700
H  55.80800 40.84100 42.64300
H  55.80000 41.55100 40.98200
H  56.38600 39.90300 41.34400
H  55.56500 45.42800 42.04600
H  54.33100 47.27100 44.11200
H  56.59800 44.77200 44.08300
H  55.34800 43.73800 44.24200
H  55.13900 45.33500 45.11000
H  53.92900 48.21600 41.38700
H  55.53400 47.51600 41.32900
H  54.84300 50.10500 42.25100
H  56.45600 49.33100 42.07300
H  55.54200 49.27600 43.67500
H  50.74900 50.68400 42.13900
H  50.04700 50.15600 43.68200
H  49.02000 50.78400 42.44300
H  46.34700 47.14800 39.59200
H  42.74600 46.58500 41.54800
H  42.34800 48.25500 41.09800
H  43.41300 47.98500 42.52900
Mg 0.01900 43.94100 26.19700
C  2.40900 43.43500 28.69300
C  -2.50600 43.42000 28.42900
C  -1.92900 43.49500 23.52900
C  2.87300 43.98200 23.94500
N  0.01300 43.33400 28.37700
C  1.06800 43.30700 29.18500
C  0.63200 43.22800 30.65100
C  -0.93100 42.94300 30.37700
C  -1.18200 43.27600 28.96500
C  -1.49100 41.53000 30.67900
C  0.85400 44.54800 31.45400
C  1.37400 44.45600 32.86800
H  0.97500 43.09800 33.65100
N  -2.00500 43.52900 25.98100
C  -2.92000 43.47000 27.08800
C  -4.27200 43.45200 26.54600
C  -4.17600 43.49400 25.14100
C  -2.68500 43.47600 24.78100
C  -5.44800 43.57100 27.52500
C  -5.26600 43.50000 24.13100
O  -5.05200 43.45000 22.92100
C  -6.61100 43.31600 24.59900
N  0.46200 43.88600 24.05400
C  -0.58100 43.70700 23.21200
C  -0.09300 43.59500 21.76800
C  1.33400 44.26200 21.87900
C  1.61500 44.08300 23.35300
C  0.00400 42.16600 21.19100
C  1.49800 45.77000 21.42400
C  2.54800 46.16700 20.45900
N  2.20500 43.97800 26.30300
C  3.20000 43.93700 25.30800
C  4.55500 43.83500 25.89000
C  4.27100 43.69900 27.24100
C  2.81500 43.73800 27.44200
C  5.85000 43.74800 25.12000
C  4.88600 43.41400 28.54300
O  6.08100 43.45400 28.89300
C  3.64500 43.43700 29.58100
C  3.82300 42.30800 30.47400
O  3.47100 41.15800 30.27100
O  4.55000 42.68900 31.56100
C  4.71600 41.75000 32.65600
H  -3.34000 43.30700 29.12400
H  -2.58400 43.32800 22.67100
H  3.58200 43.95600 23.11500
H  1.00100 42.33000 31.14700
H  -1.42400 43.64400 31.05000
H  -2.43800 41.72100 31.18300
H  -0.91200 41.08000 31.48600
H  -1.69200 40.85300 29.85000
H  -0.04000 45.16600 31.53100
H  1.53800 45.12400 30.83000
H  0.88100 45.32700 33.29900
H  2.46200 44.50600 32.82300
H  -6.20200 44.23800 27.10800
H  -5.17500 44.01100 28.48400
H  -5.91200 42.61800 27.77700
H  -6.62300 42.61700 25.43500
H  -7.19200 42.83100 23.81500
H  -7.07300 44.28800 24.77200
H  -0.62000 44.31700 21.14500
H  2.08200 43.68500 21.33500
H  -0.64800 41.50200 21.75800
H  0.99200 41.74400 21.37800
H  -0.19900 42.08300 20.12300
H  1.57900 46.36100 22.33600
H  0.59700 46.07500 20.89200
H  2.21500 46.79200 19.63000
H  3.01400 45.30600 19.98000
H  3.32200 46.73000 20.98100
H  6.56000 44.53200 25.38300
H  5.62500 43.84600 24.05800
H  6.34800 42.79600 25.30000
H  3.68300 44.30300 30.24100
H  3.93500 40.99200 32.61500
H  4.73400 42.20200 33.64800
H  5.70400 41.29700 32.56700

