158

Mg 8.13500 3.03300 28.46000
C  9.44300 1.36500 31.29800
C  5.92500 4.57600 30.19500
C  6.65200 3.97400 25.48500
C  10.06500 0.60100 26.53500
N  7.73000 2.83900 30.44800
C  8.34400 2.16500 31.50900
C  7.71500 2.54200 32.86700
C  6.54300 3.52100 32.41100
C  6.71300 3.65500 30.91300
C  5.07400 3.09800 32.89500
C  8.76400 3.19300 33.88000
C  8.10900 3.70000 35.15600
H  8.67100 3.30400 36.48500
N  6.66700 4.29000 27.91900
C  5.86400 4.91400 28.84800
C  4.99200 5.81100 28.18000
C  5.22600 5.64000 26.79800
C  6.20700 4.60800 26.64300
C  4.09400 6.70600 28.91300
C  4.59200 6.35900 25.62400
O  4.83400 5.98300 24.48900
C  3.47500 7.37800 25.84700
N  8.27500 2.38900 26.31400
C  7.62800 2.97500 25.30500
C  7.98300 2.44800 23.93800
C  9.25400 1.57000 24.32400
C  9.13700 1.46600 25.86600
C  6.92700 1.67600 23.15200
C  10.67200 1.91300 23.71300
C  11.60500 2.76100 24.60700
N  9.55600 1.49600 28.79600
C  10.34500 0.67200 27.94700
C  11.23500 -0.20500 28.64000
C  10.89400 0.04100 29.98200
C  9.92500 1.09300 29.99900
C  12.16900 -1.20300 28.14600
C  11.19800 -0.28200 31.37600
O  12.05500 -1.05300 31.84600
C  10.25700 0.56600 32.28900
C  9.40900 -0.40100 33.05200
O  8.59800 -1.23800 32.64500
O  9.60300 -0.07800 34.33800
C  8.71700 -0.83200 35.21300
H  5.45900 5.24200 30.92400
H  6.16000 4.20500 24.53800
H  10.75900 0.10300 25.85400
H  7.28200 1.61800 33.25000
H  6.65300 4.50900 32.85900
H  4.75000 3.88400 33.57800
H  5.12300 2.22600 33.54700
H  4.29400 2.98600 32.14300
H  9.18400 4.08600 33.41800
H  9.58700 2.49900 34.05600
H  7.06400 3.39200 35.11900
H  8.22500 4.78400 35.17100
H  4.33000 7.75100 28.71200
H  4.26100 6.72600 29.99000
H  3.05800 6.40500 28.75600
H  3.43000 7.94700 24.91800
H  3.85100 8.04600 26.62100
H  2.47300 6.95400 25.92400
H  8.32800 3.28400 23.33000
H  9.13900 0.54800 23.96400
H  5.98600 1.83100 23.67900
H  7.11300 0.60900 23.27500
H  6.82000 2.21500 22.21100
H  10.46400 2.53400 22.84300
H  11.16700 1.05900 23.24900
H  11.33200 3.07200 25.61500
H  11.83400 3.68700 24.07800
H  12.60600 2.33100 24.63700
H  12.68600 -0.85600 27.25200
H  11.61400 -2.12600 27.97500
H  12.83400 -1.42200 28.98200
H  10.84400 1.11000 33.02900
H  7.85600 -0.17600 35.34700
H  9.17500 -0.97500 36.19200
H  8.39400 -1.82800 34.90900
Mg 25.75000 1.49400 29.59600
C  27.70600 1.31700 32.69900
C  23.01200 1.75500 31.72100
C  23.93000 1.23700 26.92200
C  28.65100 0.34100 27.91700
N  25.37600 1.52200 32.06100
C  26.37000 1.59200 33.02000
C  25.68100 1.69700 34.43200
C  24.14900 1.78500 34.06200
C  24.14900 1.77200 32.49300
C  23.25400 0.71300 34.64800
C  26.15900 2.93700 35.21300
C  26.85400 2.67100 36.59100
H  26.36300 3.51300 37.76500
N  23.68100 1.49800 29.33900
C  22.69100 1.62200 30.30300
C  21.41500 1.71700 29.65900
C  21.69800 1.43300 28.27300
C  23.14100 1.39700 28.11900
C  20.12600 1.93600 30.40100
C  20.73000 1.03900 27.18200
O  21.11800 0.69300 26.05200
C  19.32300 0.98400 27.57300
N  26.21200 0.96700 27.71000
C  25.31000 1.11500 26.72100
C  25.91600 0.79700 25.32800
C  27.40900 0.59600 25.69800
C  27.40800 0.61900 27.20600
C  25.25200 -0.45800 24.65300
C  28.22100 1.76200 25.14000
C  28.11900 3.11400 25.92300
N  27.86000 1.11100 30.10700
C  28.85700 0.56100 29.27900
C  30.10100 0.44700 30.09300
C  29.70000 0.79500 31.43700
C  28.24600 1.05600 31.36400
C  31.44500 -0.06700 29.52900
C  30.15800 0.95500 32.78300
O  31.28100 0.81300 33.21700
C  28.86700 1.24600 33.69400
C  28.78000 0.19900 34.72100
O  28.15200 -0.87400 34.66500
O  29.43700 0.59500 35.85300
C  29.44000 -0.34000 36.99000
H  22.10000 1.74900 32.32200
H  23.38200 1.23200 25.97700
H  29.33800 -0.02000 27.14800
H  25.97100 0.77700 34.94000
H  23.66000 2.69800 34.40100
H  22.70000 0.20100 33.86200
H  22.50600 1.29300 35.18700
H  23.62500 -0.07200 35.30600
H  25.23200 3.46200 35.44400
H  26.89500 3.47300 34.61300
H  27.91900 2.85800 36.72700
H  26.65000 1.61400 36.75900
H  19.67500 2.85200 30.01900
H  20.30700 2.13700 31.45700
H  19.37800 1.14500 30.45000
H  19.21700 0.30200 28.41700
H  18.71400 0.54300 26.78400
H  18.96600 1.95100 27.92700
H  25.73600 1.60200 24.61600
H  27.79700 -0.38900 25.43600
H  24.50300 -0.98700 25.24200
H  25.98800 -1.20400 24.35200
H  24.74100 -0.11200 23.75400
H  27.94600 2.03700 24.12100
H  29.26700 1.45600 25.16100
H  29.14700 3.37100 26.17900
H  27.67100 3.03100 26.91300
H  27.55100 3.81700 25.31400
H  31.88700 0.61200 28.80000
H  31.25100 -1.06200 29.12900
H  32.06100 -0.24100 30.41100
H  29.04500 2.24000 34.10500
H  28.57600 -0.21900 37.64400
H  30.37400 -0.10000 37.49700
H  29.50500 -1.39100 36.70600

