158

Mg 1.34300 -0.74900 43.87100
C  4.76300 -0.18800 43.23400
C  0.65100 2.13900 42.25100
C  -1.70700 -1.74100 43.57700
C  2.37200 -4.04900 44.88800
N  2.65400 0.71400 42.91000
C  4.02800 0.81500 42.78700
C  4.39600 2.12500 42.02600
C  3.07400 2.85100 41.81900
C  1.99900 1.84500 42.38900
C  2.95100 4.14000 42.68700
C  5.35300 2.00800 40.77700
C  5.09000 0.88500 39.74900
H  5.41700 1.26400 38.31200
N  -0.33000 0.12500 43.19100
C  -0.42700 1.28500 42.56600
C  -1.79900 1.63800 42.39800
C  -2.55200 0.52500 42.87500
C  -1.48500 -0.42900 43.21000
C  -2.34400 2.91300 41.78800
C  -4.04100 0.46500 43.09100
O  -4.72700 1.46800 43.04400
C  -4.94000 -0.72900 43.61800
N  0.55200 -2.65200 43.88100
C  -0.79200 -2.68100 43.92500
C  -1.24600 -4.08800 44.34800
C  -0.03900 -4.70300 45.07500
C  1.00600 -3.78300 44.52100
C  -2.59600 -4.19900 45.23100
C  0.14500 -6.24700 44.92100
C  0.37200 -7.05600 46.21200
N  3.19100 -1.86900 44.24300
C  3.42000 -3.10200 44.72500
C  4.81700 -3.28400 44.99800
C  5.36000 -2.13500 44.40000
C  4.34500 -1.32400 43.89100
C  5.55700 -4.45600 45.61300
C  6.63300 -1.53900 44.07500
O  7.79500 -1.90100 44.29300
C  6.28100 -0.28000 43.25800
C  7.03400 0.89300 43.88500
O  6.57100 1.50300 44.82600
O  8.27800 1.05100 43.41800
C  9.19100 1.85900 44.26000
H  0.35300 3.09300 41.80900
H  -2.77600 -1.95300 43.64500
H  2.64300 -4.93900 45.46100
H  5.03500 2.57000 42.78900
H  3.05800 2.98700 40.73800
H  2.16500 4.03000 43.43400
H  2.63900 4.98100 42.06900
H  3.90900 4.39900 43.13800
H  6.36700 1.84200 41.14000
H  5.31200 3.02500 40.38900
H  4.09000 0.45800 39.83200
H  5.63500 -0.01200 40.04300
H  -3.36900 2.73300 41.46400
H  -1.70800 3.24000 40.96500
H  -2.63800 3.70600 42.47500
H  -4.80700 -1.57100 42.93800
H  -5.98800 -0.44600 43.51600
H  -4.55400 -0.87800 44.62600
H  -1.47500 -4.66100 43.45000
H  -0.14000 -4.31700 46.08900
H  -2.53500 -3.32700 45.88300
H  -2.38200 -5.07300 45.84500
H  -3.59700 -4.22700 44.80100
H  1.06800 -6.49100 44.39400
H  -0.65800 -6.73300 44.36600
H  0.41000 -6.39600 47.07900
H  1.20300 -7.76000 46.25500
H  -0.52600 -7.66000 46.34100
H  5.32400 -5.31800 44.98800
H  5.04800 -4.59600 46.56700
H  6.63500 -4.30200 45.63800
H  6.68400 -0.35500 42.24800
H  9.86800 2.49600 43.69000
H  9.71800 1.09900 44.83600
H  8.74200 2.60400 44.91700
Mg -1.32600 34.20900 27.67000
C  -2.94400 32.66100 30.47200
C  0.18700 36.30900 29.65900
C  -0.57700 36.01300 24.87200
C  -3.31700 32.02900 25.68700
N  -1.61000 34.53800 29.81500
C  -2.13600 33.70800 30.73200
C  -1.53900 34.02700 32.19400
C  -0.55400 35.23700 31.88700
C  -0.62400 35.35000 30.29600
C  -0.64800 36.57900 32.68500
C  -0.92000 32.84300 33.00100
C  -1.55800 32.25800 34.24700
H  -0.67400 32.13100 35.46500
N  -0.20700 35.87700 27.28300
C  0.37700 36.60600 28.28200
C  1.23400 37.56200 27.65000
C  1.08900 37.38300 26.27400
C  0.04800 36.39700 26.03500
C  2.15900 38.44600 28.41000
C  1.83300 37.98400 25.17400
O  1.80600 37.60800 24.02800
C  2.59900 39.24800 25.53800
N  -1.83900 34.10000 25.59300
C  -1.55200 35.03700 24.70900
C  -2.15200 34.71800 23.30100
C  -2.70100 33.24100 23.54200
C  -2.62000 33.07300 24.99200
C  -3.16900 35.70900 22.73000
C  -2.03300 32.03200 22.82800
C  -0.53600 31.87500 22.58800
N  -2.58400 32.53700 27.96200
C  -3.31900 31.81100 27.04800
C  -4.18700 30.88200 27.70800
C  -4.01500 31.18200 29.04200
C  -3.15300 32.20700 29.14300
C  -5.05500 29.85800 27.16500
C  -4.43800 30.85000 30.37100
O  -5.21900 30.00000 30.74600
C  -3.70200 31.77700 31.39600
C  -4.64700 32.61400 32.20700
O  -5.27100 33.54500 31.76500
O  -4.53800 32.24500 33.48100
C  -5.38100 33.06200 34.48000
H  0.83300 36.75100 30.42000
H  -0.27200 36.48200 23.93400
H  -3.89800 31.31800 25.09600
H  -2.29500 34.51200 32.81300
H  0.46200 34.87000 32.03000
H  -1.29700 36.42800 33.54800
H  -1.22600 37.20900 32.00900
H  0.26500 37.07800 33.00800
H  0.07300 33.20200 33.27000
H  -0.67700 32.08300 32.25900
H  -2.00700 31.29500 34.00400
H  -2.35800 32.92400 34.57000
H  3.16100 38.07600 28.19100
H  2.05100 38.47400 29.49400
H  2.07700 39.51800 28.23400
H  1.87500 39.91100 26.01200
H  3.10600 39.76800 24.72500
H  3.38000 38.83300 26.17500
H  -1.37300 34.71700 22.53800
H  -3.75000 33.25000 23.24800
H  -3.81600 36.04300 23.54100
H  -3.85000 35.30700 21.98000
H  -2.69300 36.53900 22.20900
H  -2.52700 31.96700 21.85800
H  -2.35900 31.03300 23.11600
H  0.02400 32.62100 23.15200
H  -0.34800 32.06400 21.53100
H  -0.29600 30.85400 22.88400
H  -4.87200 29.66400 26.10800
H  -6.06100 30.24300 27.33300
H  -4.94900 28.92200 27.71300
H  -2.99000 31.20000 31.98500
H  -4.84500 33.20800 35.41700
H  -6.32500 32.57200 34.71700
H  -5.59000 34.06400 34.10400

