158

Mg 47.04800 25.87500 28.23200
C  47.98800 27.97800 30.93300
C  46.22500 23.42400 30.54100
C  46.28400 23.89700 25.62300
C  48.46800 28.25300 25.99500
N  46.83300 25.89100 30.44600
C  47.34600 26.84000 31.34400
C  47.12700 26.33200 32.78000
C  46.61100 24.90300 32.64500
C  46.56800 24.65800 31.08500
C  47.45100 23.72700 33.53100
C  46.22200 27.27500 33.63700
C  46.81300 27.88500 34.89100
H  45.80300 28.06200 36.01900
N  46.43400 23.91700 28.14900
C  46.02400 23.06800 29.17300
C  45.54600 21.82400 28.61300
C  45.55000 21.95300 27.19300
C  46.08500 23.29700 26.95100
C  45.03400 20.63400 29.41000
C  45.22400 20.90400 26.07100
O  45.28700 21.12900 24.88000
C  44.76300 19.49900 26.45400
N  47.25100 26.10100 26.10200
C  46.88900 25.09100 25.24400
C  47.11900 25.55000 23.75800
C  47.72900 27.00900 23.86100
C  47.77700 27.19200 25.39200
C  47.91300 24.56900 22.89000
C  46.94700 28.12400 23.20800
C  47.62300 29.39800 22.52400
N  48.00700 27.64700 28.36800
C  48.58800 28.50700 27.38100
C  49.21500 29.63500 28.00700
C  49.05400 29.47100 29.34500
C  48.28100 28.29400 29.58300
C  50.00000 30.71300 27.38200
C  49.41600 30.07000 30.62100
O  50.17600 30.98600 30.90100
C  48.74100 29.04100 31.66300
C  49.87400 28.58100 32.49100
O  50.63800 27.70700 32.27600
O  49.78900 29.19900 33.70300
C  50.82200 28.91200 34.76600
H  46.11800 22.62100 31.27300
H  46.13700 23.22900 24.77200
H  48.99000 28.88700 25.27500
H  48.10100 26.21300 33.25400
H  45.58200 24.91600 33.00500
H  48.39900 24.20000 33.78900
H  47.56900 22.80300 32.96500
H  46.90100 23.44200 34.42800
H  45.30400 26.80800 33.99400
H  45.98500 28.16900 33.06000
H  47.16900 28.89900 34.70700
H  47.60600 27.21500 35.22300
H  43.95200 20.59200 29.28700
H  45.29900 20.84300 30.44600
H  45.62400 19.77200 29.09700
H  43.77400 19.46900 26.91000
H  45.57000 19.13300 27.08900
H  44.81700 18.91000 25.53800
H  46.13700 25.61700 23.29000
H  48.77300 26.91400 23.56400
H  47.35400 24.28000 22.00000
H  48.04000 23.64500 23.45400
H  48.85100 25.01700 22.56300
H  46.26700 28.60500 23.91200
H  46.41300 27.69300 22.36100
H  48.63800 29.16200 22.20500
H  47.59000 30.27200 23.17500
H  47.06600 29.62000 21.61300
H  50.94400 30.80500 27.91900
H  49.42800 31.64000 27.33600
H  50.18400 30.37800 26.36100
H  48.12100 29.67900 32.29200
H  51.60300 28.34800 34.25600
H  50.29100 28.28100 35.48000
H  51.21100 29.81800 35.23200
Mg 1.12300 42.07900 26.31800
C  2.72300 41.91800 29.38000
C  -1.76100 41.01600 27.63900
C  -0.14400 41.63200 23.14300
C  4.20000 43.28600 24.88500
N  0.62400 41.37000 28.25600
C  1.37900 41.54700 29.39800
C  0.47300 41.34100 30.62200
C  -0.98800 41.07800 30.05000
C  -0.72500 41.24200 28.54200
C  -1.61600 39.72000 30.54300
C  0.50100 42.49300 31.65400
C  0.94000 42.25500 33.10800
H  -0.07700 42.47700 34.28100
N  -0.66900 41.40500 25.60200
C  -1.74500 40.88600 26.28700
C  -2.75700 40.55100 25.34300
C  -2.31400 40.80000 24.05900
C  -0.94000 41.24600 24.19700
C  -4.06800 39.99000 25.82500
C  -3.09000 40.78600 22.69900
O  -2.65100 40.90000 21.57800
C  -4.65500 40.59900 22.78300
N  1.83300 42.40100 24.35700
C  1.13800 42.12600 23.19700
C  2.00100 42.55400 21.91900
C  3.31200 43.17000 22.64100
C  3.05600 42.96400 24.09100
C  2.28300 41.44300 20.82900
C  3.60600 44.61900 22.11000
C  3.56400 44.87000 20.58900
N  3.03200 42.49300 26.93700
C  4.14700 42.93200 26.24700
C  5.28400 43.00200 27.14800
C  4.71900 42.68100 28.36100
C  3.41100 42.26300 28.18600
C  6.62400 43.48100 26.91900
C  5.04000 42.50600 29.78700
O  6.14000 42.76700 30.33700
C  3.75100 42.03300 30.54000
C  4.00800 40.76000 31.26600
O  4.43000 39.69700 30.86000
O  3.94000 41.06800 32.56100
C  3.86200 39.90100 33.48500
H  -2.64800 40.81500 28.24400
H  -0.48100 41.41200 22.12800
H  5.12500 43.59500 24.39400
H  0.88500 40.42400 31.04200
H  -1.66200 41.88900 30.32700
H  -1.17200 39.37600 31.47700
H  -1.39000 38.93900 29.81700
H  -2.70000 39.76100 30.64200
H  -0.43100 43.05500 31.71000
H  1.14800 43.32000 31.36200
H  1.65300 43.04800 33.33300
H  1.34100 41.24300 33.17500
H  -4.67000 39.52700 25.04400
H  -4.67700 40.81400 26.19700
H  -3.95200 39.20900 26.57700
H  -5.05400 41.20600 23.59600
H  -4.89400 39.54100 22.89100
H  -5.10300 41.01100 21.87900
H  1.38000 43.36900 21.54700
H  4.25000 42.65500 22.43200
H  2.18000 40.39100 21.09400
H  3.23100 41.62700 20.32300
H  1.49600 41.49300 20.07700
H  4.63500 44.83300 22.40100
H  2.98000 45.27100 22.71900
H  4.28300 44.23600 20.07000
H  4.00900 45.82600 20.31400
H  2.57900 44.87300 20.12200
H  6.58000 44.56800 26.98200
H  6.89600 43.18500 25.90600
H  7.21900 43.05200 27.72500
H  3.48600 42.79400 31.27500
H  3.22900 40.35900 34.24500
H  4.81100 39.74700 33.99900
H  3.30800 39.04600 33.09800

