158

Mg 42.45600 41.06200 26.66900
C  41.73800 43.58700 29.02600
C  43.85200 39.21700 29.25000
C  43.21700 38.85200 24.39100
C  41.72400 43.41100 24.18000
N  42.77800 41.34300 28.94000
C  42.28500 42.43800 29.66100
C  42.39900 42.17100 31.17600
C  43.39900 40.91800 31.15200
C  43.38700 40.44800 29.66700
C  44.93500 41.18800 31.63000
C  40.92900 41.93000 31.80600
C  40.61000 42.90400 32.90700
H  39.98200 42.44700 34.28000
N  43.38500 39.24500 26.73800
C  43.84800 38.64300 27.92900
C  44.33800 37.27800 27.59500
C  44.07700 37.10400 26.19700
C  43.55700 38.43100 25.69400
C  45.03500 36.33500 28.57200
C  44.33500 35.84400 25.30700
O  44.21900 35.90100 24.09600
C  44.60500 34.59900 25.89400
N  42.50600 41.24200 24.62000
C  42.76300 40.09600 23.87400
C  42.53000 40.25500 22.37000
C  41.95800 41.68300 22.32900
C  42.13200 42.20400 23.76600
C  43.85000 40.03900 21.52300
C  40.48400 41.76300 21.79000
C  40.00200 43.18400 21.36200
N  41.68900 43.00700 26.60700
C  41.42500 43.87000 25.55200
C  40.99700 45.16800 25.97400
C  41.00300 45.05400 27.37900
C  41.52100 43.76100 27.65900
C  40.68900 46.36800 25.18700
C  40.61900 45.76400 28.68100
O  40.10300 46.83200 28.97500
C  41.17900 44.78100 29.74300
C  42.28500 45.51700 30.35500
O  43.23100 45.93500 29.75500
O  42.12400 45.69300 31.71700
C  43.10600 46.57400 32.46500
H  44.15100 38.56700 30.07600
H  43.22500 38.04800 23.65200
H  41.43500 44.15000 23.43000
H  42.96800 42.99900 31.59800
H  43.00800 40.06300 31.70200
H  44.85600 42.16100 32.11400
H  45.50900 41.18200 30.70300
H  45.27900 40.46200 32.36700
H  40.90200 40.96000 32.30200
H  40.05500 41.92500 31.15500
H  39.84600 43.58500 32.53000
H  41.46900 43.53500 33.13700
H  46.09700 36.47000 28.77800
H  44.86100 35.26700 28.44400
H  44.61800 36.55200 29.55600
H  43.89900 34.49100 26.71800
H  45.61300 34.53900 26.30300
H  44.34900 33.80600 25.19100
H  41.76400 39.56000 22.02700
H  42.57700 42.30300 21.68000
H  44.62300 40.80500 21.58900
H  43.51000 40.03600 20.48700
H  44.21200 39.04500 21.78500
H  39.94700 41.46800 22.69100
H  40.31900 40.96300 21.06800
H  39.40600 43.54700 22.19900
H  39.35800 43.28200 20.48900
H  40.92100 43.76800 21.30300
H  41.22100 47.20100 25.64600
H  39.63000 46.61300 25.26500
H  41.10400 46.26400 24.18500
H  40.45400 44.59100 30.53400
H  43.51700 45.93300 33.24500
H  42.71400 47.53500 32.79800
H  43.99900 46.81500 31.88800
Mg -5.53800 25.59800 26.32100
C  -4.22300 27.05100 29.23000
C  -7.31000 23.43700 28.27800
C  -6.22300 24.05600 23.46900
C  -3.13900 27.69000 24.52600
N  -5.58600 25.25800 28.49200
C  -5.07600 26.00300 29.53500
C  -5.66700 25.52300 30.94400
C  -6.45900 24.26700 30.56800
C  -6.40800 24.24100 29.00900
C  -5.92600 22.96900 31.20100
C  -6.37600 26.64800 31.61100
C  -6.27700 26.84900 33.16300
H  -5.61500 25.71500 33.97900
N  -6.72200 23.94500 25.93700
C  -7.41900 23.25400 26.87200
C  -8.14700 22.22500 26.12300
C  -7.92900 22.45000 24.68800
C  -6.88900 23.49800 24.62500
C  -9.05800 21.24100 26.85600
C  -8.53300 21.87700 23.48500
O  -8.31300 22.19800 22.36900
C  -9.62700 20.80500 23.60300
N  -4.80500 25.92500 24.31300
C  -5.22700 25.04100 23.35600
C  -4.46000 25.32900 21.94500
C  -3.84000 26.76300 22.28400
C  -3.87200 26.82500 23.81300
C  -3.37700 24.26600 21.49100
C  -4.45400 27.96000 21.48900
C  -5.37000 29.00200 22.19100
N  -3.98200 27.08200 26.77800
C  -3.15200 27.79600 25.95400
C  -2.32800 28.69400 26.74600
C  -2.76700 28.52800 28.06000
C  -3.72800 27.45100 27.98800
C  -1.30900 29.75700 26.26900
C  -2.64900 28.93200 29.43400
O  -2.07800 29.83400 30.03900
C  -3.58500 27.94800 30.23300
C  -2.82800 27.21300 31.24700
O  -2.14500 26.18600 31.00800
O  -2.93600 27.77900 32.48200
C  -2.02200 27.14200 33.44900
H  -7.71200 22.67400 28.94700
H  -6.32100 23.59100 22.48600
H  -2.43600 28.31300 23.96900
H  -4.88700 25.16300 31.61400
H  -7.53100 24.43700 30.66200
H  -5.50700 22.22700 30.52100
H  -6.79600 22.52300 31.68200
H  -5.18900 23.09500 31.99500
H  -7.43900 26.58300 31.38100
H  -6.15000 27.59200 31.11600
H  -7.29800 26.89000 33.54300
H  -5.76900 27.81000 33.24200
H  -8.75300 21.09200 27.89200
H  -9.04300 20.26700 26.36600
H  -10.10600 21.53900 26.89700
H  -9.32700 19.77800 23.81100
H  -10.11100 20.76100 22.62800
H  -10.41600 21.18000 24.25600
H  -5.30200 25.50900 21.27800
H  -2.79900 26.74900 21.96100
H  -2.41100 24.76000 21.39000
H  -3.81900 23.86100 20.58000
H  -3.28900 23.41000 22.16000
H  -5.03200 27.59700 20.63900
H  -3.59900 28.48400 21.06200
H  -5.60400 28.70100 23.21200
H  -6.27700 29.00400 21.58600
H  -4.81600 29.94100 22.22300
H  -1.39100 30.65000 26.88800
H  -1.56800 30.00200 25.23900
H  -0.33700 29.26400 26.24100
H  -4.35600 28.62800 30.59500
H  -1.03000 27.58500 33.36300
H  -1.90800 26.08000 33.22900
H  -2.43400 27.14900 34.45800

