158

Mg 45.15600 4.82700 46.90400
C  42.57900 7.46300 46.55400
C  42.46900 2.57100 46.56600
C  47.37000 2.43300 46.34300
C  47.55900 7.31500 46.75400
N  42.78100 4.98700 46.41300
C  41.98100 6.16800 46.44300
C  40.52500 5.74100 46.15200
C  40.54200 4.31100 46.70300
C  42.04200 3.88900 46.51200
C  40.04800 4.05900 48.13900
C  40.03400 5.77700 44.67700
C  41.03800 5.87100 43.54600
H  40.65100 6.43400 42.12300
N  45.00100 2.76600 46.61500
C  43.79000 2.06400 46.56300
C  44.10100 0.63700 46.36900
C  45.51200 0.57900 46.14600
C  46.04100 1.92200 46.43600
C  43.19700 -0.50000 46.34400
C  46.35900 -0.63600 45.67800
O  45.81400 -1.69700 45.32900
C  47.85200 -0.60700 45.59100
N  47.10700 4.83900 46.70800
C  47.87600 3.72100 46.56400
C  49.36000 4.02400 46.72200
C  49.35100 5.60300 46.64700
C  47.93500 5.97500 46.63300
C  49.91800 3.44100 48.08500
C  50.20200 6.07600 45.40100
C  49.63500 5.83700 44.01800
N  45.12000 6.90500 46.72700
C  46.18000 7.79700 46.68800
C  45.65900 9.18100 46.73200
C  44.29200 9.03500 46.71200
C  43.98600 7.65400 46.69500
C  46.55800 10.39100 46.48000
C  43.08800 9.78300 46.78400
O  42.97100 11.02500 46.78500
C  41.80400 8.76200 46.72200
C  41.06300 8.72100 48.01900
O  41.06600 7.82400 48.83600
O  40.41800 9.93700 48.25800
C  39.47800 10.01800 49.35900
H  41.71800 1.77800 46.55900
H  48.16000 1.67900 46.33300
H  48.35900 8.02400 46.97300
H  39.89600 6.37700 46.77500
H  39.97900 3.69800 46.00000
H  40.82300 3.48700 48.65000
H  39.10400 3.53300 47.99600
H  39.84200 4.98600 48.67500
H  39.46500 6.70600 44.71300
H  39.29400 5.02900 44.39300
H  41.35800 4.86200 43.28500
H  41.86400 6.47700 43.92000
H  43.53800 -1.30100 46.99900
H  43.21400 -0.96700 45.35900
H  42.15200 -0.18900 46.32500
H  48.19900 -1.59500 45.28900
H  48.07000 -0.39900 46.63800
H  48.32200 0.15800 44.97300
H  49.86900 3.54700 45.88500
H  49.92600 5.94900 47.50600
H  49.22300 2.69800 48.47700
H  50.04000 4.23700 48.81900
H  50.90500 3.02900 47.87500
H  51.17100 5.58800 45.50400
H  50.32000 7.15200 45.52900
H  50.28300 5.12400 43.51000
H  49.71400 6.82500 43.56600
H  48.60200 5.51700 44.15900
H  46.27900 11.01900 47.32600
H  46.20900 10.87700 45.56900
H  47.59600 10.06100 46.44900
H  41.15300 8.96600 45.87100
H  39.96500 10.13300 50.32800
H  38.95500 9.09900 49.62900
H  38.85800 10.89300 49.16800
Mg -10.05200 39.22700 40.89700
C  -8.81300 35.96800 40.20900
C  -7.25000 40.44100 39.59900
C  -11.61100 42.10900 40.70700
C  -13.02800 37.59000 42.02000
N  -8.21200 38.28200 40.10900
C  -7.94900 36.96300 39.83000
C  -6.63800 36.83200 38.94700
C  -5.96400 38.15400 39.54100
C  -7.19800 39.05400 39.76000
C  -5.10600 38.02900 40.68400
C  -7.01000 36.92700 37.42200
C  -6.73400 35.61500 36.69000
H  -6.02000 36.01900 35.36200
N  -9.56600 41.05000 40.10700
C  -8.32700 41.37500 39.70200
C  -8.23600 42.78500 39.38300
C  -9.48100 43.36500 39.78400
C  -10.32500 42.13100 40.19500
C  -7.00400 43.42400 38.74100
C  -9.84500 44.71600 39.63500
O  -9.04700 45.57100 39.44800
C  -11.22500 45.19800 39.80500
N  -12.02700 39.71300 41.30100
C  -12.40400 41.07600 41.17500
C  -13.98500 41.24200 41.36200
C  -14.35700 39.76100 41.91000
C  -13.09300 38.94100 41.64300
C  -14.27700 42.34200 42.39800
C  -15.56000 39.11700 41.26900
C  -16.39800 38.25700 42.29400
N  -10.74500 37.15700 41.33700
C  -11.97400 36.71200 41.76600
C  -11.97300 35.31900 41.76700
C  -10.77900 34.93000 41.12600
C  -10.09600 36.05400 40.90900
C  -12.99700 34.46900 42.37600
C  -9.97500 33.80500 40.71100
O  -10.23000 32.63100 40.61800
C  -8.66800 34.46900 39.95700
C  -7.44500 33.80900 40.46300
O  -6.58800 33.19800 39.84700
O  -7.28700 34.13700 41.79900
C  -6.19100 33.49300 42.60300
H  -6.27900 40.77600 39.22700
H  -12.11300 43.07700 40.65700
H  -13.89100 37.07400 42.44700
H  -6.18200 35.87900 39.21700
H  -5.48500 38.54700 38.64300
H  -5.01500 37.04300 41.14000
H  -5.36300 38.82000 41.38800
H  -4.12200 38.17000 40.23600
H  -6.40400 37.71400 36.97200
H  -8.08500 37.08500 37.32800
H  -7.63900 35.01000 36.64300
H  -5.94300 35.05200 37.18500
H  -6.68600 42.90600 37.83600
H  -6.17900 43.64400 39.41900
H  -7.29500 44.43000 38.44000
H  -11.78300 44.57700 39.10300
H  -11.25900 46.23000 39.45500
H  -11.59300 45.17600 40.83000
H  -14.30200 41.43800 40.33800
H  -14.54500 39.81300 42.98300
H  -14.76500 41.84800 43.23800
H  -14.88500 43.19100 42.08700
H  -13.30100 42.68100 42.74700
H  -15.14500 38.51200 40.46400
H  -16.32300 39.81900 40.93300
H  -16.54900 37.26400 41.86800
H  -17.33600 38.80300 42.39700
H  -15.91800 38.18400 43.26900
H  -12.82300 33.46000 42.00200
H  -14.00900 34.83900 42.21400
H  -12.88000 34.56600 43.45600
H  -8.84600 34.33000 38.89100
H  -6.72400 33.11000 43.47300
H  -5.38500 34.12900 42.97100
H  -5.73400 32.62600 42.12600

