158

Mg 24.85700 1.68000 29.23900
C  27.07500 1.22500 31.88300
C  22.31400 1.97700 31.67500
C  22.48900 1.89400 26.74300
C  27.21000 1.15000 26.93200
N  24.73500 1.53400 31.56000
C  25.82200 1.40800 32.33400
C  25.50400 1.70500 33.81100
C  23.86900 1.89200 33.72100
C  23.59000 1.83400 32.18600
C  23.00700 0.87700 34.48200
C  26.30200 2.99000 34.39400
C  27.03200 2.77600 35.76700
H  26.52200 3.64200 36.97700
N  22.70800 1.83500 29.21500
C  21.82500 1.90600 30.37500
C  20.49900 1.96600 29.87600
C  20.57700 1.85500 28.48700
C  21.94500 1.82000 28.06100
C  19.25600 2.08000 30.79100
C  19.44800 1.84300 27.48600
O  19.67300 1.91800 26.27600
C  18.04500 1.82500 27.97200
N  24.84000 1.47000 27.04300
C  23.85100 1.72800 26.29100
C  24.21800 2.09700 24.79700
C  25.80200 1.81400 24.82300
C  25.99900 1.50800 26.37400
C  23.44800 1.23600 23.69300
C  26.67900 3.04000 24.30100
C  26.68000 4.26000 25.19500
N  26.69300 1.21200 29.39200
C  27.58100 0.92900 28.28000
C  28.90300 0.72200 28.84900
C  28.80800 0.88400 30.27700
C  27.43800 1.11600 30.52900
C  30.10500 0.35700 28.07100
C  29.49800 0.84300 31.53700
O  30.68700 0.95200 31.80300
C  28.36900 1.09400 32.59100
C  28.51300 0.08900 33.61500
O  27.97300 -1.01700 33.54700
O  29.40200 0.55100 34.60400
C  29.28600 -0.14400 35.88700
H  21.55100 2.03600 32.45300
H  21.77200 2.08000 25.94000
H  27.98500 1.07700 26.16600
H  25.75100 0.84900 34.43800
H  23.57600 2.87600 34.08900
H  22.60600 0.15400 33.77200
H  22.24300 1.47400 34.97900
H  23.65400 0.42100 35.23200
H  25.50400 3.70200 34.60500
H  26.99300 3.43400 33.67800
H  28.07600 3.06600 35.64500
H  27.07500 1.74100 36.10500
H  18.74900 3.04500 30.79600
H  19.50300 1.92500 31.84100
H  18.53800 1.27200 30.64800
H  17.81300 2.81300 28.37100
H  18.02000 0.98100 28.66200
H  17.31800 1.62300 27.18600
H  24.10800 3.18000 24.74400
H  26.00100 0.90100 24.26300
H  23.24900 0.20300 23.97900
H  23.98300 1.25500 22.74300
H  22.51900 1.77200 23.49900
H  26.19000 3.43400 23.41100
H  27.71100 2.79400 24.05000
H  27.57600 4.87500 25.29000
H  26.38800 4.01300 26.21600
H  25.95700 4.91800 24.71300
H  29.92100 -0.60300 27.58900
H  31.03300 0.47500 28.63000
H  30.12900 1.02900 27.21300
H  28.65600 2.08800 32.93600
H  28.27200 0.01000 36.25800
H  29.96100 0.15400 36.68900
H  29.39400 -1.20200 35.64500
Mg 47.02800 16.55500 28.92100
C  44.94100 15.84300 31.75300
C  49.19700 18.21700 31.03100
C  48.60700 17.61500 26.23900
C  44.57200 15.12900 26.90500
N  47.00700 16.92300 31.16000
C  46.10700 16.48500 32.10100
C  46.58700 16.88600 33.52900
C  47.80700 17.79300 33.21400
C  48.05700 17.63600 31.71400
C  47.67400 19.25900 33.48700
C  46.92200 15.63700 34.28700
C  47.60800 15.87500 35.63000
H  47.34600 17.06100 36.47300
N  48.66200 17.69500 28.62500
C  49.49100 18.17900 29.62200
C  50.63900 18.81000 29.04100
C  50.42300 18.78600 27.64600
C  49.22200 17.99900 27.43100
C  51.84400 19.31000 29.81200
C  51.31300 19.32000 26.56600
O  50.99600 19.25200 25.36500
C  52.61900 19.99300 26.87400
N  46.78100 16.26800 26.86100
C  47.56000 16.82900 25.90900
C  47.16200 16.38500 24.48000
C  45.82100 15.60500 24.75400
C  45.70100 15.58700 26.28400
C  47.04600 17.63800 23.53000
C  45.64700 14.18400 24.05000
C  45.88200 12.88600 24.84200
N  45.17400 15.61500 29.24000
C  44.30400 15.08000 28.27600
C  43.18200 14.55100 28.95200
C  43.35100 14.83800 30.35400
C  44.61200 15.47400 30.45700
C  41.92400 14.08200 28.29700
C  42.72500 14.86300 31.61200
O  41.64500 14.56400 32.02700
C  43.79700 15.38800 32.56600
C  43.22800 16.61400 33.31300
O  42.89600 17.64400 32.76700
O  43.01600 16.43000 34.64700
C  42.58600 17.60400 35.35700
H  49.87000 18.72700 31.72300
H  49.20300 17.82200 25.34700
H  43.93100 14.57100 26.22000
H  45.82800 17.49300 34.02300
H  48.65200 17.45500 33.81400
H  48.20500 19.47300 34.41500
H  46.64200 19.55700 33.67600
H  48.16000 19.82500 32.69300
H  47.58800 14.97700 33.73000
H  45.96500 15.15200 34.47900
H  48.68900 15.75200 35.56000
H  47.20900 15.15200 36.34100
H  52.05300 20.32000 29.46200
H  52.69100 18.69900 29.50100
H  51.69900 19.36800 30.89100
H  53.09900 20.25800 25.93200
H  53.29200 19.29400 27.37100
H  52.43100 20.94800 27.36400
H  47.92700 15.76300 24.01600
H  44.95800 16.21300 24.48400
H  47.71700 17.56400 22.67500
H  47.38300 18.52100 24.07300
H  46.02900 17.75900 23.15700
H  46.30600 14.02300 23.19600
H  44.61800 14.30000 23.71000
H  46.10000 13.13200 25.88100
H  46.74200 12.29800 24.51900
H  45.04900 12.18700 24.76400
H  41.69800 14.54100 27.33500
H  41.15000 14.34900 29.01700
H  41.92800 12.99400 28.21900
H  44.04000 14.60100 33.28000
H  41.67600 17.94100 34.86100
H  43.32400 18.40500 35.38400
H  42.44700 17.29300 36.39200

