158

Mg -1.67300 17.83700 26.21800
C  -1.89100 15.32000 28.57300
C  -2.12900 20.19200 28.70900
C  -1.83000 20.16700 23.95000
C  -2.28600 15.37300 23.73400
N  -1.77400 17.71200 28.41600
C  -1.79500 16.58400 29.19900
C  -1.95900 16.90000 30.72400
C  -2.00700 18.48700 30.69700
C  -2.00900 18.83500 29.16700
C  -2.91800 19.31500 31.60800
C  -0.75100 16.36200 31.65900
C  -0.32000 17.13900 32.91500
H  -0.13900 16.37200 34.21200
N  -1.71400 19.95900 26.35500
C  -1.93800 20.69100 27.40000
C  -2.02400 22.08200 27.01800
C  -1.87700 22.13300 25.64200
C  -1.74300 20.75700 25.20500
C  -2.28800 23.29200 27.98000
C  -1.97800 23.32300 24.77600
O  -1.87600 23.22600 23.55600
C  -2.38000 24.66200 25.36200
N  -2.09300 17.75400 24.07900
C  -2.00500 18.89400 23.35300
C  -2.22600 18.66300 21.86900
C  -2.69300 17.11300 21.83800
C  -2.24800 16.70200 23.27100
C  -3.26800 19.55700 21.25700
C  -2.01600 16.27000 20.73000
C  -3.06400 15.70500 19.69000
N  -1.75000 15.75200 26.10500
C  -2.05700 14.88000 25.05400
C  -2.11100 13.54200 25.46800
C  -2.07600 13.66300 26.84200
C  -1.90400 15.00800 27.20100
C  -2.25100 12.28900 24.65200
C  -2.13700 12.88700 28.05800
O  -2.30600 11.70000 28.25000
C  -2.02400 13.95800 29.22800
C  -0.75200 13.69100 29.95300
O  0.32700 14.01800 29.56800
O  -1.00800 12.99500 31.11200
C  0.17700 12.78500 31.97600
H  -2.12900 21.02800 29.41100
H  -1.93300 20.91100 23.15800
H  -2.59500 14.74700 22.89400
H  -2.89600 16.55600 31.16000
H  -1.03900 18.87700 31.00900
H  -3.79800 19.55900 31.01100
H  -2.43900 20.19400 32.03900
H  -3.34300 18.69900 32.40000
H  0.08400 16.16900 30.98500
H  -1.13400 15.41900 32.04900
H  -1.00500 17.96300 33.11900
H  0.67100 17.53300 32.68900
H  -3.21000 23.76400 27.64000
H  -1.53400 24.07700 27.93600
H  -2.45400 22.92800 28.99400
H  -2.42200 25.36900 24.53400
H  -1.66200 25.03300 26.09300
H  -3.36500 24.43800 25.77200
H  -1.21200 18.78100 21.48800
H  -3.78100 17.17500 21.81900
H  -3.68600 19.03100 20.39900
H  -2.71800 20.44900 20.95600
H  -4.09000 19.90600 21.88200
H  -1.44200 15.47700 21.21000
H  -1.28700 16.85600 20.16900
H  -3.98900 16.23400 19.91800
H  -3.09800 14.63200 19.50100
H  -2.87900 16.09600 18.68900
H  -1.76100 12.45900 23.69400
H  -3.27900 11.92600 24.64200
H  -1.75200 11.53700 25.26400
H  -2.86000 13.76100 29.89900
H  0.63400 11.81600 31.77600
H  -0.18300 12.67700 32.99900
H  0.86000 13.63400 31.98000
Mg 41.95200 41.11500 26.48200
C  41.32400 43.46800 29.12500
C  42.86400 38.82300 28.96400
C  43.41100 39.19200 24.07500
C  41.47000 43.64600 24.25600
N  42.12700 41.17500 28.78600
C  41.77900 42.19800 29.64000
C  41.75500 41.74400 31.10700
C  42.48700 40.38700 30.99900
C  42.42300 40.05700 29.48400
C  43.89500 40.42800 31.62100
C  40.39700 41.76900 31.85600
C  40.57000 41.29300 33.37900
H  40.01200 42.23900 34.46000
N  43.02000 39.27500 26.52600
C  43.12000 38.40900 27.61200
C  43.59800 37.09300 27.04600
C  43.77300 37.16000 25.64000
C  43.39700 38.58400 25.32400
C  43.76600 35.85100 27.82800
C  44.31900 36.10100 24.63600
O  44.57500 36.35900 23.47400
C  44.56500 34.66100 25.12600
N  42.39200 41.39200 24.48300
C  42.93800 40.47100 23.66400
C  42.58700 40.71200 22.17600
C  41.76300 42.05100 22.24200
C  41.88800 42.38400 23.76600
C  43.83200 40.72500 21.22600
C  40.20500 41.75900 21.92600
C  39.39700 40.94900 22.94300
N  41.42000 43.14600 26.58300
C  41.36600 44.07500 25.60300
C  41.08100 45.39800 26.06600
C  40.90400 45.18400 27.52300
C  41.23800 43.81300 27.74300
C  40.79900 46.55300 25.23200
C  40.63200 45.88000 28.77500
O  40.35000 47.04000 29.06500
C  40.78700 44.78000 29.84100
C  41.71800 45.32800 30.79900
O  42.91600 45.62900 30.52700
O  41.15600 45.44900 32.03900
C  42.04600 46.19500 32.93900
H  43.19900 38.07800 29.69000
H  43.72300 38.51500 23.27600
H  41.35800 44.35300 23.43200
H  42.20100 42.54000 31.70400
H  41.86900 39.60800 31.44600
H  44.28700 41.38600 31.96200
H  44.52400 40.00300 30.83800
H  43.90900 39.81500 32.52200
H  39.75300 41.08500 31.30300
H  39.99500 42.78000 31.91200
H  41.58000 41.00400 33.67000
H  39.91800 40.42000 33.43000
H  42.93400 35.18700 27.58900
H  43.52400 35.96800 28.88400
H  44.76900 35.43800 27.71900
H  44.71400 33.92600 24.33400
H  43.72300 34.27800 25.70200
H  45.53200 34.73100 25.62400
H  41.95500 39.88200 21.86000
H  42.23100 42.72600 21.52500
H  44.72800 40.59200 21.83300
H  43.82300 41.63500 20.62700
H  43.75700 39.89300 20.52600
H  40.08900 41.23300 20.97900
H  39.74800 42.73600 21.76900
H  38.89700 41.52800 23.72000
H  39.78600 40.01200 23.34100
H  38.64800 40.46400 22.31700
H  40.01700 46.22700 24.54500
H  41.71500 46.84900 24.72000
H  40.46200 47.35800 25.88300
H  39.80100 44.63500 30.28200
H  41.72000 46.01100 33.96300
H  41.92400 47.27600 32.87500
H  43.09100 45.88400 32.94100

