158

Mg 25.77500 0.76100 28.83300
C  27.23300 0.34400 31.93600
C  22.74100 0.91000 30.36000
C  24.43400 0.86700 25.72600
C  28.89300 -0.25200 27.31500
N  25.11600 0.47900 30.99100
C  25.86600 0.47000 32.06500
C  25.01200 0.42800 33.39400
C  23.54000 0.70400 32.82200
C  23.76300 0.69400 31.28200
C  22.48000 -0.31100 33.26600
C  25.53300 1.53900 34.45800
C  25.24700 1.13300 35.91400
H  26.09300 1.86100 36.92600
N  23.84800 0.82200 28.12600
C  22.74400 0.87600 28.92300
C  21.59000 0.89100 28.11500
C  22.08200 0.89900 26.73500
C  23.48700 0.85400 26.85400
C  20.18800 0.89200 28.77000
C  21.30500 0.86100 25.44400
O  21.83500 0.60200 24.37400
C  19.86300 1.26500 25.48200
N  26.56000 0.32000 26.71700
C  25.79100 0.55400 25.63200
C  26.65200 0.45400 24.33300
C  28.08500 -0.07400 24.93200
C  27.83600 -0.01700 26.42200
C  25.98300 -0.27900 23.13300
C  29.30200 0.83000 24.48100
C  30.59800 0.03600 24.31000
N  27.75500 0.30200 29.45100
C  28.88100 -0.13500 28.71600
C  29.96800 -0.30900 29.63200
C  29.39400 -0.07000 30.95800
C  27.98000 0.23500 30.72500
C  31.41800 -0.71000 29.32600
C  29.69800 -0.10200 32.34100
O  30.72300 -0.33700 32.97400
C  28.32100 0.14000 33.01200
C  28.02100 -0.94900 34.02300
O  27.52100 -2.00200 33.71500
O  28.64900 -0.65500 35.23700
C  28.55000 -1.82300 36.21500
H  21.81800 1.02400 30.93200
H  24.20000 0.92800 24.66100
H  29.83400 -0.61700 26.89800
H  25.05700 -0.59200 33.77800
H  23.19600 1.66200 33.21200
H  22.88600 -0.89500 34.09200
H  22.27400 -1.14900 32.59900
H  21.50400 0.02800 33.61300
H  24.99800 2.46600 34.25400
H  26.57500 1.80300 34.27800
H  25.35800 0.06300 36.08500
H  24.22200 1.38500 36.18300
H  20.26700 0.80600 29.85400
H  19.54000 0.19200 28.24300
H  19.80300 1.88500 28.53700
H  19.59400 1.51700 24.45600
H  19.78400 2.13300 26.13600
H  19.20700 0.45800 25.80900
H  26.78400 1.50700 24.08600
H  28.23000 -1.13600 24.73600
H  26.79700 -0.82100 22.65200
H  25.63900 0.44900 22.39800
H  25.16800 -0.93800 23.42900
H  29.53400 1.53500 25.28000
H  29.17400 1.41300 23.56900
H  30.79500 -0.25800 23.28000
H  30.48000 -0.84300 24.94400
H  31.42700 0.64700 24.66700
H  31.80700 -1.32100 30.14000
H  32.02000 0.19800 29.30400
H  31.48600 -1.23400 28.37200
H  28.53600 1.05000 33.57200
H  29.44500 -2.41100 36.41700
H  27.76100 -2.50400 35.89700
H  28.34900 -1.38600 37.19400
Mg 40.36700 8.89900 29.86800
C  42.12500 10.26600 32.70900
C  38.00100 7.75700 32.05500
C  38.94900 7.40600 27.31000
C  43.12900 9.92200 27.83500
N  40.11400 8.98300 32.05100
C  40.87600 9.68400 33.00300
C  40.32800 9.45800 34.37200
C  39.00700 8.64200 34.21300
C  39.05000 8.44100 32.68700
C  38.87200 7.30400 34.99700
C  40.14400 10.76500 35.24000
C  39.43600 10.52200 36.64100
H  40.34200 10.42200 37.95000
N  38.59500 7.84500 29.69200
C  37.75900 7.51900 30.68200
C  36.69200 6.80600 30.13600
C  36.92400 6.64000 28.73500
C  38.18100 7.27300 28.50400
C  35.48500 6.35000 30.96200
C  36.16700 5.87100 27.71700
O  36.64000 5.60500 26.62900
C  34.74000 5.48200 28.02500
N  41.10000 8.57900 27.92900
C  40.25700 8.00800 27.01900
C  40.90400 7.98700 25.59500
C  42.20400 8.80300 25.79100
C  42.14200 9.16700 27.28400
C  41.16500 6.46800 25.07800
C  42.20700 10.01300 24.76700
C  41.21800 11.14800 24.95500
N  42.23300 9.93900 30.16100
C  43.21300 10.29200 29.22700
C  44.21800 11.08100 29.99600
C  43.86100 11.05400 31.33200
C  42.64200 10.36200 31.42800
C  45.36600 11.73600 29.29700
C  44.30000 11.41000 32.67100
O  45.25900 12.07500 32.95800
C  43.19200 10.93500 33.69700
C  43.71400 9.95000 34.64300
O  43.90700 8.76500 34.40700
O  43.88400 10.56300 35.88100
C  44.46700 9.65700 36.92900
H  37.19600 7.46500 32.73400
H  38.52200 7.07600 26.36100
H  43.97800 10.26300 27.23900
H  41.02900 8.75400 34.82300
H  38.20500 9.36900 34.34400
H  39.67900 7.28000 35.73000
H  39.21300 6.45100 34.41200
H  37.88400 7.15300 35.43100
H  39.57200 11.55200 34.74900
H  41.12500 11.16800 35.49300
H  38.85400 9.60400 36.54800
H  38.75200 11.37100 36.66400
H  34.67000 6.77700 30.37900
H  35.39000 6.73000 31.97900
H  35.43000 5.26100 30.94700
H  34.63000 4.98700 28.99000
H  34.49100 4.70400 27.30400
H  34.11700 6.34400 27.78600
H  40.40200 8.55300 24.81100
H  43.09200 8.17800 25.70500
H  42.16700 6.24500 24.71200
H  40.48600 6.22100 24.26200
H  41.01700 5.70200 25.83800
H  42.07200 9.61100 23.76300
H  43.18900 10.48500 24.72900
H  40.37400 10.91100 25.60300
H  40.88700 11.58800 24.01500
H  41.72000 12.00100 25.41200
H  45.85400 12.50900 29.89100
H  45.07400 12.18400 28.34800
H  46.08000 10.97700 28.97600
H  42.85500 11.89900 34.07900
H  45.41000 10.07800 37.27700
H  44.76800 8.68300 36.54200
H  43.76100 9.47400 37.74000

