158

Mg 54.51500 23.55900 45.15800
C  52.01500 25.94200 44.53400
C  52.41100 21.14200 43.87000
C  57.20500 21.63100 44.62300
C  56.67200 26.14800 46.21800
N  52.51700 23.61300 44.38600
C  51.66400 24.65100 44.14300
C  50.40900 24.16400 43.45000
C  50.39200 22.60700 43.91600
C  51.87500 22.40000 44.11300
C  49.45200 22.21800 45.15800
C  50.49000 24.45100 41.81900
C  49.41000 23.69900 40.94600
H  48.85700 24.41100 39.73600
N  54.72600 21.67800 44.39000
C  53.79400 20.81600 43.91400
C  54.36300 19.49900 43.60200
C  55.75500 19.62000 43.80600
C  55.96000 21.06000 44.19600
C  53.58200 18.19500 43.25300
C  56.80100 18.47800 43.75800
O  56.46500 17.33900 43.43900
C  58.25800 18.65200 44.14000
N  56.58500 23.83000 45.39200
C  57.41800 22.79100 45.29600
C  58.82300 23.21000 45.81900
C  58.62000 24.54400 46.44000
C  57.15800 24.90400 46.02500
C  59.41900 22.04800 46.84700
C  59.63500 25.61000 46.15400
C  59.82800 26.54300 47.37800
N  54.35500 25.65200 45.45900
C  55.34800 26.60600 45.87700
C  54.77300 27.88500 45.78600
C  53.48500 27.67300 45.22600
C  53.25700 26.33000 45.13500
C  55.44400 29.20700 46.11800
C  52.22000 28.36600 44.86800
O  51.87100 29.51700 44.94700
C  51.25900 27.28200 44.40400
C  50.77900 27.61000 43.03500
O  51.51000 27.93700 42.09600
O  49.40300 27.50400 42.98500
C  48.68800 27.88100 41.75900
H  51.68500 20.36800 43.61200
H  58.12700 21.06800 44.46100
H  57.33500 26.92900 46.59700
H  49.58400 24.70600 43.91300
H  50.03000 22.02500 43.06800
H  48.80800 21.36100 44.96100
H  48.93800 23.05600 45.62800
H  50.07100 22.03200 46.03600
H  51.48000 24.06800 41.56800
H  50.34200 25.51800 41.65200
H  48.53600 23.35000 41.49600
H  49.89200 22.77000 40.64400
H  53.78900 17.94300 42.21300
H  52.53800 18.48400 43.13700
H  53.57200 17.47100 44.06900
H  58.71600 19.33800 43.42800
H  58.68400 17.64900 44.13300
H  58.26200 19.08400 45.14100
H  59.47000 23.35500 44.95300
H  58.39700 24.33700 47.48700
H  59.77300 22.39500 47.81700
H  60.24800 21.53400 46.36200
H  58.62400 21.30900 46.95100
H  59.27500 26.14800 45.27800
H  60.63400 25.21800 45.96400
H  60.88900 26.73500 47.53500
H  59.17400 26.34300 48.22700
H  59.35600 27.47800 47.07300
H  56.03200 29.05900 47.02400
H  54.81200 30.06500 46.34300
H  56.01300 29.37200 45.20400
H  50.43300 27.28600 45.11600
H  47.80500 28.33300 42.21300
H  48.40100 26.96600 41.24100
H  49.24000 28.64800 41.21600
Mg 41.88400 41.04700 27.39800
C  41.12100 43.53400 29.91700
C  42.75800 39.00600 29.95200
C  42.54700 38.83200 25.10000
C  41.45700 43.60200 24.97600
N  42.03500 41.38600 29.70900
C  41.53000 42.31200 30.52500
C  41.52700 41.86700 31.99100
C  42.32500 40.47800 31.93200
C  42.41700 40.28000 30.43700
C  43.68300 40.34500 32.55600
C  40.11400 41.84200 32.61300
C  39.97400 42.75000 33.89700
H  39.08500 42.07100 34.99900
N  42.52900 39.14700 27.50600
C  42.87400 38.35000 28.64100
C  43.28500 37.04000 28.20200
C  43.20600 37.05700 26.78700
C  42.70700 38.37600 26.40800
C  43.74000 35.97300 29.16200
C  43.48100 35.88200 25.87300
O  43.55700 36.05000 24.61900
C  43.89200 34.53500 26.31400
N  42.29300 41.34600 25.28900
C  42.32800 40.18200 24.60000
C  42.32600 40.47500 23.11100
C  41.83400 41.94800 23.05500
C  41.80100 42.34000 24.54400
C  43.62300 40.12900 22.33600
C  40.54300 42.24200 22.21800
C  39.30100 41.60000 22.78500
N  41.41200 43.06600 27.37900
C  41.24400 43.98000 26.32600
C  40.72500 45.23300 26.87300
C  40.71100 45.04100 28.23000
C  41.12900 43.72100 28.49900
C  40.42800 46.45300 26.17100
C  40.22300 45.73200 29.42400
O  39.77700 46.86800 29.62700
C  40.49700 44.69600 30.63500
C  41.42500 45.33900 31.62400
O  42.62100 45.41400 31.56800
O  40.78100 45.92400 32.64100
C  41.47900 46.79100 33.54700
H  42.85200 38.33200 30.80600
H  42.49800 38.04700 24.34300
H  41.31200 44.36900 24.21300
H  42.04400 42.57600 32.63800
H  41.67600 39.72700 32.38300
H  43.88300 41.21900 33.17600
H  44.41700 40.28700 31.75300
H  43.84600 39.45200 33.16000
H  39.92300 40.84600 33.01300
H  39.30200 42.08800 31.92900
H  39.40000 43.63900 33.63700
H  40.80100 43.30200 34.34300
H  43.04800 35.13400 29.08500
H  43.76100 36.36000 30.18100
H  44.70300 35.53400 28.90500
H  43.42300 34.14700 27.21900
H  44.95200 34.52300 26.56700
H  43.95800 33.81000 25.50300
H  41.60500 39.70700 22.83100
H  42.56900 42.60500 22.59000
H  44.40800 40.03500 23.08600
H  43.97500 40.90700 21.65800
H  43.63800 39.17200 21.81600
H  40.64100 41.98400 21.16300
H  40.36700 43.30900 22.08500
H  38.65300 42.41300 23.11200
H  39.48200 41.09600 23.73500
H  38.86300 40.98600 21.99900
H  41.21600 46.67800 25.45200
H  40.39100 47.24700 26.91700
H  39.47300 46.46000 25.64500
H  39.56700 44.37300 31.10300
H  41.86400 46.23800 34.40400
H  40.80900 47.60100 33.83400
H  42.30100 47.30100 33.04400

