158

Mg 56.49800 22.87800 45.21000
C  54.80100 25.70300 44.33800
C  53.85900 20.99200 43.88400
C  58.52200 20.15100 45.15400
C  59.28700 24.84200 45.89000
N  54.58000 23.33800 43.98400
C  54.06900 24.58900 43.85000
C  52.68800 24.47600 43.09100
C  52.31000 23.02200 43.38500
C  53.65400 22.38400 43.71500
C  51.20800 22.98000 44.47100
C  52.87400 24.78200 41.53300
C  51.68000 25.53700 40.88700
H  50.91900 24.80800 39.84400
N  56.15900 20.88000 44.76300
C  55.04200 20.29200 44.28900
C  55.18000 18.82500 44.19200
C  56.46600 18.56600 44.64000
C  57.10900 19.88700 44.93900
C  54.16000 17.83700 43.53600
C  57.08200 17.17300 44.74500
O  56.43900 16.13600 44.55500
C  58.39400 17.04300 45.40100
N  58.65700 22.54600 45.39000
C  59.22700 21.26000 45.45300
C  60.76100 21.36500 45.59700
C  60.94000 22.89700 45.84600
C  59.56600 23.49500 45.68800
C  61.33500 20.37500 46.66100
C  62.03400 23.57000 45.08600
C  63.27400 24.11600 45.82800
N  56.92800 24.87700 45.40400
C  58.11500 25.57900 45.64200
C  57.84600 26.98100 45.69300
C  56.52900 27.06000 45.19100
C  56.05100 25.74000 44.94200
C  58.81500 27.99800 46.26500
C  55.53700 27.99600 44.81100
O  55.54100 29.17000 44.80800
C  54.39900 27.14300 44.27100
C  53.99600 27.72000 42.92000
O  54.74800 27.74300 41.97400
O  52.71800 28.19200 43.13100
C  52.03200 28.93000 42.05200
H  53.00900 20.42800 43.49500
H  59.20600 19.30400 45.05700
H  60.18600 25.41200 46.13600
H  51.98500 25.16300 43.56300
H  51.90400 22.58200 42.47400
H  51.42700 22.01600 44.93000
H  50.15100 22.93600 44.21000
H  51.34800 23.78000 45.19800
H  52.99000 23.81800 41.03700
H  53.80700 25.33600 41.43200
H  52.00800 26.52100 40.55100
H  50.98200 25.83300 41.67000
H  53.24300 18.31800 43.19400
H  53.92700 17.10300 44.30600
H  54.71600 17.30600 42.76300
H  58.55500 17.75200 46.21300
H  59.22600 17.04200 44.69700
H  58.49500 16.05600 45.85300
H  61.27400 21.08400 44.67800
H  61.09500 23.08800 46.90800
H  62.15400 20.89000 47.16300
H  61.73300 19.47300 46.19600
H  60.62800 20.07500 47.43500
H  61.71400 24.33100 44.37400
H  62.45000 22.79100 44.44800
H  63.16000 23.94900 46.89900
H  63.64800 25.12600 45.65900
H  64.08200 23.48900 45.45300
H  58.45300 28.97700 45.95300
H  59.88800 27.89800 46.10200
H  58.73100 28.06200 47.35000
H  53.61100 27.34700 44.99600
H  52.51100 28.80200 41.08100
H  51.98700 30.00100 42.25000
H  51.04000 28.50100 41.91300
Mg 4.96700 54.84500 40.38900
C  4.47700 51.47200 41.05100
C  7.69200 54.21000 38.55500
C  4.76100 57.99600 39.24100
C  1.67600 55.34800 41.75200
N  5.85400 53.00800 39.70700
C  5.60800 51.73900 40.25100
C  6.58600 50.73100 39.70500
C  7.84100 51.69700 39.36600
C  7.09600 53.03700 39.19000
C  8.93100 51.70000 40.46900
C  6.13700 49.86400 38.49000
C  4.83000 50.20300 37.74100
H  4.94500 49.76500 36.25800
N  6.11700 56.04400 39.08000
C  7.21200 55.56100 38.45600
C  7.82100 56.68800 37.81300
C  7.03700 57.78000 38.00100
C  5.92100 57.34200 38.80100
C  9.16800 56.52700 37.07700
C  7.35400 59.15200 37.40700
O  8.21000 59.35500 36.50000
C  6.69700 60.35900 37.94800
N  3.32500 56.35100 40.36500
C  3.61300 57.56100 39.87500
C  2.49100 58.57500 40.21100
C  1.37600 57.73600 40.74800
C  2.14700 56.40700 40.94600
C  2.90400 59.75600 41.09900
C  0.12600 57.62200 39.74900
C  -1.27600 58.04300 40.40600
N  3.46600 53.73900 41.44400
C  2.26900 54.06500 41.99300
C  1.78000 52.95900 42.81000
C  2.73600 51.94600 42.52100
C  3.64100 52.42700 41.64200
C  0.47000 52.93900 43.74600
C  3.02100 50.52900 42.81900
O  2.59100 49.75400 43.56600
C  4.14900 50.19500 41.76800
C  3.58100 49.13100 40.89200
O  2.62100 49.34100 40.13200
O  4.32200 47.95400 41.03700
C  3.87400 46.72700 40.34400
H  8.70900 54.01800 38.20600
H  4.61000 59.01600 38.88300
H  0.71100 55.51700 42.23300
H  6.72900 50.10200 40.58400
H  8.25600 51.26400 38.45500
H  8.76700 50.86500 41.15000
H  8.93400 52.64800 41.00500
H  9.90300 51.64100 39.97900
H  5.92000 48.91400 38.97800
H  6.94000 49.63600 37.79000
H  4.68000 51.28000 37.80600
H  3.99900 49.61200 38.12800
H  9.80300 57.38700 36.86300
H  9.17300 55.94700 36.15500
H  9.74100 55.94100 37.79600
H  7.29700 61.24100 37.72100
H  6.46100 60.27500 39.00900
H  5.80600 60.40100 37.32200
H  2.20200 59.04200 39.27000
H  0.99500 58.13000 41.69000
H  2.30500 59.92300 41.99400
H  2.61000 60.69100 40.62100
H  3.98000 59.67200 41.25400
H  0.03700 56.61400 39.34200
H  0.20800 58.31100 38.90900
H  -1.15500 58.66700 41.29200
H  -1.74700 57.16500 40.84800
H  -1.90600 58.57500 39.69400
H  0.68800 52.69400 44.78500
H  -0.32100 52.30400 43.34800
H  -0.01800 53.91400 43.75900
H  5.00600 49.69600 42.22200
H  3.87500 45.86800 41.01500
H  4.55500 46.41200 39.55300
H  2.89500 46.77100 39.86600

