158

Mg 17.42700 -1.41000 27.74100
C  16.36500 0.46200 30.41300
C  19.46600 -3.29100 29.96700
C  18.68300 -3.15800 25.15900
C  15.76000 0.57900 25.60000
N  17.78200 -1.46700 29.92700
C  17.15300 -0.61600 30.84200
C  17.61200 -0.91200 32.23800
C  18.69000 -2.03600 32.07500
C  18.67800 -2.25600 30.52000
C  20.16300 -1.65600 32.51000
C  16.42400 -1.17300 33.31800
C  16.56500 -0.43300 34.69700
H  17.75000 -0.82700 35.55900
N  18.73000 -3.06000 27.60100
C  19.45000 -3.71200 28.62100
C  20.00100 -4.98800 28.12200
C  19.81600 -4.91800 26.73500
C  19.03800 -3.68900 26.45900
C  20.64000 -6.12100 28.95600
C  20.37100 -5.79600 25.69700
O  20.28700 -5.61700 24.49800
C  21.10300 -7.09500 26.08600
N  17.32300 -1.18600 25.66900
C  17.92400 -2.04500 24.78500
C  17.73500 -1.63300 23.29600
C  16.60100 -0.55100 23.54300
C  16.56000 -0.37900 25.02500
C  19.07500 -1.07000 22.64500
C  15.25100 -0.78000 22.95400
C  14.62100 0.36500 22.12700
N  16.28100 0.23200 27.89900
C  15.63600 0.93800 26.93600
C  14.86100 2.03300 27.59200
C  15.13900 1.87200 29.02000
C  16.02100 0.81700 29.11700
C  13.98300 3.01100 26.97800
C  14.85600 2.40400 30.28200
O  14.18100 3.40200 30.60700
C  15.67500 1.51200 31.25000
C  16.69400 2.36300 31.82600
O  17.80700 2.54300 31.41900
O  16.23000 2.96500 32.94200
C  17.26500 3.60500 33.84400
H  20.05100 -3.94700 30.61500
H  19.00700 -3.80400 24.34100
H  15.31400 1.21000 24.82900
H  18.20600 -0.06900 32.59100
H  18.31200 -2.97700 32.47400
H  20.07800 -0.66600 32.95800
H  20.89900 -1.63500 31.70600
H  20.57200 -2.39800 33.19500
H  16.36200 -2.23400 33.56300
H  15.48100 -0.96400 32.81300
H  15.61100 -0.57500 35.20700
H  16.50100 0.62700 34.45300
H  20.08200 -7.03500 28.75200
H  20.69000 -5.90400 30.02300
H  21.65500 -6.19700 28.56600
H  22.04600 -6.83900 26.56900
H  21.44700 -7.70800 25.25300
H  20.49500 -7.66700 26.78700
H  17.22100 -2.36000 22.66800
H  16.99500 0.37900 23.13300
H  19.90200 -0.99700 23.35100
H  18.97200 -0.04000 22.30200
H  19.40300 -1.71800 21.83200
H  14.56200 -1.13400 23.72100
H  15.29600 -1.60100 22.23900
H  13.74400 0.82100 22.58500
H  14.32500 0.04500 21.12800
H  15.29900 1.20800 21.99200
H  14.54900 3.92200 26.78200
H  13.22500 3.21400 27.73500
H  13.49100 2.62400 26.08600
H  15.12700 1.13700 32.11400
H  16.94300 4.52300 34.33600
H  18.20600 3.90100 33.38100
H  17.41100 2.82200 34.58800
Mg 43.83300 3.73600 47.59000
C  41.52700 6.33800 47.38100
C  41.10400 1.48000 47.44000
C  46.00900 1.34300 47.02000
C  46.42600 6.19700 47.03000
N  41.57700 3.85700 47.24200
C  40.88200 5.04900 47.40800
C  39.33900 4.79200 47.70700
C  39.32500 3.24100 47.85300
C  40.74400 2.82200 47.55900
C  38.86000 2.76200 49.22500
C  38.39200 5.36800 46.56200
C  38.84100 5.01500 45.10500
H  39.17500 6.14300 44.19900
N  43.58400 1.67600 47.30800
C  42.40400 0.93500 47.35600
C  42.74900 -0.37300 47.00400
C  44.16500 -0.52100 47.08100
C  44.62500 0.86700 47.13300
C  41.68800 -1.40600 46.57200
C  44.96300 -1.80800 46.88400
O  44.36400 -2.84100 46.66600
C  46.47700 -1.86500 46.99400
N  45.92200 3.74200 47.06200
C  46.57700 2.61100 47.07400
C  48.09500 2.82100 47.00100
C  48.22400 4.39900 47.07400
C  46.77100 4.82000 46.96100
C  49.01900 2.01300 48.01400
C  49.18800 5.09900 46.07200
C  50.44700 5.65600 46.71300
N  44.05800 5.91000 47.37600
C  45.14900 6.71900 47.21000
C  44.64700 8.08400 47.30000
C  43.26000 8.03200 47.32900
C  42.97300 6.62200 47.31400
C  45.52300 9.31700 47.47400
C  41.96900 8.72300 47.35800
O  41.76200 9.93800 47.38800
C  40.83600 7.68300 47.42200
C  39.93800 7.93000 48.63300
O  40.12800 7.46200 49.71000
O  38.82800 8.68000 48.32600
C  37.88600 8.91300 49.40300
H  40.26900 0.79300 47.58900
H  46.75100 0.55100 46.89500
H  47.23400 6.93100 46.99500
H  39.06300 5.31200 48.62400
H  38.74100 2.79500 47.04700
H  39.66800 2.47800 49.90000
H  38.16000 1.94700 49.03800
H  38.30500 3.52700 49.76700
H  38.32300 6.45500 46.61300
H  37.41200 4.93700 46.76500
H  38.03300 4.44800 44.64500
H  39.73200 4.39000 45.04800
H  42.01400 -1.80900 45.61300
H  40.74700 -0.86200 46.49500
H  41.73700 -2.14000 47.37700
H  46.66900 -1.39600 47.96000
H  46.89500 -1.44300 46.08000
H  46.68300 -2.92700 46.86300
H  48.41800 2.58200 45.98700
H  48.53000 4.69900 48.07600
H  49.53100 1.22200 47.46500
H  48.37300 1.59600 48.78700
H  49.69100 2.77100 48.41600
H  48.69800 5.83700 45.43700
H  49.56700 4.29000 45.44800
H  51.31100 5.28900 46.16000
H  50.54100 5.37800 47.76300
H  50.39500 6.73500 46.57200
H  45.26000 9.96600 46.64000
H  46.55400 9.01400 47.28700
H  45.35100 9.79900 48.43700
H  40.21900 7.89700 46.54900
H  38.46900 9.35400 50.21100
H  37.52600 7.97900 49.83500
H  37.00500 9.45400 49.05800

