158

Mg 25.42400 1.05400 29.32800
C  27.46500 1.00600 32.17000
C  22.68700 1.91700 31.30800
C  23.40100 1.31200 26.57200
C  28.06700 0.12600 27.31100
N  25.10700 1.32400 31.50500
C  26.12200 1.35300 32.48100
C  25.60000 1.67700 33.90200
C  24.03900 1.84700 33.61200
C  23.87100 1.64000 32.06600
C  23.11900 0.83200 34.39400
C  26.16800 2.93600 34.67300
C  26.76600 2.74300 36.08000
H  26.61200 3.84000 37.11200
N  23.32000 1.48000 28.94100
C  22.39000 1.84200 29.88500
C  21.10800 2.17600 29.33000
C  21.36000 1.99600 27.88600
C  22.74400 1.57600 27.72400
C  19.79700 2.43600 30.12600
C  20.24500 2.08000 26.70800
O  20.59700 1.88900 25.59700
C  18.91100 2.50500 26.96900
N  25.62500 0.62600 27.24200
C  24.68800 0.85500 26.31400
C  25.31100 0.87200 24.85000
C  26.75900 0.42700 25.11400
C  26.83700 0.38600 26.65000
C  24.45200 0.08600 23.87400
C  27.85200 1.40900 24.57600
C  29.00800 0.73300 23.86700
N  27.41300 0.61900 29.62000
C  28.39100 0.26100 28.70800
C  29.66600 0.05000 29.43500
C  29.34600 0.37300 30.79500
C  27.96100 0.67400 30.89500
C  30.90400 -0.45500 28.95300
C  29.86800 0.39600 32.15300
O  30.97200 0.16200 32.60400
C  28.63500 0.87200 33.07400
C  28.50300 -0.17600 34.15100
O  28.36600 -1.35400 33.88900
O  28.71500 0.34500 35.45200
C  29.02300 -0.65100 36.55300
H  21.89500 2.17000 32.01500
H  22.80800 1.43700 25.66300
H  28.81900 -0.34700 26.67500
H  25.80000 0.83000 34.55800
H  23.65300 2.85800 33.74200
H  22.62200 0.13000 33.72400
H  22.44300 1.36700 35.06100
H  23.65300 0.20600 35.10900
H  25.39100 3.69900 34.72900
H  26.98400 3.41200 34.12900
H  27.83400 2.74800 35.86400
H  26.67200 1.76600 36.55400
H  19.94500 2.52900 31.20200
H  19.06600 1.67200 29.86000
H  19.26000 3.34400 29.85100
H  18.35100 2.73800 26.06300
H  18.82200 3.47800 27.45200
H  18.33100 1.79200 27.55500
H  25.35600 1.94300 24.65200
H  26.98200 -0.60100 24.82900
H  23.61100 -0.44600 24.31800
H  25.23600 -0.55800 23.47800
H  24.09800 0.78600 23.11700
H  28.32000 1.96500 25.38800
H  27.24800 2.09700 23.98600
H  29.99700 1.16500 24.02100
H  28.73900 0.78300 22.81200
H  29.15800 -0.30900 24.14700
H  30.86400 -1.53500 28.80700
H  31.59900 -0.09100 29.71000
H  31.02700 0.03400 27.98700
H  28.72400 1.68400 33.79500
H  28.23300 -0.58200 37.30100
H  29.97600 -0.42100 37.03000
H  29.07500 -1.64000 36.09700
Mg 42.17600 40.83900 27.10900
C  41.59700 43.09000 29.63200
C  42.77500 38.48600 29.48500
C  42.72000 38.60900 24.57500
C  41.98200 43.31900 24.71100
N  42.31800 40.87400 29.32700
C  41.92100 41.83700 30.16400
C  41.98100 41.41400 31.62200
C  42.76000 40.08500 31.52300
C  42.56000 39.73200 30.01200
C  44.23100 39.95100 32.12600
C  40.58200 41.34500 32.24700
C  40.27200 42.36000 33.40700
H  39.81000 41.85900 34.79100
N  42.56900 38.80700 27.05500
C  42.78100 38.00600 28.15700
C  43.10700 36.65000 27.67300
C  42.97700 36.61200 26.27200
C  42.68200 38.04900 25.91300
C  43.34000 35.42200 28.67300
C  43.11700 35.47800 25.30500
O  43.00800 35.70500 24.09900
C  43.40300 34.05700 25.81900
N  42.24500 40.93000 24.85400
C  42.56700 39.84500 24.10100
C  42.66900 40.28000 22.64100
C  42.55100 41.82000 22.67900
C  42.17400 42.05300 24.16800
C  43.86400 39.67700 21.85200
C  41.52000 42.43300 21.66400
C  40.09000 42.65000 22.18100
N  41.95700 42.84300 27.10000
C  41.81000 43.72200 26.06800
C  41.45900 45.02200 26.61200
C  41.24100 44.74600 27.97300
C  41.63800 43.47100 28.19800
C  41.22800 46.24900 25.85000
C  40.92700 45.46400 29.23700
O  40.59300 46.64600 29.51800
C  40.94000 44.32200 30.34700
C  41.97500 44.76800 31.30000
O  43.18400 44.67200 31.18100
O  41.41300 45.38700 32.35500
C  42.22500 46.00300 33.38800
H  43.02900 37.77500 30.27400
H  43.02400 37.95500 23.75500
H  42.01500 44.10500 23.95300
H  42.60000 42.01600 32.28700
H  42.16500 39.38000 32.10400
H  44.85600 39.60200 31.30400
H  44.11100 39.27400 32.97200
H  44.71000 40.86100 32.48900
H  40.42000 40.34500 32.65000
H  39.86300 41.46200 31.43700
H  39.40600 42.94400 33.09500
H  41.10300 43.05900 33.49000
H  43.42100 35.77800 29.70000
H  44.29500 34.91100 28.55800
H  42.52400 34.71600 28.51500
H  42.49000 33.71800 26.30800
H  44.25700 34.01200 26.49400
H  43.55300 33.40100 24.96100
H  41.77700 40.01700 22.07300
H  43.49700 42.34400 22.54700
H  44.42900 40.48200 21.38300
H  43.65700 38.99400 21.02800
H  44.60000 39.20600 22.50400
H  41.55300 41.69100 20.86600
H  42.03000 43.32500 21.30000
H  39.49900 42.24200 21.36100
H  39.94800 43.71400 22.37100
H  39.76000 42.10700 23.06700
H  41.97400 46.99300 26.12900
H  40.29400 46.70600 26.17600
H  41.22700 46.05800 24.77700
H  39.93600 44.10600 30.71300
H  42.30800 45.19400 34.11400
H  41.71600 46.84900 33.84900
H  43.19800 46.25300 32.96400

