158

Mg 6.14200 53.66900 41.76700
C  5.40800 50.19900 41.54700
C  9.10900 53.11100 40.34500
C  6.53200 57.03900 41.44800
C  2.85400 54.17600 42.92900
N  7.03100 51.88700 40.91100
C  6.64000 50.57000 41.00300
C  7.77400 49.62900 40.56400
C  8.97100 50.53600 40.81600
C  8.38300 51.98000 40.63000
C  9.78800 50.39100 42.14100
C  7.64500 49.12300 39.09300
C  7.34700 50.26400 38.06900
H  6.15600 50.25800 37.29700
N  7.65100 54.93800 41.12900
C  8.86700 54.49100 40.50700
C  9.78500 55.65000 40.30700
C  8.98800 56.80900 40.57700
C  7.61900 56.27600 41.07200
C  11.21900 55.44500 39.79500
C  9.48200 58.18500 40.43600
O  10.55800 58.33500 39.93500
C  8.71200 59.43300 40.90200
N  4.82300 55.33800 42.11000
C  5.29400 56.67900 42.01100
C  4.16900 57.67400 42.40000
C  2.99200 56.78100 42.89300
C  3.53000 55.35400 42.62000
C  4.60800 58.78700 43.41000
C  1.55200 56.99000 42.17200
C  0.25000 56.92400 42.95900
N  4.47400 52.46400 42.30000
C  3.22300 52.79700 42.81500
C  2.52700 51.63700 43.20600
C  3.33100 50.57200 42.62200
C  4.50400 51.17700 42.09800
C  1.26800 51.41400 43.90200
C  3.40900 49.09700 42.47000
O  2.66800 48.15800 42.80500
C  4.69700 48.79900 41.61200
C  4.24800 48.32000 40.39800
O  3.39700 48.78800 39.69400
O  4.88200 47.13400 40.07200
C  4.64400 46.45300 38.76800
H  10.15700 53.00700 40.05500
H  6.53900 58.12800 41.36500
H  1.85500 54.30700 43.35000
H  7.71400 48.77900 41.24400
H  9.67300 50.40100 39.99300
H  9.55100 49.50200 42.72500
H  9.64900 51.17300 42.88800
H  10.83400 50.28500 41.85600
H  6.91600 48.31400 39.12200
H  8.56700 48.59800 38.84300
H  8.26500 50.33300 37.48500
H  7.22600 51.21300 38.59000
H  11.77400 56.37400 39.93400
H  11.35200 55.14400 38.75600
H  11.78200 54.87500 40.53400
H  7.75600 59.47600 40.38000
H  9.22800 60.38500 41.02300
H  8.54300 59.17000 41.94600
H  3.76600 58.09500 41.47900
H  2.89200 56.91900 43.97000
H  5.64900 58.66200 43.70700
H  4.12100 58.63100 44.37300
H  4.19300 59.74800 43.10500
H  1.43500 56.25900 41.37100
H  1.50900 57.96200 41.68000
H  0.45900 57.14600 44.00600
H  -0.15900 55.91400 42.93700
H  -0.56000 57.59700 42.68000
H  1.22800 51.70100 44.95200
H  0.97200 50.37300 43.76900
H  0.49000 52.00800 43.42300
H  5.24300 48.09400 42.23900
H  5.55000 46.21900 38.20900
H  3.89500 46.96600 38.16500
H  4.11900 45.55700 39.09900
Mg -6.14100 25.52300 25.65900
C  -4.55800 26.62500 28.46300
C  -7.91700 23.34700 27.63300
C  -7.59400 24.15100 22.81600
C  -4.51000 27.90800 23.72200
N  -6.27200 25.01400 27.82900
C  -5.50000 25.59100 28.80300
C  -5.95100 25.21000 30.19000
C  -6.63400 23.86000 29.83700
C  -6.97500 24.04900 28.36600
C  -5.82000 22.54200 30.07000
C  -6.83100 26.34600 30.76300
C  -6.90100 26.54200 32.20200
H  -6.09500 25.61100 33.06600
N  -7.53200 23.89700 25.30900
C  -8.17000 23.20300 26.27200
C  -9.10800 22.31400 25.66000
C  -8.83000 22.40400 24.26400
C  -7.97500 23.52600 24.04600
C  -10.00400 21.44200 26.50900
C  -9.30400 21.45400 23.16000
O  -9.06700 21.71800 21.97900
C  -10.17200 20.21700 23.49800
N  -5.99600 25.82900 23.57700
C  -6.69500 25.15800 22.61500
C  -6.40500 25.70500 21.18000
C  -5.66200 27.11000 21.49800
C  -5.35100 26.96300 23.03000
C  -5.51400 24.74500 20.32000
C  -6.38300 28.47300 20.99100
C  -5.63500 29.37100 19.94400
N  -4.68900 26.98700 25.96800
C  -4.13800 27.86200 25.12900
C  -3.20200 28.75400 25.86400
C  -3.36900 28.19200 27.18300
C  -4.31100 27.21100 27.20600
C  -2.19000 29.66800 25.20000
C  -2.82700 28.35100 28.53400
O  -2.00900 29.13000 29.00300
C  -3.62300 27.38500 29.37800
C  -2.66400 26.54400 30.13500
O  -2.14600 25.56400 29.69600
O  -2.45800 27.06800 31.42100
C  -1.49800 26.28900 32.25200
H  -8.46100 22.70600 28.33000
H  -8.12900 23.92300 21.89200
H  -4.19100 28.75200 23.10800
H  -5.11900 24.99600 30.86100
H  -7.49200 23.76400 30.50300
H  -5.54100 22.00600 29.16400
H  -6.40500 21.77200 30.57200
H  -4.85900 22.59700 30.58200
H  -7.87400 26.24000 30.46400
H  -6.59400 27.31000 30.31100
H  -7.91200 26.43900 32.59700
H  -6.68900 27.56900 32.50000
H  -9.89900 20.36000 26.43600
H  -11.02900 21.66500 26.21000
H  -10.11300 21.67900 27.56700
H  -10.31100 19.49000 22.69800
H  -11.09700 20.46600 24.01900
H  -9.59700 19.64600 24.22700
H  -7.36200 25.92200 20.70600
H  -4.67500 26.93700 21.07000
H  -4.84400 24.17200 20.96100
H  -4.89000 25.29000 19.61100
H  -6.21400 24.09800 19.79200
H  -6.42900 29.04400 21.91800
H  -7.33100 28.19800 20.53100
H  -6.11600 30.34400 19.84300
H  -5.63600 28.79700 19.01700
H  -4.65000 29.44900 20.40200
H  -1.75900 29.21600 24.30700
H  -1.34200 29.78900 25.87400
H  -2.53900 30.67400 24.96800
H  -4.26000 27.93800 30.06800
H  -2.09000 26.06200 33.13900
H  -0.64400 26.85700 32.62100
H  -1.03800 25.39300 31.83500

