158

Mg 2.90700 -1.25100 42.04700
C  6.26200 -0.30300 41.90100
C  2.05400 1.65100 40.37200
C  -0.22900 -2.62400 41.46000
C  3.95600 -4.41800 43.24900
N  4.03400 0.55800 41.32700
C  5.39300 0.74000 41.41600
C  5.75700 2.00100 40.72600
C  4.39000 2.62700 40.43800
C  3.39800 1.56400 40.74800
C  4.09400 3.95300 41.25500
C  6.76300 1.82000 39.55300
C  6.97500 0.47700 38.80900
H  6.66900 0.45600 37.29900
N  1.18900 -0.57800 41.05500
C  1.04600 0.70200 40.53500
C  -0.37700 0.75700 40.09700
C  -1.07800 -0.39400 40.50200
C  -0.03600 -1.25100 41.07100
C  -0.96100 2.10300 39.48300
C  -2.57200 -0.55200 40.43500
O  -3.29700 0.32100 39.97400
C  -3.27800 -1.63600 41.19900
N  2.08100 -3.30400 42.26100
C  0.73400 -3.53000 41.91600
C  0.32100 -5.01200 42.19900
C  1.69300 -5.57100 42.78400
C  2.64700 -4.37500 42.77900
C  -0.96600 -5.17300 43.01800
C  2.28100 -6.82400 42.06100
C  2.87900 -7.90200 43.01200
N  4.70200 -2.14900 42.67400
C  4.98800 -3.43200 43.19900
C  6.41100 -3.56500 43.30400
C  6.94700 -2.38300 42.86000
C  5.84500 -1.53100 42.49100
C  7.03400 -4.78500 43.90400
C  8.19300 -1.63500 42.59600
O  9.32100 -2.01500 42.82300
C  7.76800 -0.30000 42.04000
C  8.38000 0.82300 42.81600
O  9.28500 1.49700 42.39100
O  7.98100 0.87500 44.14300
C  8.66000 1.77800 45.10700
H  1.63000 2.57500 39.97300
H  -1.09900 -3.15600 41.06700
H  4.21000 -5.44600 43.51800
H  6.32700 2.61700 41.42100
H  4.13000 2.84200 39.40100
H  3.04600 4.21000 41.09800
H  4.59100 4.85300 40.89300
H  4.31900 3.88800 42.31900
H  7.68900 2.23600 39.94900
H  6.54700 2.64200 38.87000
H  6.38100 -0.33600 39.22800
H  8.03500 0.22600 38.84800
H  -0.22900 2.78800 39.05500
H  -1.57300 2.63700 40.20900
H  -1.50200 1.74100 38.60800
H  -4.35800 -1.52000 41.10800
H  -2.95200 -1.35400 42.20000
H  -3.03700 -2.64200 40.85700
H  0.04100 -5.49100 41.26100
H  1.54100 -5.82300 43.83400
H  -1.36600 -4.18400 43.24600
H  -0.71800 -5.70400 43.93700
H  -1.76300 -5.66300 42.46000
H  3.06300 -6.44800 41.40200
H  1.57100 -7.23700 41.34400
H  3.87800 -8.07800 42.61300
H  2.31100 -8.82200 43.14900
H  3.09100 -7.60400 44.03900
H  7.28000 -5.46800 43.09200
H  6.34500 -5.25900 44.60300
H  7.94700 -4.42700 44.38000
H  8.23700 -0.24300 41.05800
H  8.19800 2.76300 45.04700
H  9.70000 1.99100 44.86200
H  8.57500 1.45100 46.14300
Mg 0.07600 8.17200 26.72700
C  0.79000 10.40500 29.33100
C  -0.41300 5.71100 29.03000
C  0.06700 5.91500 24.14600
C  0.79600 10.70000 24.43100
N  0.36800 7.99500 28.92700
C  0.56900 9.05100 29.76300
C  0.24800 8.69000 31.27300
C  0.09100 7.14700 31.10100
C  0.04500 6.90800 29.58400
C  1.25800 6.26200 31.73400
C  -1.05200 9.40600 31.76100
C  -1.23500 9.60200 33.27200
H  -0.03600 9.30700 34.11000
N  -0.11100 6.14300 26.57600
C  -0.48500 5.35700 27.68700
C  -0.73600 4.05800 27.17800
C  -0.67800 4.05200 25.73200
C  -0.19200 5.40500 25.38900
C  -1.04400 2.88300 28.16200
C  -0.98900 2.96400 24.70300
O  -0.89700 3.03000 23.49300
C  -1.49100 1.65500 25.18900
N  0.64500 8.27300 24.61200
C  0.41400 7.23300 23.72700
C  0.67500 7.57900 22.31500
C  0.50000 9.21600 22.31600
C  0.59700 9.44900 23.87000
C  1.90000 6.99300 21.65200
C  -0.81500 9.71800 21.74200
C  -0.69400 10.88900 20.73300
N  0.71400 10.10600 26.70300
C  0.85200 11.09700 25.76800
C  1.19300 12.33300 26.36300
C  1.10200 12.10600 27.71200
C  0.80200 10.77000 27.92500
C  1.38000 13.63900 25.64600
C  1.24700 12.76100 29.01500
O  1.55300 13.87200 29.28300
C  1.11000 11.67000 30.12700
C  2.34600 11.66300 30.90000
O  3.37400 11.09000 30.53300
O  2.14500 12.30800 32.10600
C  3.28600 12.34100 33.06800
H  -0.74600 5.02700 29.81400
H  -0.09200 5.29800 23.26000
H  0.66600 11.57000 23.78300
H  1.16500 8.94900 31.80200
H  -0.80000 6.74900 31.58800
H  0.90600 5.46600 32.39100
H  1.88100 6.94800 32.30800
H  1.91200 5.83100 30.97700
H  -1.84200 8.72100 31.45400
H  -1.26100 10.36700 31.29100
H  -2.04400 8.93800 33.57600
H  -1.56600 10.61900 33.48300
H  -0.82600 3.00700 29.22300
H  -0.63400 1.95700 27.75800
H  -2.12500 2.75900 28.21500
H  -1.85500 1.15000 24.29400
H  -2.35500 1.79900 25.83800
H  -0.68200 1.26200 25.80400
H  -0.11000 7.11300 21.72000
H  1.38200 9.65600 21.84900
H  2.61800 6.78600 22.44600
H  2.26200 7.59900 20.82200
H  1.67000 6.00500 21.25400
H  -1.48400 10.11800 22.50400
H  -1.20400 8.81200 21.27900
H  0.28900 10.99600 20.27300
H  -0.92200 11.83000 21.23300
H  -1.40200 10.74200 19.91700
H  0.86000 13.70800 24.69100
H  2.41600 13.95500 25.52900
H  1.09900 14.45700 26.31000
H  0.25200 11.91800 30.75100
H  4.12800 12.51200 32.39600
H  3.37900 11.32200 33.44200
H  3.09300 12.97300 33.93500

