158

Mg -1.97400 17.04500 26.18700
C  -2.06000 14.69600 28.87800
C  -2.77300 19.42300 28.51400
C  -1.80500 19.12100 23.67900
C  -2.10900 14.36800 23.90300
N  -2.43400 16.98700 28.39000
C  -2.33700 15.99500 29.31400
C  -2.64900 16.46400 30.77500
C  -3.30900 17.84900 30.52500
C  -2.86700 18.14800 29.04200
C  -4.89300 17.64200 30.59100
C  -1.27400 16.53200 31.59400
C  -1.29400 15.79900 32.92600
H  -1.68100 16.67500 33.98700
N  -2.16100 18.98100 26.14600
C  -2.44900 19.81900 27.22700
C  -2.33500 21.20800 26.76400
C  -1.95700 21.17200 25.33100
C  -1.92200 19.74000 24.97900
C  -2.51500 22.32600 27.68000
C  -1.75800 22.29400 24.29200
O  -1.55300 22.09300 23.09300
C  -1.58600 23.67300 24.79500
N  -2.23200 16.71300 24.01700
C  -2.00500 17.82300 23.24200
C  -2.11300 17.40100 21.73400
C  -2.33000 15.84900 21.82200
C  -2.20300 15.59100 23.33600
C  -3.12000 18.12700 20.85400
C  -1.15700 15.15800 21.06400
C  0.28800 15.11900 21.68500
N  -2.05900 14.98600 26.26700
C  -1.93300 14.02700 25.26400
C  -1.80300 12.70000 25.84000
C  -1.83100 12.90400 27.24300
C  -2.04200 14.31000 27.48800
C  -1.79000 11.39200 25.14900
C  -1.76800 12.25600 28.49500
O  -1.57400 11.10400 28.81600
C  -2.00000 13.38200 29.58800
C  -0.93800 13.15100 30.67400
O  0.24100 13.43200 30.53700
O  -1.47100 12.57100 31.74100
C  -0.70000 12.37200 32.96900
H  -2.94800 20.16900 29.29200
H  -1.72600 19.81000 22.83500
H  -2.09500 13.59400 23.13300
H  -3.29700 15.75600 31.29200
H  -2.96200 18.64200 31.18800
H  -5.26500 18.47300 31.19100
H  -5.18400 16.81000 31.23100
H  -5.35900 17.55700 29.61000
H  -1.02800 17.54800 31.90400
H  -0.39700 16.25600 31.00800
H  -0.33200 15.38000 33.21800
H  -2.02100 14.98700 32.89100
H  -2.98500 22.20600 28.65500
H  -3.08400 23.00900 27.04900
H  -1.55800 22.82600 27.82900
H  -0.79500 23.60100 25.54200
H  -2.50700 23.98300 25.29000
H  -1.27500 24.31000 23.96700
H  -1.13600 17.66400 21.32900
H  -3.29100 15.46100 21.48300
H  -2.45900 18.57000 20.10900
H  -3.77900 18.83500 21.35800
H  -3.66700 17.42600 20.22400
H  -0.93200 15.71300 20.15400
H  -1.47800 14.21600 20.62000
H  0.36000 15.52600 22.69400
H  1.02500 15.65100 21.08300
H  0.67800 14.10100 21.70400
H  -1.31000 11.41800 24.17100
H  -2.80400 11.06500 24.92000
H  -1.32200 10.62200 25.76300
H  -2.93800 13.40600 30.14300
H  -0.48200 11.30700 33.03700
H  -1.16300 12.80600 33.85500
H  0.30700 12.79000 32.94000
Mg 36.44200 1.00500 29.69200
C  33.99100 2.04800 32.09800
C  38.71900 1.02400 32.18400
C  38.68000 0.45600 27.31200
C  33.95400 1.41000 27.13000
N  36.31800 1.47400 31.90500
C  35.22700 1.78000 32.64900
C  35.54400 1.74600 34.11400
C  37.11300 1.79000 34.19900
C  37.45400 1.37600 32.69300
C  37.68000 3.19200 34.61600
C  34.92900 0.56300 34.91200
C  34.28600 0.79300 36.31400
H  34.64200 2.16500 37.01300
N  38.46600 0.82000 29.68800
C  39.21600 0.76800 30.83800
C  40.57800 0.36200 30.50900
C  40.57500 0.18000 29.09100
C  39.19100 0.50200 28.65200
C  41.71300 0.33000 31.56900
C  41.60900 -0.30200 28.12900
O  41.44700 -0.49200 26.90200
C  42.88900 -0.81100 28.67600
N  36.22300 0.72500 27.54100
C  37.34700 0.60100 26.85600
C  37.13600 0.76700 25.36900
C  35.53800 0.80200 25.23300
C  35.20200 0.95600 26.69700
C  37.77700 2.16300 24.91500
C  34.78900 -0.36100 24.54000
C  34.39500 -1.54800 25.54200
N  34.37500 1.52900 29.61800
C  33.50100 1.58700 28.50700
C  32.19400 2.07900 28.96200
C  32.39300 2.26500 30.37800
C  33.67100 1.93100 30.73800
C  30.92100 2.37500 28.07800
C  31.61900 2.62200 31.54500
O  30.51000 3.01800 31.76500
C  32.70100 2.50700 32.72100
C  32.83400 3.85900 33.36000
O  33.49300 4.80700 32.96000
O  31.99000 3.82900 34.46600
C  31.56800 4.97200 35.18300
H  39.41800 0.78000 32.98700
H  39.41100 0.31500 26.51300
H  33.26700 1.64600 26.31500
H  35.17600 2.70700 34.47300
H  37.39000 1.08200 34.98000
H  37.51600 3.21300 35.69300
H  37.11200 3.93700 34.05900
H  38.72700 3.20000 34.31100
H  35.59700 -0.29000 35.03000
H  34.08400 0.22000 34.31500
H  34.52400 -0.09000 36.90700
H  33.21100 0.74100 36.14300
H  42.60400 0.78000 31.13200
H  41.84800 -0.70500 31.88200
H  41.56400 1.01800 32.40100
H  43.20600 -0.17600 29.50300
H  43.72500 -0.62400 28.00200
H  42.93800 -1.85100 28.99800
H  37.61600 -0.13800 24.99600
H  35.12100 1.69900 24.77700
H  37.07200 2.94200 25.20800
H  37.85100 2.11300 23.82900
H  38.78900 2.27200 25.30500
H  35.24200 -0.78100 23.64200
H  33.83300 0.05800 24.22500
H  34.56900 -2.55400 25.15900
H  33.34800 -1.58700 25.84000
H  35.01500 -1.55200 26.43900
H  30.89900 1.79300 27.15600
H  31.00700 3.40900 27.74500
H  30.06000 2.29300 28.74200
H  32.32500 1.79500 33.45500
H  30.50300 4.92200 35.40800
H  31.69900 5.88300 34.59900
H  32.10100 5.04100 36.13200

