158

Mg -1.41600 16.73000 26.12400
C  -1.85400 14.64000 28.84600
C  -2.43600 19.31400 27.96400
C  -1.63800 18.57400 23.33700
C  -1.46400 13.80900 23.99500
N  -2.14000 16.89000 28.11300
C  -2.15100 15.96700 29.11300
C  -2.48600 16.55300 30.50000
C  -3.01100 17.98400 30.09100
C  -2.62300 18.10600 28.59500
C  -4.50700 18.17300 30.35600
C  -1.27400 16.45500 31.52700
C  -1.12600 17.41700 32.66000
H  -0.65500 16.71400 33.92300
N  -1.59000 18.73700 25.70600
C  -1.98100 19.67400 26.65600
C  -1.83200 21.00300 26.02800
C  -1.54400 20.78000 24.62500
C  -1.58300 19.30600 24.51100
C  -1.92600 22.37600 26.84600
C  -1.30500 21.77300 23.50300
O  -1.06700 21.37200 22.34300
C  -1.22200 23.28600 23.70700
N  -1.61500 16.27500 24.05800
C  -1.52500 17.26200 23.09400
C  -1.51500 16.67900 21.67400
C  -1.28600 15.16700 21.92300
C  -1.50000 15.02300 23.42100
C  -2.92700 16.95500 20.90200
C  0.20700 14.64000 21.57800
C  1.37000 15.50300 22.17600
N  -1.53200 14.63900 26.33400
C  -1.55500 13.60500 25.39700
C  -1.47500 12.40700 26.06100
C  -1.52400 12.72700 27.43400
C  -1.64000 14.11000 27.55900
C  -1.48400 11.05400 25.55400
C  -1.69000 12.19500 28.78300
O  -1.74800 11.07100 29.17800
C  -1.74600 13.42400 29.80900
C  -0.56700 13.47300 30.71500
O  0.46100 14.00500 30.42400
O  -0.90700 12.87100 31.93700
C  0.04600 12.91000 33.04500
H  -2.70000 20.17200 28.58600
H  -1.64800 19.03300 22.34600
H  -1.24200 12.87300 23.47900
H  -3.27900 15.90500 30.87300
H  -2.35000 18.73200 30.52800
H  -4.98400 17.19400 30.40700
H  -4.87400 18.83000 29.56700
H  -4.68700 18.52000 31.37300
H  -0.38100 16.46500 30.90200
H  -1.36300 15.47800 32.00200
H  -2.02000 18.00900 32.85800
H  -0.34800 18.15900 32.48000
H  -0.98600 22.92400 26.78100
H  -2.17900 22.21000 27.89300
H  -2.60800 23.01400 26.28400
H  -2.11600 23.70400 24.17000
H  -1.09700 23.80400 22.75600
H  -0.34000 23.55100 24.28900
H  -0.67800 17.17200 21.18000
H  -1.95000 14.43600 21.46100
H  -3.43000 15.99300 20.79600
H  -2.68000 17.42400 19.95000
H  -3.45900 17.67200 21.52700
H  0.21900 14.74600 20.49300
H  0.27500 13.57700 21.80900
H  1.65600 16.13400 21.33500
H  2.23600 14.94200 22.52700
H  1.14800 16.13400 23.03600
H  -2.37200 10.58200 25.97400
H  -0.72800 10.50200 26.11100
H  -1.42800 10.98600 24.46700
H  -2.72500 13.40000 30.28800
H  0.28900 13.95000 33.26000
H  1.02300 12.51500 32.76500
H  -0.38300 12.48300 33.95100
Mg 40.21600 8.12300 29.18900
C  41.92000 9.24200 31.93500
C  37.80700 6.75900 31.20500
C  38.97300 6.24300 26.52900
C  42.93100 8.94200 27.19500
N  39.93100 8.03800 31.30300
C  40.69600 8.69500 32.23700
C  40.02300 8.75400 33.59000
C  38.73000 7.82700 33.41900
C  38.78000 7.52700 31.86400
C  38.70700 6.59500 34.30900
C  39.72100 10.20700 34.10900
C  38.87800 10.25400 35.37400
H  39.29500 11.16500 36.56600
N  38.48900 6.76700 28.86900
C  37.62900 6.43600 29.86600
C  36.55700 5.65500 29.29100
C  36.86600 5.49000 27.88900
C  38.16600 6.17700 27.71100
C  35.36800 5.16500 30.15700
C  36.22000 4.61700 26.84800
O  36.61100 4.44300 25.70300
C  34.91200 3.89100 27.21400
N  40.81000 7.64700 27.14800
C  40.12400 6.96700 26.23800
C  40.74300 6.96400 24.80600
C  41.89700 7.92700 25.09000
C  41.84100 8.30400 26.54300
C  41.16400 5.53800 24.25500
C  41.87200 9.16000 24.07800
C  40.91000 10.33200 24.40300
N  42.04900 8.93200 29.46200
C  43.02700 9.23200 28.59400
C  44.16100 9.78400 29.26300
C  43.78100 9.88300 30.56200
C  42.52800 9.28800 30.63400
C  45.46000 10.26500 28.64100
C  44.15600 10.32200 31.84600
O  45.14600 10.88700 32.31400
C  42.90300 10.07900 32.79100
C  43.45200 9.19500 33.86800
O  44.18100 8.20800 33.69100
O  42.75500 9.47800 35.09600
C  43.12300 8.76800 36.26500
H  37.00700 6.40800 31.86000
H  38.54200 5.72100 25.67200
H  43.79300 9.25500 26.60300
H  40.71600 8.25500 34.26800
H  37.75600 8.29200 33.56600
H  39.38800 6.77100 35.14200
H  39.06400 5.74700 33.72500
H  37.73300 6.41800 34.76500
H  39.01600 10.59900 33.37500
H  40.62800 10.77900 34.30600
H  38.77200 9.21200 35.67700
H  37.87300 10.61100 35.14800
H  34.46200 5.38200 29.59100
H  35.18800 5.68300 31.09800
H  35.35800 4.10300 30.40400
H  34.57800 3.11100 26.52900
H  34.10100 4.55700 27.50800
H  35.16600 3.31100 28.10100
H  40.04400 7.32600 24.05200
H  42.81100 7.35700 24.92200
H  40.34100 5.12600 23.67100
H  41.21900 4.78100 25.03700
H  42.12100 5.56200 23.73300
H  41.68500 9.00700 23.01500
H  42.87800 9.56100 24.20200
H  41.42700 11.28800 24.49000
H  40.37200 10.21700 25.34400
H  40.15100 10.40800 23.62500
H  45.34000 10.74200 27.66800
H  46.14200 9.47100 28.33600
H  45.93900 10.83800 29.43400
H  42.58400 11.08500 33.06400
H  42.44200 7.93700 36.44900
H  42.83500 9.49300 37.02600
H  44.17400 8.48500 36.31900

