158

Mg 42.23600 41.63000 27.14000
C  41.66700 44.13000 29.42400
C  43.28000 39.49300 29.53500
C  43.33800 39.61200 24.66100
C  41.56800 44.09800 24.53400
N  42.52700 41.85500 29.27300
C  42.08800 42.91700 30.01600
C  42.02600 42.59400 31.50500
C  42.80300 41.18200 31.47700
C  42.88900 40.79000 30.01400
C  44.15600 41.16900 32.21400
C  40.59500 42.60600 32.06100
C  40.35300 42.99000 33.54400
H  39.93200 41.89300 34.49900
N  43.09600 39.76100 27.10400
C  43.44300 39.03500 28.24500
C  43.99300 37.79800 27.87200
C  43.97000 37.70100 26.39600
C  43.53100 39.07300 25.99100
C  44.37300 36.80100 28.87600
C  44.35300 36.59800 25.43400
O  44.28200 36.76200 24.23500
C  44.75200 35.22000 26.02500
N  42.52900 41.87700 24.89000
C  42.82200 40.82600 24.15600
C  42.67200 41.11400 22.63000
C  41.73900 42.38800 22.65400
C  41.98400 42.80500 24.14500
C  43.90600 41.24500 21.70400
C  40.28400 42.10700 22.25000
C  39.34100 41.58700 23.22900
N  41.69300 43.71600 26.98200
C  41.48800 44.55200 25.87800
C  41.07900 45.83800 26.35200
C  41.05500 45.69500 27.72800
C  41.50600 44.38300 28.04700
C  40.59900 47.04000 25.55700
C  40.76700 46.34800 29.03500
O  40.37400 47.47800 29.24800
C  41.19000 45.35200 30.14300
C  42.17000 46.04700 31.07700
O  43.36200 46.25400 30.87500
O  41.61000 46.33900 32.31400
C  42.61300 46.68500 33.30700
H  43.47100 38.88500 30.42200
H  43.53100 38.89300 23.86200
H  41.21300 44.76900 23.74900
H  42.58200 43.38900 32.00200
H  42.16200 40.42200 31.92400
H  44.18400 40.30400 32.87800
H  44.29900 42.13000 32.70800
H  45.05900 41.06600 31.61100
H  40.22400 41.58400 31.97900
H  39.85700 43.04700 31.39100
H  39.57400 43.74500 33.43900
H  41.22800 43.47200 33.97900
H  45.29800 36.31900 28.56200
H  43.66400 35.97600 28.80700
H  44.47600 37.16300 29.89900
H  44.02400 34.76400 26.69700
H  45.73200 35.30600 26.49400
H  44.90900 34.63100 25.12200
H  42.17300 40.22200 22.25100
H  42.21400 43.18000 22.07500
H  43.90400 40.55300 20.86100
H  44.81100 41.14500 22.30300
H  43.94900 42.25200 21.29000
H  40.19000 41.55500 21.31400
H  39.94300 43.03000 21.78200
H  38.27900 41.64100 22.98800
H  39.29900 42.11900 24.17900
H  39.44200 40.51900 23.42600
H  40.35600 47.92000 26.15200
H  39.67700 46.75400 25.05100
H  41.24400 47.43100 24.77100
H  40.34100 45.15200 30.79700
H  43.35200 45.89100 33.41200
H  42.12100 46.70900 34.27900
H  43.12700 47.62500 33.10600
Mg -1.80100 34.66300 27.19400
C  -3.51000 32.69500 29.59500
C  -0.52000 36.50100 29.84300
C  -0.42900 36.50800 24.85600
C  -3.52600 32.79700 24.71600
N  -2.08700 34.61100 29.49500
C  -2.82600 33.76900 30.26100
C  -2.61300 33.91200 31.75600
C  -1.88600 35.31100 31.75600
C  -1.50600 35.53700 30.26700
C  -2.81700 36.58000 32.19700
C  -1.80400 32.76800 32.42800
C  -2.42200 32.13500 33.67500
H  -1.74100 32.47200 35.00900
N  -0.59400 36.20800 27.34400
C  -0.08800 36.80800 28.50000
C  0.98700 37.77300 28.03900
C  0.95100 37.81400 26.64100
C  -0.06400 36.78400 26.23400
C  1.82200 38.65200 28.97900
C  1.68100 38.77200 25.66500
O  1.52200 38.75100 24.47100
C  2.83500 39.69800 26.20900
N  -1.95400 34.64400 25.07200
C  -1.20400 35.49700 24.31000
C  -1.49100 35.32700 22.78400
C  -2.27900 34.01600 22.78500
C  -2.68900 33.83200 24.30500
C  -2.31900 36.54000 22.01800
C  -1.57400 32.72900 22.16500
C  -0.14200 32.46800 22.63800
N  -3.20300 33.09200 27.09900
C  -3.79500 32.37800 26.03300
C  -4.60000 31.31800 26.52100
C  -4.62400 31.48300 27.90500
C  -3.63100 32.47000 28.24400
C  -5.44300 30.43500 25.66700
C  -5.15300 30.93600 29.07800
O  -5.96100 30.07600 29.32100
C  -4.38000 31.66600 30.25300
C  -5.46000 32.23900 31.13000
O  -6.23000 33.12300 30.81200
O  -5.45100 31.57900 32.30300
C  -6.54100 31.76600 33.18800
H  0.05800 36.90000 30.67900
H  -0.14400 37.06900 23.96400
H  -4.07400 32.25600 23.94200
H  -3.58900 33.96100 32.23900
H  -0.99800 35.18000 32.37400
H  -2.60200 37.48300 31.62500
H  -2.52700 36.70700 33.24000
H  -3.88800 36.38600 32.15700
H  -0.96600 33.21900 32.96100
H  -1.59500 31.87900 31.83200
H  -2.44700 31.05400 33.53300
H  -3.42200 32.51700 33.88000
H  1.44700 39.66000 28.80100
H  2.89200 38.64500 28.77000
H  1.69100 38.37300 30.02500
H  3.39400 40.08100 25.35500
H  3.62000 39.12200 26.69800
H  2.41800 40.53400 26.77000
H  -0.54900 35.15500 22.26300
H  -3.23600 34.09900 22.26900
H  -2.68500 37.31100 22.69600
H  -3.23500 36.19400 21.53900
H  -1.67000 36.97000 21.25500
H  -1.59900 32.87900 21.08600
H  -2.21300 31.89100 22.44500
H  -0.02000 31.42500 22.93200
H  0.06100 32.96300 23.58800
H  0.62500 32.78800 21.93200
H  -4.77500 29.72200 25.18300
H  -5.81100 31.07100 24.86200
H  -6.28200 29.95000 26.16600
H  -3.86800 30.85200 30.76700
H  -6.78400 30.85300 33.73100
H  -7.41800 32.09500 32.63000
H  -6.26800 32.52000 33.92700

