158

Mg 7.25200 53.96000 40.88400
C  7.16200 50.46400 40.52200
C  10.52200 54.00800 39.92800
C  7.00500 57.39800 40.51600
C  3.82600 53.97200 41.68000
N  8.66900 52.40700 40.22400
C  8.44200 51.08800 40.16800
C  9.71500 50.35500 39.85100
C  10.80800 51.42100 39.87000
C  10.01200 52.70500 40.07000
C  11.92000 51.29900 40.98600
C  9.62600 49.52200 38.57200
C  9.31900 50.26800 37.24800
H  8.13800 49.83400 36.39300
N  8.60700 55.48800 40.39400
C  9.94600 55.30600 39.99300
C  10.52800 56.53900 39.63600
C  9.48900 57.54300 39.65500
C  8.30200 56.80700 40.19800
C  11.97500 56.61300 39.17400
C  9.58900 59.03100 39.18700
O  10.53600 59.45600 38.67700
C  8.46100 59.96600 39.26500
N  5.46900 55.47300 40.75900
C  5.72600 56.83200 40.80500
C  4.53500 57.63500 41.27900
C  3.47000 56.46700 41.44900
C  4.32200 55.18300 41.34500
C  4.64300 58.68600 42.38400
C  2.27900 56.47500 40.44800
C  1.60500 57.83400 40.12400
N  5.78800 52.57700 41.17000
C  4.47500 52.74500 41.53200
C  3.84400 51.43300 41.67800
C  4.85700 50.50700 41.32200
C  6.04300 51.23000 40.95100
C  2.44100 51.16400 42.00700
C  5.13900 49.10200 41.14900
O  4.51700 48.07800 41.39000
C  6.56800 49.07800 40.44000
C  6.24800 48.51800 39.11300
O  5.76800 49.15500 38.21800
O  6.59900 47.14500 39.14700
C  5.97600 46.32300 38.17800
H  11.56500 53.84300 39.65000
H  7.00200 58.48900 40.57400
H  2.88600 53.98800 42.23400
H  9.86000 49.72100 40.72600
H  11.28900 51.29000 38.90100
H  11.57300 52.02800 41.71800
H  12.89100 51.47300 40.52100
H  11.95700 50.29200 41.40100
H  9.03700 48.61900 38.73100
H  10.62900 49.09900 38.52300
H  10.20900 50.19200 36.62300
H  9.24100 51.32300 37.50800
H  11.99900 56.53400 38.08700
H  12.51900 55.79700 39.65000
H  12.49400 57.54800 39.38300
H  7.51600 59.57500 38.88900
H  8.61100 60.91600 38.75100
H  8.36500 60.13700 40.33700
H  4.23900 58.17100 40.37700
H  3.06500 56.54800 42.45800
H  5.71100 58.74100 42.59200
H  4.10200 58.59400 43.32600
H  4.26600 59.63200 41.99600
H  1.41400 56.04400 40.95400
H  2.48200 55.91800 39.53300
H  2.04100 58.69200 40.63500
H  0.56700 57.71600 40.43600
H  1.56700 58.02700 39.05200
H  2.50600 50.63700 42.95900
H  1.96600 50.51500 41.27100
H  1.81400 52.03400 42.20300
H  7.10100 48.37100 41.07600
H  6.66100 46.22600 37.33600
H  5.06200 46.79200 37.81400
H  5.88300 45.38000 38.71700
Mg 0.00600 44.18700 26.43900
C  2.13900 43.91100 29.12500
C  -2.53700 42.72000 28.44000
C  -1.93900 44.00000 23.76800
C  2.63400 45.19700 24.47800
N  -0.17700 43.55200 28.60100
C  0.81600 43.59400 29.49900
C  0.32700 43.27000 30.98700
C  -1.10100 42.68200 30.69500
C  -1.33100 42.99600 29.14900
C  -1.32800 41.18500 30.99500
C  0.30300 44.61900 31.72100
C  1.05700 44.70400 33.03600
H  0.73500 43.49600 34.05500
N  -1.91800 43.47700 26.14300
C  -2.80000 42.88200 27.09800
C  -4.06000 42.60900 26.46200
C  -3.93200 43.10600 25.10900
C  -2.58900 43.56900 24.92000
C  -5.24700 42.13800 27.24100
C  -4.86400 42.88500 23.91400
O  -4.68300 43.40400 22.79900
C  -6.14300 42.07500 24.17100
N  0.30400 44.55200 24.38500
C  -0.67000 44.43900 23.49300
C  -0.19600 44.88600 22.10500
C  1.21400 45.43600 22.35000
C  1.42700 45.04100 23.81700
C  -0.35800 43.83100 20.98100
C  1.55600 46.89500 22.00700
C  1.45500 47.93900 23.08200
N  1.95600 44.42200 26.66900
C  2.93400 44.73000 25.74100
C  4.25900 44.77400 26.39800
C  3.94700 44.48600 27.75700
C  2.59600 44.23300 27.84400
C  5.61900 44.89500 25.72100
C  4.51400 44.27900 29.07100
O  5.68500 44.32500 29.35800
C  3.30900 43.83900 30.03500
C  3.59400 42.58700 30.79400
O  3.30600 41.44800 30.45600
O  4.08300 42.95400 31.98900
C  4.08900 41.85000 32.92500
H  -3.33300 42.23700 29.00900
H  -2.52300 43.83900 22.85900
H  3.55400 45.51300 23.98100
H  0.90700 42.50500 31.50400
H  -1.89200 43.23200 31.20400
H  -0.48900 40.74600 31.53600
H  -1.52800 40.56100 30.12400
H  -2.21700 41.12100 31.62300
H  -0.72500 44.93300 31.90300
H  0.74300 45.32400 31.01500
H  0.88000 45.66400 33.52000
H  2.13400 44.82400 32.91500
H  -5.27100 42.44000 28.28800
H  -5.34600 41.05300 27.23600
H  -6.12900 42.62700 26.82500
H  -6.47800 41.72000 23.19700
H  -6.82600 42.79600 24.62000
H  -6.02100 41.25300 24.87600
H  -0.83900 45.72500 21.83900
H  1.96300 44.87800 21.78800
H  0.55000 43.87600 20.38000
H  -1.14900 44.19800 20.32700
H  -0.63200 42.84700 21.36200
H  0.86600 47.36700 21.30800
H  2.52100 46.82800 21.50500
H  2.47400 48.27100 23.28200
H  0.98400 47.64400 24.02000
H  0.94000 48.83000 22.72500
H  5.76900 45.97200 25.64500
H  5.58300 44.47600 24.71500
H  6.39300 44.39500 26.30400
H  3.22900 44.68400 30.71800
H  3.14100 41.31400 32.94600
H  4.45000 42.18300 33.89800
H  4.89100 41.15000 32.68900

