158

Mg 43.55500 4.33100 47.15000
C  41.87000 7.26400 46.46900
C  40.60600 2.60500 46.23100
C  45.36300 1.51800 46.58800
C  46.53900 6.22100 47.10400
N  41.57700 4.89900 46.15300
C  41.10800 6.18200 46.06900
C  39.60800 6.15500 45.79800
C  39.21200 4.74400 46.31400
C  40.48700 4.01200 46.26300
C  38.56300 4.60900 47.78800
C  39.24300 6.36800 44.30300
C  38.61900 7.75600 43.93900
H  39.35700 8.48400 42.82100
N  43.07800 2.26600 46.69600
C  41.77800 1.81800 46.44800
C  41.81500 0.34100 46.26900
C  43.19000 -0.01800 46.28500
C  43.97500 1.29500 46.51000
C  40.62000 -0.46800 45.94500
C  43.71600 -1.38600 46.17800
O  42.94000 -2.33000 46.11800
C  45.17800 -1.82400 46.25200
N  45.70600 3.89500 46.92000
C  46.19000 2.60400 46.80800
C  47.71600 2.63500 46.89900
C  48.05900 4.13400 47.08400
C  46.68700 4.80100 46.98900
C  48.17900 1.66300 47.99200
C  49.14100 4.68700 46.12500
C  50.39300 5.36600 46.75900
N  44.08500 6.29200 47.02900
C  45.32200 6.95100 47.05600
C  45.12200 8.41000 47.20000
C  43.80200 8.55900 46.94500
C  43.23500 7.24000 46.77900
C  46.11400 9.45000 47.35600
C  42.72900 9.54700 46.77800
O  42.72200 10.76600 47.02700
C  41.43500 8.68900 46.52500
C  40.58200 8.96200 47.71700
O  40.73400 8.45400 48.80800
O  39.68200 9.93600 47.48400
C  38.88300 10.40900 48.65400
H  39.65100 2.07500 46.22400
H  45.99600 0.65700 46.36700
H  47.45600 6.73400 47.40400
H  39.04500 6.93400 46.31200
H  38.61400 4.16300 45.61300
H  38.30800 5.56500 48.24600
H  39.20200 4.02900 48.45400
H  37.64500 4.03800 47.64600
H  38.52300 5.60800 44.00200
H  40.13800 6.18500 43.70800
H  38.82600 8.39700 44.79600
H  37.53700 7.72000 43.81600
H  40.51900 -0.88400 44.94300
H  39.70300 0.10800 46.06800
H  40.56400 -1.25900 46.69300
H  45.62700 -1.31000 45.40200
H  45.27900 -2.90100 46.11900
H  45.57400 -1.50300 47.21500
H  48.11300 2.19800 45.98300
H  48.39800 4.28400 48.11000
H  48.70300 2.19800 48.78400
H  48.79600 0.84300 47.62400
H  47.29300 1.26700 48.48900
H  48.74900 5.42200 45.42300
H  49.48000 3.86000 45.50100
H  51.14600 4.75600 46.26000
H  50.44200 5.37700 47.84800
H  50.45500 6.40700 46.44000
H  45.77300 10.47500 47.20800
H  46.93000 9.10800 46.71900
H  46.45500 9.43000 48.39100
H  40.82800 8.88500 45.64100
H  39.52900 11.03800 49.26700
H  38.49500 9.55800 49.21400
H  37.99200 10.92600 48.29700
Mg 6.46000 53.96900 40.73500
C  5.42000 50.55600 40.45800
C  9.58100 53.02200 39.75100
C  7.01100 57.18900 40.27000
C  3.03600 54.66000 41.77900
N  7.20200 52.10300 39.85900
C  6.67500 50.82100 39.85400
C  7.64900 49.80400 39.15000
C  9.00100 50.52600 39.47600
C  8.60300 52.01200 39.66500
C  9.70800 49.90500 40.75600
C  7.22900 49.66800 37.65400
C  7.59500 48.26800 36.93500
H  6.73200 47.84900 35.80200
N  8.15900 54.96700 40.12100
C  9.33300 54.39200 39.81100
C  10.23800 55.43200 39.55000
C  9.60400 56.69000 39.71300
C  8.14400 56.34300 40.01800
C  11.72700 55.20500 39.15600
C  10.22400 58.01200 39.51100
O  11.42600 58.13000 39.20600
C  9.43100 59.30000 39.50800
N  5.17800 55.60800 40.81900
C  5.68100 56.89200 40.65300
C  4.52900 57.94000 40.92700
C  3.38800 57.08700 41.57500
C  3.96000 55.68800 41.47200
C  4.94100 59.18600 41.79300
C  1.95500 57.15100 40.90500
C  1.40900 58.60300 40.59500
N  4.60400 52.86300 41.17500
C  3.41400 53.27900 41.68400
C  2.51800 52.14300 41.98700
C  3.31500 51.06300 41.56200
C  4.51000 51.53600 41.05300
C  1.17400 52.11600 42.55700
C  3.41600 49.60600 41.36600
O  2.61500 48.70100 41.65300
C  4.85200 49.19800 40.77100
C  4.69900 48.29000 39.57300
O  4.21400 48.52600 38.49700
O  5.05100 47.01100 39.94900
C  5.02900 45.92600 38.97000
H  10.58300 52.66600 39.49800
H  7.13000 58.27400 40.30300
H  2.06300 54.95200 42.18000
H  7.57800 48.83200 39.63800
H  9.66500 50.31300 38.63800
H  9.13700 49.13600 41.27800
H  9.92300 50.71300 41.45600
H  10.61500 49.40600 40.41700
H  7.82200 50.45300 37.18500
H  6.21600 50.00500 37.43100
H  7.60200 47.52900 37.73700
H  8.61200 48.49100 36.61300
H  11.90100 54.13300 39.06500
H  12.40900 55.62400 39.89600
H  11.96200 55.63500 38.18300
H  10.04500 60.19200 39.37500
H  8.97800 59.20500 40.49400
H  8.81100 59.29100 38.61200
H  4.17100 58.25300 39.94600
H  3.18900 57.25500 42.63300
H  4.06200 59.64200 42.24800
H  5.40700 59.88300 41.09600
H  5.73300 58.96000 42.50700
H  1.28900 56.65100 41.60800
H  2.02900 56.63800 39.94600
H  2.05600 59.34400 41.06500
H  0.36500 58.72900 40.88000
H  1.44300 58.61100 39.50500
H  0.64000 53.06600 42.54600
H  1.16900 51.74300 43.58100
H  0.64500 51.31000 42.04700
H  5.47200 48.68100 41.50400
H  4.20800 45.99600 38.25600
H  5.06700 44.96000 39.47300
H  5.88000 46.09400 38.31100

