158

Mg 1.37200 7.62100 25.47900
C  1.98200 9.48700 28.41500
C  1.42900 4.81600 27.39900
C  0.73200 5.82500 22.69500
C  1.64200 10.46500 23.58200
N  1.76800 7.22500 27.70700
C  1.76900 8.10500 28.68700
C  1.77700 7.45300 30.13600
C  1.81900 5.96100 29.73800
C  1.60900 5.95300 28.18900
C  3.00800 5.18000 30.27800
C  0.53800 8.05300 30.96100
C  0.91600 8.51400 32.37100
H  1.99200 7.68600 33.04400
N  1.22400 5.51600 25.09000
C  1.25700 4.53000 25.98300
C  1.08900 3.19300 25.30900
C  0.96000 3.58300 23.91900
C  0.92800 5.01900 23.83100
C  1.17700 1.81900 25.95100
C  0.85900 2.56800 22.76700
O  0.63200 2.96100 21.65000
C  0.85400 1.12300 22.92100
N  1.24200 8.03700 23.38500
C  0.88500 7.18300 22.45900
C  0.65600 7.88100 21.04500
C  0.93000 9.40500 21.38600
C  1.21000 9.32800 22.92500
C  1.63700 7.21800 20.03600
C  -0.23600 10.33200 21.00500
C  0.29400 11.62200 20.29800
N  1.68700 9.61100 25.89200
C  1.83800 10.64200 24.97400
C  2.19300 11.86500 25.73700
C  2.26900 11.41800 27.05400
C  1.96600 10.05900 27.09700
C  2.38900 13.25000 25.24300
C  2.51600 11.88900 28.44000
O  2.82800 13.02500 28.75400
C  2.25900 10.66300 29.41900
C  3.44700 10.54400 30.23600
O  4.51900 10.27400 29.88200
O  3.18000 11.08100 31.48100
C  4.28500 11.42000 32.38600
H  1.37200 3.83800 27.88300
H  0.35200 5.33800 21.79500
H  1.75300 11.36500 22.97200
H  2.64100 7.87400 30.65000
H  0.90800 5.51700 30.13900
H  3.72800 5.92700 30.61100
H  3.31900 4.49800 29.48700
H  2.60200 4.54700 31.06700
H  -0.30000 7.36100 31.04800
H  0.20800 8.94700 30.43100
H  0.07100 8.53600 33.05900
H  1.28100 9.52500 32.18800
H  1.27900 1.92800 27.03100
H  2.00800 1.21900 25.57900
H  0.24800 1.28000 25.76600
H  0.86300 0.63300 21.94700
H  -0.08000 0.95000 23.45500
H  1.65200 0.60600 23.45500
H  -0.38100 7.69600 20.76200
H  1.80600 9.77300 20.85100
H  2.61000 7.11000 20.51700
H  1.60000 7.82100 19.12900
H  1.39500 6.17800 19.81800
H  -0.70200 10.80300 21.87000
H  -0.95700 9.78200 20.40100
H  -0.32000 12.39600 20.75800
H  -0.02600 11.45500 19.27000
H  1.36100 11.84700 20.30300
H  2.86200 13.86900 26.00500
H  1.43500 13.64300 24.89200
H  3.00900 13.22000 24.34600
H  1.41900 10.91100 30.06800
H  3.97000 11.44800 33.42900
H  4.62300 12.42400 32.13000
H  5.06800 10.66600 32.29500
Mg 48.31500 14.28700 27.21900
C  46.36300 14.38300 30.26300
C  50.68300 16.23000 28.79400
C  50.09700 14.05900 24.48300
C  45.49000 13.00000 25.67800
N  48.41700 15.23600 29.29200
C  47.49900 15.20900 30.32800
C  48.03100 15.96700 31.52600
C  49.29700 16.70000 30.91200
C  49.52800 16.00700 29.59100
C  48.83100 18.20500 30.66500
C  48.28300 15.04200 32.72000
C  47.59600 15.31000 34.16200
H  48.45600 15.09900 35.42200
N  50.13500 15.04600 26.66600
C  50.97500 15.76100 27.52500
C  52.23200 15.97300 26.83000
C  52.20900 15.18900 25.63000
C  50.76400 14.72000 25.54400
C  53.36900 16.69000 27.50000
C  53.34800 14.83400 24.71700
O  53.17100 14.13700 23.73700
C  54.82100 15.29300 24.99000
N  47.80000 13.79600 25.28700
C  48.72200 13.83900 24.32900
C  48.21300 13.16800 22.98400
C  46.69500 12.80100 23.37900
C  46.59600 13.33400 24.82900
C  48.48000 14.11700 21.79400
C  46.36200 11.29800 23.20700
C  47.02200 10.34300 24.09900
N  46.36600 13.81100 27.82600
C  45.38200 13.20300 27.02400
C  44.30400 12.76300 27.85200
C  44.73100 13.22300 29.06600
C  45.91500 13.90100 29.01800
C  43.13600 11.88700 27.51300
C  44.21900 13.27200 30.40300
O  43.12900 12.98700 30.85900
C  45.28100 14.11600 31.26200
C  44.43200 15.28600 31.81600
O  44.30800 16.34500 31.32700
O  43.87600 14.87400 32.99500
C  42.98200 15.79800 33.72600
H  51.50000 16.77600 29.27000
H  50.76400 13.84700 23.64500
H  44.62100 12.53200 25.21300
H  47.27900 16.71300 31.78200
H  50.16000 16.64000 31.57400
H  49.50700 18.91800 31.13700
H  47.82100 18.39200 31.03000
H  48.95300 18.42000 29.60300
H  49.34400 14.90700 32.93000
H  48.03400 14.01100 32.46600
H  46.73400 14.64400 34.19700
H  47.35300 16.37200 34.15900
H  53.09600 17.68700 27.84600
H  54.27400 16.70700 26.89300
H  53.63600 16.08900 28.36900
H  55.22400 14.91500 25.93000
H  54.85100 16.37600 24.87400
H  55.34500 14.84700 24.14500
H  48.78100 12.24700 22.85500
H  46.05700 13.47000 22.80200
H  49.19600 13.72100 21.07400
H  49.02300 14.95900 22.22200
H  47.55900 14.53000 21.38200
H  46.72100 11.05700 22.20600
H  45.28700 11.13000 23.14900
H  47.52900 10.88500 24.89700
H  47.65900 9.64400 23.55600
H  46.26800 9.70200 24.55600
H  42.72500 11.37000 28.38000
H  43.52800 11.20300 26.76000
H  42.32000 12.46300 27.07600
H  45.57800 13.54400 32.14100
H  43.63300 16.64800 33.93200
H  42.56200 15.23200 34.55700
H  42.24900 16.15700 33.00300

