158

Mg 48.65300 15.85600 29.34000
C  46.38900 15.30300 31.92400
C  50.83000 17.23300 31.59800
C  50.77500 16.29100 26.71400
C  46.30200 14.44200 27.12100
N  48.54100 16.30200 31.57300
C  47.60000 15.84000 32.42100
C  48.10200 15.99400 33.86500
C  49.34100 16.94500 33.71300
C  49.67300 16.76600 32.19100
C  49.18100 18.41500 34.16300
C  48.50500 14.60500 34.45400
C  48.36100 14.26300 36.00700
H  48.08200 15.52200 36.84300
N  50.53200 16.65600 29.18700
C  51.23300 17.21900 30.20100
C  52.43200 17.70100 29.63600
C  52.48800 17.38900 28.25700
C  51.19500 16.82000 27.98400
C  53.45000 18.47600 30.46700
C  53.50500 17.77400 27.14900
O  53.26500 17.68100 25.91100
C  54.83100 18.25600 27.61400
N  48.53100 15.38800 27.15100
C  49.47300 15.81200 26.31900
C  49.11300 15.54900 24.83400
C  47.77400 14.77100 25.02900
C  47.49500 14.86200 26.48900
C  48.92400 16.85600 24.07900
C  47.79700 13.24000 24.66000
C  47.00600 12.71600 23.48200
N  46.69900 15.21600 29.41100
C  45.85400 14.63100 28.45500
C  44.62000 14.18700 29.01000
C  44.84100 14.42700 30.39200
C  46.04900 15.13900 30.56700
C  43.56300 13.29400 28.28900
C  44.27000 14.26500 31.72400
O  43.28500 13.63600 32.04600
C  45.22000 14.84100 32.75400
C  44.44200 15.78500 33.60600
O  44.26300 16.92600 33.26800
O  44.16800 15.20700 34.80900
C  43.40200 16.07200 35.76900
H  51.55100 17.67100 32.29200
H  51.41200 16.32000 25.82800
H  45.58600 14.03700 26.40300
H  47.28700 16.43200 34.44100
H  50.24600 16.65000 34.24500
H  49.63900 19.18100 33.53700
H  49.69300 18.52300 35.11900
H  48.13400 18.70300 34.25900
H  49.54400 14.48300 34.14700
H  47.93700 13.90400 33.84300
H  49.27900 13.72800 36.25000
H  47.51800 13.58100 36.11900
H  53.99900 19.19500 29.85800
H  54.09900 17.73800 30.93900
H  52.86100 19.05400 31.17900
H  54.62400 19.32100 27.72200
H  55.62400 18.04500 26.89600
H  55.01200 17.72400 28.54700
H  49.81200 14.95300 24.24700
H  46.95700 15.16700 24.42700
H  49.13700 16.59300 23.04300
H  49.53900 17.68400 24.43400
H  47.90500 17.23600 24.15000
H  47.47300 12.61200 25.49000
H  48.84200 12.97900 24.49200
H  46.85700 13.55300 22.79900
H  45.98700 12.43000 23.74400
H  47.50900 11.88200 22.99300
H  42.92200 13.93300 27.68200
H  42.96300 12.68100 28.96100
H  44.04400 12.61300 27.58700
H  45.59600 14.01300 33.35500
H  42.39600 15.65300 35.76700
H  43.35800 17.14000 35.55200
H  43.92600 16.08700 36.72500
Mg 17.06400 51.19200 25.96900
C  18.86800 49.96500 28.69700
C  14.76400 52.43600 28.16700
C  15.21500 52.23600 23.38200
C  19.50000 49.93700 23.91100
N  16.89100 51.18700 28.18200
C  17.71800 50.66400 29.09500
C  17.21100 50.94600 30.58700
C  15.73700 51.48600 30.32800
C  15.82800 51.78500 28.82700
C  14.63400 50.59400 30.79100
C  18.22900 51.92300 31.27100
C  17.90700 52.52100 32.63600
H  16.92200 51.74400 33.51600
N  15.33800 52.32600 25.80700
C  14.54100 52.75700 26.82300
C  13.40300 53.43300 26.31700
C  13.49500 53.45900 24.87900
C  14.75000 52.65000 24.59000
C  12.42900 54.01700 27.17100
C  12.71900 54.23700 23.83800
O  13.00100 54.11300 22.66200
C  11.36700 54.92900 24.16900
N  17.30400 51.07500 23.99400
C  16.35200 51.52500 23.10600
C  16.97900 51.37200 21.66700
C  18.48400 51.04900 21.83500
C  18.45600 50.69900 23.35300
C  16.10200 50.46700 20.73600
C  19.59400 52.16000 21.52600
C  20.78600 51.59300 20.72100
N  18.83200 50.12000 26.17200
C  19.66400 49.62500 25.25700
C  20.79300 48.88000 25.93000
C  20.48400 48.99900 27.31700
C  19.35500 49.78300 27.40400
C  21.98900 48.35200 25.39500
C  20.90700 48.61900 28.62800
O  21.77500 47.87400 28.96800
C  19.87700 49.32700 29.64600
C  19.29000 48.27800 30.50000
O  18.58800 47.29500 30.13800
O  19.54300 48.57300 31.80500
C  18.92200 47.76600 32.88200
H  13.95800 52.79900 28.80800
H  14.68400 52.66400 22.53000
H  20.16800 49.55500 23.13600
H  17.23800 49.98800 31.10500
H  15.53900 52.43200 30.83200
H  14.24700 50.07700 29.91300
H  13.88500 51.22100 31.27500
H  15.04500 49.73900 31.32700
H  18.75700 52.50300 30.51400
H  19.06500 51.27700 31.53900
H  17.38200 53.47100 32.53700
H  18.74700 52.55200 33.33000
H  11.48700 53.47600 27.27000
H  12.23200 55.01700 26.78400
H  12.77900 54.29700 28.16400
H  11.66600 55.80500 24.74600
H  10.81500 54.33200 24.89400
H  10.83900 55.15300 23.24200
H  17.06900 52.31700 21.13100
H  18.70000 50.17300 21.22400
H  15.70500 51.04400 19.90100
H  15.24500 50.09700 21.29900
H  16.69700 49.66100 20.30800
H  19.96100 52.64600 22.43000
H  19.06200 52.91400 20.94700
H  20.73000 51.81200 19.65400
H  20.95100 50.51700 20.67900
H  21.68800 52.10200 21.05800
H  22.84700 49.00400 25.55600
H  21.83000 48.04500 24.36100
H  22.19700 47.39800 25.87900
H  20.32400 50.12200 30.24400
H  19.53400 46.98200 33.32700
H  18.04000 47.28800 32.45400
H  18.52600 48.40900 33.66700

