158

Mg 40.88300 9.10900 29.94600
C  42.40400 10.30100 32.78100
C  38.17900 8.19000 31.94400
C  39.34500 7.87600 27.22500
C  43.61500 9.99000 28.12800
N  40.43500 9.06500 32.13600
C  41.07900 9.83200 33.05800
C  40.27800 9.89900 34.39300
C  39.03400 8.97100 34.12500
C  39.22100 8.65800 32.69700
C  38.83500 7.73900 35.12400
C  40.04300 11.32700 34.86900
C  39.80700 11.46400 36.40200
H  40.94700 12.04000 37.29100
N  39.02100 8.07300 29.66500
C  38.05600 7.84500 30.52700
C  36.91400 7.09500 29.88700
C  37.22200 7.00700 28.48000
C  38.56600 7.68400 28.36400
C  35.71500 6.45500 30.60600
C  36.38700 6.51100 27.34900
O  36.79000 6.49800 26.19300
C  35.02900 6.13000 27.71000
N  41.48400 8.94500 28.01900
C  40.64600 8.37000 27.06900
C  41.41200 8.25500 25.70500
C  42.60700 9.27000 25.91800
C  42.52400 9.47000 27.43800
C  41.78600 6.79500 25.33700
C  42.50400 10.65700 25.17100
C  41.14000 11.49300 25.30200
N  42.66900 9.98900 30.36600
C  43.70500 10.29900 29.48600
C  44.72600 10.94200 30.20100
C  44.26300 10.94700 31.55300
C  43.02600 10.33100 31.55900
C  45.91600 11.51500 29.58000
C  44.52900 11.48400 32.93200
O  45.39900 12.17700 33.37500
C  43.33800 10.95300 33.78500
C  43.68700 10.00600 34.78400
O  43.64200 8.77500 34.68200
O  44.02800 10.65000 35.91300
C  44.51200 9.76700 37.03200
H  37.18500 8.06500 32.37700
H  38.97000 7.51500 26.26500
H  44.55900 10.21300 27.62500
H  40.74800 9.32300 35.19100
H  38.12400 9.53900 34.31500
H  39.20500 7.97400 36.12300
H  39.42800 6.88700 34.79200
H  37.76500 7.55000 35.20900
H  39.08100 11.55100 34.40700
H  40.66300 12.11600 34.44400
H  39.56400 10.46300 36.75900
H  38.87500 12.01800 36.51900
H  34.78100 6.97800 30.39700
H  35.84100 6.51100 31.68700
H  35.63500 5.39200 30.37900
H  34.45800 5.73600 26.86900
H  34.59500 7.05100 28.10100
H  35.19700 5.26800 28.35500
H  40.85000 8.59600 24.83500
H  43.53600 8.70900 25.81900
H  41.21800 6.07300 25.92300
H  42.82900 6.75800 25.65000
H  41.54800 6.45500 24.32900
H  42.52500 10.49200 24.09400
H  43.33200 11.30700 25.45400
H  40.61700 11.77300 24.38800
H  41.19100 12.47400 25.77300
H  40.36700 11.01100 25.90000
H  45.85400 12.60300 29.61200
H  46.19700 11.00600 28.65800
H  46.71500 11.16600 30.23500
H  42.92800 11.84200 34.26400
H  44.91300 8.80000 36.73000
H  43.63000 9.61500 37.65400
H  45.26700 10.31500 37.59700
Mg -11.41400 15.98600 43.74800
C  -7.91400 16.60300 43.60100
C  -12.05400 19.18600 42.85200
C  -14.61600 15.08200 43.90800
C  -10.52900 12.49300 44.09300
N  -10.12100 17.62800 43.24100
C  -8.73300 17.71100 43.18400
C  -8.21900 19.14700 42.74500
C  -9.52800 19.99300 42.85100
C  -10.68200 18.85600 42.94400
C  -9.46300 20.87600 44.12400
C  -7.49600 19.01600 41.37000
C  -6.02700 19.49400 41.26300
H  -5.06400 18.76800 40.35000
N  -13.07200 16.94800 43.36500
C  -13.15000 18.30700 42.92000
C  -14.50700 18.59700 42.70000
C  -15.33800 17.40100 42.94300
C  -14.32400 16.37800 43.37600
C  -14.97700 19.94400 42.26600
C  -16.81600 17.27200 42.74400
O  -17.36300 18.32900 42.34300
C  -17.59000 16.04000 43.03300
N  -12.51100 14.00700 43.91900
C  -13.87500 14.02900 44.21400
C  -14.27600 12.63600 44.68600
C  -13.04200 11.68300 44.49800
C  -11.97900 12.73900 44.17900
C  -14.98200 12.60700 46.06600
C  -13.19400 10.50300 43.46000
C  -12.41700 9.25500 43.96200
N  -9.69500 14.74500 43.99300
C  -9.50200 13.38300 44.06800
C  -8.05800 13.10600 44.28000
C  -7.43000 14.33700 44.06300
C  -8.45800 15.32000 43.89600
C  -7.45900 11.77900 44.59400
C  -6.12500 15.02300 43.90600
O  -4.97100 14.56800 43.94400
C  -6.39500 16.51400 43.74800
C  -6.02100 17.27500 45.01300
O  -6.38400 17.08700 46.15800
O  -5.06500 18.19500 44.56500
C  -4.64500 19.23300 45.61300
H  -12.22200 20.25500 42.70700
H  -15.65000 14.96800 44.24200
H  -10.20800 11.44900 44.06800
H  -7.48000 19.40600 43.50300
H  -9.66000 20.64000 41.98300
H  -9.93200 20.38800 44.97900
H  -10.01400 21.80900 44.01000
H  -8.42900 21.07800 44.40200
H  -8.13200 19.60500 40.71000
H  -7.41900 17.96400 41.09400
H  -5.65100 19.74000 42.25700
H  -6.12600 20.48900 40.83100
H  -15.49200 19.92000 41.30500
H  -14.14900 20.64000 42.13000
H  -15.66300 20.28100 43.04300
H  -18.60400 16.20000 42.66800
H  -17.69900 15.85100 44.10100
H  -17.07200 15.21500 42.54300
H  -14.99200 12.35000 43.91500
H  -12.72000 11.28300 45.46000
H  -15.11000 13.63700 46.39900
H  -14.45500 12.04700 46.83900
H  -15.91900 12.06600 45.93100
H  -13.01800 10.79400 42.42400
H  -14.23400 10.17700 43.44600
H  -13.15900 8.67200 44.50800
H  -11.46100 9.44200 44.45100
H  -12.17100 8.71200 43.04900
H  -6.40800 11.80000 44.87800
H  -7.66500 10.95100 43.91500
H  -8.00500 11.40200 45.45900
H  -5.90600 16.89700 42.85300
H  -5.50400 19.43100 46.25400
H  -4.17800 20.08600 45.12200
H  -3.83400 18.83300 46.22100

