158

Mg 52.74800 23.90300 44.76200
C  49.77800 25.85800 44.01200
C  51.11900 21.10500 43.86000
C  55.67400 22.36800 44.76600
C  54.23900 26.93000 45.56900
N  50.64300 23.62500 43.83900
C  49.58400 24.47600 43.73500
C  48.23800 23.67200 43.47200
C  48.67000 22.19500 43.64200
C  50.22400 22.25800 43.86500
C  47.99900 21.40700 44.79800
C  47.66500 24.00000 42.10700
C  48.69600 23.81500 40.87900
H  48.03700 23.25700 39.54200
N  53.36800 22.01000 44.27900
C  52.57300 20.98400 43.89500
C  53.32200 19.76800 43.72000
C  54.74300 20.13800 43.88900
C  54.70200 21.53800 44.34200
C  52.62900 18.52200 43.28600
C  55.95000 19.18700 43.70900
O  55.73400 18.00000 43.50800
C  57.37700 19.58900 43.79400
N  54.73900 24.58800 45.15100
C  55.80100 23.75200 45.04500
C  57.09600 24.52600 45.13100
C  56.68400 26.00900 45.50700
C  55.13000 25.88900 45.37300
C  58.17900 23.85900 46.08700
C  57.22500 27.17300 44.58000
C  58.25500 28.20400 45.13100
N  52.16000 25.93700 44.96500
C  52.85000 27.02800 45.38600
C  52.04800 28.26200 45.48700
C  50.80300 27.79200 44.93900
C  50.94900 26.37300 44.59500
C  52.42300 29.59500 45.91300
C  49.51700 28.23200 44.57900
O  48.95400 29.34600 44.62200
C  48.75400 26.96800 43.99700
C  48.35200 27.33100 42.58300
O  49.13100 27.31000 41.59500
O  47.01400 27.68800 42.50800
C  46.52200 27.88400 41.18900
H  50.59200 20.14900 43.89300
H  56.68000 21.95900 44.65100
H  54.71300 27.89000 45.78700
H  47.52700 23.88800 44.27000
H  48.39800 21.64200 42.74300
H  48.66100 20.62300 45.16500
H  47.12100 20.92800 44.36500
H  47.75900 22.09900 45.60500
H  47.00900 24.86900 42.06600
H  46.87000 23.26100 42.01300
H  49.43100 23.04500 41.11000
H  49.21700 24.75800 40.70900
H  51.55500 18.60900 43.12300
H  52.80000 17.70900 43.99200
H  53.07800 18.12600 42.37600
H  57.59400 20.28400 42.98300
H  57.94200 18.67300 43.62100
H  57.67000 20.00200 44.75900
H  57.56900 24.64200 44.15600
H  56.91800 26.09100 46.56800
H  57.85800 22.88400 46.45300
H  58.46400 24.47100 46.94300
H  59.01400 23.77900 45.39100
H  56.39200 27.78000 44.22200
H  57.65800 26.75700 43.67000
H  58.87700 27.72000 45.88500
H  57.74900 29.11200 45.45900
H  58.71100 28.53800 44.19900
H  52.79300 30.31900 45.18700
H  53.06900 29.41700 46.77200
H  51.49600 29.99100 46.32800
H  47.89100 26.72600 44.61700
H  46.79900 27.17600 40.40800
H  46.91700 28.83100 40.82200
H  45.43700 27.95500 41.26200
Mg -5.75500 24.90000 27.33800
C  -4.09800 26.83900 29.76400
C  -6.54500 22.74500 29.82900
C  -7.23700 22.97100 24.96900
C  -4.54700 26.99400 24.77400
N  -5.34900 24.96000 29.56400
C  -4.71000 25.80400 30.34100
C  -4.75800 25.41500 31.84800
C  -5.56600 24.06200 31.79000
C  -5.88800 23.94600 30.28900
C  -4.99000 22.76300 32.35300
C  -5.27900 26.51400 32.84700
C  -6.43400 26.26800 33.69300
H  -6.19000 25.35400 34.85700
N  -6.72000 23.10000 27.34100
C  -6.90500 22.35600 28.49300
C  -7.54600 21.09900 28.13200
C  -7.74300 21.14600 26.66400
C  -7.28600 22.45100 26.20100
C  -7.90700 19.97800 29.20000
C  -8.33700 20.10100 25.72200
O  -8.52000 20.24900 24.52500
C  -8.50800 18.69900 26.27000
N  -5.80200 24.99800 25.11700
C  -6.59600 24.09100 24.44300
C  -6.87400 24.63100 23.02600
C  -5.89400 25.88900 22.90100
C  -5.34600 25.95500 24.32000
C  -6.58700 23.64100 21.92400
C  -6.64200 27.24000 22.41700
C  -6.22400 27.77300 21.04400
N  -4.47200 26.54600 27.17200
C  -4.01700 27.25000 26.13200
C  -3.13500 28.25600 26.56800
C  -3.13400 28.14800 27.98800
C  -3.91200 27.06400 28.34400
C  -2.44300 29.25900 25.65200
C  -2.68600 28.72100 29.23600
O  -2.09300 29.72400 29.43500
C  -3.22200 27.86700 30.41200
C  -2.15200 27.22700 31.14700
O  -1.46300 26.25400 30.86200
O  -2.00600 27.87000 32.39300
C  -0.80400 27.48800 33.18100
H  -6.84900 22.06500 30.62800
H  -7.75900 22.37200 24.21900
H  -4.25700 27.54800 23.87800
H  -3.73700 25.15600 32.12600
H  -6.57700 24.15000 32.19000
H  -5.78200 22.26400 32.91200
H  -4.12700 22.93100 32.99900
H  -4.57600 22.08300 31.60900
H  -5.39900 27.46100 32.32200
H  -4.48700 26.63200 33.58700
H  -7.27000 25.81500 33.15900
H  -6.83000 27.24000 33.98700
H  -8.90700 19.62600 28.94700
H  -8.04400 20.38800 30.20100
H  -7.18600 19.16200 29.16600
H  -7.53400 18.35600 26.61800
H  -8.88500 18.07800 25.45800
H  -9.37800 18.64700 26.92400
H  -7.91100 24.96600 23.03600
H  -5.11000 25.64300 22.18500
H  -6.49400 22.62300 22.30200
H  -5.89900 23.89300 21.11700
H  -7.52400 23.55000 21.37400
H  -6.32400 28.02800 23.10000
H  -7.73100 27.20900 22.40500
H  -5.79900 26.94800 20.47300
H  -5.39800 28.46200 21.21900
H  -7.09600 28.07800 20.46500
H  -2.89800 29.11100 24.67200
H  -1.40600 29.00800 25.43200
H  -2.57000 30.30700 25.92300
H  -3.78100 28.49100 31.11000
H  -0.82700 28.14400 34.05100
H  0.08200 27.68500 32.57600
H  -0.83900 26.41200 33.35200

