158

Mg -2.47200 17.50800 26.79800
C  -2.71100 15.26300 29.45700
C  -3.04900 20.12000 28.99500
C  -2.32400 19.63000 24.12800
C  -2.38900 14.82400 24.56000
N  -3.15500 17.59900 29.01000
C  -2.96800 16.56900 29.95200
C  -3.24900 17.06800 31.31700
C  -3.36800 18.67200 31.14900
C  -3.06700 18.87000 29.63300
C  -4.63100 19.54400 31.62400
C  -2.20300 16.57300 32.41300
C  -1.72200 17.53600 33.60700
H  -1.08300 16.80500 34.80000
N  -2.50000 19.60400 26.63800
C  -2.82300 20.46000 27.63800
C  -2.80400 21.86600 27.12700
C  -2.48600 21.70100 25.72900
C  -2.43700 20.24900 25.40200
C  -3.15500 23.15000 27.97300
C  -2.28900 22.75400 24.71600
O  -1.97600 22.46800 23.59100
C  -2.44300 24.19000 25.09000
N  -2.71300 17.26100 24.56600
C  -2.56400 18.29600 23.66100
C  -2.55500 17.77200 22.18100
C  -2.26300 16.27500 22.44600
C  -2.53800 16.07300 23.91600
C  -3.71200 18.06100 21.22300
C  -0.86200 15.71200 21.99500
C  0.30900 16.33700 22.82700
N  -2.58600 15.43100 26.90800
C  -2.53900 14.47500 25.91400
C  -2.66400 13.17500 26.49900
C  -2.72700 13.42800 27.87100
C  -2.65400 14.76900 28.05100
C  -2.64400 11.84300 25.81500
C  -2.85700 12.83300 29.21600
O  -2.92500 11.63700 29.51900
C  -2.95100 13.95600 30.31100
C  -1.91400 13.69800 31.32900
O  -0.76700 13.94100 31.13000
O  -2.48100 13.07700 32.41100
C  -1.52700 12.27300 33.24500
H  -3.24700 20.92100 29.71100
H  -2.28100 20.25000 23.23000
H  -2.28800 13.95900 23.90100
H  -4.18400 16.67000 31.71200
H  -2.56200 19.06200 31.77100
H  -5.10400 18.99600 32.43900
H  -5.31200 19.72900 30.79300
H  -4.30200 20.50600 32.01800
H  -1.31600 16.39700 31.80400
H  -2.52800 15.64600 32.88600
H  -2.40200 18.34500 33.87400
H  -0.84600 17.99000 33.14400
H  -2.27700 23.79500 27.94800
H  -3.25000 22.87900 29.02500
H  -4.07700 23.64600 27.66900
H  -3.45300 24.45000 25.40800
H  -2.21900 24.70800 24.15700
H  -1.62100 24.38800 25.77900
H  -1.65100 18.07500 21.65300
H  -2.97200 15.68400 21.86600
H  -4.53000 18.56600 21.73600
H  -4.24100 17.22800 20.76100
H  -3.42600 18.55300 20.29400
H  -0.60000 15.99100 20.97400
H  -0.85900 14.62800 22.10700
H  0.54500 17.28600 22.34500
H  1.22600 15.76400 22.95800
H  0.07800 16.76300 23.80400
H  -2.20900 11.82700 24.81500
H  -3.67300 11.49500 25.73000
H  -2.13100 11.05100 26.35900
H  -3.95700 14.04400 30.72100
H  -2.04800 11.47400 33.77200
H  -1.09700 12.91100 34.01800
H  -0.71500 11.80200 32.69100
Mg 25.41900 1.83700 30.00700
C  27.65100 2.00600 32.73000
C  22.87800 2.05600 32.31400
C  23.23600 1.77700 27.49200
C  27.98900 1.00500 27.95700
N  25.31200 2.17300 32.33300
C  26.35400 2.28600 33.21300
C  25.88000 2.52100 34.64000
C  24.34500 2.42100 34.46100
C  24.14300 2.11000 32.94500
C  23.51400 1.50500 35.45500
C  26.39300 3.78600 35.36200
C  26.85500 3.51700 36.81500
H  26.36400 4.51800 37.95600
N  23.39100 1.86200 29.90900
C  22.52100 2.01500 30.94100
C  21.10400 1.98400 30.45200
C  21.19100 1.95000 29.03500
C  22.65000 1.89100 28.77900
C  19.84800 2.25600 31.29600
C  20.08900 2.05300 27.93700
O  20.25300 1.86100 26.72200
C  18.68800 2.14400 28.39000
N  25.54200 1.30300 27.97800
C  24.53000 1.44100 27.16300
C  25.02800 1.32300 25.68100
C  26.54500 0.91000 25.82000
C  26.69900 1.11000 27.35800
C  24.20300 0.30000 24.81100
C  27.53700 1.80100 24.93700
C  27.75300 3.30000 25.25100
N  27.43600 1.49400 30.27000
C  28.36500 1.24300 29.31200
C  29.63400 0.99500 29.93900
C  29.40700 1.29900 31.26000
C  28.02000 1.61000 31.39700
C  30.89200 0.49900 29.19700
C  30.00400 1.39500 32.62700
O  31.12900 1.08100 32.90700
C  28.89400 1.88500 33.61000
C  28.79500 0.85800 34.68500
O  28.08100 -0.09300 34.77400
O  29.79800 1.09100 35.59700
C  29.67400 0.26100 36.83600
H  22.06000 2.24900 33.01100
H  22.55700 1.83800 26.63800
H  28.76500 0.72900 27.24100
H  26.19300 1.67000 35.24500
H  23.84900 3.38600 34.55500
H  22.49400 1.28900 35.13900
H  23.46600 2.00300 36.42400
H  23.96000 0.52700 35.63300
H  25.67300 4.59400 35.49100
H  27.19800 4.19700 34.75400
H  27.91800 3.75900 36.80700
H  26.75500 2.48000 37.13600
H  20.15900 2.33600 32.33700
H  19.15700 1.42500 31.44000
H  19.33600 3.16300 30.97400
H  17.87000 1.83100 27.74000
H  18.67200 3.19600 28.67500
H  18.54600 1.46900 29.23300
H  24.90300 2.25200 25.12500
H  26.71300 -0.15300 25.65000
H  23.91900 0.86100 23.92000
H  23.26400 0.16200 25.34700
H  24.44500 -0.73800 24.58300
H  27.14700 1.85000 23.92100
H  28.46500 1.23600 24.85800
H  27.58500 3.97200 24.40900
H  28.80200 3.49500 25.47600
H  27.06100 3.54300 26.05700
H  30.92100 0.89300 28.18100
H  30.76200 -0.56300 29.40600
H  31.72900 0.80000 29.82700
H  28.99500 2.89200 34.01500
H  29.95800 -0.79000 36.88700
H  28.62700 0.30600 37.13600
H  30.22100 0.88300 37.54400

