158

Mg 44.82100 3.63700 47.20600
C  42.64500 6.34100 46.79400
C  42.03400 1.49400 47.31900
C  46.90500 1.00300 46.81300
C  47.49300 5.99200 46.68500
N  42.55000 3.94900 47.10600
C  41.93000 5.09200 46.83200
C  40.36900 4.87800 46.65100
C  40.20600 3.34000 46.99200
C  41.69500 2.92400 47.28200
C  39.15500 3.15700 48.15500
C  40.03000 5.16300 45.09800
C  38.83600 5.97500 44.76400
H  39.03700 7.03300 43.74500
N  44.53900 1.52500 47.17300
C  43.27300 0.88700 47.22900
C  43.57900 -0.58400 47.31700
C  44.95000 -0.72300 47.09700
C  45.54900 0.60900 46.94500
C  42.47400 -1.67300 47.44700
C  45.73700 -2.06300 47.11100
O  45.16200 -3.13700 47.31500
C  47.25300 -2.16700 46.94100
N  46.83900 3.56000 46.56800
C  47.45600 2.30500 46.67500
C  48.98200 2.53300 46.71400
C  49.13500 4.08900 46.94200
C  47.72600 4.63400 46.76900
C  49.76000 1.82500 47.81900
C  50.11200 4.80700 45.83700
C  51.13800 5.78400 46.49400
N  45.09300 5.78800 46.85000
C  46.21300 6.58300 46.72800
C  45.76200 7.90800 46.61600
C  44.37600 7.96600 46.57200
C  44.00100 6.56200 46.74200
C  46.72800 9.18400 46.34800
C  43.15900 8.77400 46.55800
O  42.92300 9.97900 46.58200
C  42.03500 7.73300 46.61600
C  41.20300 8.11200 47.76900
O  41.32300 7.68400 48.91500
O  40.22500 9.02900 47.36100
C  39.29200 9.50100 48.43700
H  41.19400 0.82000 47.14200
H  47.63300 0.18900 46.81400
H  48.40900 6.58400 46.64000
H  39.72700 5.52600 47.24900
H  39.88000 2.74600 46.13800
H  38.55700 4.06100 48.27600
H  39.55500 2.94800 49.14700
H  38.55500 2.27700 47.92600
H  39.78100 4.21900 44.61200
H  40.84500 5.65000 44.56300
H  38.53900 6.51900 45.66100
H  38.08300 5.26300 44.42600
H  42.37000 -2.38400 46.62700
H  41.56500 -1.17100 47.77800
H  42.73500 -2.38800 48.22700
H  47.83400 -1.63000 47.69000
H  47.38700 -1.89300 45.89400
H  47.57300 -3.20500 47.03400
H  49.42300 2.18400 45.78000
H  49.38400 4.32600 47.97700
H  49.28600 1.98400 48.78700
H  50.82000 2.07700 47.84200
H  49.66200 0.76100 47.60000
H  49.61500 5.18200 44.94200
H  50.78100 4.01300 45.50700
H  52.10000 5.28200 46.39500
H  50.88200 5.98700 47.53400
H  51.15600 6.68700 45.88400
H  46.51800 9.63000 45.37600
H  47.78600 8.94800 46.46300
H  46.51900 9.89000 47.15100
H  41.39300 7.84300 45.74200
H  39.61000 10.53400 48.57800
H  39.44700 9.04800 49.41700
H  38.28500 9.48200 48.02100
Mg 53.67100 23.99100 44.90800
C  51.07500 26.06800 43.75700
C  52.02100 21.18800 43.63400
C  56.58900 22.35300 45.00100
C  55.23600 26.90700 45.99000
N  51.71600 23.69600 43.91500
C  50.80500 24.67700 43.56300
C  49.50700 23.99700 43.11500
C  49.72100 22.44300 43.60400
C  51.25800 22.44700 43.62800
C  49.06000 22.08700 44.93700
C  49.43900 24.02300 41.56600
C  47.96500 24.10600 41.10600
H  47.67300 23.83100 39.66800
N  54.22500 22.00200 44.39100
C  53.36500 20.98700 43.97600
C  54.09600 19.73600 43.94900
C  55.47100 20.05000 44.17200
C  55.50200 21.56700 44.51100
C  53.43100 18.39100 43.65100
C  56.62500 19.05800 44.19400
O  56.46000 17.86200 43.99700
C  58.05100 19.39900 44.51000
N  55.56400 24.53900 45.36100
C  56.65300 23.68200 45.30200
C  57.96800 24.34000 45.75700
C  57.39300 25.78600 46.18100
C  55.92700 25.76800 45.79900
C  58.65900 23.57300 46.96300
C  58.10800 27.02400 45.52600
C  58.54000 28.18800 46.38400
N  53.31900 26.05900 44.92600
C  53.93900 27.13800 45.47400
C  53.22300 28.37300 45.36100
C  52.08900 27.98700 44.63400
C  52.15200 26.56900 44.41900
C  53.64500 29.74800 45.85600
C  50.80200 28.38200 44.13700
O  50.28400 29.46100 44.10000
C  50.05200 27.17400 43.56900
C  49.70900 27.49000 42.16300
O  50.53100 27.50900 41.23700
O  48.37700 27.83100 41.91000
C  47.92000 27.79400 40.50900
H  51.36100 20.38400 43.30300
H  57.51700 21.81400 45.20100
H  55.82700 27.77400 46.29400
H  48.57300 24.31800 43.57700
H  49.30700 21.77000 42.85300
H  48.71300 22.99100 45.43600
H  49.70500 21.64000 45.69400
H  48.22900 21.43800 44.66100
H  50.02900 23.23800 41.09200
H  49.91400 24.96400 41.29000
H  47.57800 25.08000 41.40500
H  47.38900 23.37600 41.67400
H  53.81100 17.95600 42.72600
H  52.35000 18.51700 43.70400
H  53.70300 17.75600 44.49300
H  58.26900 20.32000 43.97000
H  58.70900 18.58900 44.19700
H  58.02800 19.37000 45.60000
H  58.66200 24.43500 44.92200
H  57.45400 25.89700 47.26400
H  58.53100 24.03300 47.94300
H  59.70800 23.52500 46.67200
H  58.29200 22.56300 47.14500
H  57.52900 27.41800 44.69100
H  59.05700 26.65700 45.13500
H  57.95300 29.08400 46.18200
H  59.62000 28.31800 46.30800
H  58.36800 27.94600 47.43200
H  53.99400 30.35100 45.01800
H  54.42500 29.80700 46.61400
H  52.75900 30.26100 46.23000
H  49.17800 27.04900 44.20900
H  48.54200 27.12000 39.91900
H  47.74400 28.79900 40.12400
H  46.91600 27.39000 40.63200

