158

Mg 2.29500 -1.13600 43.38500
C  5.70800 -0.88200 43.04400
C  2.01600 1.48000 41.21400
C  -1.12800 -1.78500 43.21700
C  2.64700 -4.28000 44.79800
N  3.72800 0.00000 42.12600
C  5.05500 0.03200 42.21900
C  5.67300 1.00100 41.22300
C  4.47100 1.95100 41.00500
C  3.32700 1.13400 41.45200
C  4.57500 3.32900 41.82800
C  6.26700 0.33000 39.90800
C  7.35700 1.25900 39.18400
H  6.93900 2.18700 38.06400
N  0.64200 -0.18600 42.48800
C  0.80600 0.87300 41.60000
C  -0.46800 1.37700 41.31800
C  -1.45400 0.53800 42.00500
C  -0.67400 -0.56500 42.61000
C  -0.72100 2.62600 40.39200
C  -2.93100 0.66900 41.81800
O  -3.43600 1.64000 41.23100
C  -3.86300 -0.22300 42.53800
N  0.94800 -2.85800 43.68900
C  -0.46100 -2.91400 43.60100
C  -0.99500 -4.22200 44.10500
C  0.25100 -4.96200 44.72900
C  1.36900 -3.99300 44.30500
C  -2.23000 -4.11800 45.03600
C  0.40000 -6.42800 44.27800
C  -0.51900 -7.44800 45.03600
N  3.83400 -2.28000 43.98300
C  3.83500 -3.52100 44.55200
C  5.24500 -3.92000 44.78000
C  6.00800 -2.82400 44.36100
C  5.12500 -1.94100 43.81800
C  5.66300 -5.18400 45.38100
C  7.37100 -2.26500 44.17400
O  8.43600 -2.71700 44.54000
C  7.24700 -0.96300 43.31700
C  7.71800 0.19100 44.24600
O  7.78300 0.16800 45.45000
O  7.96400 1.35300 43.53500
C  8.22900 2.58600 44.31300
H  1.98900 2.42400 40.66500
H  -2.17900 -2.07700 43.15200
H  2.84800 -5.18600 45.37300
H  6.46800 1.60300 41.66100
H  4.30500 2.00300 39.92900
H  5.41200 3.20300 42.51500
H  3.68200 3.50200 42.42900
H  4.82700 4.12900 41.13200
H  5.43600 0.18600 39.21700
H  6.64000 -0.66200 40.16400
H  8.02700 0.52100 38.74200
H  8.00300 1.81800 39.86100
H  -1.62800 2.37800 39.84200
H  0.03700 2.92200 39.66600
H  -0.97100 3.45700 41.05100
H  -3.90400 -1.15300 41.97100
H  -4.83800 0.24800 42.66500
H  -3.38300 -0.26100 43.51600
H  -1.40700 -4.73100 43.23400
H  0.25800 -4.89100 45.81700
H  -2.31800 -3.10200 45.42000
H  -2.14300 -4.76700 45.90800
H  -3.13100 -4.38200 44.48300
H  1.42400 -6.79300 44.36400
H  0.09900 -6.48900 43.23200
H  -1.04500 -6.96000 45.85700
H  0.12400 -8.25200 45.39500
H  -1.19600 -7.89800 44.31000
H  6.74900 -5.26800 45.40600
H  5.24700 -6.07700 44.91400
H  5.27400 -5.20700 46.39900
H  7.86900 -1.11200 42.43400
H  8.11000 2.60500 45.39700
H  7.48600 3.33800 44.04700
H  9.13500 3.15800 44.11000
Mg 16.07500 52.11300 25.17700
C  17.80600 50.97900 28.00300
C  13.33700 52.84000 27.18700
C  14.08100 52.42000 22.46100
C  18.69600 50.82100 23.20900
N  15.57500 51.76700 27.37800
C  16.57300 51.51000 28.37700
C  16.03700 51.82000 29.79000
C  14.53200 52.12700 29.45900
C  14.42700 52.28600 27.93000
C  13.57200 51.19700 30.28000
C  16.81000 52.83200 30.65500
C  17.08900 52.51800 32.06200
H  15.97500 51.84100 32.92300
N  14.03800 52.72900 24.85900
C  13.16100 53.05500 25.78300
C  11.98600 53.58700 25.21700
C  12.12400 53.53000 23.77000
C  13.49300 52.93900 23.61600
C  10.71100 54.07800 25.93800
C  11.26300 54.02000 22.66100
O  11.63100 54.00200 21.49000
C  9.95700 54.65900 22.99800
N  16.37300 51.63900 23.18200
C  15.36200 51.88200 22.27700
C  15.77700 51.29300 21.01300
C  17.33300 51.12900 21.11700
C  17.50800 51.25000 22.61800
C  15.10500 49.90000 20.70000
C  18.14800 52.18600 20.24600
C  19.39600 51.82300 19.33000
N  17.94900 51.26000 25.50900
C  18.90500 50.82900 24.61600
C  19.99900 50.31600 25.34700
C  19.58800 50.31200 26.68500
C  18.35300 50.89500 26.75100
C  21.28800 49.89400 24.71900
C  19.99600 49.93900 28.01100
O  21.06300 49.47300 28.50300
C  18.89900 50.45400 28.89300
C  18.52100 49.43000 29.89500
O  17.79400 48.46300 29.74500
O  19.19600 49.68400 31.11200
C  18.67000 48.97100 32.22400
H  12.57100 53.23400 27.85800
H  13.54700 52.45500 21.50900
H  19.46000 50.29200 22.63600
H  16.10100 50.90600 30.38200
H  14.29300 53.12500 29.82600
H  12.86500 50.84600 29.52700
H  13.07600 51.90200 30.94700
H  13.90400 50.33300 30.85600
H  16.16900 53.71300 30.63800
H  17.76900 53.07600 30.19700
H  17.41300 53.43300 32.55800
H  17.94100 51.84900 31.94100
H  10.75000 55.16700 25.92400
H  10.74800 53.80400 26.99200
H  9.86000 53.64300 25.41500
H  9.22100 53.97700 23.42300
H  9.54200 55.23000 22.16700
H  10.26200 55.36600 23.76900
H  15.51100 51.97600 20.20700
H  17.65100 50.20700 20.63000
H  14.43400 50.04400 19.85300
H  14.39300 49.68100 21.49600
H  15.79900 49.06000 20.66900
H  18.45100 52.99900 20.90400
H  17.36900 52.53500 19.56900
H  19.57500 50.74800 19.30200
H  20.28200 52.36600 19.65700
H  19.16800 52.13600 18.31100
H  21.16800 48.83800 24.48000
H  22.13900 50.00900 25.39100
H  21.51400 50.52000 23.85600
H  19.31100 51.30200 29.44000
H  19.33000 48.11200 32.34600
H  17.59700 48.77600 32.23000
H  18.82300 49.62100 33.08500

