158

Mg 30.26100 57.35700 39.52100
C  27.77300 55.13700 38.74300
C  32.67400 54.94200 38.82000
C  32.70400 59.67100 39.55500
C  27.82900 59.85100 40.29900
N  30.19100 55.27500 38.78500
C  29.07800 54.56900 38.54700
C  29.48600 53.16900 37.99700
C  31.02800 53.05800 38.18300
C  31.32200 54.50500 38.66500
C  31.48300 52.11300 39.23700
C  29.04000 52.98800 36.49900
C  29.33400 54.00000 35.49200
H  28.24000 54.52600 34.68300
N  32.44800 57.28400 39.20400
C  33.20200 56.23500 38.99000
C  34.53200 56.61900 38.86300
C  34.59800 57.99800 39.16100
C  33.26300 58.36600 39.36400
C  35.60000 55.63200 38.62900
C  35.83900 58.80500 39.30300
O  36.97100 58.33800 39.09600
C  35.91800 60.15200 39.73100
N  30.20100 59.46400 39.66800
C  31.35700 60.15600 39.78400
C  31.07800 61.60200 40.24300
C  29.66000 61.57200 40.64000
C  29.11000 60.25800 39.97200
C  32.08500 62.17700 41.26800
C  28.89600 62.87600 40.20300
C  28.15800 63.63400 41.31300
N  28.16500 57.49700 39.67400
C  27.34100 58.53200 40.02000
C  25.98300 58.06600 39.87200
C  26.13600 56.74400 39.32500
C  27.52300 56.45600 39.21600
C  24.87600 58.92200 40.08900
C  25.33100 55.60200 38.91800
O  24.17600 55.40000 38.93700
C  26.39000 54.55800 38.42900
C  26.21100 53.23600 39.11300
O  26.65800 52.98900 40.23300
O  25.29700 52.52300 38.35100
C  24.97500 51.17300 38.86600
H  33.33800 54.09300 38.64900
H  33.42900 60.48600 39.62400
H  27.08300 60.58700 40.60900
H  28.86100 52.43700 38.50800
H  31.57000 52.92400 37.24700
H  30.57600 51.68500 39.66500
H  32.12800 52.52800 40.01200
H  31.95500 51.27100 38.73100
H  27.98000 52.74100 36.56400
H  29.45700 52.04700 36.14200
H  30.01400 53.48200 34.81500
H  29.89600 54.85500 35.86800
H  36.10500 55.99100 37.73200
H  35.26900 54.60600 38.46900
H  36.28900 55.67000 39.47300
H  36.94700 60.40700 39.98300
H  35.22800 60.41000 40.53500
H  35.54000 60.84100 38.97500
H  31.12400 62.15600 39.30500
H  29.56800 61.39600 41.71200
H  32.90900 62.77900 40.88600
H  32.50300 61.28800 41.74100
H  31.60600 62.73400 42.07400
H  28.21500 62.50000 39.43900
H  29.62300 63.53400 39.72800
H  28.75100 64.51000 41.57700
H  27.99700 63.09300 42.24600
H  27.28200 64.08900 40.85200
H  24.53600 59.33400 39.13900
H  25.18800 59.74400 40.73400
H  24.03500 58.40900 40.55500
H  26.34900 54.39500 37.35100
H  24.76400 50.40000 38.12600
H  24.05000 51.40100 39.39500
H  25.65400 50.79600 39.63200
Mg -5.90300 24.87800 26.16800
C  -4.37300 26.14700 28.94600
C  -7.92600 22.89900 28.17400
C  -6.87400 23.04300 23.40000
C  -3.54600 26.48000 24.23300
N  -5.99300 24.41700 28.25400
C  -5.34900 25.14300 29.25500
C  -5.90300 24.75500 30.66400
C  -6.78100 23.49100 30.42400
C  -6.97500 23.61100 28.88800
C  -6.16800 22.14800 30.92600
C  -6.67500 25.95500 31.24700
C  -6.35400 26.28600 32.71800
H  -5.79400 25.26100 33.75300
N  -7.32000 23.29700 25.80900
C  -8.17700 22.73800 26.77600
C  -9.16900 21.95900 26.12500
C  -8.83100 21.94900 24.73700
C  -7.63100 22.80400 24.59400
C  -10.22600 21.24300 26.90900
C  -9.49500 21.23700 23.57000
O  -8.97600 21.08900 22.49500
C  -10.84400 20.66600 23.79200
N  -5.42400 24.77800 24.02100
C  -5.83000 23.90800 23.06200
C  -5.08500 24.06400 21.74300
C  -4.26500 25.40300 22.02900
C  -4.50600 25.65600 23.46600
C  -4.24200 22.78000 21.42100
C  -4.52900 26.73000 21.27400
C  -4.23600 26.58700 19.78900
N  -4.36300 26.20600 26.43100
C  -3.45500 26.80100 25.59600
C  -2.49100 27.66700 26.30700
C  -2.95000 27.53000 27.65400
C  -3.99400 26.52600 27.69200
C  -1.32200 28.46400 25.69700
C  -2.62400 27.87100 29.00900
O  -1.84900 28.66900 29.51400
C  -3.61600 27.01400 29.87700
C  -2.68500 26.25700 30.72000
O  -1.73200 25.62400 30.34200
O  -2.97100 26.39900 32.09100
C  -1.87000 26.01000 33.01100
H  -8.43500 22.25200 28.89100
H  -7.03100 22.46200 22.48800
H  -2.85800 26.95200 23.52900
H  -5.01800 24.47700 31.23600
H  -7.77700 23.56600 30.86000
H  -5.77800 21.58600 30.07800
H  -6.95600 21.55600 31.39200
H  -5.40900 22.38100 31.67200
H  -7.74100 25.73400 31.17800
H  -6.43300 26.82400 30.63500
H  -7.22200 26.78000 33.15400
H  -5.53300 26.99500 32.61500
H  -10.34700 21.80100 27.83700
H  -9.94000 20.20200 27.05900
H  -11.22100 21.30400 26.46700
H  -11.23600 20.32000 22.83500
H  -11.47400 21.51300 24.06200
H  -10.87400 19.85700 24.52200
H  -5.88200 24.24300 21.02200
H  -3.21800 25.16000 21.84800
H  -3.26100 23.01000 21.00500
H  -4.76700 22.11800 20.73300
H  -4.08200 22.14900 22.29500
H  -3.86400 27.51000 21.64300
H  -5.54400 27.03900 21.52500
H  -3.29000 26.99500 19.43100
H  -5.03100 27.09600 19.24400
H  -4.30300 25.53600 19.50400
H  -1.74900 29.43400 25.43900
H  -0.81900 28.05200 24.82200
H  -0.52300 28.66400 26.41100
H  -4.12000 27.82200 30.40600
H  -1.44400 25.04600 32.73500
H  -2.24800 26.08100 34.03100
H  -1.13400 26.80900 32.92000

