158

Mg 24.89000 -6.07900 46.62400
C  27.24100 -3.86900 45.45400
C  22.54200 -4.58200 44.65500
C  22.81200 -8.60400 47.41100
C  27.52500 -7.78600 48.26900
N  24.99900 -4.49800 45.16700
C  26.02600 -3.70400 44.86200
C  25.62200 -2.62800 43.89000
C  24.04000 -2.60000 44.05900
C  23.79000 -3.98800 44.66400
C  23.57900 -1.52500 45.10500
C  25.98700 -2.99100 42.41000
C  26.38500 -1.80000 41.50000
H  25.53000 -1.75800 40.24400
N  22.89900 -6.46300 46.19900
C  22.11200 -5.75700 45.29400
C  20.74000 -6.34200 45.20500
C  20.78000 -7.51800 46.04600
C  22.22100 -7.58700 46.60200
C  19.57300 -5.77600 44.44500
C  19.60600 -8.48700 46.22700
O  18.52700 -8.26500 45.70400
C  19.68500 -9.68200 47.02900
N  25.24000 -8.08400 47.52900
C  24.13700 -8.82200 47.84600
C  24.65800 -10.18000 48.40800
C  26.02700 -9.75500 48.96800
C  26.32300 -8.45300 48.24700
C  23.86500 -10.98800 49.48000
C  27.04700 -10.90700 48.78700
C  28.02900 -11.06100 49.92900
N  27.02300 -5.86400 46.85900
C  27.88800 -6.60900 47.57700
C  29.16800 -5.96700 47.54000
C  28.92100 -4.78000 46.78800
C  27.64600 -4.86900 46.35500
C  30.46300 -6.40600 48.11800
C  29.54100 -3.65500 46.17100
O  30.70200 -3.24900 46.12600
C  28.42900 -2.92600 45.35800
C  28.23200 -1.47400 45.85000
O  29.11100 -0.58800 45.84200
O  27.03000 -1.38300 46.55800
C  26.65300 -0.06700 47.12300
H  21.89600 -3.99700 43.99700
H  22.09000 -9.38600 47.65600
H  28.25500 -8.28500 48.91000
H  25.99500 -1.65200 44.20200
H  23.44900 -2.43400 43.15800
H  24.40200 -0.87900 45.41200
H  23.12000 -2.02300 45.95800
H  22.76700 -1.01100 44.58900
H  25.15200 -3.45200 41.88200
H  26.81600 -3.69500 42.32900
H  27.42600 -1.90800 41.19500
H  26.11500 -0.80700 41.86100
H  18.82000 -6.49900 44.13200
H  19.92600 -5.23500 43.56700
H  19.04100 -4.99800 44.99400
H  19.84100 -9.34800 48.05500
H  20.49700 -10.23700 46.55900
H  18.71700 -10.17700 46.96000
H  24.68600 -10.87500 47.56900
H  25.98600 -9.55400 50.03800
H  24.01800 -12.04000 49.24100
H  22.83200 -10.64400 49.42000
H  24.22100 -10.71800 50.47400
H  27.58900 -10.60900 47.88900
H  26.66000 -11.90400 48.58000
H  27.83400 -10.37700 50.75500
H  29.05600 -10.82500 49.65100
H  28.01800 -12.10100 50.25600
H  30.22800 -6.42100 49.18200
H  31.33300 -5.77800 47.92600
H  30.69400 -7.44000 47.86100
H  28.81300 -2.80300 44.34500
H  26.87000 -0.07800 48.19200
H  25.57800 0.08500 47.03400
H  27.06100 0.80700 46.61600
Mg -2.45000 33.96400 26.92900
C  -3.92200 32.11100 29.67500
C  -0.88000 35.88700 29.39200
C  -1.43300 35.99400 24.52800
C  -4.11000 31.89600 24.73800
N  -2.43600 33.94800 29.36300
C  -3.01200 33.07000 30.18200
C  -2.62900 33.48200 31.64100
C  -1.79400 34.75000 31.49900
C  -1.63500 34.84600 29.94500
C  -2.27800 36.09700 32.23500
C  -1.90400 32.37900 32.51300
C  -2.48400 32.05200 33.89000
H  -1.48600 32.00200 35.04600
N  -1.32000 35.65200 26.92000
C  -0.71500 36.20800 28.01200
C  -0.06200 37.42200 27.55000
C  -0.18300 37.51700 26.17300
C  -0.93700 36.33300 25.80600
C  0.57700 38.32900 28.51700
C  0.49000 38.57300 25.30700
O  0.35600 38.59000 24.09000
C  1.21200 39.61400 25.89500
N  -2.66300 33.94200 24.87900
C  -2.13900 34.86800 24.08500
C  -2.34600 34.43000 22.51700
C  -3.03200 33.01500 22.64600
C  -3.31300 32.96100 24.16500
C  -3.22800 35.33700 21.63800
C  -2.13100 31.88200 22.13200
C  -2.40800 31.48500 20.63700
N  -3.64900 32.36300 27.14700
C  -4.33300 31.61300 26.14800
C  -5.05400 30.49300 26.70800
C  -4.92300 30.71600 28.07600
C  -4.08800 31.82300 28.37500
C  -5.89900 29.46600 26.06000
C  -5.38600 30.18800 29.36200
O  -6.14000 29.26100 29.65200
C  -4.67400 31.11600 30.44700
C  -5.69800 31.68100 31.29800
O  -6.51800 32.53200 30.97000
O  -5.65000 31.06700 32.52000
C  -6.66600 31.45000 33.57100
H  -0.37400 36.49200 30.14700
H  -1.07100 36.59400 23.69100
H  -4.40900 31.10100 24.05100
H  -3.55600 33.74400 32.15000
H  -0.76400 34.60200 31.82400
H  -2.71200 36.85100 31.57900
H  -1.47200 36.57100 32.79700
H  -3.09700 35.90100 32.92700
H  -0.88200 32.72300 32.67100
H  -1.86100 31.51400 31.85200
H  -2.89300 31.05600 33.71700
H  -3.37800 32.58200 34.21800
H  1.62800 38.04700 28.58200
H  0.19000 38.27600 29.53400
H  0.49100 39.40700 28.37900
H  1.72500 40.14200 25.09200
H  1.93100 39.32200 26.66100
H  0.49200 40.37900 26.18500
H  -1.31800 34.32800 22.17000
H  -4.05600 33.01100 22.27200
H  -4.15400 34.90100 21.26200
H  -2.68500 35.61100 20.73300
H  -3.50200 36.30500 22.05800
H  -2.19300 30.98700 22.75000
H  -1.12000 32.24400 22.31800
H  -1.50000 31.69500 20.07000
H  -3.21200 32.15300 20.32800
H  -2.66800 30.42800 20.60500
H  -5.31200 28.55800 25.92100
H  -6.38700 29.76600 25.13300
H  -6.69600 29.31900 26.78900
H  -4.09100 30.38500 31.00800
H  -7.50000 32.04600 33.20200
H  -6.28700 32.02500 34.41600
H  -7.04500 30.52600 34.00800

