158

Mg 47.10600 15.90100 28.60200
C  44.80500 15.77300 31.31500
C  49.12600 17.81500 30.74100
C  48.92800 16.71000 25.89700
C  44.53600 14.72000 26.52800
N  46.83700 16.89100 30.71600
C  45.95900 16.49300 31.66500
C  46.38600 16.85600 33.11900
C  47.58700 17.82300 32.75900
C  47.93600 17.46900 31.30100
C  47.36300 19.36500 32.86300
C  46.86400 15.55300 33.83200
C  46.63600 15.59800 35.36000
H  46.37900 16.98100 35.96700
N  48.87100 16.95700 28.38100
C  49.54700 17.72100 29.33500
C  50.77200 18.20700 28.79100
C  50.75900 17.88200 27.38000
C  49.56100 17.05200 27.13500
C  51.69900 19.13600 29.65500
C  51.67500 18.30600 26.28800
O  51.76100 17.76000 25.19900
C  52.80000 19.24400 26.63200
N  46.81200 15.59900 26.47300
C  47.69700 16.15400 25.58500
C  47.12400 15.97200 24.09400
C  45.79000 15.29700 24.30100
C  45.70200 15.09400 25.86600
C  47.04000 17.34300 23.46300
C  45.61900 14.00200 23.51100
C  46.20400 12.69300 23.98400
N  45.20100 15.15700 28.89200
C  44.29900 14.73200 27.91400
C  43.02900 14.39500 28.59800
C  43.21500 14.71500 29.94300
C  44.54500 15.22300 30.10400
C  41.74500 13.94700 28.02500
C  42.54100 14.84400 31.32900
O  41.39500 14.62800 31.65300
C  43.61500 15.49500 32.23200
C  43.06300 16.69500 32.92100
O  42.74700 17.76900 32.43200
O  42.96600 16.27500 34.31100
C  42.43600 17.33000 35.16000
H  49.82200 18.26000 31.45600
H  49.51400 16.96100 25.01000
H  43.67800 14.59500 25.86400
H  45.47700 17.25300 33.57200
H  48.46300 17.62500 33.37600
H  48.16500 19.95000 33.31200
H  46.42700 19.69300 33.31600
H  47.28200 19.75100 31.84700
H  47.94100 15.58200 33.67200
H  46.41000 14.63400 33.46200
H  47.54700 15.24500 35.84200
H  45.83600 14.92600 35.67200
H  52.64100 18.67200 29.94900
H  51.23800 19.25100 30.63600
H  51.95400 20.09900 29.21400
H  53.27900 19.07500 27.59600
H  52.39600 20.24800 26.50700
H  53.57300 18.93200 25.92900
H  47.87500 15.33300 23.62900
H  44.97500 15.99400 24.10800
H  45.99700 17.41000 23.15200
H  47.60900 17.44400 22.53900
H  47.40800 18.12900 24.12200
H  46.17900 14.16400 22.59000
H  44.61500 13.91700 23.09600
H  46.45900 12.01400 23.17100
H  45.42800 12.17100 24.54400
H  47.04300 12.86600 24.65900
H  41.72700 14.11000 26.94700
H  40.93300 14.46700 28.53200
H  41.68600 12.86700 28.15700
H  43.84200 14.65200 32.88500
H  42.92200 18.30200 35.07600
H  42.39100 16.93300 36.17400
H  41.42500 17.44300 34.76900
Mg 49.67200 45.49800 42.88400
C  46.15800 45.88500 41.89200
C  49.54100 42.43400 41.50900
C  52.94300 45.37900 43.19300
C  49.70800 48.98500 43.12800
N  47.99000 44.36200 41.72300
C  46.65900 44.61700 41.53300
C  45.91800 43.47200 40.90200
C  46.97900 42.30800 41.05400
C  48.28700 43.08500 41.45800
C  46.61100 41.29500 42.15600
C  45.67700 43.77900 39.38800
C  44.59800 42.97000 38.72100
H  44.69900 42.76300 37.21600
N  51.05700 44.03000 42.48600
C  50.81000 42.80100 41.94900
C  51.99600 41.95200 42.02900
C  53.03100 42.73400 42.56100
C  52.38900 44.11800 42.78500
C  52.12200 40.52600 41.47300
C  54.37800 42.23500 42.86600
O  54.68300 41.07900 42.54500
C  55.37800 43.10400 43.49000
N  51.16200 46.99000 43.12100
C  52.44700 46.69600 43.26900
C  53.29400 47.98500 43.62800
C  52.23100 49.18300 43.41300
C  50.91900 48.37800 43.25200
C  53.90400 48.05500 45.09500
C  52.40900 50.28200 42.31900
C  52.44800 51.75400 42.74700
N  48.23500 47.12100 42.81200
C  48.46900 48.44600 42.93600
C  47.22000 49.20200 42.90900
C  46.28800 48.17500 42.58500
C  46.97500 47.00000 42.36100
C  46.97700 50.70300 43.11800
C  44.86700 47.92000 42.42100
O  43.88500 48.62100 42.64500
C  44.71500 46.39600 41.88600
C  43.78800 45.56700 42.58700
O  42.73100 45.08900 42.16100
O  44.30700 45.30200 43.87600
C  43.56300 44.33300 44.64000
H  49.53700 41.41100 41.12700
H  54.01400 45.33700 43.40200
H  49.71900 50.04700 43.38100
H  44.94900 43.38400 41.39400
H  47.24100 41.81400 40.11900
H  47.26600 41.18700 43.02000
H  46.55700 40.30200 41.70900
H  45.66700 41.67700 42.54600
H  46.57300 43.65500 38.78000
H  45.38300 44.82200 39.27400
H  43.66400 43.51900 38.83900
H  44.44800 41.99100 39.17700
H  52.86200 40.41500 40.68100
H  51.18900 40.26100 40.97500
H  52.29900 39.79100 42.25900
H  54.93500 43.72000 44.27300
H  55.90800 43.67200 42.72500
H  56.03900 42.39200 43.98300
H  54.09700 47.95000 42.89200
H  52.01200 49.59300 44.39900
H  54.94700 47.74400 45.04100
H  53.31700 47.31900 45.64400
H  53.85500 49.01300 45.61400
H  51.68100 50.17200 41.51500
H  53.34900 49.94100 41.88500
H  52.00000 52.30100 41.91700
H  53.49600 52.00400 42.91300
H  51.98800 51.87700 43.72800
H  47.47700 51.00200 44.03900
H  45.89400 50.82300 43.16400
H  47.36600 51.16600 42.21200
H  44.23200 46.49600 40.91400
H  43.88700 44.40800 45.67700
H  43.51700 43.28600 44.33900
H  42.52400 44.66300 44.66000

