158

Mg 48.18900 35.60400 28.06600
C  46.40000 34.13700 30.46200
C  48.59400 38.44800 29.94700
C  49.82600 37.11100 25.35800
C  48.00600 32.70900 26.01700
N  47.39600 36.24800 29.92900
C  46.91500 35.35800 30.84900
C  47.16400 35.84000 32.29400
C  47.53900 37.35800 31.97300
C  47.89600 37.34900 30.56500
C  46.44200 38.39300 32.22700
C  48.42200 35.16100 32.90900
C  48.83500 35.43500 34.29400
H  47.91600 36.34700 35.19800
N  49.10800 37.44300 27.72400
C  49.25200 38.45700 28.69200
C  50.18900 39.53500 28.14700
C  50.46200 39.14200 26.79500
C  49.81500 37.81400 26.55900
C  50.55900 40.74200 28.97800
C  51.23900 40.01100 25.81100
O  51.35400 39.66000 24.66700
C  51.76600 41.27600 26.22500
N  48.80000 34.94900 25.95900
C  49.43100 35.79700 25.08400
C  49.60900 35.03200 23.68200
C  49.17500 33.56900 23.94600
C  48.66400 33.74300 25.41800
C  48.95400 35.81400 22.56300
C  50.27700 32.47600 23.74000
C  51.14400 32.70400 22.47300
N  47.29300 33.76600 28.11400
C  47.28500 32.65700 27.29400
C  46.50500 31.59000 27.85100
C  46.13800 32.14900 29.08100
C  46.64400 33.45800 29.21700
C  45.96100 30.36200 27.21700
C  45.35900 31.91000 30.29800
O  44.56600 30.98600 30.51000
C  45.47900 33.19400 31.25300
C  45.84900 32.74800 32.64200
O  46.78900 32.02700 32.93100
O  44.94800 33.25900 33.54200
C  45.09500 32.63500 34.84900
H  48.74200 39.29700 30.61700
H  50.23900 37.59500 24.47000
H  48.21800 31.77400 25.49300
H  46.30400 35.92100 32.95900
H  48.41800 37.70300 32.51700
H  46.69000 39.40800 31.91600
H  46.29600 38.47900 33.30400
H  45.43800 38.28700 31.81500
H  49.30200 35.22400 32.27000
H  48.19700 34.09800 33.00400
H  49.85300 35.82300 34.31400
H  48.94300 34.45800 34.76400
H  50.04800 41.67500 28.73800
H  51.64100 40.85500 28.90800
H  50.18400 40.60900 29.99300
H  52.31300 41.72300 25.39500
H  52.52100 41.21600 27.00900
H  50.99300 41.95200 26.59000
H  50.65300 35.11100 23.37700
H  48.28400 33.30600 23.37500
H  49.42700 36.78100 22.39300
H  47.88100 35.93400 22.70900
H  49.12900 35.32900 21.60300
H  49.79600 31.50300 23.64300
H  50.98700 32.43000 24.56600
H  50.57200 33.34900 21.80600
H  51.48200 31.77500 22.01400
H  52.05700 33.26700 22.67000
H  46.45300 30.08500 26.28400
H  44.92100 30.46200 26.90800
H  46.08000 29.59400 27.98200
H  44.59000 33.82400 31.29000
H  45.06900 31.54600 34.83800
H  44.22700 32.89600 35.45500
H  45.96600 33.03700 35.36600
Mg 10.08200 47.30300 25.42300
C  8.17100 47.30900 28.38200
C  12.55400 48.97500 27.14200
C  11.86900 47.06500 22.66300
C  7.11900 46.60300 23.69400
N  10.33000 47.92500 27.60900
C  9.47400 47.81300 28.62400
C  9.95500 48.48200 29.90300
C  11.12700 49.39600 29.31700
C  11.35100 48.76600 27.90400
C  10.85000 50.90700 29.24200
C  10.54800 47.37300 30.91600
C  10.30200 47.34100 32.43500
H  10.51000 45.98700 33.26000
N  12.01200 47.92000 24.98300
C  12.92800 48.46700 25.85200
C  14.19600 48.49200 25.16900
C  14.01400 47.87300 23.90700
C  12.57100 47.59600 23.76700
C  15.43400 48.82900 25.81800
C  14.98400 47.63600 22.76100
O  14.61800 47.29100 21.68700
C  16.38900 47.99300 22.95200
N  9.52700 47.08000 23.43000
C  10.46900 47.00800 22.46200
C  9.92100 46.47300 21.17400
C  8.42400 46.30200 21.49700
C  8.32300 46.70800 22.91300
C  10.13900 47.38400 19.90400
C  7.77800 44.90900 21.20500
C  6.35400 45.04700 20.58800
N  8.06300 46.90000 25.87100
C  7.01000 46.62000 25.07300
C  5.81800 46.40200 25.84200
C  6.25000 46.59200 27.17900
C  7.59600 46.96000 27.12800
C  4.49500 46.13700 25.31800
C  5.80100 46.56200 28.57100
O  4.70000 46.25100 29.05900
C  7.04000 46.99500 29.43500
C  7.41600 45.87900 30.38000
O  8.21300 44.96200 30.14800
O  6.77300 46.04900 31.60200
C  6.93600 44.99400 32.57500
H  13.35700 49.48400 27.68000
H  12.43700 46.69200 21.80900
H  6.16500 46.34100 23.23300
H  9.09600 49.01300 30.31300
H  12.03800 49.42300 29.91500
H  9.83400 51.03700 29.61700
H  10.93100 51.11900 28.17600
H  11.44500 51.55200 29.88900
H  11.63700 47.36700 30.85500
H  10.31200 46.37400 30.54900
H  9.23300 47.52800 32.54300
H  10.77700 48.20400 32.90100
H  16.12800 47.99000 25.87400
H  15.26900 49.19300 26.83200
H  15.86700 49.74000 25.40500
H  16.88100 47.19300 23.50400
H  16.50600 48.95700 23.44700
H  16.80600 47.95800 21.94600
H  10.44400 45.55800 20.89500
H  7.86200 47.05500 20.94400
H  10.46500 48.38400 20.18900
H  9.23100 47.57300 19.33200
H  10.98300 47.05900 19.29500
H  7.90900 44.31700 22.11100
H  8.35100 44.41100 20.42400
H  5.65100 44.26700 20.88000
H  6.26400 44.92200 19.50900
H  5.89200 46.02200 20.74200
H  4.63600 45.73400 24.31500
H  3.96200 47.08800 25.30900
H  4.02100 45.37900 25.94200
H  6.70200 47.84400 30.02900
H  7.14200 45.28600 33.60500
H  7.77500 44.31100 32.44500
H  6.00500 44.43400 32.65500

