158

Mg 1.02100 7.68000 27.13700
C  1.95200 10.18200 29.63400
C  0.73800 5.45700 29.80500
C  0.15600 5.51100 24.88200
C  1.77600 10.12700 24.73100
N  1.34000 7.89700 29.50400
C  1.58900 8.97200 30.22600
C  1.16700 8.72400 31.64500
C  1.17800 7.13700 31.77000
C  1.06600 6.78300 30.27300
C  2.53000 6.47600 32.31500
C  -0.15300 9.41000 32.12700
C  -0.31400 9.77200 33.60900
H  0.80100 9.28200 34.58000
N  0.65300 5.66000 27.31700
C  0.56800 4.89200 28.48300
C  0.17100 3.52400 28.13200
C  -0.13200 3.57600 26.69600
C  0.27500 4.91300 26.17000
C  -0.03400 2.45700 29.19300
C  -0.80500 2.54800 25.77300
O  -0.90200 2.65100 24.59400
C  -1.44700 1.30200 26.42400
N  1.20200 7.70300 25.13600
C  0.59400 6.74200 24.39100
C  0.56100 7.14900 22.88300
C  1.08700 8.64300 22.80300
C  1.49400 8.84400 24.29300
C  1.28400 6.07700 22.00200
C  -0.01000 9.62300 22.33900
C  0.55600 10.93400 21.81300
N  1.71700 9.72000 27.10400
C  1.94000 10.57500 26.04800
C  2.34000 11.88200 26.53100
C  2.37800 11.76700 27.92200
C  1.93600 10.44700 28.21900
C  2.82700 13.00700 25.67900
C  2.78100 12.45900 29.14600
O  3.37900 13.50700 29.31300
C  2.40600 11.47600 30.30200
C  3.51800 11.29200 31.27700
O  4.43600 10.46900 31.19400
O  3.38400 12.19600 32.23400
C  4.19300 11.96600 33.42900
H  0.66700 4.74100 30.62700
H  -0.36100 4.98300 24.07800
H  1.92900 10.93700 24.01400
H  1.97600 9.09600 32.27300
H  0.33800 6.82300 32.38900
H  2.35400 5.98500 33.27200
H  3.32200 7.20200 32.50100
H  2.83300 5.82200 31.49700
H  -0.94300 8.66800 32.00500
H  -0.41400 10.28600 31.53200
H  -1.31800 9.58800 33.99300
H  -0.24300 10.85900 33.66100
H  0.13900 1.41800 28.91300
H  -1.09400 2.53000 29.43300
H  0.43900 2.54800 30.17100
H  -1.73600 1.46300 27.46200
H  -0.94100 0.36000 26.21100
H  -2.39300 1.26500 25.88400
H  -0.49200 7.00900 22.63500
H  1.94600 8.68600 22.13300
H  2.07400 5.76800 22.68700
H  1.75300 6.57100 21.15200
H  0.76600 5.17100 21.68600
H  -0.60900 9.94500 23.19100
H  -0.58500 9.14400 21.54600
H  0.05400 11.05800 20.85300
H  1.62100 10.99200 21.59100
H  0.28500 11.70000 22.54000
H  2.10400 13.02000 24.86300
H  3.83400 12.85500 25.29100
H  2.70900 14.00000 26.11200
H  1.55000 11.91400 30.81600
H  4.52900 12.91400 33.84700
H  4.94500 11.17700 33.44700
H  3.47600 11.63500 34.18100
Mg 4.83600 54.68400 40.34300
C  4.34600 51.19100 40.58600
C  8.18200 54.01600 39.53600
C  5.14700 57.81200 39.36100
C  1.36500 55.15100 40.92100
N  6.10500 52.74800 39.85900
C  5.68800 51.45500 40.12100
C  6.85000 50.44500 39.89400
C  8.06500 51.38300 39.98600
C  7.46400 52.82200 39.74900
C  8.72500 51.33000 41.35500
C  6.67300 49.55600 38.57000
C  6.02000 50.24700 37.40100
H  6.92600 51.11000 36.51700
N  6.43000 55.80300 39.59200
C  7.76100 55.38200 39.41800
C  8.64900 56.47900 39.04900
C  7.71700 57.66500 39.04100
C  6.34400 57.10000 39.24500
C  10.14500 56.39800 38.70400
C  8.14900 59.06300 38.83900
O  9.34500 59.31300 38.82300
C  7.23900 60.14200 38.83200
N  3.46200 56.21000 40.12000
C  3.86700 57.43900 39.74600
C  2.78600 58.51300 39.97200
C  1.52800 57.67100 40.45600
C  2.17900 56.22400 40.47200
C  3.15300 59.67400 40.95800
C  0.32400 57.76900 39.50600
C  -1.12000 58.05400 40.02300
N  3.15200 53.45600 40.58400
C  1.83800 53.81000 40.90500
C  1.10800 52.67600 41.40400
C  2.07700 51.66000 41.33000
C  3.25000 52.18200 40.71200
C  -0.33600 52.50000 41.86700
C  2.40500 50.24400 41.64700
O  1.81800 49.35900 42.21000
C  3.77900 49.88300 41.06900
C  3.70300 48.81800 40.02600
O  3.33700 49.00700 38.92900
O  4.15500 47.61100 40.53800
C  4.09500 46.51600 39.55900
H  9.27000 53.95100 39.47000
H  5.11000 58.86200 39.06500
H  0.34000 55.34500 41.24400
H  6.83700 49.72300 40.71000
H  8.77200 51.15300 39.18900
H  9.81000 51.37900 41.25900
H  8.52100 50.37300 41.83500
H  8.40900 52.16600 41.97800
H  6.17400 48.62400 38.83400
H  7.70100 49.30700 38.30400
H  5.29200 50.91400 37.86300
H  5.56800 49.43300 36.83400
H  10.31100 55.54100 38.05200
H  10.74900 56.19500 39.58900
H  10.52500 57.23400 38.11700
H  7.78300 61.07000 38.65100
H  6.70100 60.15300 39.77900
H  6.60900 60.04000 37.94800
H  2.77100 59.02600 39.01100
H  1.25400 57.91100 41.48400
H  2.57300 59.72600 41.87900
H  3.00700 60.60500 40.41100
H  4.17400 59.46700 41.28000
H  0.20700 56.95100 38.79500
H  0.62800 58.70900 39.04500
H  -1.00300 59.09200 40.33400
H  -1.42400 57.43100 40.86400
H  -1.93000 58.02400 39.29400
H  -0.73500 51.49900 41.70900
H  -1.02200 53.19600 41.38500
H  -0.33600 52.89400 42.88400
H  4.31600 49.45300 41.91500
H  3.01700 46.35600 39.52100
H  4.54700 45.63200 40.01100
H  4.41300 46.68900 38.53100

