158

Mg 7.46400 2.82400 28.58200
C  8.73900 1.50400 31.34700
C  5.25600 4.71100 30.29000
C  6.32200 4.11500 25.65200
C  9.24700 0.46500 26.76800
N  7.01700 2.99300 30.61100
C  7.81900 2.50100 31.60200
C  7.33100 3.02600 33.00800
C  5.93400 3.75700 32.60900
C  6.04600 3.83500 31.07700
C  4.71400 2.92400 33.01000
C  8.29700 4.03200 33.65600
C  8.07000 4.33600 35.12900
H  9.02600 3.72100 36.14500
N  6.00100 4.22200 28.03000
C  5.21000 4.95500 28.89200
C  4.51600 5.95300 28.12200
C  4.83400 5.76400 26.75500
C  5.80900 4.66400 26.74100
C  3.55700 6.96100 28.71200
C  4.47500 6.60900 25.59400
O  4.90800 6.42400 24.47500
C  3.48100 7.70100 25.79400
N  7.70400 2.32300 26.55600
C  7.18500 3.03500 25.46700
C  7.51600 2.53200 24.10600
C  8.65600 1.55000 24.44800
C  8.56100 1.40500 26.03300
C  6.33200 1.75800 23.34100
C  10.10400 2.10500 24.00400
C  10.52000 3.42200 24.76700
N  8.69400 1.14100 28.89100
C  9.43300 0.35700 28.10700
C  10.19700 -0.57200 28.89900
C  10.01800 -0.08600 30.19400
C  9.06500 0.90800 30.09500
C  10.80500 -1.73400 28.37600
C  10.44100 -0.21900 31.57500
O  11.31600 -0.94700 32.05600
C  9.53800 0.82800 32.37100
C  8.84000 0.03500 33.47500
O  7.72100 -0.48800 33.42400
O  9.63900 -0.08300 34.60700
C  9.03400 -0.74400 35.82400
H  4.66800 5.34400 30.95900
H  6.00600 4.55200 24.70300
H  9.78000 -0.27200 26.16300
H  7.12800 2.18200 33.66800
H  5.99800 4.76500 33.01800
H  4.77700 1.83800 33.07300
H  3.92900 3.17400 32.29600
H  4.20200 3.36000 33.86800
H  8.11500 4.99100 33.17000
H  9.32100 3.67300 33.55200
H  7.07500 3.97000 35.38000
H  8.05600 5.41500 35.28600
H  3.56300 6.96000 29.80200
H  2.53500 6.73000 28.41000
H  3.81300 7.97700 28.41200
H  3.92400 8.50700 26.37800
H  2.49100 7.30100 26.01600
H  3.49400 8.24400 24.84900
H  7.76500 3.35700 23.43900
H  8.56400 0.62200 23.88500
H  5.45100 2.09800 23.88700
H  6.28400 0.67100 23.28900
H  6.33400 2.17500 22.33400
H  10.08500 2.26000 22.92500
H  10.72600 1.23400 24.21000
H  9.72900 3.79800 25.41600
H  10.74400 4.20500 24.04300
H  11.48300 3.25800 25.25100
H  11.70800 -1.49900 27.81200
H  10.10200 -2.15800 27.65900
H  11.04700 -2.41000 29.19600
H  10.17300 1.48400 32.96600
H  8.18100 -1.30200 35.43800
H  8.76000 0.01800 36.55400
H  9.76800 -1.40800 36.28000
Mg 27.13600 50.28300 25.95200
C  25.20900 51.33300 28.84400
C  29.58600 49.23900 28.19700
C  29.16400 49.90100 23.36200
C  24.75200 51.95200 24.00100
N  27.30100 50.26400 28.29800
C  26.38900 50.71200 29.25200
C  26.88000 50.41300 30.68400
C  28.26500 49.79500 30.45200
C  28.41500 49.66700 28.91000
C  29.43500 50.61100 31.05900
C  25.92900 49.56200 31.50600
C  25.61500 50.11100 32.89100
H  26.66600 49.93400 33.98100
N  28.97300 49.48200 25.77600
C  29.82400 49.16600 26.84400
C  31.08100 48.74700 26.24900
C  30.99700 48.91200 24.81100
C  29.69200 49.43700 24.57900
C  32.20700 48.25700 27.11800
C  32.02700 48.57600 23.80000
O  31.74400 48.64800 22.56800
C  33.47100 48.12900 24.14700
N  27.02000 50.95400 24.03400
C  27.90600 50.46800 23.11500
C  27.38600 50.58700 21.69600
C  25.87800 51.03100 21.92000
C  25.85200 51.35000 23.40200
C  28.17100 51.58000 20.77900
C  24.74100 50.07900 21.46700
C  23.60000 50.76400 20.66400
N  25.28200 51.37000 26.30300
C  24.46000 52.04100 25.43000
C  23.30100 52.57800 26.09600
C  23.58400 52.29000 27.42300
C  24.78500 51.60300 27.49300
C  22.17900 53.20000 25.54200
C  23.02500 52.37700 28.82200
O  21.94600 52.83700 29.14600
C  24.08400 51.79500 29.85200
C  24.51900 52.82800 30.88200
O  25.44800 53.57600 30.81000
O  23.56100 52.84400 31.85900
C  23.76200 53.71200 33.07900
H  30.24300 48.77700 28.93700
H  29.80900 49.77000 22.49100
H  23.99300 52.37800 23.34200
H  27.04400 51.31200 31.27800
H  28.39400 48.82200 30.92700
H  29.14000 51.60300 31.40100
H  30.15600 50.69400 30.24500
H  29.88900 50.03600 31.86700
H  26.38100 48.57700 31.62600
H  24.96600 49.42300 31.01500
H  24.67900 49.63000 33.17600
H  25.25200 51.13600 32.82800
H  32.94700 49.04100 27.28100
H  32.64700 47.41000 26.59000
H  31.89400 48.01200 28.13300
H  33.91300 47.72800 23.23500
H  33.43100 47.17600 24.67400
H  33.92100 48.96600 24.68100
H  27.53700 49.69000 21.09600
H  25.83300 51.93500 21.31300
H  28.78800 52.22900 21.40100
H  27.60500 52.26600 20.15000
H  28.81700 50.95200 20.16600
H  24.33300 49.59100 22.35200
H  25.23300 49.30600 20.87600
H  22.64500 50.48300 21.10900
H  23.67200 50.35200 19.65700
H  23.72000 51.84700 20.67500
H  22.47800 54.06400 24.94900
H  21.44200 53.54300 26.26800
H  21.62400 52.50800 24.90800
H  23.66900 50.97100 30.43300
H  24.23200 54.62200 32.70500
H  24.55000 53.23500 33.66200
H  22.85300 53.83400 33.66800

