158

Mg 26.73000 49.16700 27.37000
C  24.54500 50.62700 29.75500
C  28.76900 48.12900 29.93700
C  28.76700 48.03100 25.02600
C  24.66300 50.39300 24.85800
N  26.75500 49.47300 29.65100
C  25.62400 49.91300 30.35900
C  25.78800 49.56500 31.85200
C  27.27300 48.94900 31.89600
C  27.60900 48.79700 30.40400
C  28.41100 49.80900 32.50500
C  24.62800 48.59800 32.21500
C  23.78500 48.78200 33.51400
H  23.85600 47.74500 34.57200
N  28.47000 48.20100 27.46700
C  29.13900 47.86400 28.60000
C  30.43000 47.41100 28.13900
C  30.55500 47.43800 26.72500
C  29.18600 47.86200 26.35300
C  31.47400 46.98000 29.19200
C  31.71000 46.97800 25.73600
O  31.69700 47.14900 24.52600
C  33.02000 46.47000 26.39900
N  26.80200 49.40600 25.25000
C  27.67200 48.65600 24.51000
C  27.34100 48.77200 22.96600
C  26.17300 49.71600 22.90600
C  25.84400 49.78800 24.41200
C  28.63800 49.20600 22.12700
C  25.14500 49.38500 21.88400
C  24.20900 48.18600 22.28900
N  25.01100 50.34100 27.27700
C  24.28800 50.72200 26.16300
C  23.25700 51.63900 26.58000
C  23.26600 51.57400 27.97200
C  24.34900 50.80900 28.35600
C  22.24900 52.23100 25.64500
C  22.60100 52.01000 29.19000
O  21.63100 52.71800 29.37700
C  23.42500 51.29600 30.39600
C  23.85400 52.38600 31.35100
O  24.88700 53.04800 31.32400
O  23.03400 52.29800 32.48300
C  23.35500 52.96400 33.78600
H  29.36000 47.71700 30.75900
H  29.41700 47.49400 24.33100
H  23.98000 50.79100 24.10500
H  25.67700 50.44100 32.49200
H  27.30900 47.93100 32.28500
H  29.18300 50.08300 31.78600
H  28.98400 49.17100 33.17800
H  28.02100 50.69800 33.00200
H  24.98800 47.56900 32.23700
H  23.84400 48.59200 31.45900
H  22.72000 48.88400 33.30300
H  24.06200 49.73300 33.96800
H  31.97900 46.02400 29.05500
H  31.18600 46.92900 30.24200
H  32.26600 47.72900 29.17400
H  33.48600 47.26000 26.98800
H  33.63400 46.19900 25.54100
H  32.90700 45.54300 26.96100
H  26.98600 47.77400 22.70900
H  26.53200 50.73000 22.72900
H  29.49000 49.53900 22.72000
H  28.43900 50.02800 21.43900
H  28.93200 48.32900 21.55100
H  25.59500 49.22600 20.90400
H  24.45600 50.22800 21.82600
H  24.29800 47.98900 23.35700
H  24.55500 47.40200 21.61600
H  23.21500 48.59700 22.11100
H  21.99300 51.40900 24.97600
H  22.80900 53.08100 25.25600
H  21.34300 52.51900 26.17800
H  22.79900 50.59100 30.94300
H  22.36700 53.03900 34.23900
H  23.86600 53.91900 33.67000
H  23.87500 52.28200 34.46000
Mg 6.30600 53.11700 41.53300
C  5.61800 49.70000 41.39700
C  9.63400 52.45100 40.83900
C  6.97600 56.56500 41.44700
C  2.95000 53.86000 41.87600
N  7.45300 51.19600 40.92500
C  6.98000 49.94600 41.06000
C  8.15500 48.90200 40.88300
C  9.45200 49.88800 40.84000
C  8.85500 51.29100 40.99100
C  10.52700 49.47500 41.93800
C  8.12700 48.17400 39.56800
C  8.08000 48.96000 38.26000
H  7.15700 48.45200 37.19800
N  8.08800 54.34100 41.21200
C  9.35400 53.82200 41.01500
C  10.28600 54.95500 40.75500
C  9.55100 56.09100 40.90000
C  8.11700 55.71600 41.31200
C  11.81100 54.84900 40.51900
C  10.15700 57.53100 40.68900
O  11.34600 57.60500 40.42500
C  9.39200 58.80000 40.69300
N  5.14400 54.93000 41.59200
C  5.63500 56.20400 41.62600
C  4.54300 57.18600 41.60300
C  3.22900 56.36500 41.71500
C  3.78100 54.97800 41.65800
C  4.60500 58.31900 42.67500
C  2.05500 56.49800 40.64300
C  1.01000 57.54100 41.16000
N  4.62600 52.02900 41.57100
C  3.31100 52.49000 41.77300
C  2.42700 51.33600 42.11700
C  3.30500 50.20700 41.87600
C  4.60600 50.69100 41.62000
C  1.03200 51.35800 42.56400
C  3.38700 48.73800 41.98000
O  2.51800 47.92700 42.36100
C  4.81200 48.37500 41.60100
C  4.83600 47.49500 40.46400
O  4.41800 47.76400 39.36000
O  5.36700 46.29200 40.76400
C  5.41400 45.36500 39.61900
H  10.65500 52.14900 40.59600
H  7.15300 57.64200 41.44500
H  1.92700 54.13400 42.14100
H  8.27700 48.17100 41.68200
H  10.08700 49.78100 39.96000
H  11.47700 49.08900 41.56700
H  10.04900 48.90200 42.73300
H  10.77500 50.45900 42.33600
H  7.32900 47.43200 39.57700
H  9.08200 47.64900 39.57800
H  9.05600 48.80300 37.80200
H  7.76200 49.98800 38.43500
H  12.09900 55.34200 39.59100
H  12.10200 53.81100 40.36400
H  12.31700 55.31400 41.36600
H  8.58000 58.77300 39.96700
H  9.93500 59.72300 40.48800
H  9.07900 59.01300 41.71500
H  4.54600 57.56100 40.58000
H  2.76300 56.43700 42.69800
H  3.68500 58.49400 43.23200
H  4.77600 59.30200 42.23700
H  5.41900 58.11300 43.37100
H  1.51500 55.57200 40.44500
H  2.37300 56.88300 39.67400
H  0.85600 58.19100 40.29900
H  1.41400 58.13800 41.97700
H  0.00800 57.21800 41.44200
H  0.76100 50.79100 43.45500
H  0.58000 50.92800 41.67000
H  0.76600 52.40200 42.73100
H  5.24500 47.79300 42.41500
H  5.91500 44.41000 39.77700
H  5.97000 45.76600 38.77200
H  4.40700 45.19200 39.23700

