158

Mg 35.52200 48.00000 26.22000
C  35.79900 46.34500 29.30900
C  34.11900 50.68600 27.83100
C  34.93000 49.25500 23.18300
C  36.41000 44.83600 24.73100
N  35.00800 48.48400 28.30900
C  35.33600 47.70100 29.40000
C  35.07900 48.46700 30.71000
C  34.11100 49.60500 30.23000
C  34.50600 49.69200 28.72700
C  32.53100 49.37900 30.31300
C  36.48300 48.94400 31.26800
C  36.61600 48.85400 32.81700
H  35.75200 49.87600 33.74700
N  34.72600 49.80300 25.59100
C  34.16400 50.78200 26.40100
C  33.69300 51.89100 25.63700
C  34.00100 51.51000 24.24000
C  34.59100 50.15400 24.29200
C  33.13000 53.19800 26.18400
C  33.70300 52.22000 22.99000
O  34.07000 51.72200 21.94600
C  32.82400 53.50100 22.98300
N  35.57300 47.12200 24.25500
C  35.42700 47.90000 23.14100
C  35.72200 47.17500 21.82800
C  36.22100 45.78600 22.34400
C  36.05700 45.85900 23.84600
C  34.41200 47.16200 20.86000
C  37.71400 45.49500 22.00900
C  38.07900 45.39300 20.47500
N  36.03100 45.98000 26.89000
C  36.44600 44.90900 26.12600
C  36.83000 43.83600 26.99600
C  36.58200 44.37600 28.31300
C  36.02700 45.64400 28.19300
C  37.41000 42.49200 26.54300
C  36.77400 44.13000 29.77400
O  37.28100 43.29000 30.51500
C  36.24600 45.45000 30.40000
C  35.19000 44.97900 31.32300
O  34.25800 44.29600 30.97700
O  35.60900 45.24800 32.65300
C  34.52200 44.84200 33.62600
H  33.62300 51.49300 28.37500
H  34.94800 49.59900 22.14600
H  36.71500 43.91800 24.22500
H  34.46600 48.05900 31.51300
H  34.31300 50.57100 30.69100
H  32.26700 48.59600 31.02400
H  31.99600 49.15500 29.39000
H  32.00300 50.25600 30.68600
H  36.64900 49.99500 31.03000
H  37.26600 48.33100 30.82200
H  37.66300 49.07100 33.02900
H  36.28200 47.88500 33.18800
H  34.00600 53.80300 25.95200
H  32.96400 53.22200 27.26200
H  32.30600 53.65600 25.63700
H  31.80600 53.17100 23.19100
H  32.65600 53.87400 21.97300
H  33.17400 54.33100 23.59600
H  36.54400 47.68700 21.32600
H  35.60400 44.99000 21.92800
H  34.24800 46.12300 20.57400
H  34.58800 47.79200 19.98800
H  33.51300 47.41100 21.42500
H  38.09800 44.63200 22.55400
H  38.23000 46.35600 22.43400
H  37.14600 45.56900 19.94000
H  38.69700 44.51300 20.29600
H  38.61500 46.34000 20.41700
H  37.85300 42.54100 25.54900
H  36.61700 41.75900 26.68600
H  38.18500 42.27200 27.27800
H  37.09500 45.81700 30.97600
H  34.57700 43.76700 33.79900
H  33.48900 44.96300 33.29800
H  34.57400 45.56000 34.44400
Mg 1.09500 43.95600 25.15500
C  3.03500 43.81000 28.06800
C  -1.72000 43.10100 27.19600
C  -0.79000 43.20100 22.35000
C  3.79600 44.16000 23.30200
N  0.77100 43.57200 27.48600
C  1.74200 43.61600 28.42300
C  1.09700 43.31700 29.77500
C  -0.44700 42.94100 29.42000
C  -0.51700 43.20900 27.94700
C  -0.94000 41.52400 29.78000
C  1.15800 44.60500 30.69600
C  0.47000 44.48400 32.12800
H  0.34500 43.10700 32.84400
N  -1.01500 43.59400 24.77600
C  -1.93200 43.37000 25.80000
C  -3.21500 43.34900 25.18200
C  -3.03100 43.10800 23.72800
C  -1.54200 43.25700 23.52100
C  -4.54200 43.53400 26.00400
C  -4.10400 43.01600 22.71400
O  -3.94700 43.06900 21.50600
C  -5.51600 43.05700 23.20000
N  1.43800 43.68000 23.03400
C  0.51800 43.49500 22.00300
C  1.16700 43.45700 20.61800
C  2.63200 43.87400 20.95800
C  2.64700 43.94900 22.54800
C  1.17000 42.04800 19.89300
C  3.00500 45.25500 20.23600
C  2.53100 46.71500 20.82900
N  3.02000 44.02700 25.53900
C  3.98800 44.29300 24.67800
C  5.26300 44.44100 25.43900
C  4.88200 44.17600 26.75100
C  3.47700 43.96300 26.77700
C  6.58600 44.66500 24.86700
C  5.42000 43.95200 28.09200
O  6.58700 43.77800 28.43500
C  4.27900 43.84600 29.05300
C  4.29600 42.55400 29.81700
O  4.04700 41.46900 29.34300
O  4.58600 42.73600 31.17400
C  4.69500 41.55100 32.03400
H  -2.55200 42.82900 27.84900
H  -1.35300 42.83000 21.49100
H  4.69100 44.32100 22.69800
H  1.49400 42.50100 30.37800
H  -1.19900 43.53600 29.93800
H  -1.87700 41.65400 30.32200
H  -0.23700 41.07800 30.48300
H  -1.20700 41.00500 28.86000
H  0.72800 45.43400 30.13400
H  2.18700 44.83900 30.97000
H  -0.56000 44.81100 31.98100
H  1.10500 45.12700 32.73700
H  -5.13900 44.33700 25.57100
H  -4.46800 43.71900 27.07500
H  -5.10600 42.60500 25.92400
H  -5.67100 42.21300 23.87100
H  -6.13700 42.82300 22.33500
H  -5.77200 44.01200 23.66000
H  0.59400 44.20400 20.06900
H  3.31300 43.04600 20.76100
H  0.60600 41.38700 20.55000
H  2.09800 41.57800 19.56500
H  0.49900 42.21400 19.05100
H  2.60900 45.26000 19.22100
H  4.06700 45.34400 20.00700
H  2.25000 47.38100 20.01300
H  3.37300 47.18700 21.33500
H  1.66500 46.77000 21.49000
H  6.83700 45.72500 24.90200
H  6.68100 44.28000 23.85100
H  7.27300 44.01200 25.40500
H  4.31300 44.64100 29.79800
H  5.64700 41.04600 31.87000
H  3.84000 40.90900 31.82200
H  4.63300 41.90000 33.06500

