158

Mg 8.47400 3.29600 27.24400
C  9.97400 1.93200 30.03400
C  6.58100 5.37300 29.21600
C  7.37600 4.85300 24.51800
C  10.03200 0.87700 25.18400
N  8.06400 3.34200 29.46100
C  8.97200 2.90300 30.38400
C  8.69900 3.47600 31.79500
C  7.46800 4.42600 31.48700
C  7.36500 4.42300 29.95900
C  6.12800 3.97800 32.16000
C  9.94000 4.20400 32.47000
C  9.74400 4.79800 33.79300
H  10.74300 4.24200 34.93800
N  7.11700 4.92900 26.92100
C  6.49500 5.68600 27.86400
C  5.68100 6.67700 27.22400
C  6.09500 6.68200 25.81500
C  6.95300 5.46800 25.69400
C  4.78000 7.59600 27.97300
C  5.65700 7.59000 24.59800
O  5.92600 7.33700 23.44100
C  4.70300 8.74700 24.96400
N  8.49400 2.78700 25.14500
C  7.94800 3.62500 24.21100
C  7.92900 2.97600 22.75000
C  8.75000 1.65900 22.97400
C  9.13000 1.76800 24.52400
C  6.44900 2.81000 22.26500
C  10.07400 1.65500 22.26300
C  10.36300 0.42900 21.31700
N  9.67800 1.72600 27.50400
C  10.27000 0.83400 26.59300
C  11.25100 0.00100 27.24200
C  11.23300 0.44800 28.61900
C  10.21100 1.45300 28.68900
C  12.10000 -1.03000 26.56000
C  11.82300 0.30800 29.97200
O  12.67800 -0.50400 30.41300
C  11.00100 1.25000 30.89700
C  10.36000 0.45700 32.03300
O  9.57300 -0.41300 31.86800
O  10.91600 0.77900 33.29500
C  10.49600 0.00200 34.46600
H  6.09100 6.03500 29.93300
H  7.14900 5.34700 23.57100
H  10.60600 0.20500 24.54100
H  8.53400 2.54500 32.33700
H  7.65700 5.45600 31.78800
H  6.42900 3.30500 32.96200
H  5.53100 3.50800 31.37800
H  5.56100 4.86400 32.44500
H  10.42600 4.95000 31.84100
H  10.69600 3.41900 32.50800
H  8.73400 4.66200 34.18200
H  10.02800 5.84400 33.67800
H  5.14300 8.62400 27.99200
H  4.41500 7.23900 28.93600
H  3.87000 7.75800 27.39600
H  3.72300 8.45300 25.34200
H  4.47600 9.30700 24.05700
H  5.23800 9.38300 25.66800
H  8.43400 3.59500 22.00900
H  8.18400 0.74200 22.81300
H  6.47200 1.96700 21.57400
H  5.98900 3.68100 21.79600
H  5.94000 2.50700 23.18000
H  10.89600 1.89400 22.93700
H  10.17600 2.53600 21.62900
H  10.34000 0.64300 20.24800
H  9.65600 -0.35000 21.60300
H  11.32500 -0.01300 21.57800
H  12.90700 -0.72000 25.89600
H  11.45900 -1.74300 26.04200
H  12.56500 -1.68500 27.29800
H  11.78200 1.82200 31.39800
H  9.62900 -0.64400 34.32300
H  10.24800 0.71700 35.25000
H  11.35700 -0.53600 34.86200
Mg 42.70000 41.35100 26.22100
C  41.92200 43.92200 28.55100
C  43.62800 39.38300 28.66300
C  43.78200 39.25500 23.77600
C  41.99500 43.77700 23.68000
N  42.57500 41.59200 28.37000
C  42.26900 42.68400 29.12200
C  42.21800 42.26600 30.61700
C  43.01700 40.92100 30.58900
C  43.11900 40.60700 29.11100
C  44.41000 40.94500 31.32100
C  40.76900 42.27400 31.26700
C  40.58800 43.18100 32.45400
H  40.19200 42.59900 33.78600
N  43.35500 39.58500 26.20000
C  43.73700 38.91700 27.34900
C  44.36400 37.59600 26.96100
C  44.02400 37.42800 25.59100
C  43.70300 38.79000 25.09000
C  44.96800 36.68400 28.06300
C  43.98800 36.24600 24.72000
O  43.37500 36.35300 23.66600
C  44.47900 34.91500 25.14900
N  42.95100 41.52900 24.00800
C  43.44600 40.53100 23.29300
C  43.32000 40.73300 21.73800
C  42.63600 42.13300 21.72600
C  42.46500 42.49300 23.21300
C  44.70500 40.57000 20.92900
C  41.20200 42.13500 21.13600
C  40.67100 43.32900 20.31000
N  42.00000 43.40000 26.11900
C  41.73200 44.19000 25.02200
C  41.11100 45.41300 25.48400
C  41.17200 45.36500 26.83100
C  41.74200 44.16300 27.17000
C  40.67000 46.55600 24.51700
C  40.87500 46.14300 28.05600
O  40.25200 47.15500 28.17300
C  41.32200 45.22200 29.25400
C  42.38600 45.77700 30.11800
O  43.59800 45.59300 29.96700
O  41.83400 46.60800 31.06200
C  42.80800 47.26000 31.83800
H  43.94000 38.71000 29.46500
H  44.08900 38.66400 22.91100
H  41.72000 44.56800 22.98000
H  42.87200 43.03800 31.02300
H  42.41200 40.19900 31.13600
H  44.44300 40.09400 32.00100
H  44.48400 41.85600 31.91500
H  45.22200 40.98800 30.59400
H  40.58600 41.24600 31.58000
H  39.97800 42.48500 30.54800
H  39.75700 43.78400 32.08900
H  41.33800 43.96100 32.58400
H  45.30300 37.25900 28.92600
H  45.86000 36.20900 27.65600
H  44.25500 35.92500 28.38400
H  45.54800 35.04700 25.31500
H  44.44000 34.15500 24.36900
H  44.05100 34.60600 26.10300
H  42.54300 40.05400 21.38900
H  43.05800 42.94200 21.12900
H  45.27400 39.72700 21.32200
H  45.28200 41.47700 20.75000
H  44.43900 40.21800 19.93300
H  40.53500 42.08000 21.99700
H  40.93700 41.36500 20.41200
H  40.24000 44.07400 20.98000
H  39.93600 42.85200 19.66000
H  41.48400 43.81700 19.77300
H  40.14200 46.24900 23.61400
H  41.55900 47.16500 24.34800
H  39.97400 47.20100 25.05200
H  40.46100 44.99600 29.88300
H  43.54500 47.77200 31.22000
H  43.33500 46.60900 32.53500
H  42.33700 48.06500 32.40200

