158

Mg 16.17400 51.34300 25.43300
C  17.93600 50.53600 28.27800
C  13.42500 52.10700 27.17000
C  14.58200 51.83900 22.50400
C  18.92800 49.92400 23.67400
N  15.76000 51.17900 27.45500
C  16.68100 51.07500 28.48400
C  16.03800 51.60300 29.84100
C  14.49200 51.66000 29.56400
C  14.51000 51.68800 27.94600
C  13.74600 50.49600 30.10200
C  16.73300 52.89100 30.35700
C  16.53100 53.31000 31.80300
H  15.89000 52.40100 32.82000
N  14.17300 51.85000 24.88300
C  13.15200 52.22400 25.76400
C  11.94200 52.61900 25.03400
C  12.20500 52.28800 23.62300
C  13.71400 52.00100 23.61200
C  10.62300 52.80300 25.75800
C  11.20200 52.09700 22.43800
O  11.58200 51.71700 21.33400
C  9.73900 52.22800 22.66300
N  16.64100 51.02600 23.36700
C  15.87800 51.33300 22.37200
C  16.51600 51.16100 20.99700
C  17.91600 50.61800 21.39400
C  17.84000 50.55000 22.93600
C  15.58100 50.30900 20.05300
C  19.05000 51.58100 20.90700
C  20.22800 50.91200 20.12600
N  18.07600 50.50700 25.83400
C  19.10100 50.01600 25.05700
C  20.29700 49.68800 25.76100
C  19.85400 49.87300 27.13100
C  18.55400 50.38200 27.06600
C  21.57200 49.11500 25.13100
C  20.26100 49.81800 28.50000
O  21.36100 49.61900 28.95200
C  18.98600 50.22300 29.30300
C  18.52900 49.22100 30.30100
O  17.93800 48.19100 30.00600
O  18.84900 49.70500 31.56200
C  18.41400 48.98300 32.74000
H  12.64200 52.50900 27.81700
H  14.03100 52.06500 21.58900
H  19.65800 49.43900 23.02100
H  16.23500 50.82300 30.57700
H  14.03600 52.58500 29.91700
H  14.15200 49.89000 30.91200
H  13.31900 49.93400 29.27100
H  12.95000 50.98500 30.66400
H  16.27400 53.66800 29.74600
H  17.79100 52.83800 30.10100
H  15.95100 54.22800 31.70600
H  17.53300 53.49000 32.19200
H  10.69400 53.24700 26.75200
H  10.13800 51.83100 25.84700
H  10.03500 53.57000 25.25400
H  9.54300 53.24400 23.00700
H  9.49100 51.49600 23.43200
H  9.23500 52.08100 21.70800
H  16.52600 52.17800 20.60300
H  18.07300 49.61900 20.98700
H  16.16300 49.53600 19.55100
H  15.19500 50.93400 19.24700
H  14.72600 49.80200 20.50000
H  19.46100 52.00000 21.82500
H  18.66800 52.40700 20.30700
H  20.08900 49.83700 20.01300
H  21.21600 51.12200 20.53800
H  20.27200 51.27700 19.10000
H  21.67900 49.45900 24.10300
H  21.57300 48.02500 25.15800
H  22.40800 49.53600 25.69100
H  19.24000 51.19700 29.72200
H  19.02400 49.32200 33.57700
H  18.71000 47.93800 32.64000
H  17.37200 49.14200 33.01700
Mg -0.58000 42.74800 24.81100
C  1.94800 42.16900 27.26500
C  -2.88400 42.19400 27.30000
C  -2.89800 42.75100 22.45800
C  1.95800 42.98500 22.45200
N  -0.48900 42.26900 27.00100
C  0.60400 42.13400 27.80400
C  0.24400 41.99000 29.35400
C  -1.33900 41.62200 29.16600
C  -1.63000 42.03300 27.75000
C  -1.62600 40.06800 29.38200
C  0.66400 43.20800 30.25600
C  0.03200 43.38800 31.68200
H  -0.45400 42.11100 32.38300
N  -2.66900 42.54900 24.83400
C  -3.41700 42.32900 25.95300
C  -4.87700 42.26400 25.60200
C  -4.82900 42.31100 24.22400
C  -3.45100 42.54000 23.79000
C  -6.07100 42.02600 26.57500
C  -5.93200 42.17400 23.12600
O  -5.77000 42.14900 21.93100
C  -7.31400 42.12700 23.61600
N  -0.47000 42.82700 22.69200
C  -1.58300 42.79900 21.87900
C  -1.14000 42.98200 20.38600
C  0.41000 43.29200 20.53300
C  0.68000 43.09900 21.98900
C  -1.57500 41.77700 19.58500
C  0.89700 44.66800 19.91700
C  0.74400 45.94700 20.81200
N  1.54400 42.70000 24.85100
C  2.39000 42.91700 23.82600
C  3.79000 42.72500 24.32200
C  3.61100 42.62300 25.71100
C  2.28200 42.46000 25.93400
C  5.02200 42.83300 23.46900
C  4.31600 42.42800 26.94800
O  5.49300 42.35200 27.15200
C  3.21800 42.32000 28.03500
C  3.50400 41.22400 28.92400
O  3.43500 40.02200 28.70500
O  3.98600 41.75500 30.05600
C  4.31200 40.75100 31.08400
H  -3.64700 42.18500 28.08200
H  -3.61100 42.51300 21.66600
H  2.67200 43.30300 21.68800
H  0.83700 41.20200 29.81800
H  -1.97200 42.25000 29.79300
H  -2.40200 39.91800 30.13300
H  -0.70200 39.59300 29.71000
H  -1.78800 39.60500 28.40900
H  0.69400 44.16900 29.74300
H  1.71800 43.05100 30.48300
H  -0.87500 43.94400 31.44700
H  0.66200 43.94100 32.38000
H  -5.78900 41.90500 27.62100
H  -6.64900 41.12500 26.36800
H  -6.77100 42.85700 26.49000
H  -7.36000 42.96500 24.31000
H  -7.45900 41.20000 24.17100
H  -8.04300 42.23300 22.81200
H  -1.71800 43.86200 20.10400
H  0.95800 42.51900 19.99300
H  -0.68400 41.27400 19.21000
H  -2.43400 41.91100 18.92700
H  -1.92500 41.03000 20.29700
H  0.41800 44.93500 18.97600
H  1.94800 44.63300 19.63000
H  1.74700 46.36200 20.91500
H  0.25700 45.68900 21.75200
H  0.20100 46.79200 20.38800
H  4.88500 42.00600 22.77200
H  5.99400 42.63900 23.92200
H  5.09200 43.82900 23.03200
H  3.26100 43.28400 28.54100
H  3.52200 40.02100 31.26000
H  4.49000 41.26300 32.02900
H  5.28200 40.38900 30.74300

