158

Mg 7.33500 3.21300 28.27100
C  8.81100 1.46400 30.80400
C  5.39700 4.87800 30.51300
C  5.86600 4.78200 25.70000
C  9.23200 1.28100 25.98100
N  6.99100 3.01400 30.38600
C  7.87000 2.37300 31.25600
C  7.59900 2.79600 32.74500
C  6.43100 3.82800 32.55500
C  6.23800 3.89600 31.07800
C  5.19800 3.48200 33.47300
C  8.89000 3.32900 33.49600
C  8.61600 4.31700 34.73100
H  9.48500 4.03800 35.89900
N  5.84000 4.59700 28.10000
C  5.16600 5.16100 29.14400
C  4.26500 6.22100 28.66200
C  4.34800 6.18400 27.23400
C  5.36100 5.14000 26.91200
C  3.24500 6.92500 29.54800
C  3.51500 6.93400 26.23700
O  3.65500 6.88600 24.96900
C  2.39800 7.87800 26.73400
N  7.38800 2.98200 26.07600
C  6.80600 3.81200 25.29500
C  7.25800 3.52300 23.86000
C  8.45800 2.62100 23.96200
C  8.30900 2.18400 25.45900
C  6.09800 3.08100 22.94500
C  9.87300 3.32000 23.63500
C  10.54800 4.13900 24.72700
N  8.62100 1.56400 28.29200
C  9.35600 0.93500 27.33500
C  10.35000 0.07500 27.95000
C  10.21400 0.30600 29.31200
C  9.10400 1.10900 29.46000
C  11.15000 -0.91600 27.13000
C  10.62100 -0.14600 30.60400
O  11.49800 -0.93800 30.94100
C  9.85100 0.78300 31.60500
C  9.25300 -0.03600 32.65000
O  8.34700 -0.82500 32.52000
O  9.88400 0.19200 33.86100
C  9.35000 -0.46700 35.11600
H  5.02600 5.59500 31.24800
H  5.51400 5.32500 24.82000
H  9.89300 0.74200 25.29900
H  7.36600 1.89300 33.30900
H  6.83900 4.79400 32.85400
H  5.48300 2.81000 34.28300
H  4.40900 2.92400 32.97000
H  4.74900 4.35600 33.94500
H  9.37000 3.99000 32.77400
H  9.66300 2.60000 33.73800
H  7.57100 4.30100 35.03900
H  8.69300 5.32700 34.32900
H  2.23000 6.74200 29.19700
H  3.36400 8.00100 29.42400
H  3.21400 6.52900 30.56300
H  1.62700 7.44000 27.36800
H  1.78200 8.08400 25.85800
H  2.75900 8.86300 27.03000
H  7.68100 4.43800 23.44700
H  8.24900 1.68100 23.45100
H  5.33400 2.60600 23.56100
H  6.49400 2.28400 22.31500
H  5.73100 3.83400 22.24800
H  9.75700 3.84400 22.68600
H  10.57200 2.52400 23.37900
H  10.65500 5.14300 24.31700
H  11.54500 3.69700 24.73600
H  10.05000 4.05800 25.69300
H  10.52500 -1.31100 26.32900
H  11.36700 -1.69600 27.86000
H  11.95800 -0.24300 26.84100
H  10.54900 1.48800 32.05700
H  9.23300 -1.53900 34.95200
H  8.53400 0.04300 35.62800
H  10.16700 -0.34900 35.82700
Mg 10.02000 47.99600 25.64500
C  8.02500 48.23900 28.53000
C  12.49000 49.39700 27.29300
C  11.64400 48.23000 22.69100
C  7.14400 46.86800 23.86000
N  10.17100 48.70000 27.70400
C  9.33600 48.61500 28.74500
C  10.04100 49.15100 30.04700
C  11.32100 49.89400 29.45400
C  11.31600 49.33100 28.06000
C  10.99800 51.40200 29.22800
C  10.37600 48.13100 31.08100
C  10.00700 48.50900 32.54300
H  10.19600 47.40600 33.49600
N  11.82800 48.63400 25.07400
C  12.77300 49.11000 25.93300
C  14.04600 49.22000 25.24500
C  13.82200 48.92500 23.89700
C  12.33600 48.61800 23.82500
C  15.34100 49.59900 25.97300
C  14.77100 48.83300 22.65200
O  14.43300 48.83400 21.45100
C  16.19700 48.91400 22.95000
N  9.41100 47.75800 23.49100
C  10.31500 47.87700 22.51400
C  9.72100 47.37100 21.17900
C  8.38100 46.65000 21.66300
C  8.30700 47.06900 23.11800
C  9.56100 48.52900 20.18700
C  8.21600 45.13100 21.36400
C  8.90300 44.02300 22.27000
N  7.92600 47.76300 25.98000
C  6.87300 47.31000 25.14800
C  5.68900 47.19200 25.97500
C  6.10200 47.58800 27.29100
C  7.48400 47.85600 27.21100
C  4.39400 46.58200 25.47900
C  5.61200 47.77700 28.71100
O  4.46400 47.75600 29.20200
C  6.90700 47.96500 29.60000
C  7.14500 46.65100 30.35400
O  7.80700 45.71200 29.93300
O  6.48500 46.74800 31.54600
C  6.65300 45.60600 32.45900
H  13.32100 49.91200 27.78000
H  12.23400 48.12700 21.77800
H  6.28200 46.41100 23.37000
H  9.40400 49.83600 30.60600
H  12.29100 49.67600 29.90000
H  10.01000 51.68100 29.59400
H  10.95100 51.74500 28.19400
H  11.75500 51.98000 29.75800
H  11.45400 47.97100 31.05900
H  9.96500 47.12200 31.03700
H  8.91900 48.56700 32.51400
H  10.57000 49.40100 32.81700
H  15.22200 49.71100 27.05100
H  15.74400 50.57300 25.69400
H  16.11100 48.84200 25.82500
H  16.67000 49.04600 21.97700
H  16.52300 47.98000 23.40600
H  16.33500 49.84100 23.50700
H  10.36800 46.61100 20.74300
H  7.49500 47.13900 21.25900
H  10.20200 49.36200 20.47600
H  8.50000 48.78000 20.22200
H  9.72200 48.32000 19.12900
H  8.47500 45.03700 20.30900
H  7.15000 44.96100 21.51600
H  8.21400 43.19700 22.44400
H  9.32300 44.43100 23.18900
H  9.70300 43.65700 21.62700
H  3.82900 47.32100 24.91100
H  3.71600 46.40300 26.31400
H  4.43000 45.66600 24.89000
H  6.98900 48.85500 30.22500
H  7.59800 45.78000 32.97300
H  6.70100 44.64000 31.95800
H  5.92400 45.52700 33.26500

