158

Mg 41.83000 40.72500 26.40200
C  41.02500 43.13800 28.80700
C  42.77400 38.56200 28.73800
C  42.63700 38.76800 23.92800
C  41.26200 43.35300 24.02100
N  42.00100 40.90200 28.52600
C  41.56900 41.94700 29.33600
C  41.56800 41.50100 30.79500
C  42.23200 40.05800 30.74400
C  42.27300 39.81300 29.24700
C  43.59100 39.83200 31.38700
C  40.14600 41.68900 31.46100
C  39.74000 40.80100 32.67500
H  39.03000 41.40500 33.83900
N  42.46100 38.87900 26.38500
C  42.84300 38.08100 27.43800
C  43.18100 36.77500 26.93900
C  43.08600 36.79900 25.46200
C  42.75300 38.17000 25.18000
C  43.52500 35.62000 27.88400
C  43.32900 35.71000 24.48700
O  43.05900 35.73600 23.31400
C  43.67900 34.35100 24.98400
N  42.10900 41.08000 24.20900
C  42.30200 40.00300 23.44400
C  42.16800 40.35700 21.92000
C  41.41900 41.77100 21.96400
C  41.53000 42.11000 23.53900
C  43.58500 40.44700 21.27400
C  40.01200 41.73100 21.32500
C  39.09500 40.73000 22.07000
N  41.25100 42.77000 26.33600
C  41.07900 43.63700 25.34700
C  40.66000 44.98700 25.84200
C  40.64800 44.80300 27.24000
C  40.93800 43.43900 27.47900
C  40.50700 46.21000 25.00400
C  40.27900 45.43700 28.54500
O  39.74000 46.50800 28.84300
C  40.52400 44.33700 29.65200
C  41.38000 44.77600 30.77000
O  42.58500 44.81100 30.67000
O  40.53000 45.10000 31.85200
C  41.37200 45.60700 32.89100
H  42.95300 37.92500 29.60700
H  42.75200 37.98500 23.17500
H  40.93800 44.13200 23.32800
H  42.22200 42.27300 31.20100
H  41.55000 39.34300 31.20600
H  43.85100 40.84800 31.68400
H  44.28400 39.32900 30.71200
H  43.44300 39.10900 32.19000
H  39.32600 41.58300 30.75000
H  40.15000 42.68000 31.91500
H  40.65400 40.32700 33.03200
H  39.16300 39.95000 32.31200
H  44.54500 35.23900 27.85100
H  42.91000 34.77500 27.57400
H  43.25000 35.80400 28.92300
H  44.46300 34.44400 25.73600
H  44.12000 33.82000 24.14100
H  42.92100 33.83700 25.57600
H  41.50600 39.61900 21.46700
H  42.11400 42.47500 21.50700
H  44.21400 39.70800 21.77100
H  44.03100 41.43600 21.37600
H  43.42400 40.16600 20.23300
H  40.06400 41.33700 20.31000
H  39.51500 42.69900 21.26300
H  39.57200 40.19100 22.88900
H  38.57700 40.04600 21.39900
H  38.28200 41.30600 22.51200
H  41.16600 46.24300 24.13600
H  40.80600 47.01000 25.68100
H  39.51500 46.42300 24.60400
H  39.56100 44.12100 30.11500
H  42.17300 46.24700 32.52100
H  41.84000 44.78800 33.43800
H  40.80000 46.28500 33.52400
Mg -10.61100 16.12200 42.58300
C  -7.22800 16.60600 41.91600
C  -11.35400 19.28700 41.28100
C  -13.97400 15.47400 42.77300
C  -9.99500 12.73000 43.16400
N  -9.35500 17.78700 41.74700
C  -8.02500 17.76000 41.62700
C  -7.51700 19.03600 40.97900
C  -8.86400 19.95100 40.98200
C  -9.97700 18.94200 41.40200
C  -8.86000 21.17900 41.92500
C  -6.99200 18.62000 39.57900
C  -5.54300 19.18500 39.17700
H  -4.95300 18.77000 37.89000
N  -12.40800 17.22500 42.12600
C  -12.45900 18.53100 41.69300
C  -13.86900 18.97300 41.46700
C  -14.62400 17.91800 42.00300
C  -13.67900 16.78100 42.33900
C  -14.31700 20.36600 40.94800
C  -16.18300 18.09400 42.31600
O  -16.76000 19.16400 42.01100
C  -17.01500 17.07800 42.95300
N  -11.87600 14.30300 42.72400
C  -13.13600 14.42500 43.07900
C  -13.67100 12.95400 43.50600
C  -12.36400 12.13800 43.54100
C  -11.35500 13.08800 43.09800
C  -14.43000 12.90000 44.86400
C  -12.39300 10.87900 42.58600
C  -12.44100 9.54100 43.35700
N  -9.04300 14.92000 42.54600
C  -8.92200 13.58000 42.77500
C  -7.54700 13.23100 43.00000
C  -6.82300 14.40800 42.57700
C  -7.76900 15.37300 42.31400
C  -6.94600 11.89700 43.59200
C  -5.45200 14.96400 42.29200
O  -4.37800 14.35900 42.24500
C  -5.73400 16.43500 41.86400
C  -5.13300 17.24200 42.90400
O  -5.59300 17.36400 44.03600
O  -3.98200 17.86400 42.52200
C  -3.45000 18.97900 43.39000
H  -11.55500 20.19500 40.70900
H  -15.03100 15.27100 42.95800
H  -9.85000 11.68100 43.42900
H  -6.68700 19.42800 41.56700
H  -9.00300 20.24300 39.94100
H  -7.90500 21.25900 42.44400
H  -9.73300 21.17000 42.57800
H  -9.01700 21.98600 41.21000
H  -7.71800 19.02200 38.87200
H  -6.94500 17.55500 39.35200
H  -4.88700 19.06500 40.03900
H  -5.80900 20.23800 39.08500
H  -14.87100 20.75300 41.80300
H  -14.79200 20.17400 39.98600
H  -13.49800 21.05000 40.72300
H  -17.88700 17.64300 43.28300
H  -16.53200 16.60200 43.80600
H  -17.20200 16.28200 42.23100
H  -14.41100 12.63300 42.77300
H  -12.07200 11.84800 44.55000
H  -14.09800 12.18400 45.61600
H  -15.51200 12.80300 44.76800
H  -14.34000 13.89200 45.30500
H  -11.55800 10.97800 41.89200
H  -13.25700 10.92100 41.92200
H  -11.54100 8.95300 43.17700
H  -13.27800 8.86100 43.19400
H  -12.43000 9.67200 44.43900
H  -7.58700 11.06200 43.30900
H  -7.07400 12.14400 44.64600
H  -5.90400 11.75800 43.30500
H  -5.29900 16.69500 40.89900
H  -3.06100 19.71700 42.68700
H  -2.62900 18.57300 43.98100
H  -4.16300 19.45000 44.06700

