158

Mg 0.57100 6.69900 24.17100
C  1.52500 8.82800 26.78000
C  0.46100 4.00200 26.40100
C  -0.21000 4.68200 21.68200
C  0.88700 9.41900 21.96500
N  1.16600 6.41000 26.19900
C  1.33700 7.40900 27.10100
C  1.57200 6.86600 28.48200
C  1.42000 5.32700 28.28100
C  0.97800 5.18500 26.87000
C  2.72300 4.54400 28.54100
C  0.52500 7.41300 29.48400
C  1.05800 7.73600 30.93300
H  2.22800 6.84400 31.47400
N  0.13500 4.65700 24.08900
C  0.13900 3.75400 25.09000
C  -0.29600 2.45900 24.57600
C  -0.44000 2.60400 23.18300
C  -0.17800 4.05500 22.92000
C  -0.44300 1.24300 25.43800
C  -0.73300 1.55500 22.16800
O  -0.70100 1.73900 21.00700
C  -0.89600 0.07000 22.63600
N  0.29600 7.03300 22.06100
C  -0.04600 6.02200 21.25700
C  -0.03600 6.45300 19.73100
C  0.22600 8.01800 19.87200
C  0.53000 8.16800 21.38000
C  1.08100 5.76500 19.08700
C  -0.96500 8.92300 19.36800
C  -0.59900 9.67700 18.14500
N  1.11900 8.68200 24.26000
C  1.10900 9.70200 23.35100
C  1.50500 10.92400 23.98900
C  1.65000 10.63000 25.33700
C  1.41000 9.29500 25.46800
C  1.80300 12.23300 23.27700
C  1.93800 11.19400 26.60400
O  2.13100 12.33400 26.95400
C  1.73400 10.04700 27.68900
C  2.95800 9.96500 28.39700
O  4.03500 9.56800 28.01600
O  2.77900 10.36100 29.71500
C  3.91900 10.28200 30.63700
H  0.36300 3.13200 27.05400
H  -0.48200 3.99500 20.87800
H  0.90200 10.30400 21.32500
H  2.53600 7.06600 28.95000
H  0.59700 4.78400 28.74600
H  3.05300 4.16400 27.57500
H  2.46500 3.71600 29.20100
H  3.45900 4.98600 29.21400
H  -0.17800 6.62800 29.76300
H  0.08400 8.29200 29.01500
H  0.23800 7.58400 31.63500
H  1.42400 8.74900 30.76400
H  -1.41500 0.77100 25.29300
H  -0.46700 1.37100 26.52000
H  0.37500 0.59300 25.12800
H  -1.77900 -0.01000 23.27000
H  0.04400 -0.35400 22.98800
H  -1.16400 -0.47800 21.73300
H  -1.00100 6.16000 19.31600
H  1.18100 8.22100 19.38700
H  2.00100 5.80600 19.67000
H  1.14500 6.19100 18.08600
H  0.74500 4.73000 19.02700
H  -1.38100 9.59300 20.12000
H  -1.78800 8.27900 19.05700
H  -1.17500 10.59000 18.29700
H  -0.81300 9.17700 17.20000
H  0.41700 10.06900 18.17800
H  1.50000 12.20300 22.23000
H  2.87000 12.44900 23.33100
H  1.29200 13.04200 23.79900
H  0.91300 10.23700 28.38100
H  4.47400 9.37000 30.41900
H  3.52700 10.22000 31.65200
H  4.55200 11.17000 30.65000
Mg 9.33100 47.88400 26.87200
C  7.32600 47.72400 29.65000
C  12.01100 48.78800 28.72800
C  11.14600 48.54500 24.00800
C  6.41300 47.70800 24.75000
N  9.50000 48.48000 28.89100
C  8.63900 48.16200 29.89600
C  9.33400 48.43400 31.25200
C  10.75000 48.76500 30.88800
C  10.75100 48.76000 29.34000
C  11.19500 50.16400 31.42200
C  9.03300 47.31100 32.28700
C  9.94100 47.07600 33.49900
H  9.26900 46.56900 34.82900
N  11.36100 48.37300 26.39100
C  12.28600 48.59000 27.33600
C  13.58400 48.68000 26.64800
C  13.36400 48.48400 25.22000
C  11.85600 48.45900 25.17600
C  14.83500 49.12700 27.37000
C  14.37300 48.47100 24.09300
O  13.94700 48.47400 22.92900
C  15.86500 48.33000 24.45200
N  8.86700 48.28200 24.65400
C  9.81200 48.36200 23.75100
C  9.22000 48.11400 22.33300
C  7.79300 47.75800 22.62700
C  7.67100 47.86800 24.11100
C  9.40400 49.25700 21.35100
C  7.32100 46.37800 22.09700
C  5.93900 46.29700 21.34900
N  7.28400 47.70400 27.13400
C  6.24900 47.62300 26.20300
C  5.00000 47.38300 26.98000
C  5.36900 47.27800 28.34600
C  6.79900 47.56500 28.36700
C  3.68700 47.05700 26.26400
C  4.94500 46.98900 29.70500
O  3.91500 46.55900 30.17400
C  6.17700 47.29200 30.62100
C  6.31800 45.94300 31.30000
O  7.14200 45.04800 31.09400
O  5.48400 45.92300 32.38700
C  5.72500 44.77900 33.35800
H  12.90200 48.95300 29.33600
H  11.69600 48.59200 23.06600
H  5.62200 47.51200 24.02300
H  8.82300 49.31900 31.63100
H  11.39600 48.03100 31.36900
H  12.17600 50.02500 31.87600
H  10.47800 50.50700 32.16800
H  11.26800 50.89100 30.61200
H  9.00500 46.38600 31.71100
H  8.05900 47.70300 32.58100
H  10.51400 47.98000 33.70700
H  10.63300 46.29000 33.19700
H  14.65700 49.54900 28.35900
H  15.28800 49.90500 26.75600
H  15.64300 48.39600 27.41700
H  16.02200 47.61500 25.26000
H  16.32300 49.31100 24.57600
H  16.26700 47.91800 23.52600
H  9.78400 47.30300 21.87200
H  7.18200 48.55700 22.20700
H  8.41900 49.30000 20.88500
H  10.34100 49.28500 20.79600
H  9.35200 50.12300 22.01200
H  7.07000 45.75200 22.95300
H  8.06600 45.90600 21.45600
H  5.40600 47.24200 21.45400
H  5.47100 45.45300 21.85600
H  5.96500 46.00900 20.29800
H  3.35100 48.02100 25.88300
H  2.98400 46.74300 27.03500
H  3.88200 46.30300 25.50200
H  6.00300 47.98500 31.44400
H  6.33600 45.01200 34.23000
H  6.02600 43.82900 32.91700
H  4.74000 44.44900 33.68700

