158

Mg 16.75300 -1.87600 27.54300
C  15.87300 0.53400 30.21000
C  18.42300 -3.63700 29.92300
C  18.10300 -3.57600 25.09900
C  15.69300 0.59700 25.26100
N  17.24100 -1.49100 29.87500
C  16.72800 -0.51200 30.69200
C  17.13400 -0.81200 32.13100
C  18.13900 -1.98300 31.94800
C  17.88300 -2.44800 30.51100
C  19.61300 -1.73400 32.13000
C  15.92700 -1.14700 33.06700
C  16.01700 -0.47500 34.43400
H  17.27500 -0.03800 35.08200
N  18.00400 -3.53000 27.49800
C  18.55300 -4.16700 28.60800
C  19.26200 -5.32500 28.10200
C  19.04200 -5.42800 26.68700
C  18.30300 -4.18400 26.33300
C  19.94600 -6.27100 29.08800
C  19.50400 -6.56000 25.64800
O  19.34800 -6.55100 24.44700
C  20.16000 -7.81200 26.16700
N  16.86700 -1.54500 25.46000
C  17.60000 -2.37200 24.70700
C  17.51600 -1.92200 23.24100
C  16.79000 -0.52400 23.29700
C  16.41500 -0.44700 24.76400
C  18.85400 -1.92500 22.54300
C  15.55900 -0.47700 22.34900
C  15.51700 0.59000 21.28300
N  15.78400 -0.00700 27.65700
C  15.35300 0.86400 26.63900
C  14.85400 2.16600 27.08000
C  15.00000 2.00000 28.47300
C  15.58800 0.71900 28.77500
C  14.26100 3.33100 26.25500
C  14.74300 2.69100 29.75000
O  14.28100 3.80800 29.96700
C  15.23700 1.71500 30.85400
C  16.19700 2.50600 31.69200
O  17.37000 2.61600 31.44700
O  15.55300 2.88100 32.86200
C  16.35600 3.54000 33.82700
H  18.99000 -4.26400 30.61400
H  18.46700 -4.20600 24.28500
H  15.51600 1.32700 24.46800
H  17.76400 -0.02600 32.54900
H  17.73800 -2.79500 32.55400
H  19.85200 -2.48500 32.88200
H  19.79100 -0.70800 32.45300
H  20.27500 -1.96900 31.29700
H  15.88900 -2.20300 33.33400
H  15.06000 -0.96900 32.43100
H  15.54800 -1.12300 35.17500
H  15.39800 0.42000 34.37000
H  19.43500 -6.06500 30.02800
H  21.01900 -6.09200 29.16200
H  19.60200 -7.30100 28.99200
H  21.16300 -7.65200 26.56200
H  20.28500 -8.58100 25.40500
H  19.50900 -8.13100 26.98100
H  16.84600 -2.62600 22.74800
H  17.63200 0.14700 23.12500
H  18.98400 -0.95400 22.06500
H  18.99800 -2.79600 21.90400
H  19.61800 -1.94200 23.32000
H  14.72800 -0.28400 23.02700
H  15.34400 -1.40900 21.82600
H  14.76100 1.29900 21.62300
H  15.06600 0.19500 20.37300
H  16.38400 1.20100 21.03400
H  13.17900 3.25100 26.35700
H  14.51200 3.13600 25.21200
H  14.51600 4.33500 26.59400
H  14.44400 1.48700 31.56700
H  15.98400 3.15900 34.77800
H  16.23500 4.62000 33.74800
H  17.41600 3.28900 33.78300
Mg -4.87700 24.89000 26.59500
C  -3.34800 26.31000 29.38000
C  -6.30500 22.46500 28.60600
C  -6.23900 23.42600 23.88900
C  -3.08200 27.14700 24.58300
N  -4.83000 24.44800 28.72800
C  -4.28200 25.30000 29.63100
C  -4.80600 24.95900 31.06400
C  -5.47500 23.49100 30.91400
C  -5.58700 23.48000 29.31800
C  -4.76900 22.35000 31.73200
C  -5.81600 26.11200 31.48800
C  -6.01000 26.16600 32.99100
H  -5.52200 25.03000 33.88400
N  -6.00600 23.16300 26.28900
C  -6.50300 22.26500 27.26100
C  -7.30100 21.25300 26.59600
C  -7.29100 21.52300 25.22600
C  -6.46700 22.74700 25.05700
C  -8.00800 20.19000 27.41000
C  -8.03400 20.84800 24.01100
O  -7.86500 21.17000 22.86800
C  -8.97900 19.68100 24.32500
N  -4.78000 25.27300 24.56600
C  -5.49900 24.56400 23.66000
C  -5.07000 25.00900 22.26800
C  -4.05700 26.19600 22.44800
C  -3.98100 26.16900 23.97900
C  -4.47000 23.88800 21.27700
C  -4.35300 27.61700 21.86400
C  -3.08800 28.26700 21.10700
N  -3.50300 26.42100 26.94300
C  -2.86300 27.24700 26.01200
C  -2.06800 28.31100 26.70700
C  -2.23200 27.93100 28.10500
C  -3.07700 26.76500 28.08200
C  -1.13200 29.35400 26.09200
C  -1.76100 28.21000 29.48300
O  -1.02200 29.12400 29.88500
C  -2.63800 27.27400 30.35200
C  -1.62900 26.61500 31.26100
O  -0.67900 25.91000 30.95900
O  -1.99700 26.96900 32.56300
C  -1.08500 26.49700 33.59600
H  -6.78400 21.80000 29.32700
H  -6.61200 23.00800 22.95200
H  -2.41000 27.66600 23.89600
H  -3.89000 24.91900 31.65400
H  -6.50100 23.56600 31.27300
H  -5.35100 21.82300 32.48800
H  -3.85500 22.77400 32.14800
H  -4.52700 21.57900 31.00000
H  -6.83500 25.86300 31.19000
H  -5.33500 27.07000 31.29200
H  -7.08300 26.17800 33.18200
H  -5.61800 27.10900 33.37000
H  -9.03700 19.94700 27.14600
H  -8.17200 20.38900 28.46900
H  -7.39100 19.29200 27.45900
H  -8.35700 18.92700 24.80800
H  -9.36600 19.38000 23.35200
H  -9.83200 19.97500 24.93600
H  -5.98400 25.39500 21.81700
H  -3.05800 25.98100 22.07000
H  -3.43700 23.66000 21.53800
H  -4.48300 24.27700 20.25800
H  -5.14600 23.03500 21.33200
H  -4.71200 28.30900 22.62700
H  -5.17300 27.48000 21.15900
H  -3.23300 28.28100 20.02700
H  -2.12900 27.76200 21.23200
H  -2.84100 29.25200 21.50100
H  -0.26200 29.45300 26.74000
H  -1.58700 30.31400 25.85100
H  -0.71700 28.93400 25.17500
H  -3.32000 27.84500 30.98100
H  -1.63400 26.22600 34.49800
H  -0.38500 27.32800 33.68800
H  -0.53300 25.61100 33.28500

