158

Mg 7.51000 54.51600 41.15200
C  6.72100 51.05200 41.39500
C  10.39900 53.63400 39.57900
C  7.94700 57.69700 40.33300
C  4.04100 55.19200 41.90100
N  8.35900 52.53400 40.43800
C  7.87500 51.24200 40.62600
C  8.75300 50.19400 39.96100
C  10.09500 51.04600 39.81500
C  9.66000 52.46500 40.05200
C  11.34400 50.64500 40.74500
C  8.19700 49.67600 38.58400
C  7.42700 50.64300 37.62500
H  7.94400 50.94400 36.20000
N  9.05600 55.56200 40.20700
C  10.20500 55.03400 39.69700
C  11.06800 56.10700 39.19700
C  10.45600 57.37600 39.43700
C  9.09000 56.92100 39.94900
C  12.34300 55.86100 38.57500
C  10.97900 58.72800 39.07000
O  12.12200 58.75100 38.67700
C  10.18600 59.99600 39.21800
N  6.09800 56.16400 40.91300
C  6.60500 57.38800 40.69700
C  5.54200 58.42300 41.03900
C  4.25800 57.55600 41.25200
C  4.80300 56.15200 41.33100
C  5.93900 59.33100 42.31400
C  3.04200 57.66900 40.15700
C  2.95100 56.57700 39.12800
N  5.80200 53.46900 41.82200
C  4.48300 53.87500 42.07200
C  3.74600 52.69100 42.49700
C  4.59300 51.55800 42.35200
C  5.82300 52.08400 41.87100
C  2.35500 52.72700 43.01500
C  4.71000 50.18900 42.56100
O  3.91400 49.40800 43.06300
C  6.04400 49.81800 41.91600
C  5.72900 48.95900 40.76600
O  4.69000 49.01400 40.07800
O  6.57900 47.90800 40.76100
C  6.24600 46.78900 39.93200
H  11.14900 53.15000 38.95000
H  7.99200 58.78400 40.24400
H  3.02600 55.46600 42.19900
H  8.90300 49.37100 40.66000
H  10.49400 50.96800 38.80300
H  12.35300 50.53300 40.34800
H  11.06700 49.77700 41.34300
H  11.35600 51.39000 41.54100
H  7.61700 48.76900 38.75000
H  9.04300 49.33500 37.98600
H  7.30000 51.66300 37.98900
H  6.47900 50.14200 37.43100
H  12.39700 56.38500 37.62100
H  12.43100 54.81500 38.28200
H  13.16200 56.24000 39.18700
H  9.13800 59.89100 38.93400
H  10.54100 60.77500 38.54200
H  10.30900 60.32100 40.25100
H  5.19400 58.98200 40.17000
H  3.93800 57.74000 42.27700
H  6.84300 59.00000 42.82700
H  5.16200 59.43000 43.07200
H  6.01100 60.38700 42.05700
H  2.99600 58.59900 39.59000
H  2.11400 57.66800 40.73000
H  2.09400 55.92200 39.28700
H  3.89400 56.04700 38.99800
H  2.78200 57.07400 38.17300
H  2.05200 51.72700 43.32500
H  1.73300 52.96700 42.15200
H  2.16300 53.51900 43.73800
H  6.55100 49.22200 42.67500
H  5.87900 47.16800 38.97800
H  5.59500 46.08500 40.45100
H  7.16900 46.20900 39.92200
Mg 10.13600 48.37700 25.57900
C  7.67300 48.49900 28.22600
C  12.37000 49.80400 27.84400
C  12.42800 48.42400 23.23900
C  7.65300 47.41500 23.49600
N  10.04500 49.11800 27.82000
C  8.89900 48.98300 28.68300
C  9.32000 49.37000 30.09000
C  10.66200 50.11000 29.89100
C  11.06900 49.74100 28.39000
C  10.63000 51.61200 30.14800
C  9.44800 48.06400 31.04900
C  10.50100 48.00700 32.19000
H  10.10000 47.14800 33.42600
N  12.09700 48.89700 25.59700
C  12.85700 49.37500 26.61300
C  14.28300 49.36000 26.14900
C  14.29900 48.74300 24.90200
C  12.90400 48.66400 24.53900
C  15.45100 49.90100 27.04600
C  15.47400 48.22200 24.04500
O  15.39500 47.79000 22.94200
C  16.79900 48.33300 24.65700
N  9.99000 48.14900 23.64000
C  11.10000 48.20800 22.79300
C  10.72800 47.71700 21.38800
C  9.25100 47.30400 21.52600
C  8.92700 47.64500 22.97100
C  11.04800 48.74900 20.23700
C  8.87300 45.88700 21.08600
C  8.87700 44.74100 22.16100
N  8.08100 47.97800 25.79500
C  7.17900 47.58200 24.80000
C  5.83300 47.48800 25.35400
C  6.03500 47.71700 26.71300
C  7.35600 48.03700 26.91300
C  4.43200 47.18100 24.61700
C  5.31500 47.84000 28.01600
O  4.09500 47.72000 28.28400
C  6.37700 48.30600 29.08700
C  6.62000 47.23200 30.02500
O  7.22700 46.14600 29.89500
O  5.99500 47.58500 31.20000
C  5.88300 46.50400 32.20200
H  13.11900 50.30400 28.46200
H  13.10400 48.23400 22.40300
H  6.93200 46.82900 22.92300
H  8.57200 49.92600 30.65600
H  11.40900 49.66200 30.54600
H  10.79800 52.03300 29.15700
H  11.43100 51.84800 30.84800
H  9.72500 52.04000 30.58000
H  9.65500 47.12300 30.53900
H  8.46800 48.09900 31.52500
H  10.94400 48.96700 32.45400
H  11.34500 47.35600 31.95900
H  15.11600 50.00400 28.07800
H  15.83500 50.85100 26.67500
H  16.23000 49.15600 27.20500
H  16.91500 47.68200 25.52400
H  17.00500 49.34700 25.00100
H  17.58700 48.13200 23.93200
H  11.24500 46.77000 21.24100
H  8.61600 47.99300 20.96700
H  11.99300 49.25800 20.42800
H  10.20600 49.44100 20.21800
H  11.05300 48.13900 19.33400
H  9.52100 45.52800 20.28600
H  7.95800 46.03800 20.51300
H  9.33800 44.99800 23.11500
H  9.46600 43.95300 21.69200
H  7.94800 44.27300 22.48800
H  4.09500 46.14600 24.68200
H  4.62000 47.42600 23.57200
H  3.55900 47.76800 24.90400
H  6.01600 49.16000 29.65900
H  6.78100 46.56700 32.81600
H  5.88200 45.53900 31.69300
H  5.01200 46.60000 32.84900

