158

Mg 1.58100 -1.47400 45.78200
C  4.93400 -0.97500 45.17100
C  0.71300 0.94200 43.49300
C  -1.81400 -2.42700 45.71900
C  2.40200 -4.39200 47.48500
N  2.62900 -0.17800 44.60900
C  4.04700 -0.10900 44.48700
C  4.46500 1.06900 43.58000
C  3.05900 1.79800 43.30600
C  2.06300 0.77100 43.84700
C  2.87700 3.23300 43.86600
C  5.20800 0.62300 42.27100
C  6.44000 1.44600 42.04100
H  6.54800 2.08200 40.63700
N  -0.33300 -0.82000 44.69700
C  -0.37600 0.17700 43.83400
C  -1.74600 0.37800 43.36500
C  -2.50800 -0.56500 44.07700
C  -1.60000 -1.32100 44.90100
C  -2.14000 1.28000 42.36300
C  -4.06200 -0.76200 44.00500
O  -4.69200 -0.10600 43.16400
C  -4.88500 -1.74800 44.87200
N  0.44900 -3.16900 46.44300
C  -0.88600 -3.26300 46.44300
C  -1.38800 -4.48300 47.13000
C  -0.04400 -5.11900 47.63300
C  1.05800 -4.20600 47.15800
C  -2.58900 -4.35800 48.19000
C  0.18100 -6.65800 47.28500
C  -0.10400 -7.65100 48.39800
N  3.26700 -2.41100 46.40300
C  3.43300 -3.55400 47.09400
C  4.85800 -3.86800 47.22900
C  5.46300 -2.89100 46.46600
C  4.45300 -1.98400 46.04800
C  5.55400 -4.96300 48.10000
C  6.71800 -2.36000 45.91600
O  7.83900 -2.77500 46.14700
C  6.44700 -1.05900 45.19500
C  7.09100 0.11600 45.90500
O  7.40300 0.13000 47.06900
O  7.43100 1.07100 45.05600
C  8.18700 2.23700 45.53400
H  0.56100 1.75100 42.77500
H  -2.84400 -2.73500 45.91300
H  2.77000 -5.20800 48.11000
H  5.07500 1.77200 44.14700
H  2.91900 1.89300 42.22900
H  3.82000 3.61800 44.25500
H  2.23500 3.28100 44.74600
H  2.50300 3.90100 43.09000
H  4.70100 0.61500 41.30700
H  5.52800 -0.41400 42.37600
H  7.24700 0.71800 42.13000
H  6.61200 2.22900 42.77900
H  -2.46100 2.16500 42.91200
H  -2.92600 0.77800 41.79900
H  -1.27900 1.57200 41.76100
H  -4.86600 -1.54900 45.94400
H  -4.51500 -2.77200 44.82300
H  -5.89000 -1.61700 44.47100
H  -1.71900 -5.16000 46.34200
H  -0.04300 -4.99800 48.71600
H  -2.26200 -4.73000 49.16100
H  -3.42500 -4.92200 47.77600
H  -2.89100 -3.31600 48.29800
H  1.21100 -6.76500 46.94200
H  -0.57000 -6.96400 46.55700
H  -1.14600 -7.95200 48.29300
H  0.14300 -7.13900 49.32700
H  0.53500 -8.53000 48.30900
H  5.62100 -4.50900 49.08800
H  6.55100 -5.13500 47.69300
H  5.00800 -5.89700 48.23100
H  6.82600 -1.08900 44.17300
H  8.74300 2.65000 44.69300
H  8.83900 2.06900 46.39100
H  7.50300 3.00800 45.88800
Mg -5.62400 25.07000 26.42800
C  -3.92600 26.15700 29.31800
C  -7.55900 23.06600 28.56900
C  -7.06000 23.65400 23.70300
C  -3.40100 26.91700 24.49400
N  -5.76400 24.67700 28.68500
C  -4.97600 25.33500 29.64900
C  -5.38300 24.94300 31.05600
C  -6.29500 23.73500 30.76700
C  -6.54200 23.79200 29.22600
C  -5.69000 22.45600 31.21700
C  -6.01000 26.16600 31.86800
C  -5.39600 26.51300 33.18700
H  -4.76400 25.38200 34.03500
N  -7.10800 23.57000 26.18600
C  -7.82300 22.97700 27.19600
C  -8.80900 22.08600 26.65100
C  -8.61800 22.20400 25.16300
C  -7.52300 23.16300 24.94200
C  -9.86800 21.44300 27.49700
C  -9.30000 21.35700 24.06900
O  -9.04300 21.52600 22.88600
C  -10.51800 20.51600 24.43800
N  -5.19200 25.15600 24.39700
C  -6.01100 24.55700 23.49800
C  -5.71800 25.07800 22.08500
C  -4.52800 26.14200 22.29600
C  -4.38700 26.07400 23.80300
C  -5.24100 23.92300 21.10100
C  -4.80400 27.53300 21.74800
C  -3.76600 28.00900 20.76900
N  -3.95600 26.28400 26.72300
C  -3.15900 27.00700 25.84900
C  -2.22800 27.80300 26.54900
C  -2.47700 27.45600 27.88900
C  -3.57900 26.58800 27.95900
C  -1.16900 28.79000 26.05200
C  -2.04600 27.79300 29.21900
O  -1.16700 28.51600 29.59800
C  -2.89200 26.86700 30.18900
C  -1.92300 26.00800 30.91700
O  -1.53100 24.92400 30.56200
O  -1.50700 26.66900 32.07600
C  -0.44900 26.02500 32.86900
H  -8.25100 22.61700 29.28500
H  -7.60000 23.45700 22.77400
H  -2.81500 27.60300 23.87900
H  -4.55100 24.50700 31.60900
H  -7.30700 23.78300 31.16800
H  -6.37600 22.14300 32.00400
H  -4.70900 22.54500 31.68300
H  -5.60600 21.60900 30.53600
H  -7.05200 25.89900 32.04400
H  -5.89200 27.03400 31.22000
H  -6.20600 26.98600 33.74200
H  -4.67500 27.30400 32.98400
H  -10.11500 21.92500 28.44200
H  -9.59300 20.42700 27.78000
H  -10.84500 21.53300 27.02200
H  -10.32000 19.76600 25.20400
H  -10.72000 19.97100 23.51600
H  -11.28500 21.25500 24.66900
H  -6.57800 25.54200 21.60200
H  -3.50100 25.85000 22.07400
H  -5.68900 23.94900 20.10800
H  -5.46000 22.91300 21.44800
H  -4.16600 24.00700 20.93800
H  -4.74200 28.19000 22.61600
H  -5.77400 27.68400 21.27400
H  -3.89200 27.74200 19.71900
H  -2.77200 27.69800 21.09200
H  -3.80300 29.09600 20.69800
H  -0.59500 28.27100 25.28400
H  -0.58900 29.01400 26.94800
H  -1.72600 29.64500 25.67100
H  -3.31700 27.53100 30.94100
H  0.49900 26.10700 32.33700
H  -0.79000 25.05500 33.23100
H  -0.44900 26.75700 33.67700

