158

Mg 16.02500 -1.91900 27.68200
C  15.17900 0.17900 30.44600
C  17.98900 -3.83800 29.78100
C  17.33800 -3.42400 25.02600
C  14.34900 0.34000 25.67100
N  16.46200 -1.84300 29.81500
C  15.99100 -0.95400 30.80000
C  16.59600 -1.17400 32.20000
C  17.62500 -2.29500 31.90100
C  17.35500 -2.71700 30.37400
C  19.06600 -1.80800 32.01600
C  15.50800 -1.41200 33.35300
C  15.80600 -1.00800 34.86000
H  17.11300 -0.21800 35.20200
N  17.38500 -3.49700 27.39400
C  18.05800 -4.17600 28.41000
C  18.78000 -5.22500 27.86000
C  18.63700 -5.13700 26.43600
C  17.73300 -4.01400 26.21900
C  19.62800 -6.20200 28.71700
C  19.25300 -6.00100 25.41800
O  19.01500 -5.78700 24.26800
C  20.14700 -7.15100 25.67900
N  15.87300 -1.56700 25.64900
C  16.49000 -2.35600 24.71500
C  16.10500 -1.98500 23.28900
C  14.94600 -0.97000 23.50900
C  15.03900 -0.73600 25.05100
C  17.29400 -1.41900 22.43500
C  13.53100 -1.47600 23.11800
C  13.09100 -1.18800 21.71400
N  14.91100 -0.15300 27.97400
C  14.31600 0.66000 27.03200
C  13.59100 1.69100 27.63100
C  13.83700 1.56200 28.98900
C  14.68800 0.43000 29.16600
C  12.79300 2.69800 26.92900
C  13.55600 2.02700 30.33600
O  12.82300 2.88600 30.75600
C  14.54300 1.28200 31.31800
C  15.46100 2.24700 31.93000
O  16.43700 2.71000 31.34900
O  14.95300 2.70500 33.17900
C  15.79100 3.78400 33.77100
H  18.53200 -4.39600 30.54700
H  17.74500 -3.80900 24.08900
H  13.61400 0.91900 25.10600
H  16.93100 -0.15100 32.37100
H  17.47000 -3.19000 32.50300
H  19.49000 -1.71900 31.01600
H  19.73100 -2.46400 32.57800
H  19.07000 -0.85000 32.53600
H  15.31800 -2.48600 33.35900
H  14.58200 -0.94300 33.01900
H  15.74600 -1.94100 35.42100
H  14.87300 -0.55700 35.19800
H  19.39900 -7.24400 28.49300
H  19.35100 -6.14800 29.77000
H  20.70400 -6.06400 28.61200
H  21.13600 -6.97300 26.10200
H  20.43100 -7.58200 24.71900
H  19.65100 -7.86000 26.34100
H  15.79000 -2.89100 22.77100
H  15.17800 -0.03500 23.00000
H  17.14700 -0.34600 22.31300
H  17.44600 -1.98500 21.51500
H  18.20900 -1.54200 23.01500
H  12.74300 -1.06100 23.74700
H  13.60300 -2.56100 23.19600
H  12.10400 -0.78000 21.93100
H  13.14000 -2.07600 21.08300
H  13.73700 -0.45100 21.23600
H  13.24400 2.85600 25.94900
H  12.75000 3.66100 27.43900
H  11.75300 2.38700 26.83000
H  13.93900 0.85700 32.12000
H  15.76400 3.82400 34.86000
H  15.67700 4.79900 33.38900
H  16.85300 3.66400 33.55300
Mg 17.42100 51.88700 25.75700
C  19.06300 50.55000 28.48300
C  15.10300 53.11300 27.85600
C  15.75700 52.72400 23.11300
C  19.93500 50.40400 23.66900
N  17.06200 51.66400 27.90800
C  17.92100 51.21000 28.86600
C  17.40400 51.45900 30.29700
C  16.04100 52.20000 30.07600
C  16.09900 52.41100 28.50400
C  14.69900 51.46200 30.47800
C  18.36600 52.12100 31.39300
C  18.72000 51.37100 32.70300
H  17.82400 51.83100 33.85500
N  15.70600 52.91000 25.46300
C  14.94500 53.35500 26.46000
C  13.77400 54.09100 25.87300
C  13.93400 54.01100 24.47300
C  15.19700 53.25000 24.28900
C  12.77700 54.79300 26.79500
C  13.18800 54.57000 23.29800
O  13.59600 54.45600 22.17900
C  11.83600 55.25300 23.47900
N  17.75800 51.48800 23.65100
C  16.89200 52.07900 22.78100
C  17.33300 51.85200 21.27100
C  18.71300 51.06900 21.52000
C  18.82100 50.98300 23.01500
C  16.34800 50.93600 20.55800
C  19.98900 51.64500 20.80700
C  20.77100 52.91100 21.31300
N  19.18100 50.67600 25.96400
C  20.11200 50.19600 25.02300
C  21.10100 49.45800 25.71300
C  20.79200 49.54000 27.11100
C  19.56500 50.29500 27.15100
C  22.34900 48.76900 25.19100
C  21.21900 49.23300 28.40900
O  22.22600 48.59000 28.75000
C  20.09800 49.85700 29.37400
C  19.42700 48.69600 30.07100
O  18.53300 48.02900 29.66700
O  20.12900 48.45400 31.23800
C  19.49200 47.46300 32.16500
H  14.30300 53.56000 28.44900
H  15.38400 53.01300 22.12800
H  20.76500 50.02400 23.06900
H  17.16700 50.50900 30.77500
H  16.06100 53.24700 30.38100
H  14.08300 52.20500 30.98400
H  14.86800 50.56700 31.07600
H  14.27600 51.17200 29.51600
H  17.88500 53.06400 31.65100
H  19.39200 52.27800 31.06000
H  19.73500 51.48800 33.08300
H  18.46500 50.32800 32.51900
H  12.51800 55.70500 26.25700
H  13.19300 55.14400 27.73900
H  11.88200 54.20300 26.99200
H  11.08600 54.81500 22.81900
H  12.00200 56.29100 23.18800
H  11.45300 55.09800 24.48700
H  17.55600 52.82300 20.82900
H  18.56000 50.06300 21.13000
H  15.40400 50.96800 21.10100
H  16.69700 49.90300 20.53300
H  16.17700 51.19700 19.51400
H  19.73100 51.80600 19.76000
H  20.61500 50.75600 20.87400
H  20.74300 53.69900 20.56000
H  21.79600 52.54900 21.39500
H  20.40700 53.25400 22.28200
H  22.23700 47.72500 25.48300
H  23.21500 49.25800 25.63700
H  22.38700 48.80500 24.10200
H  20.52700 50.52700 30.11900
H  19.67800 46.49400 31.70200
H  18.41800 47.61100 32.27600
H  19.95600 47.42200 33.15000

