158

Mg 26.90100 50.66300 27.01500
C  24.80000 51.77400 29.60100
C  29.23300 49.78200 29.36400
C  29.09400 49.85000 24.51600
C  24.56300 51.78100 24.68900
N  27.07100 50.89000 29.26000
C  25.97700 51.24100 30.09600
C  26.32800 50.86700 31.55600
C  27.86000 50.48800 31.51300
C  28.11400 50.36900 29.98400
C  28.80800 51.43200 32.16600
C  25.34200 49.77100 32.21400
C  24.05700 50.42700 33.02600
H  23.69500 49.80600 34.42600
N  28.93600 49.84900 26.96900
C  29.68300 49.46800 28.07200
C  30.87300 48.81700 27.58600
C  30.84100 48.88400 26.15100
C  29.58600 49.59900 25.82000
C  31.98900 48.32800 28.55600
C  31.83900 48.46100 25.08500
O  31.65600 48.57800 23.88000
C  33.17000 48.01800 25.46400
N  26.86000 50.86600 24.88600
C  27.83300 50.44300 24.06700
C  27.42500 50.38800 22.57100
C  25.90000 50.95500 22.65500
C  25.73000 51.25600 24.13500
C  28.37800 51.25100 21.69800
C  24.82900 49.98600 22.18600
C  24.20300 48.95000 23.09200
N  25.15000 51.78200 27.05900
C  24.32500 52.12200 26.04200
C  23.16400 52.88700 26.53700
C  23.33600 52.73000 27.93900
C  24.51600 52.02300 28.20700
C  22.12200 53.63400 25.74600
C  22.74200 52.99100 29.18200
O  21.68400 53.59700 29.40600
C  23.68200 52.44200 30.34400
C  24.21400 53.65300 31.12500
O  25.04800 54.48300 30.79900
O  23.47600 53.75400 32.30100
C  23.90700 54.70500 33.26800
H  29.85900 49.31500 30.12700
H  29.70400 49.55900 23.65900
H  23.79700 52.00900 23.94500
H  26.25300 51.80600 32.10500
H  28.05300 49.52400 31.98500
H  28.64900 51.19400 33.21800
H  28.53300 52.45900 31.92500
H  29.84000 51.37700 31.82100
H  25.87400 49.09400 32.88100
H  24.93500 49.17000 31.40100
H  23.20800 49.97900 32.51000
H  24.10100 51.51700 33.03700
H  32.14400 47.25300 28.64900
H  31.89500 48.72500 29.56700
H  32.94000 48.67500 28.15200
H  33.70500 48.94600 25.66500
H  33.58600 47.59200 24.55100
H  33.12800 47.26900 26.25400
H  27.60700 49.33700 22.34400
H  25.79200 51.95500 22.23600
H  29.10600 50.65500 21.14700
H  28.92800 51.96300 22.31300
H  27.91800 51.82900 20.89700
H  25.14200 49.45100 21.28900
H  23.96200 50.54300 21.82800
H  24.60200 48.97900 24.10600
H  24.46100 47.95900 22.71900
H  23.12200 49.07900 23.13700
H  22.25500 53.52100 24.67000
H  22.11700 54.69100 26.01200
H  21.16700 53.18500 26.01700
H  23.18600 51.69300 30.96100
H  24.60700 54.26700 33.97900
H  23.05600 54.98700 33.88700
H  24.32500 55.62400 32.85600
Mg 9.44400 48.22000 25.80300
C  7.02500 48.49400 28.50100
C  11.76800 49.54600 27.97700
C  11.70200 47.76800 23.33400
C  6.80000 47.60300 23.61100
N  9.36700 48.87300 27.96600
C  8.36800 48.72000 28.89400
C  8.87700 48.96700 30.32400
C  10.29400 49.71200 30.00600
C  10.51500 49.34100 28.56900
C  10.36400 51.21400 30.25300
C  9.04900 47.68500 31.19200
C  8.70300 47.89600 32.66000
H  8.66300 46.65900 33.48200
N  11.44800 48.53800 25.67700
C  12.25800 49.08700 26.68600
C  13.58600 49.11300 26.21000
C  13.56000 48.65100 24.84900
C  12.21200 48.22700 24.54000
C  14.82200 49.53100 27.12900
C  14.75000 48.56500 23.94800
O  14.65400 48.23100 22.80200
C  16.17000 49.07600 24.31200
N  9.22500 47.85000 23.77300
C  10.38500 47.63300 22.98900
C  9.91000 47.23800 21.61900
C  8.33200 47.23000 21.59400
C  8.07900 47.55600 23.08500
C  10.42900 48.18400 20.50400
C  7.67600 45.92100 21.17800
C  7.49000 45.95200 19.64600
N  7.34300 48.06900 25.89700
C  6.44200 47.84600 24.91800
C  5.08400 47.83900 25.49100
C  5.26800 48.07300 26.86600
C  6.68400 48.23700 27.10200
C  3.72500 47.68200 24.75100
C  4.60300 48.06200 28.17300
O  3.40100 47.86300 28.44200
C  5.68700 48.49100 29.18400
C  5.52400 47.63800 30.36200
O  5.73200 46.39900 30.47600
O  4.83600 48.41000 31.33300
C  4.45400 47.57600 32.48500
H  12.55800 49.80800 28.68400
H  12.47300 47.41800 22.64400
H  5.96900 47.33800 22.95500
H  8.11500 49.61800 30.75200
H  11.14500 49.29300 30.54300
H  10.54800 51.74000 29.31700
H  11.11500 51.39300 31.02300
H  9.36300 51.51400 30.56200
H  10.09800 47.41600 31.07100
H  8.42800 46.93200 30.70800
H  7.65100 48.17800 32.63700
H  9.35600 48.64800 33.10600
H  15.55000 48.71900 27.12300
H  14.50300 49.51000 28.17100
H  15.42800 50.38900 26.84000
H  16.18800 50.08400 24.72700
H  16.68600 49.08100 23.35300
H  16.65000 48.37600 24.99600
H  10.39700 46.27400 21.47100
H  7.90800 48.09500 21.08300
H  10.91300 47.44000 19.87100
H  11.21400 48.85700 20.84900
H  9.72900 48.82600 19.96800
H  6.77400 45.80400 21.77900
H  8.42500 45.15500 21.37900
H  6.44300 45.80200 19.38500
H  7.98000 45.11700 19.14400
H  7.71200 46.90900 19.17400
H  3.05100 48.33300 25.30800
H  3.40300 46.65900 24.55800
H  3.81200 48.10300 23.75000
H  5.41600 49.51000 29.46200
H  5.21800 47.63800 33.26000
H  4.25600 46.56700 32.12300
H  3.57200 48.01100 32.95300

