158

Mg 3.66800 -2.81200 44.57100
C  5.90900 -0.65600 43.49200
C  1.17300 -1.07500 42.82600
C  1.43300 -5.33500 45.36300
C  6.13100 -4.86500 45.80400
N  3.56000 -1.15400 43.15000
C  4.71100 -0.41900 42.77400
C  4.33700 0.71200 41.89100
C  2.78600 0.75800 41.84400
C  2.43700 -0.61400 42.55700
C  2.19400 1.98600 42.51400
C  5.05500 0.64700 40.50400
C  6.11100 1.74100 40.14200
H  5.95400 2.49300 38.86800
N  1.53100 -3.08900 44.23600
C  0.72100 -2.24800 43.53500
C  -0.63200 -2.82900 43.56300
C  -0.58400 -4.01900 44.31300
C  0.84000 -4.19400 44.72900
C  -1.80400 -2.11000 42.97700
C  -1.81900 -4.84900 44.65200
O  -2.90400 -4.62900 44.14000
C  -1.72000 -6.02400 45.57300
N  3.71100 -4.82000 45.50600
C  2.70700 -5.60000 45.77900
C  3.18900 -6.96800 46.30200
C  4.67100 -6.84800 46.17200
C  4.85100 -5.44000 45.78900
C  2.71000 -7.25100 47.80600
C  5.35700 -7.81200 45.15700
C  6.50800 -8.68400 45.64100
N  5.63500 -2.79600 44.69500
C  6.50000 -3.59500 45.30400
C  7.77300 -2.98700 45.41700
C  7.63200 -1.82900 44.66700
C  6.29800 -1.76200 44.27700
C  9.07800 -3.44600 46.12500
C  8.31300 -0.67100 44.18300
O  9.54700 -0.41700 44.11700
C  7.19500 0.16500 43.39300
C  7.02400 1.53100 43.91800
O  7.01300 2.53800 43.26100
O  6.89800 1.49500 45.29100
C  6.48000 2.71200 46.05800
H  0.33100 -0.55500 42.36500
H  0.80700 -6.18100 45.65300
H  6.97900 -5.51600 46.02700
H  4.62600 1.64800 42.36800
H  2.37500 0.67800 40.83700
H  2.89900 2.75900 42.82100
H  1.60600 1.76900 43.40600
H  1.56200 2.45600 41.76000
H  4.29900 0.73100 39.72300
H  5.36500 -0.39100 40.38900
H  7.07400 1.23600 40.22500
H  6.10500 2.48600 40.93800
H  -2.67100 -2.05800 43.63500
H  -1.92500 -2.78900 42.13300
H  -1.51200 -1.13400 42.58700
H  -1.28000 -5.60100 46.47700
H  -1.08800 -6.82200 45.18400
H  -2.63100 -6.51600 45.91400
H  2.83800 -7.77900 45.66500
H  5.28300 -6.90000 47.07300
H  2.13700 -8.17800 47.83400
H  2.08800 -6.45300 48.21200
H  3.59800 -7.41300 48.41600
H  5.71400 -7.25200 44.29300
H  4.60300 -8.50800 44.78800
H  6.33600 -9.75000 45.49900
H  6.69300 -8.49200 46.69800
H  7.33700 -8.27800 45.06100
H  9.88200 -3.56900 45.40000
H  8.87900 -4.36600 46.67400
H  9.38900 -2.71900 46.87500
H  7.56400 0.26800 42.37200
H  5.51900 2.58500 46.55800
H  6.52900 3.57500 45.39400
H  7.20300 2.82300 46.86600
Mg 48.96900 45.89900 43.30800
C  45.69900 46.22300 42.13200
C  48.92200 42.51500 42.40400
C  52.39300 45.79400 43.56500
C  49.06200 49.29800 43.75900
N  47.55500 44.61400 42.23000
C  46.26200 44.95100 41.87800
C  45.48800 43.68600 41.48200
C  46.42200 42.57600 41.85000
C  47.73300 43.25800 42.23400
C  45.83400 41.72300 42.96100
C  44.99300 43.64100 40.01700
C  45.86500 44.32400 38.92500
H  46.14800 43.42500 37.64100
N  50.44800 44.34400 43.04800
C  50.17500 43.07500 42.64200
C  51.44800 42.36600 42.49500
C  52.47800 43.23800 42.92100
C  51.83000 44.54200 43.16000
C  51.44000 40.94300 42.28200
C  53.93600 42.80200 42.92600
O  54.25200 41.71000 42.59200
C  55.05700 43.80800 43.20100
N  50.54700 47.37100 43.47300
C  51.83600 47.04100 43.80700
C  52.75000 48.26700 44.09000
C  51.64800 49.30400 44.43900
C  50.35100 48.65100 43.88400
C  53.77700 48.01300 45.19000
C  51.95800 50.76800 43.95800
C  52.36700 51.70300 45.10500
N  47.65400 47.48500 43.13000
C  47.91000 48.79800 43.34100
C  46.61600 49.52900 43.02300
C  45.71400 48.55400 42.60600
C  46.41300 47.31800 42.66000
C  46.36300 51.00400 42.93700
C  44.34800 48.32300 42.09700
O  43.35900 49.00400 41.98300
C  44.36600 46.78400 41.71000
C  43.12600 46.12300 42.22800
O  42.37300 45.55300 41.51600
O  42.96000 46.19300 43.57000
C  41.74600 45.58100 44.02000
H  48.74300 41.45700 42.19800
H  53.47800 45.85200 43.67000
H  49.16700 50.35900 43.99700
H  44.61200 43.70000 42.12900
H  46.55800 41.93000 40.98300
H  44.75400 41.59000 42.90700
H  46.04800 41.99600 43.99500
H  46.26100 40.72100 42.91500
H  43.99000 44.06300 39.95900
H  44.84400 42.58600 39.78400
H  46.84100 44.59600 39.32700
H  45.27900 45.18300 38.59800
H  51.98000 40.68900 41.37000
H  50.51300 40.37400 42.20500
H  51.93000 40.49900 43.14800
H  54.93700 44.68000 42.55800
H  55.97400 43.43600 42.74500
H  55.21100 44.02100 44.25800
H  53.29200 48.41800 43.15700
H  51.39100 49.32500 45.49800
H  53.57300 47.13000 45.79600
H  53.69200 48.90500 45.81000
H  54.75700 47.96900 44.71400
H  51.09800 51.20300 43.44900
H  52.72700 50.77000 43.18500
H  51.60400 52.41400 45.42400
H  53.20200 52.35500 44.85000
H  52.73900 51.29300 46.04400
H  46.82100 51.27500 41.98600
H  46.86900 51.58200 43.71100
H  45.28300 51.15000 42.94700
H  44.27500 46.60700 40.63800
H  40.89400 45.73900 43.35900
H  41.46900 45.98500 44.99400
H  41.77500 44.49600 44.12200

