158

Mg 46.31200 24.80400 28.56800
C  47.09500 27.21200 31.22900
C  45.17600 22.77200 30.86500
C  46.81400 22.32200 26.37200
C  47.91000 26.96600 26.41800
N  46.35000 24.92300 30.85400
C  46.48800 26.04500 31.72700
C  45.92500 25.75600 33.04800
C  45.35800 24.31000 32.94700
C  45.63400 23.96500 31.44400
C  45.81900 23.27000 33.93700
C  44.92600 26.85900 33.57400
C  45.34600 27.57100 34.86100
H  44.23100 27.83500 35.85600
N  45.74500 22.86700 28.56300
C  45.19900 22.18400 29.64200
C  44.74200 20.93600 29.18300
C  45.35300 20.72600 27.82900
C  46.11900 21.96800 27.54100
C  43.85500 19.93500 30.00400
C  45.39900 19.43100 26.98200
O  45.90100 19.47600 25.82800
C  44.79900 18.15700 27.52300
N  47.23800 24.67800 26.62300
C  47.33200 23.55600 25.93700
C  47.80000 23.80100 24.49100
C  47.92000 25.39100 24.40100
C  47.63600 25.76800 25.92400
C  49.08200 22.97400 24.05000
C  46.96900 26.01100 23.31700
C  45.60000 26.61600 23.71500
N  47.29100 26.78200 28.74700
C  47.75500 27.50600 27.70400
C  48.20900 28.75400 28.29200
C  47.99100 28.68800 29.67200
C  47.42500 27.45200 29.90100
C  48.67300 29.98300 27.52000
C  48.16500 29.45900 30.91100
O  48.60600 30.55000 31.19300
C  47.51300 28.46000 31.96200
C  48.62800 28.15100 32.92200
O  49.59400 27.42100 32.64500
O  48.44300 28.70200 34.11700
C  49.11300 28.00200 35.24900
H  44.66700 22.14700 31.60100
H  46.78500 21.52100 25.63100
H  48.30500 27.70000 25.71300
H  46.81800 25.73500 33.67300
H  44.30800 24.59700 33.00900
H  46.81800 22.98600 33.60800
H  45.07400 22.48300 34.04800
H  45.86100 23.70700 34.93500
H  43.95800 26.39600 33.76200
H  44.98400 27.57300 32.75300
H  45.62700 28.61500 34.72300
H  46.16900 27.06300 35.36400
H  42.99300 19.57800 29.44000
H  43.42700 20.49900 30.83200
H  44.53800 19.17400 30.38200
H  45.05400 17.92700 28.55700
H  45.15000 17.40100 26.82100
H  43.71200 18.07700 27.55000
H  46.88800 23.55600 23.94700
H  48.90600 25.68300 24.03900
H  48.83000 22.11100 23.43400
H  49.66500 22.50300 24.84200
H  49.78200 23.60200 23.49900
H  46.71200 25.27000 22.56000
H  47.56300 26.71200 22.73000
H  45.35300 26.34900 24.74300
H  44.79600 26.20400 23.10500
H  45.63400 27.68700 23.51300
H  47.92300 30.08400 26.73500
H  49.69500 29.80600 27.18600
H  48.52500 30.87800 28.12400
H  46.72400 28.84700 32.60600
H  48.23400 27.72300 35.83000
H  49.72000 28.66900 35.86100
H  49.51800 27.00100 35.09900
Mg 6.89500 56.29800 41.91800
C  5.90300 52.95600 41.95900
C  9.86200 55.25100 40.59900
C  7.57800 59.52600 41.26900
C  3.69400 57.28500 43.08800
N  7.68000 54.33400 41.17200
C  7.07000 53.12100 41.26300
C  7.99000 52.06800 40.54000
C  9.39800 52.77500 40.70200
C  8.98000 54.22400 40.79600
C  10.35400 52.28700 41.81200
C  7.69100 51.82700 39.01700
C  7.84800 50.41100 38.52400
H  7.02000 49.99900 37.33300
N  8.62500 57.30900 41.22200
C  9.75300 56.68300 40.79200
C  10.62800 57.71000 40.32400
C  9.98800 58.95600 40.43000
C  8.69000 58.68500 41.02700
C  11.98100 57.39900 39.63100
C  10.52900 60.31500 39.93400
O  11.55200 60.40300 39.26300
C  9.84000 61.67200 40.17500
N  5.75500 58.18500 42.03400
C  6.26600 59.33200 41.64500
C  5.34100 60.47700 41.82900
C  4.11700 59.82100 42.61000
C  4.47200 58.29300 42.53100
C  5.78900 61.83700 42.50200
C  2.70800 60.17800 41.99000
C  1.64700 60.87500 42.87200
N  5.07400 55.34000 42.42900
C  3.99300 55.84300 43.06100
C  3.12000 54.74800 43.51600
C  3.78300 53.63700 42.97000
C  5.00700 54.00100 42.41200
C  1.77400 54.83200 44.20200
C  3.74200 52.17900 42.74400
O  2.78500 51.39700 42.94000
C  5.12800 51.71200 42.25400
C  4.91500 50.78100 41.09600
O  4.50700 51.06100 39.95000
O  5.21800 49.51800 41.47300
C  4.63900 48.44500 40.66800
H  10.86700 54.87700 40.39200
H  7.77000 60.53600 40.90000
H  2.74700 57.49000 43.59100
H  8.05300 51.16000 41.14000
H  10.04800 52.79300 39.82700
H  9.98100 51.53700 42.50900
H  10.70800 53.10800 42.43500
H  11.12300 51.66700 41.34900
H  8.31100 52.54100 38.47500
H  6.63800 52.07600 38.88300
H  7.51300 49.81100 39.37000
H  8.90600 50.27200 38.30100
H  11.79100 57.66500 38.59100
H  12.14000 56.33000 39.48500
H  12.81700 57.96400 40.04200
H  9.59400 61.94500 41.20100
H  8.90600 61.61100 39.61600
H  10.47500 62.44000 39.73400
H  4.98300 60.67500 40.81900
H  4.10700 60.06000 43.67300
H  6.01400 62.42400 41.61200
H  6.70200 61.62900 43.05900
H  5.05200 62.28000 43.17300
H  2.20500 59.27900 41.63400
H  2.88100 60.80900 41.11800
H  1.90600 60.76900 43.92500
H  0.67500 60.41100 42.70800
H  1.59000 61.93800 42.63500
H  1.59900 54.10200 44.99300
H  1.12800 54.54300 43.37300
H  1.56300 55.85100 44.52700
H  5.72200 51.18600 43.00100
H  4.80000 48.68700 39.61800
H  3.56900 48.30300 40.82100
H  5.06400 47.47100 40.91000

