158

Mg 48.94100 45.36800 42.86900
C  45.46600 45.71800 41.95000
C  48.85900 42.28900 41.42100
C  52.28900 45.50400 42.79700
C  48.78200 48.61500 43.94100
N  47.33200 44.26000 41.66000
C  46.01700 44.51200 41.48600
C  45.38500 43.36800 40.65500
C  46.34200 42.21300 40.92000
C  47.58400 42.97000 41.38600
C  45.96200 41.07600 41.92400
C  45.24100 43.89900 39.12900
C  43.99400 43.29900 38.39600
H  43.87800 43.43000 36.86000
N  50.38400 43.93900 42.36200
C  50.11200 42.78700 41.74800
C  51.37000 42.11900 41.47400
C  52.37100 43.10200 41.71400
C  51.69700 44.28300 42.33400
C  51.49700 40.65200 41.07100
C  53.87600 42.90100 41.42800
O  54.26700 41.87700 40.91000
C  54.91600 43.92500 41.80600
N  50.34400 46.82800 43.15700
C  51.67200 46.64000 43.26900
C  52.44000 47.93000 43.74600
C  51.29000 48.85500 44.28600
C  50.03600 48.07300 43.75600
C  53.65000 47.68200 44.73600
C  51.43300 50.42000 43.88900
C  51.64300 51.34700 45.02900
N  47.38400 46.88700 43.00200
C  47.54200 48.19000 43.46100
C  46.30000 48.83600 43.35700
C  45.40400 47.90700 42.81200
C  46.15200 46.75400 42.51600
C  46.14300 50.28000 43.92000
C  44.03300 47.66800 42.42500
O  43.06600 48.42000 42.52200
C  44.03600 46.13800 41.79800
C  43.01600 45.29700 42.53000
O  42.42800 44.33500 42.04900
O  42.78800 45.82900 43.77000
C  41.67400 45.10300 44.48100
H  48.87100 41.29300 40.97600
H  53.37600 45.59500 42.75600
H  48.90000 49.64600 44.28000
H  44.37000 43.12200 40.96500
H  46.65700 41.71400 40.00400
H  45.62300 40.16200 41.43700
H  45.12700 41.32200 42.58100
H  46.80700 40.83300 42.56700
H  46.14000 43.86400 38.51400
H  45.07100 44.97500 39.09300
H  43.09200 43.74300 38.81700
H  43.92300 42.23900 38.64100
H  51.76300 40.45400 40.03300
H  50.53800 40.19500 41.31700
H  52.25800 40.34200 41.78700
H  54.61800 44.72300 41.12600
H  55.88600 43.50900 41.53400
H  54.96400 44.13300 42.87500
H  52.86600 48.44300 42.88300
H  51.23400 48.83500 45.37400
H  54.60500 47.83300 44.23200
H  53.62000 46.66100 45.11500
H  53.59200 48.34800 45.59700
H  50.56600 50.67600 43.27900
H  52.27100 50.57000 43.20900
H  50.77300 52.00300 45.02700
H  52.42700 52.04100 44.72600
H  51.81600 50.91400 46.01400
H  46.85700 50.85500 43.33000
H  46.50100 50.37700 44.94500
H  45.13700 50.68300 43.80000
H  43.63400 46.18000 40.78600
H  40.74300 45.66700 44.44000
H  41.96000 45.00000 45.52800
H  41.40700 44.09200 44.17200
Mg 35.63800 49.65800 25.58300
C  36.10200 47.86800 28.59500
C  34.24600 52.15700 27.39100
C  34.81500 51.05700 22.62900
C  36.66400 46.78100 23.87800
N  35.26200 49.99200 27.74300
C  35.61000 49.18700 28.79500
C  35.29900 49.83300 30.19300
C  34.31900 51.02900 29.77700
C  34.69700 51.17100 28.24900
C  32.74900 50.69800 30.05500
C  36.53900 50.29300 30.98100
C  36.67400 49.62900 32.36300
H  35.47400 49.65100 33.32000
N  34.79100 51.42900 25.09300
C  34.34500 52.35700 25.98100
C  33.90100 53.55400 25.25700
C  33.98100 53.21200 23.90900
C  34.54400 51.83100 23.77500
C  33.44700 54.85500 25.95800
C  33.50500 54.07300 22.67300
O  33.76700 53.80800 21.50100
C  32.84900 55.38600 22.93800
N  35.69300 48.96200 23.62000
C  35.37200 49.77400 22.55800
C  35.56900 49.08200 21.17100
C  36.42200 47.82600 21.63000
C  36.22300 47.83200 23.16100
C  34.20000 48.76700 20.48500
C  37.89600 47.66900 21.11700
C  39.03400 48.40500 21.82100
N  36.24400 47.68900 26.04600
C  36.57700 46.64900 25.26500
C  37.03800 45.49300 26.09500
C  36.89800 45.94600 27.41700
C  36.35100 47.25700 27.37700
C  37.65200 44.17100 25.51800
C  37.11100 45.58800 28.79700
O  37.66200 44.64800 29.36900
C  36.51800 46.86800 29.61400
C  35.37200 46.29900 30.40200
O  34.27500 46.09800 29.90500
O  35.80300 45.93000 31.62800
C  34.81200 45.20000 32.47100
H  33.80600 53.00600 27.91800
H  34.49500 51.44200 21.65900
H  36.88000 45.95500 23.19700
H  34.78900 49.10600 30.82400
H  34.51200 51.91800 30.37700
H  32.20800 51.03500 29.17100
H  32.43400 51.26100 30.93400
H  32.60600 49.65100 30.32400
H  36.52300 51.36300 31.18500
H  37.42700 50.04100 30.40100
H  37.43500 50.20400 32.88900
H  37.08000 48.62800 32.21600
H  33.94600 55.71300 25.50600
H  33.78400 54.86800 26.99500
H  32.36400 54.96600 26.00600
H  31.94000 55.32600 23.53600
H  32.63600 55.88100 21.99000
H  33.63700 55.92900 23.46000
H  36.13400 49.74200 20.51300
H  35.80100 47.01800 21.24200
H  33.46500 48.57300 21.26600
H  34.35600 47.88700 19.86200
H  33.95900 49.62800 19.86000
H  37.99500 47.91700 20.06000
H  38.19700 46.62200 21.09000
H  39.49900 47.83600 22.62600
H  38.54300 49.25300 22.29800
H  39.77300 48.83400 21.14400
H  38.69600 44.34900 25.25900
H  37.04200 43.77600 24.70500
H  37.62800 43.27300 26.13500
H  37.27800 47.21700 30.31300
H  33.84100 45.69200 32.53300
H  35.14600 45.10100 33.50400
H  34.75200 44.17500 32.10400

