158

Mg 42.63400 41.94600 26.04500
C  41.75400 44.23700 28.37300
C  43.89400 39.94700 28.72400
C  43.91900 39.68900 23.76600
C  42.27100 44.32100 23.55300
N  42.75900 42.16100 28.27300
C  42.19300 43.07100 28.96600
C  42.05200 42.59400 30.45300
C  43.05500 41.43600 30.57400
C  43.19500 41.10400 29.08600
C  44.29900 41.67400 31.38500
C  40.56700 42.38000 30.84900
C  40.40800 41.64400 32.25300
H  39.98500 42.61900 33.38800
N  43.68000 40.05200 26.25700
C  44.03100 39.40100 27.41600
C  44.53800 38.11900 27.07900
C  44.38200 37.89000 25.60400
C  44.00300 39.24700 25.13600
C  45.18900 37.23000 28.06500
C  44.70800 36.70400 24.77600
O  44.70500 36.75800 23.57400
C  45.05100 35.45000 25.49600
N  43.02300 42.02700 24.00200
C  43.40600 40.91400 23.26900
C  43.31400 41.16300 21.82200
C  42.67300 42.57100 21.71700
C  42.69800 43.07000 23.18100
C  44.65700 40.92300 21.07500
C  41.15300 42.66200 21.18000
C  40.13600 42.09600 22.19500
N  42.07600 43.89600 25.96100
C  41.88100 44.75000 24.84300
C  41.21000 45.98100 25.33700
C  41.17000 45.84700 26.75700
C  41.69800 44.60000 27.05400
C  40.84600 47.11900 24.50600
C  40.73800 46.46500 28.03300
O  40.21400 47.53000 28.38700
C  41.20000 45.42200 29.18600
C  42.33400 45.93100 30.06100
O  43.49500 46.06200 29.74000
O  41.98700 46.03900 31.37900
C  43.04200 46.49000 32.32500
H  44.17700 39.35900 29.60000
H  44.26800 39.05500 22.94900
H  42.20200 45.04700 22.74100
H  42.34200 43.43800 31.07900
H  42.55000 40.62900 31.10300
H  45.25900 41.35000 30.98400
H  44.18700 41.07400 32.28800
H  44.34000 42.71700 31.70200
H  40.11700 41.78100 30.05700
H  40.06700 43.34700 30.87900
H  41.31100 41.19200 32.66300
H  39.70700 40.81800 32.13000
H  44.60000 36.35800 28.35000
H  45.44500 37.80500 28.95500
H  46.11000 36.83800 27.63200
H  44.26100 35.05800 26.13500
H  46.01800 35.47300 26.00000
H  45.10800 34.61500 24.79800
H  42.71200 40.34500 21.42700
H  43.22100 43.28300 21.10000
H  45.00700 41.84500 20.61000
H  44.49800 40.20900 20.26800
H  45.43300 40.48800 21.70400
H  41.03200 42.15100 20.22500
H  40.97000 43.70900 20.93800
H  40.69300 41.51400 22.93000
H  39.42600 41.36000 21.82000
H  39.50700 42.86100 22.64900
H  41.63200 47.73600 24.07100
H  40.37800 47.86400 25.14900
H  40.20500 46.91200 23.64900
H  40.33500 45.20700 29.81400
H  43.56600 45.56000 32.54300
H  42.78200 46.98900 33.25800
H  43.70100 47.21300 31.84400
Mg 17.04300 52.47900 26.28900
C  18.97000 51.11500 28.82900
C  14.77900 53.50100 28.73000
C  14.93400 53.40700 23.84500
C  19.39000 51.54400 23.95200
N  16.97800 52.34700 28.57000
C  17.85900 51.81000 29.35200
C  17.65300 52.14400 30.75800
C  16.12300 52.60400 30.72600
C  15.96500 52.93000 29.28300
C  15.05100 51.56000 31.21500
C  18.66200 53.16500 31.40400
C  18.74200 53.16800 32.90600
H  17.74100 52.24400 33.66900
N  15.17400 53.36400 26.26300
C  14.44300 53.78600 27.37300
C  13.18900 54.31500 26.90900
C  13.26900 54.33400 25.48900
C  14.46700 53.64600 25.14900
C  12.03700 54.79900 27.79400
C  12.32600 54.92000 24.38400
O  12.44200 54.86500 23.14200
C  11.19300 55.90800 24.75700
N  17.18900 52.39400 24.25300
C  16.12600 52.76700 23.43300
C  16.48700 52.62200 21.94100
C  17.93900 52.08200 22.01000
C  18.21300 52.08000 23.47600
C  15.46200 51.79200 21.28500
C  19.00900 52.93000 21.23600
C  19.58600 54.15600 21.90800
N  18.85800 51.64900 26.31300
C  19.69000 51.25200 25.27900
C  20.73400 50.45600 25.77200
C  20.54600 50.35000 27.13800
C  19.42100 51.17100 27.46700
C  21.69900 49.67500 24.95900
C  21.02600 49.78300 28.34600
O  22.01100 49.11700 28.59500
C  20.11300 50.35700 29.51400
C  19.74700 49.32600 30.53800
O  18.76500 48.57100 30.46400
O  20.52600 49.52200 31.62800
C  20.41900 48.47900 32.65400
H  14.09400 53.92400 29.46800
H  14.30100 53.67500 22.99700
H  20.08600 51.15800 23.20400
H  17.71200 51.25200 31.38200
H  15.97100 53.53700 31.26900
H  14.66700 50.90400 30.43300
H  14.24900 52.06500 31.75400
H  15.54400 50.90800 31.93600
H  18.20300 54.09700 31.07600
H  19.68600 53.09200 31.03800
H  18.80700 54.22400 33.16800
H  19.69700 52.69600 33.13400
H  12.17900 54.44300 28.81500
H  11.14900 54.32100 27.38000
H  11.93900 55.88400 27.82300
H  10.77200 56.40800 23.88400
H  11.41000 56.69400 25.48100
H  10.47300 55.27800 25.27700
H  16.45800 53.59800 21.45700
H  18.00800 51.04900 21.66900
H  14.78600 52.46100 20.75200
H  14.81100 51.24800 21.97000
H  15.87900 51.09500 20.55800
H  18.55300 53.28500 20.31100
H  19.80200 52.27400 20.87800
H  20.65700 53.97000 21.98800
H  19.23900 54.32800 22.92600
H  19.36200 55.09700 21.40600
H  21.27600 49.31200 24.02200
H  22.00500 48.79000 25.51600
H  22.62900 50.22600 24.82500
H  20.63700 51.20700 29.95000
H  20.07600 47.51400 32.28100
H  19.75200 48.84800 33.43300
H  21.38200 48.38800 33.15600

