158

Mg -1.86400 17.27100 27.33800
C  -2.32600 15.19800 30.16300
C  -2.38200 19.97100 29.48100
C  -1.56600 19.24300 24.74500
C  -2.02800 14.46700 25.28100
N  -2.25900 17.50500 29.61800
C  -2.32000 16.54400 30.55700
C  -2.28600 17.16400 31.98600
C  -2.51400 18.67800 31.70800
C  -2.42000 18.72800 30.17600
C  -3.84500 19.24200 32.21100
C  -0.98700 16.89400 32.84900
C  -0.97400 16.31800 34.23400
H  0.17900 16.65500 35.26500
N  -1.84400 19.34900 27.09900
C  -2.07500 20.32300 28.07300
C  -2.00500 21.57600 27.46300
C  -1.58600 21.36400 26.14500
C  -1.66500 19.96400 25.93100
C  -2.15000 22.83400 28.23500
C  -1.22400 22.36200 25.09300
O  -0.79600 22.07500 23.96000
C  -1.14000 23.81400 25.30900
N  -1.88400 16.86300 25.30400
C  -1.66200 17.90800 24.42100
C  -1.74600 17.39700 22.95100
C  -1.42200 15.84300 23.17800
C  -1.87600 15.70900 24.66600
C  -3.03100 17.63100 22.12600
C  0.07800 15.53900 22.87300
C  1.09600 15.95900 23.95300
N  -2.04600 15.28200 27.60900
C  -2.24800 14.25000 26.67000
C  -2.38700 12.94100 27.36300
C  -2.30700 13.31900 28.70700
C  -2.20700 14.71400 28.81900
C  -2.60900 11.55600 26.81900
C  -2.46600 12.70200 30.02500
O  -2.66500 11.53500 30.36000
C  -2.48900 13.95000 30.98100
C  -1.40100 13.66100 31.94000
O  -0.19300 13.71000 31.74800
O  -2.01200 13.19900 33.04000
C  -1.09400 12.28300 33.85100
H  -2.43500 20.80500 30.18400
H  -1.59500 19.96600 23.92700
H  -1.87600 13.56000 24.69300
H  -3.20300 16.83400 32.47500
H  -1.75900 19.32200 32.15800
H  -4.31500 19.90200 31.48300
H  -3.66900 19.85100 33.09800
H  -4.62700 18.51400 32.43000
H  -0.33200 17.76400 32.81300
H  -0.37800 16.17200 32.30400
H  -0.92800 15.24800 34.03300
H  -1.94800 16.54400 34.66700
H  -2.69500 22.69100 29.16800
H  -2.72800 23.57100 27.67800
H  -1.17400 23.24000 28.50100
H  -0.19100 23.90500 25.83700
H  -1.93900 24.28400 25.88300
H  -0.92400 24.36500 24.39400
H  -0.90600 17.83600 22.41200
H  -2.08700 15.18800 22.61500
H  -3.81900 18.29900 22.47300
H  -3.56200 16.69000 21.98600
H  -2.70200 18.12800 21.21400
H  0.34700 16.23100 22.07400
H  0.24300 14.54000 22.46900
H  0.62700 16.21100 24.90400
H  1.75500 16.76300 23.62500
H  1.77200 15.10500 23.92200
H  -1.75800 11.21400 26.23000
H  -3.52900 11.37800 26.26100
H  -2.49900 10.94500 27.71400
H  -3.46500 13.85000 31.45700
H  -0.38000 11.70300 33.26700
H  -1.69800 11.65400 34.50400
H  -0.49100 12.93400 34.48400
Mg 0.28800 7.80100 26.46300
C  1.16300 9.56500 29.45100
C  0.07600 4.80900 28.31300
C  -0.18300 6.23200 23.58600
C  0.54600 10.90500 24.71900
N  0.53300 7.33600 28.57400
C  0.97700 8.16700 29.64400
C  0.71700 7.45500 31.00500
C  0.75600 5.99700 30.56100
C  0.35400 6.02600 29.06100
C  2.01500 5.12100 30.90900
C  -0.60300 8.00600 31.55800
C  -0.76200 8.00300 33.06500
H  0.53500 7.69100 33.88300
N  0.04100 5.82200 26.02400
C  -0.14700 4.79100 26.88600
C  -0.76800 3.69700 26.16200
C  -0.80100 4.03700 24.80300
C  -0.30600 5.41500 24.74600
C  -1.35500 2.43800 26.89600
C  -1.41500 3.26600 23.58900
O  -1.22100 3.56700 22.37800
C  -2.15800 2.04500 23.88800
N  0.29600 8.41900 24.49200
C  0.04700 7.54400 23.46300
C  -0.03300 8.26900 22.14500
C  -0.16400 9.77200 22.56800
C  0.22500 9.76300 23.99800
C  1.15100 7.96500 21.12400
C  -1.56800 10.47200 22.48000
C  -1.74000 11.46000 21.37800
N  0.85700 9.75300 26.89800
C  0.91500 10.93800 26.09800
C  1.34800 12.04200 26.89700
C  1.42800 11.52400 28.18500
C  1.12400 10.19100 28.16700
C  1.55000 13.41700 26.38700
C  1.77800 11.87500 29.52600
O  2.22700 12.92900 29.89700
C  1.60600 10.66400 30.41300
C  2.82800 10.43900 31.24400
O  3.75800 9.67400 30.96000
O  2.63500 11.12000 32.39400
C  3.61000 10.86700 33.46500
H  -0.01600 3.88100 28.88100
H  -0.30800 5.73300 22.62300
H  0.69400 11.86400 24.21900
H  1.57300 7.71300 31.62800
H  -0.06000 5.47700 31.06300
H  2.67400 5.59600 31.63600
H  2.64800 5.08400 30.02200
H  1.82800 4.10300 31.24800
H  -1.43000 7.47900 31.08200
H  -0.72400 9.06800 31.34300
H  -1.53100 7.25600 33.26400
H  -1.06300 8.96500 33.47900
H  -2.03300 2.83200 27.65200
H  -0.44900 2.00100 27.31600
H  -1.98900 1.74300 26.34600
H  -2.63300 1.50600 23.06800
H  -3.02600 2.37500 24.45900
H  -1.49200 1.32000 24.35600
H  -0.99600 8.00200 21.71000
H  0.57200 10.39600 22.06200
H  0.75400 7.32900 20.33300
H  1.88100 7.39400 21.69600
H  1.58500 8.91100 20.80100
H  -1.69100 11.03600 23.40400
H  -2.36900 9.75900 22.28400
H  -0.87600 11.37800 20.72000
H  -1.60100 12.47900 21.73800
H  -2.65600 11.43900 20.78800
H  1.86300 14.10800 27.16900
H  0.64300 13.79800 25.91700
H  2.33700 13.46300 25.63400
H  0.76700 10.98100 31.03300
H  4.34200 10.12300 33.15000
H  3.13000 10.52400 34.38200
H  4.18100 11.76100 33.71500

