158

Mg 9.34100 4.32700 27.90900
C  10.71200 2.67600 30.66700
C  7.24000 5.92500 29.95600
C  7.84900 5.72100 25.11100
C  10.93900 2.02000 25.74200
N  8.97700 4.20600 30.16700
C  9.71800 3.57800 31.13500
C  9.14800 3.88700 32.51900
C  7.93400 4.83900 32.23900
C  8.09300 5.03300 30.69800
C  6.48800 4.35000 32.59600
C  10.20800 4.30500 33.63400
C  9.58400 4.27200 35.03300
H  10.48000 4.37600 36.21900
N  7.85800 5.77600 27.63800
C  7.03500 6.20500 28.56800
C  6.11700 7.22300 28.02200
C  6.24000 7.16200 26.60300
C  7.42500 6.25900 26.37700
C  5.19300 8.06300 28.78800
C  5.45200 7.87400 25.44800
O  5.78300 7.82700 24.29600
C  4.32300 8.85000 25.69300
N  9.35600 3.98300 25.76500
C  8.63600 4.62100 24.84200
C  8.80100 4.00500 23.44300
C  9.80900 2.85200 23.67400
C  10.12400 3.02700 25.16600
C  7.49600 3.57400 22.73600
C  11.05300 2.75000 22.75500
C  11.04800 1.69500 21.63800
N  10.59700 2.66900 28.06200
C  11.20900 1.84300 27.12300
C  11.98900 0.90200 27.85700
C  11.98600 1.30900 29.22700
C  10.96700 2.29300 29.28800
C  12.80000 -0.23700 27.20400
C  12.46600 0.96300 30.55900
O  13.23000 0.08400 30.93700
C  11.72600 1.92700 31.50200
C  11.10800 1.16200 32.55800
O  10.11400 0.42200 32.44700
O  11.73400 1.41800 33.73000
C  11.22700 0.67700 34.85700
H  6.57600 6.47200 30.62800
H  7.31800 6.10800 24.23900
H  11.23700 1.24100 25.03600
H  8.89400 2.90500 32.91700
H  8.10500 5.85200 32.60300
H  6.43700 3.54200 33.32500
H  5.90000 4.09200 31.71500
H  5.88100 5.19700 32.91700
H  10.55300 5.31600 33.42000
H  11.07900 3.65600 33.54100
H  9.04200 3.32600 35.03600
H  8.80600 5.02900 35.13000
H  5.76300 8.98800 28.87000
H  4.86200 7.61500 29.72400
H  4.28500 8.33300 28.24900
H  3.88600 9.26300 24.78400
H  4.61000 9.72400 26.27800
H  3.51300 8.32000 26.19500
H  9.29200 4.81000 22.89600
H  9.25200 1.91700 23.62300
H  6.69900 3.64500 23.47700
H  7.52200 2.55200 22.35800
H  7.50100 4.35900 21.98000
H  11.94500 2.70500 23.38100
H  11.11500 3.73900 22.30100
H  10.06100 1.25200 21.50500
H  11.69400 0.88400 21.97400
H  11.33700 2.06300 20.65300
H  12.52500 -1.20300 27.62900
H  13.83800 0.07600 27.31500
H  12.54400 -0.38000 26.15400
H  12.43200 2.57700 32.01800
H  10.18700 0.36200 34.76500
H  11.23300 1.21000 35.80700
H  11.82000 -0.23500 34.92200
Mg -5.62400 25.54000 25.96100
C  -4.41000 26.72800 29.03400
C  -7.39500 23.06500 27.72600
C  -6.15200 23.83600 23.10800
C  -3.29000 27.67500 24.41000
N  -5.73200 24.91500 28.17200
C  -5.33800 25.63900 29.24400
C  -5.99700 25.11700 30.50400
C  -6.80200 23.82800 30.04700
C  -6.61600 23.89200 28.52000
C  -6.19600 22.50600 30.67300
C  -6.90700 26.19400 31.14600
C  -6.70600 26.30700 32.67700
H  -6.36300 25.09200 33.49300
N  -6.84300 23.87900 25.44800
C  -7.50300 23.02400 26.31300
C  -8.46600 22.27500 25.56100
C  -8.05200 22.31600 24.18700
C  -6.95500 23.35900 24.23500
C  -9.61400 21.51000 26.31200
C  -8.64800 21.76100 22.94500
O  -8.29900 22.12000 21.81700
C  -9.81700 20.78300 23.18200
N  -4.71300 25.68300 24.03900
C  -5.12000 24.81400 23.05700
C  -4.40200 25.26300 21.74700
C  -3.74900 26.61700 22.11700
C  -3.92500 26.67100 23.60600
C  -3.52300 24.15400 21.16000
C  -4.42200 27.83200 21.36000
C  -3.49500 28.52800 20.33300
N  -4.16400 27.01200 26.53100
C  -3.23400 27.76900 25.80600
C  -2.61200 28.69200 26.71000
C  -3.05000 28.33900 28.01200
C  -3.99500 27.27200 27.84300
C  -1.71400 29.81600 26.27900
C  -2.82600 28.67200 29.38000
O  -2.12000 29.46000 30.02200
C  -3.79300 27.65700 30.10400
C  -3.15400 26.88800 31.20400
O  -2.71000 25.75500 31.17700
O  -3.02400 27.73100 32.27700
C  -2.36100 27.15600 33.41500
H  -8.15100 22.48700 28.26100
H  -6.25000 23.16500 22.25200
H  -2.62900 28.43500 23.98700
H  -5.20600 24.87800 31.21500
H  -7.83400 23.97800 30.36300
H  -5.34700 22.11800 30.10900
H  -7.01300 21.82700 30.91900
H  -5.65100 22.61600 31.61000
H  -7.96300 25.93800 31.06200
H  -6.56000 27.12500 30.69600
H  -7.48300 26.78400 33.27400
H  -5.86400 26.99200 32.78300
H  -10.49400 21.53700 25.66900
H  -9.90200 22.01300 27.23500
H  -9.36800 20.46200 26.47900
H  -10.02800 20.32500 22.21500
H  -10.62900 21.49000 23.34900
H  -9.50800 20.08400 23.96000
H  -5.14300 25.39400 20.95900
H  -2.69900 26.58800 21.82800
H  -2.47400 24.44800 21.12100
H  -3.82100 23.85700 20.15400
H  -3.69900 23.36200 21.88700
H  -4.69600 28.56600 22.11900
H  -5.34600 27.48500 20.89600
H  -3.88200 28.33200 19.33300
H  -2.50400 28.08400 20.42100
H  -3.48000 29.59400 20.55900
H  -0.93100 29.79100 27.03700
H  -2.23900 30.76900 26.34000
H  -1.31100 29.56000 25.29900
H  -4.67200 28.18900 30.46700
H  -2.48700 27.73200 34.33200
H  -1.29100 27.17800 33.20800
H  -2.54300 26.10100 33.61800

