158

Mg 34.78400 3.04200 29.38200
C  33.11900 4.22000 32.12900
C  37.58700 2.51400 31.24300
C  36.49200 2.13300 26.52300
C  32.15900 4.06500 27.28000
N  35.31800 3.34300 31.47800
C  34.42700 3.83100 32.39600
C  35.17900 3.86300 33.78600
C  36.66600 3.53000 33.44800
C  36.53700 3.11700 31.99000
C  37.68500 4.72800 33.48800
C  34.51300 2.98600 34.86300
C  34.01800 3.74700 36.14100
H  35.00600 4.67700 36.82900
N  36.72500 2.40700 28.92700
C  37.67700 2.20700 29.87200
C  38.93400 1.78700 29.24100
C  38.63800 1.67100 27.86100
C  37.23700 2.03700 27.73500
C  40.15400 1.46500 30.03600
C  39.49500 1.18300 26.63800
O  39.02600 0.97400 25.56200
C  40.91700 0.84300 26.84500
N  34.36300 2.99900 27.19700
C  35.33200 2.72300 26.29100
C  34.73300 2.94900 24.81400
C  33.28500 3.44200 25.09100
C  33.22500 3.49700 26.61200
C  35.58700 4.02900 24.03000
C  32.16500 2.53000 24.36900
C  31.45500 1.44100 25.17300
N  33.02200 3.84200 29.61700
C  32.06600 4.22400 28.72200
C  30.92100 4.58600 29.42300
C  31.26700 4.54500 30.71400
C  32.60000 4.12300 30.81400
C  29.58100 4.96100 28.95500
C  30.80400 4.83300 32.05300
O  29.69000 5.25300 32.43500
C  32.00400 4.68200 33.06800
C  32.27800 6.10200 33.52800
O  33.02500 6.88400 33.02100
O  31.58400 6.30300 34.68300
C  31.98700 7.50000 35.47800
H  38.45700 2.51800 31.90400
H  36.99800 1.92500 25.57800
H  31.27300 4.32200 26.69600
H  35.05300 4.91300 34.05200
H  36.90800 2.62700 34.00800
H  37.09800 5.64500 33.43700
H  38.24400 4.74400 32.55200
H  38.30100 4.68900 34.38600
H  35.15000 2.18900 35.24600
H  33.67300 2.54000 34.32900
H  33.59200 2.98500 36.79500
H  33.15700 4.39300 35.96500
H  41.04400 2.04200 29.78400
H  40.34700 0.40500 29.87600
H  40.01800 1.51500 31.11700
H  41.42500 1.73100 27.22100
H  41.36900 0.49300 25.91700
H  40.98600 0.01000 27.54400
H  34.84700 1.96900 24.35100
H  33.13300 4.49000 24.83400
H  36.66300 3.96500 24.18800
H  35.26700 4.99100 24.43100
H  35.39400 3.93200 22.96100
H  32.56100 2.10900 23.44500
H  31.41100 3.17100 23.91200
H  30.42900 1.70900 25.42400
H  31.97200 1.18900 26.09900
H  31.38000 0.49600 24.63400
H  29.86400 5.65500 28.16300
H  28.95300 5.47100 29.68500
H  29.18700 4.00600 28.60600
H  31.95200 3.94600 33.87000
H  32.31700 8.24600 34.75400
H  32.72800 7.44500 36.27600
H  31.10400 8.00000 35.87500
Mg -12.13600 38.02300 42.30600
C  -9.93100 35.37800 41.40700
C  -10.11500 40.12900 40.59400
C  -14.51400 40.33900 42.76400
C  -14.46000 35.55600 43.33400
N  -10.25100 37.71000 41.03600
C  -9.54800 36.55000 40.80700
C  -8.27100 36.83500 40.00900
C  -8.29200 38.42400 39.90200
C  -9.63000 38.83000 40.47800
C  -7.07700 39.05300 40.60100
C  -8.20400 36.02900 38.64200
C  -6.98600 35.22500 38.18000
H  -6.13500 36.04800 37.10200
N  -12.26100 40.03500 41.95400
C  -11.26800 40.70800 41.23000
C  -11.60900 42.16900 41.27300
C  -12.87200 42.21700 41.87800
C  -13.25900 40.86100 42.32900
C  -10.68100 43.25000 40.72500
C  -13.55400 43.54900 42.18700
O  -13.19500 44.61200 41.61200
C  -14.75000 43.52700 43.15100
N  -14.26100 37.88500 42.68700
C  -15.01600 39.01400 42.90300
C  -16.54700 38.67100 43.00900
C  -16.53100 37.14700 43.28300
C  -15.00300 36.79900 43.07600
C  -17.55600 39.49700 43.85800
C  -17.51300 36.25400 42.43500
C  -18.66400 35.64400 43.23800
N  -12.21500 35.91500 42.43200
C  -13.16000 35.10400 43.09300
C  -12.53100 33.71600 43.18800
C  -11.30500 33.79200 42.52100
C  -11.15400 35.13100 42.04000
C  -13.07700 32.45000 43.86000
C  -10.04000 33.05100 42.15700
O  -9.79100 31.82800 42.33500
C  -9.19000 34.04400 41.24500
C  -7.81900 34.12500 41.75400
O  -6.94700 33.35500 41.46400
O  -7.76300 34.96300 42.83500
C  -6.42100 35.12600 43.38600
H  -9.51800 40.90500 40.11000
H  -15.31300 41.06400 42.93100
H  -14.93500 34.66900 43.75900
H  -7.37200 36.59300 40.57600
H  -8.27100 38.74700 38.86100
H  -6.31100 38.35300 40.93400
H  -7.45200 39.71100 41.38500
H  -6.61000 39.67700 39.83900
H  -8.31700 36.69900 37.78900
H  -8.97700 35.26000 38.65300
H  -7.24900 34.30500 37.65700
H  -6.28000 35.07300 38.99700
H  -10.87600 43.40200 39.66300
H  -9.64900 42.91700 40.83300
H  -10.78500 44.23000 41.19200
H  -14.64400 42.79900 43.95600
H  -15.62600 43.31400 42.53900
H  -14.80300 44.47800 43.67900
H  -16.91700 38.85700 42.00100
H  -16.75100 36.95100 44.33200
H  -18.12700 38.70100 44.33600
H  -18.14400 40.08000 43.14800
H  -16.95300 40.13100 44.50700
H  -16.78700 35.58400 41.97400
H  -17.97100 36.91600 41.70000
H  -18.48900 34.59600 43.48000
H  -19.62500 35.70900 42.72800
H  -18.67000 36.15700 44.19900
H  -14.00600 32.36700 43.29600
H  -13.25300 32.59400 44.92600
H  -12.54200 31.50900 43.73800
H  -9.23600 33.59500 40.25300
H  -6.21500 34.16200 43.85200
H  -6.49700 35.92100 44.12700
H  -5.69700 35.36200 42.60500

