158

Mg 16.79000 -1.67500 28.38300
C  15.42000 0.19100 30.92400
C  18.71800 -3.26800 30.87200
C  18.84600 -2.96200 26.08600
C  15.12200 0.24400 25.92200
N  17.28200 -1.39800 30.65700
C  16.45000 -0.60600 31.43300
C  16.78800 -0.79100 32.99800
C  18.02700 -1.80600 32.87600
C  18.04100 -2.22100 31.38400
C  19.41200 -1.15700 33.20900
C  15.62400 -1.56200 33.64900
C  15.42300 -1.34800 35.17200
H  16.68200 -0.90400 36.07200
N  18.46900 -3.01000 28.45900
C  18.98000 -3.67900 29.54200
C  19.84500 -4.78300 29.13700
C  20.00400 -4.59800 27.76200
C  19.13800 -3.47600 27.36100
C  20.46700 -5.81800 30.06800
C  20.91000 -5.39100 26.73500
O  20.97000 -5.03400 25.55600
C  21.76300 -6.61400 27.19200
N  16.92200 -1.43900 26.36500
C  17.86900 -2.06000 25.58600
C  17.74300 -1.63200 24.10500
C  16.40900 -0.83500 24.07500
C  16.12600 -0.64500 25.54900
C  18.99900 -0.87800 23.51500
C  15.21300 -1.59400 23.40800
C  14.22000 -0.73300 22.59800
N  15.51000 -0.12000 28.37400
C  14.87300 0.53300 27.29800
C  13.93800 1.50600 27.89200
C  14.13500 1.45600 29.26400
C  15.09800 0.44900 29.55200
C  13.04200 2.39800 27.06100
C  13.68400 1.97300 30.49100
O  12.87400 2.84800 30.77100
C  14.46400 1.19900 31.62100
C  15.32200 2.30800 32.35000
O  15.97200 3.16000 31.86100
O  15.19100 2.09600 33.71900
C  15.99900 3.06700 34.51200
H  19.29100 -3.76900 31.65400
H  19.38100 -3.37500 25.22700
H  14.60500 0.86500 25.18700
H  17.07100 0.10300 33.55400
H  17.91500 -2.77300 33.36600
H  20.07100 -1.90900 33.64300
H  19.33700 -0.24200 33.79700
H  19.91300 -0.80800 32.30600
H  15.69000 -2.63600 33.47800
H  14.72000 -1.15400 33.19800
H  15.25100 -2.30300 35.67000
H  14.65200 -0.60200 35.36700
H  20.24100 -6.81800 29.69700
H  20.06400 -5.71500 31.07500
H  21.55000 -5.89400 30.16100
H  22.10400 -6.32700 28.18700
H  22.59800 -6.67700 26.49400
H  21.19400 -7.51300 27.42500
H  17.68900 -2.57200 23.55600
H  16.55500 0.07400 23.49100
H  19.85800 -1.05100 24.16400
H  18.78100 0.18700 23.44100
H  19.33400 -1.16900 22.51900
H  14.60800 -2.09500 24.16400
H  15.61900 -2.41000 22.81000
H  14.73100 0.22000 22.46100
H  13.26600 -0.60300 23.10800
H  14.02600 -1.15000 21.61000
H  13.73600 2.86100 26.35900
H  12.47800 3.15300 27.60800
H  12.36200 1.73500 26.52700
H  13.76700 0.70200 32.29500
H  17.05500 2.79800 34.50000
H  15.55000 2.99800 35.50400
H  15.75800 4.06500 34.14700
Mg 41.06900 9.57600 29.31400
C  42.93500 10.84300 31.88400
C  38.91400 8.32900 31.62500
C  39.33100 8.36300 26.71000
C  43.50700 10.85100 27.04300
N  41.09600 9.37200 31.55600
C  41.81400 10.22900 32.40500
C  41.15700 10.21300 33.78200
C  40.04600 9.15000 33.69400
C  40.03900 8.84900 32.22900
C  40.40100 7.88400 34.60600
C  40.71500 11.61700 34.35400
C  40.07400 11.70500 35.65200
H  40.58200 12.68300 36.73300
N  39.43500 8.46100 29.17300
C  38.60900 8.03200 30.27500
C  37.42500 7.33800 29.69500
C  37.57100 7.35100 28.28100
C  38.79500 8.07900 27.98700
C  36.27500 6.74200 30.49400
C  36.60600 6.76600 27.19900
O  36.75000 6.81100 25.97700
C  35.40100 6.03100 27.64200
N  41.37100 9.60100 27.20000
C  40.44500 9.06300 26.34700
C  40.88600 9.29300 24.91400
C  42.15800 10.06200 25.01800
C  42.36500 10.25300 26.52300
C  41.05000 7.93300 24.18500
C  42.11600 11.45000 24.32500
C  41.31700 12.56600 24.98700
N  42.79900 10.65900 29.38100
C  43.71700 11.01500 28.46700
C  44.80600 11.77000 29.02600
C  44.47000 11.72300 30.33100
C  43.30500 11.02300 30.54500
C  45.85400 12.47100 28.35200
C  44.89700 12.17900 31.64000
O  45.87500 12.86000 31.90100
C  43.83200 11.76100 32.63700
C  44.32800 11.10500 33.93500
O  44.92900 10.05600 33.95900
O  44.07700 11.88100 35.07000
C  44.49600 11.44900 36.42200
H  38.15000 8.00800 32.33600
H  38.85700 7.98700 25.80100
H  44.15500 11.23300 26.25200
H  41.98000 9.99100 34.46000
H  39.06800 9.53600 33.98000
H  40.26300 7.01500 33.96400
H  39.71900 7.77100 35.44900
H  41.44600 7.87000 34.91600
H  39.98000 12.00800 33.65100
H  41.60900 12.23800 34.41100
H  40.12800 10.69400 36.05700
H  39.02200 11.84000 35.39900
H  35.26400 7.12900 30.36800
H  36.56900 6.91400 31.52900
H  36.18200 5.67100 30.31300
H  35.71300 5.11700 28.14600
H  34.85500 5.77200 26.73500
H  34.69600 6.62300 28.22700
H  40.20000 9.89900 24.32200
H  43.05400 9.59300 24.61200
H  40.62000 7.07700 24.70600
H  42.12200 7.73300 24.17400
H  40.62100 7.91500 23.18400
H  41.71700 11.43900 23.31100
H  43.18300 11.64800 24.22400
H  42.03600 13.24200 25.44900
H  40.55600 12.19500 25.67300
H  40.75200 13.11100 24.23200
H  45.54700 12.67300 27.32600
H  46.84600 12.05400 28.52700
H  45.97700 13.40000 28.90900
H  43.15000 12.59400 32.81100
H  44.27800 10.45000 36.80100
H  43.99400 12.16800 37.06900
H  45.57700 11.54600 36.51800

