158

Mg 41.22500 9.41300 30.02000
C  42.61100 10.32800 33.15300
C  38.51200 8.30500 31.69300
C  40.13600 8.29700 27.05100
C  44.08900 10.73800 28.42200
N  40.67900 9.26800 32.13400
C  41.33800 9.74000 33.22800
C  40.50400 9.60800 34.49300
C  39.39200 8.57300 34.04500
C  39.54200 8.74000 32.55700
C  39.59200 7.07300 34.62000
C  39.89200 10.95200 34.98500
C  39.42600 10.92000 36.49400
H  40.52600 11.53000 37.43700
N  39.50600 8.46300 29.42400
C  38.47900 8.08200 30.24900
C  37.38300 7.54800 29.49400
C  37.91300 7.48300 28.09500
C  39.26900 8.07600 28.15800
C  36.09200 7.28400 30.09000
C  37.20400 6.99100 26.85300
O  37.73400 7.05100 25.75400
C  35.80100 6.39400 26.94400
N  41.90400 9.59500 27.97600
C  41.35600 8.90800 26.94800
C  42.22900 9.11200 25.68700
C  43.21500 10.22900 26.11100
C  43.04700 10.23900 27.63500
C  42.99400 7.95700 25.04100
C  42.69700 11.59200 25.54600
C  41.30300 12.18600 26.10000
N  43.04500 10.33800 30.65700
C  44.07900 10.85700 29.88800
C  45.16300 11.41100 30.86100
C  44.58400 11.23900 32.12600
C  43.34500 10.60100 31.93500
C  46.41300 12.04800 30.47000
C  44.84100 11.41400 33.52100
O  45.72800 11.97900 34.19500
C  43.59800 10.80600 34.20000
C  43.98800 9.74500 35.12900
O  43.73100 8.56200 35.03100
O  44.77300 10.32300 36.13400
C  45.20700 9.37800 37.23500
H  37.71200 7.82900 32.26500
H  39.75000 8.08200 26.05200
H  45.05500 11.05500 28.02400
H  41.21000 9.17400 35.20100
H  38.43200 8.97700 34.36600
H  40.52400 6.98600 35.17900
H  39.51100 6.30300 33.85300
H  38.90900 6.73100 35.39700
H  39.01600 11.18900 34.38200
H  40.48700 11.84800 34.81100
H  39.20800 9.89700 36.80100
H  38.44600 11.38200 36.61700
H  35.97900 6.20500 29.97800
H  35.35500 7.76200 29.44500
H  36.00500 7.55900 31.14100
H  35.75300 5.78100 27.84400
H  35.72700 5.63100 26.16900
H  35.09700 7.22200 26.85200
H  41.57400 9.43800 24.87900
H  44.26200 10.13800 25.82300
H  42.89800 7.98100 23.95600
H  42.57600 7.01500 25.39500
H  44.06100 8.00400 25.25800
H  42.67900 11.60000 24.45600
H  43.50000 12.31000 25.71700
H  41.17100 12.04400 27.17200
H  40.49700 11.62500 25.62900
H  41.27100 13.23400 25.79900
H  47.07600 11.19900 30.30700
H  46.73900 12.75300 31.23400
H  46.36700 12.52000 29.48800
H  43.11500 11.51800 34.87000
H  45.96100 9.73700 37.93500
H  45.52000 8.37900 36.93300
H  44.32800 9.25600 37.86700
Mg 16.98200 51.68900 26.13000
C  19.20000 50.25100 28.57200
C  15.11900 52.93300 28.79600
C  15.01600 52.97200 23.88700
C  19.07300 50.23700 23.72800
N  17.08000 51.46900 28.42600
C  18.11700 50.91200 29.11700
C  17.92000 51.15100 30.64300
C  16.30800 51.57600 30.64600
C  16.13900 52.03600 29.17000
C  15.38900 50.44100 31.15800
C  18.79700 52.17200 31.26200
C  18.85800 52.22000 32.77400
H  17.59500 51.80800 33.64500
N  15.25500 52.77400 26.28500
C  14.68200 53.22100 27.46000
C  13.47500 53.99900 27.10900
C  13.37500 54.03400 25.67300
C  14.54600 53.23500 25.20000
C  12.62300 54.56400 28.23300
C  12.35100 54.70500 24.76800
O  12.36000 54.65400 23.53700
C  11.30300 55.58600 25.47600
N  16.96200 51.51800 24.07700
C  16.19100 52.30300 23.34600
C  16.39700 52.08600 21.83500
C  17.68000 51.29100 21.83600
C  17.94400 51.02700 23.29600
C  15.22700 51.36200 21.15000
C  18.90100 51.88200 21.10900
C  19.86300 50.90000 20.38700
N  18.86200 50.54300 26.11700
C  19.50600 49.98400 25.04200
C  20.60600 49.11900 25.51800
C  20.59400 49.31300 26.89300
C  19.46500 50.10600 27.18800
C  21.62000 48.37200 24.67700
C  21.24900 48.94200 28.10400
O  22.23400 48.22500 28.25500
C  20.42000 49.61900 29.27500
C  20.10900 48.53200 30.24800
O  19.30900 47.61900 30.02700
O  20.79500 48.79800 31.45700
C  20.33300 48.02100 32.61400
H  14.54500 53.30200 29.64900
H  14.51900 53.58700 23.13300
H  19.65300 49.68600 22.98400
H  17.99700 50.18300 31.13800
H  16.11700 52.43400 31.29000
H  14.61900 50.10300 30.46500
H  14.86500 50.82900 32.03100
H  15.94500 49.60900 31.59100
H  18.27400 53.10900 31.07200
H  19.74900 52.00300 30.75900
H  19.21200 53.18400 33.14000
H  19.56200 51.42000 33.00400
H  12.16500 55.51700 27.96500
H  13.03000 54.70800 29.23400
H  11.79700 53.85500 28.28100
H  10.75400 56.11900 24.69900
H  11.76600 56.39100 26.04600
H  10.60900 54.96700 26.04400
H  16.52300 53.09700 21.44900
H  17.55800 50.26000 21.50300
H  15.39800 50.38900 20.68900
H  14.96500 52.13000 20.42300
H  14.35800 51.25700 21.80000
H  19.48700 52.50400 21.78600
H  18.56300 52.55600 20.32200
H  19.58300 49.90900 20.74300
H  20.86700 51.20700 20.68000
H  19.72600 50.96800 19.30700
H  21.62200 48.69400 23.63600
H  21.61400 47.28200 24.65400
H  22.60500 48.59900 25.08600
H  21.05700 50.38700 29.71400
H  19.24900 48.02200 32.71900
H  20.81700 48.25900 33.56200
H  20.49900 46.95700 32.44500

