158

Mg 26.02600 0.55700 29.36100
C  28.08000 0.12900 32.15500
C  23.41200 1.12800 31.32600
C  24.28900 0.82200 26.56800
C  28.83000 -0.47700 27.39100
N  25.77600 0.52000 31.50900
C  26.71600 0.43800 32.47200
C  26.16600 0.79000 33.83600
C  24.65100 0.95600 33.55200
C  24.62800 0.88300 32.00400
C  23.59500 -0.02000 34.20900
C  26.79700 2.05500 34.55600
C  27.35400 1.73400 36.03000
H  27.18200 2.84400 37.07200
N  24.04900 1.01600 28.98900
C  23.13900 1.21100 30.01400
C  21.86900 1.57800 29.25700
C  22.10900 1.39600 27.84600
C  23.54800 1.01500 27.70700
C  20.60800 1.96800 29.97500
C  21.13900 1.57200 26.76600
O  21.48400 1.46400 25.58700
C  19.71300 1.76600 27.04000
N  26.43000 0.09300 27.23800
C  25.57100 0.44200 26.28200
C  26.19700 0.41800 24.87300
C  27.68200 0.20900 25.18300
C  27.64200 -0.16600 26.67600
C  25.70100 -0.76700 23.97200
C  28.43600 1.58800 24.94800
C  29.92500 1.31600 24.37100
N  28.07200 -0.04900 29.63600
C  29.02100 -0.45300 28.78600
C  30.25800 -0.65300 29.47600
C  29.96000 -0.45000 30.80200
C  28.63200 -0.07800 30.87100
C  31.66700 -0.95900 28.81800
C  30.50500 -0.41900 32.13900
O  31.61200 -0.80400 32.55000
C  29.29900 0.05100 33.07700
C  29.11000 -0.96000 34.18100
O  28.59700 -2.06200 33.99800
O  29.73900 -0.59300 35.34700
C  29.56200 -1.50900 36.46100
H  22.52800 1.30900 31.94100
H  23.72900 1.10900 25.67600
H  29.74300 -0.64700 26.81600
H  26.21200 -0.15500 34.37700
H  24.32100 1.98100 33.72300
H  24.11600 -0.29400 35.12700
H  23.52500 -0.84200 33.49700
H  22.60300 0.29400 34.53300
H  26.09700 2.89000 34.56600
H  27.72000 2.27500 34.01900
H  28.42200 1.57600 35.88000
H  26.82000 0.81900 36.28600
H  19.98000 2.74800 29.54500
H  20.93300 2.49900 30.87000
H  19.87500 1.17200 30.10800
H  19.10800 1.68600 26.13800
H  19.59200 2.80500 27.34900
H  19.29600 1.15800 27.84300
H  25.97500 1.33600 24.32800
H  28.09200 -0.59400 24.57100
H  25.70300 -0.48800 22.91800
H  24.68600 -1.00900 24.28900
H  26.24700 -1.69500 24.14100
H  28.51400 2.00400 25.95200
H  27.88500 2.32000 24.35700
H  30.05100 1.57500 23.32000
H  30.27300 0.30200 24.57000
H  30.54900 2.07300 24.84700
H  32.36500 -0.99300 29.65400
H  31.80100 -0.10500 28.15400
H  31.68400 -1.79100 28.11400
H  29.50800 1.02100 33.52900
H  30.19500 -1.10100 37.24900
H  29.87600 -2.53900 36.28900
H  28.54500 -1.58300 36.84700
Mg 36.44200 1.90000 30.21200
C  34.00500 3.19900 32.30200
C  38.66500 2.28800 32.86300
C  38.86000 0.99400 28.10000
C  34.18600 2.21900 27.42100
N  36.25200 2.83400 32.36000
C  35.17200 3.07700 33.03700
C  35.39500 3.18900 34.60400
C  36.98200 3.18000 34.71200
C  37.31500 2.72200 33.21700
C  37.59200 4.61000 34.93600
C  34.77500 2.01000 35.39400
C  34.19700 2.26500 36.81800
H  34.73100 3.50300 37.56000
N  38.44600 1.63900 30.44100
C  39.12300 1.72200 31.61600
C  40.45000 1.19100 31.36500
C  40.60100 0.89100 30.00300
C  39.24400 1.09600 29.42800
C  41.42900 1.00700 32.39800
C  41.79000 0.41200 29.22100
O  41.65500 0.14000 28.05500
C  43.09600 0.11800 29.93600
N  36.46400 1.48600 28.01400
C  37.67100 1.33900 27.38800
C  37.53500 1.25000 25.86100
C  35.94200 1.58800 25.65000
C  35.49900 1.88500 27.09900
C  38.59100 2.01500 25.07500
C  35.14200 0.42600 25.03900
C  34.12700 0.81700 23.90200
N  34.53200 2.58800 29.92000
C  33.70300 2.57200 28.73300
C  32.34000 2.99500 29.15400
C  32.42800 3.25700 30.57100
C  33.78200 2.98800 30.93300
C  31.10500 3.08900 28.26100
C  31.72200 3.73400 31.69100
O  30.57000 4.11000 31.87400
C  32.72200 3.65100 32.85100
C  32.81900 4.91200 33.59900
O  33.41700 5.92000 33.19400
O  32.16600 4.87000 34.84700
C  32.17600 6.05400 35.75200
H  39.42600 2.36800 33.64300
H  39.57100 0.60700 27.36700
H  33.49800 2.24000 26.57300
H  34.96700 4.10400 35.01300
H  37.41500 2.40600 35.34600
H  36.83300 5.37100 34.75700
H  38.47000 4.66300 34.29200
H  38.02900 4.71500 35.92900
H  35.47100 1.18300 35.52900
H  33.87400 1.64700 34.90000
H  34.30100 1.33300 37.37400
H  33.13900 2.45600 36.63900
H  41.05300 0.97100 33.42000
H  42.08300 1.87800 32.36900
H  42.06600 0.12200 32.38500
H  43.34400 0.89100 30.66300
H  43.93100 0.17200 29.23600
H  43.02100 -0.83800 30.45300
H  37.73000 0.19200 25.68400
H  35.82100 2.53200 25.11800
H  39.15200 2.61100 25.79400
H  38.10500 2.64300 24.32900
H  39.25800 1.25700 24.66400
H  34.56600 -0.10600 25.79700
H  35.78800 -0.35700 24.64200
H  34.40200 1.77000 23.45200
H  33.12200 0.92000 24.31300
H  34.09500 0.00600 23.17500
H  31.18900 2.66300 27.26200
H  30.83200 4.14000 28.17200
H  30.30800 2.51000 28.72800
H  32.34800 2.77300 33.37900
H  31.54200 6.69500 35.14000
H  33.11300 6.60900 35.79600
H  31.79000 5.83400 36.74800

