158

Mg 46.65500 25.53300 29.04100
C  48.02300 27.77400 31.53700
C  46.03500 23.43300 31.76600
C  46.03600 23.14400 26.85700
C  47.92900 27.68900 26.74700
N  46.92800 25.67200 31.43800
C  47.39500 26.69500 32.16200
C  47.14300 26.48700 33.67400
C  46.79400 24.96100 33.73400
C  46.52100 24.71000 32.21800
C  47.74300 24.08400 34.50300
C  46.10400 27.35400 34.28500
C  46.43800 27.99200 35.62000
H  45.44300 28.00900 36.82400
N  45.94000 23.62200 29.28900
C  45.80400 22.93900 30.44600
C  45.30100 21.58600 30.13000
C  45.29100 21.53100 28.73400
C  45.77300 22.80400 28.19500
C  44.70100 20.69000 31.10500
C  45.05500 20.34500 27.84600
O  45.12800 20.36500 26.64800
C  44.64000 19.05200 28.42100
N  46.91700 25.43300 27.02800
C  46.55200 24.36000 26.26600
C  46.79900 24.71800 24.81700
C  47.17100 26.16900 24.80100
C  47.40800 26.41500 26.29500
C  47.79700 23.74400 24.06600
C  46.10500 27.17000 24.21700
C  46.51000 27.83600 22.87500
N  47.70100 27.41400 29.05600
C  48.12700 28.18100 28.05000
C  48.70600 29.41900 28.52700
C  48.66700 29.28500 29.91900
C  48.14600 28.04000 30.15000
C  49.33500 30.54200 27.72100
C  48.96200 29.89700 31.10900
O  49.46400 30.99500 31.42400
C  48.58200 28.98400 32.23200
C  49.72200 28.47900 33.08100
O  50.47300 27.58300 32.88100
O  49.63400 29.17500 34.26300
C  50.45500 28.72800 35.40500
H  45.96800 22.70400 32.57600
H  45.62600 22.58000 26.01600
H  48.16000 28.35600 25.91400
H  48.12100 26.66800 34.12000
H  45.84700 24.87400 34.26600
H  47.30800 23.58300 35.36700
H  48.60300 24.59300 34.93800
H  48.15700 23.29300 33.87800
H  45.15400 26.83200 34.40300
H  45.82100 28.11000 33.55200
H  46.42200 29.02000 35.25600
H  47.46800 27.81200 35.92800
H  45.55800 20.08300 31.39500
H  43.82500 20.14600 30.75100
H  44.55300 21.15900 32.07800
H  43.56400 19.09800 28.59100
H  45.25900 18.77600 29.27400
H  44.87800 18.29000 27.67900
H  45.81200 24.58400 24.37400
H  48.14300 26.32800 24.33500
H  48.66400 24.30900 23.72300
H  47.28000 23.46700 23.14800
H  48.11100 22.88500 24.65900
H  46.00500 27.97700 24.94300
H  45.12200 26.71900 24.08600
H  47.55900 27.65300 22.64200
H  46.32300 28.90900 22.91100
H  45.88000 27.37200 22.11600
H  50.23900 30.12700 27.27600
H  49.62000 31.45200 28.24900
H  48.64400 30.71700 26.89600
H  47.89400 29.60000 32.81100
H  51.47900 29.10100 35.38900
H  50.56400 27.64300 35.43300
H  50.14600 29.16300 36.35500
Mg 29.06400 57.05900 41.48500
C  26.99500 54.56500 40.44100
C  31.81400 55.19500 40.26600
C  31.13100 59.91700 41.76200
C  26.44900 59.06400 42.33200
N  29.34100 55.04900 40.56500
C  28.31300 54.20200 40.21600
C  28.89600 52.98200 39.48800
C  30.47100 53.10400 39.69100
C  30.57600 54.51100 40.20100
C  31.08200 52.02600 40.59700
C  28.43100 52.79200 38.07500
C  28.80200 53.95200 37.05200
H  27.67800 54.69000 36.32900
N  31.16200 57.45000 41.14800
C  32.09800 56.49000 40.71700
C  33.40800 57.19700 40.69000
C  33.22700 58.49500 41.13800
C  31.75800 58.66100 41.40700
C  34.64800 56.54000 40.06200
C  34.42800 59.48400 41.41300
O  35.62500 59.25300 41.12800
C  34.17000 60.88500 42.03100
N  28.83800 59.25100 41.76900
C  29.78700 60.17600 42.01300
C  29.16600 61.49600 42.45300
C  27.58900 61.19900 42.45400
C  27.62300 59.68600 42.18800
C  29.65900 62.12900 43.76100
C  26.72400 61.96800 41.35400
C  25.78400 63.02200 42.02500
N  27.14500 56.90900 41.38500
C  26.18700 57.72900 41.91100
C  24.83600 57.11500 41.69600
C  25.13900 55.84100 41.15100
C  26.54000 55.76200 41.03600
C  23.51500 57.73500 42.06300
C  24.62500 54.59900 40.75800
O  23.47800 54.19000 40.78100
C  25.81100 53.67000 40.28000
C  25.76400 52.35200 41.07000
O  26.19600 52.06000 42.20100
O  25.26700 51.30500 40.27700
C  24.86100 50.07100 40.93100
H  32.69700 54.58400 40.06800
H  31.74900 60.81700 41.80300
H  25.56900 59.60400 42.68700
H  28.52000 52.17000 40.11100
H  31.00200 53.06100 38.74100
H  31.61700 52.42800 41.45700
H  31.72400 51.43300 39.94600
H  30.32700 51.37900 41.04400
H  27.36100 52.63000 38.20200
H  28.94100 51.85600 37.84300
H  29.51700 53.59200 36.31200
H  29.24000 54.68500 37.73000
H  34.85000 56.92800 39.06300
H  34.55300 55.45800 39.96700
H  35.51800 56.72900 40.69100
H  33.72000 61.59000 41.33200
H  35.18500 61.14100 42.33400
H  33.50000 60.66700 42.86300
H  29.52000 62.12500 41.63600
H  27.29100 61.36200 43.48900
H  28.94100 62.20200 44.57800
H  29.83700 63.16400 43.46900
H  30.59100 61.72800 44.16000
H  26.13100 61.29900 40.73100
H  27.44800 62.43300 40.68600
H  25.90700 63.00300 43.10800
H  24.76200 62.72000 41.79800
H  26.11200 64.00700 41.69200
H  22.71400 57.01400 41.89800
H  23.53000 58.61000 41.41400
H  23.43000 57.91500 43.13400
H  25.76700 53.47500 39.20800
H  24.26000 49.38700 40.33300
H  24.35200 50.11600 41.89300
H  25.69500 49.39100 41.10800

