158

Mg 53.04800 23.98600 44.42600
C  50.59100 26.36300 43.91300
C  50.96000 21.56700 43.18400
C  55.67600 21.92900 44.00400
C  55.25900 26.58000 45.30800
N  51.06000 23.99300 43.64900
C  50.17800 25.06500 43.58700
C  48.92800 24.61700 42.70600
C  48.88300 23.15400 43.23800
C  50.38900 22.82600 43.31400
C  48.07100 22.90400 44.50100
C  48.94600 24.67500 41.12000
C  50.31400 25.04400 40.49500
H  50.29500 25.73200 39.08300
N  53.24900 21.87200 43.87700
C  52.25700 21.12800 43.29700
C  52.71100 19.83900 43.05900
C  54.13700 19.82800 43.36900
C  54.41200 21.24100 43.74500
C  51.84600 18.67900 42.46300
C  55.06100 18.64100 43.05500
O  54.64700 17.60700 42.50200
C  56.52500 18.76200 43.35600
N  55.11100 24.24100 44.58800
C  55.96500 23.25700 44.34800
C  57.44200 23.59800 44.83200
C  57.33400 25.12500 44.83400
C  55.87300 25.32600 44.98600
C  57.73400 23.00100 46.23600
C  58.00500 25.89300 43.59900
C  58.99200 26.96400 43.98800
N  52.96600 26.01400 44.66200
C  53.89900 26.89800 45.15800
C  53.23700 28.22000 45.17200
C  51.94900 28.12800 44.67200
C  51.84700 26.70100 44.39900
C  53.78800 29.53500 45.57800
C  50.66100 28.78400 44.36200
O  50.34000 29.95800 44.44600
C  49.80000 27.61000 43.82600
C  49.59300 28.02400 42.37000
O  50.53800 28.29600 41.63300
O  48.28800 28.22800 42.10900
C  47.90900 28.85700 40.82500
H  50.29800 20.74700 42.89700
H  56.62100 21.38200 44.00600
H  55.78300 27.42300 45.76200
H  48.05200 25.20500 42.98000
H  48.43000 22.55300 42.44900
H  47.26900 22.17700 44.36900
H  47.74800 23.89400 44.82400
H  48.81800 22.53200 45.20200
H  48.14400 25.30000 40.72700
H  48.71800 23.68200 40.73300
H  50.96900 24.17300 40.45900
H  50.64800 25.82800 41.17400
H  50.78300 18.91700 42.42900
H  52.01800 17.71800 42.94800
H  52.12800 18.69300 41.41000
H  57.08500 17.90400 42.98300
H  56.60700 18.93900 44.42800
H  56.89000 19.61700 42.78600
H  58.23700 23.26300 44.16500
H  57.83600 25.48000 45.73300
H  58.06100 21.96300 46.18700
H  56.82800 23.18100 46.81500
H  58.52000 23.61900 46.67100
H  57.15600 26.33700 43.08000
H  58.57400 25.20600 42.97400
H  59.02100 27.02000 45.07600
H  58.72500 27.92600 43.55200
H  59.98200 26.66200 43.64400
H  53.32500 29.95200 46.47200
H  53.69200 30.27100 44.78000
H  54.81300 29.40300 45.92400
H  48.83300 27.68800 44.32200
H  48.39300 29.83200 40.77200
H  46.83700 29.02900 40.72900
H  48.14600 28.26900 39.93800
Mg -5.29600 25.60100 24.83400
C  -3.93300 27.19100 27.72300
C  -6.84600 23.47300 26.96800
C  -6.46600 23.91200 22.12800
C  -3.56500 27.81000 22.82800
N  -5.23200 25.30200 27.10600
C  -4.71900 26.16000 28.05300
C  -5.02400 25.63500 29.47400
C  -5.71500 24.23000 29.21000
C  -6.02100 24.34000 27.64800
C  -4.97000 22.92400 29.61700
C  -5.94800 26.76400 30.22500
C  -6.13500 26.62100 31.72600
H  -5.21500 25.59000 32.44600
N  -6.52500 24.00500 24.59100
C  -7.11400 23.24700 25.61900
C  -7.97300 22.23400 25.01900
C  -7.80100 22.24200 23.56400
C  -6.85000 23.35500 23.36500
C  -8.83200 21.37500 25.88100
C  -8.51200 21.37100 22.52200
O  -8.41200 21.56200 21.35900
C  -9.35600 20.25100 22.97000
N  -4.94700 25.73500 22.71000
C  -5.61500 24.96800 21.75900
C  -5.11000 25.32700 20.32600
C  -4.44800 26.75100 20.60800
C  -4.31400 26.79700 22.13700
C  -4.21900 24.29200 19.61800
C  -5.09400 28.01800 20.04000
C  -6.41500 28.48300 20.62000
N  -3.96400 27.18500 25.13600
C  -3.44500 28.01800 24.23000
C  -2.70700 29.06500 24.99600
C  -2.87700 28.73500 26.28800
C  -3.65400 27.58900 26.39300
C  -1.94100 30.23500 24.44500
C  -2.54600 29.14100 27.58200
O  -1.88400 30.07100 27.94900
C  -3.24300 28.12900 28.59900
C  -2.19100 27.47400 29.42900
O  -1.16400 26.89800 28.97800
O  -2.39200 27.58700 30.79600
C  -1.36000 27.35100 31.79600
H  -7.35400 22.76500 27.62600
H  -7.04700 23.60600 21.25500
H  -3.17200 28.63600 22.23200
H  -4.08800 25.44400 29.99900
H  -6.65200 24.25800 29.76700
H  -4.18700 23.08400 30.35900
H  -4.49800 22.54300 28.71200
H  -5.51900 22.06500 30.00300
H  -6.94300 26.48900 29.87400
H  -5.68300 27.81000 30.06800
H  -7.10700 26.18500 31.96000
H  -6.09600 27.59200 32.22000
H  -9.83700 21.08800 25.57200
H  -9.04800 21.85900 26.83400
H  -8.41700 20.38400 26.06700
H  -8.83400 19.49600 23.55800
H  -9.63000 19.84400 21.99600
H  -10.25200 20.70800 23.38800
H  -6.02400 25.40400 19.73800
H  -3.37800 26.81200 20.40500
H  -3.81300 23.65000 20.39900
H  -3.35300 24.86600 19.28900
H  -4.61300 23.69400 18.79500
H  -5.20800 27.78400 18.98100
H  -4.36300 28.82500 20.09800
H  -6.84200 27.78900 21.34400
H  -7.11300 28.58000 19.78800
H  -6.05200 29.45500 20.95500
H  -1.04400 30.02700 23.86200
H  -1.72500 30.91600 25.26800
H  -2.47300 30.79700 23.67800
H  -3.86800 28.74100 29.24900
H  -1.40200 28.09700 32.59000
H  -0.35200 27.15900 31.42800
H  -1.50900 26.31100 32.08600

