158

Mg 16.85500 52.04100 26.88900
C  18.93600 50.54600 29.43900
C  14.48900 52.48600 29.20600
C  14.87400 53.17100 24.32200
C  19.18900 51.11500 24.48700
N  16.69100 51.27900 29.05600
C  17.72500 51.02200 29.95500
C  17.31700 51.33100 31.41200
C  15.80900 51.69400 31.29500
C  15.61500 51.84700 29.73200
C  14.84500 50.70900 31.95600
C  18.23700 52.37000 32.00400
C  18.65000 52.30000 33.42500
H  17.80100 51.41900 34.31900
N  14.98300 52.73300 26.75400
C  14.14000 52.83300 27.86200
C  12.97900 53.55900 27.46500
C  13.09900 53.84200 26.05700
C  14.39100 53.24700 25.63300
C  11.86800 54.00100 28.42900
C  12.13300 54.58500 25.17200
O  12.32300 54.68900 23.96900
C  10.87800 55.24400 25.70400
N  17.03100 51.98400 24.63400
C  16.05600 52.50900 23.80900
C  16.58100 52.62100 22.34200
C  17.92100 51.93400 22.46600
C  18.12100 51.66600 23.93900
C  15.61600 52.11100 21.28900
C  19.12600 52.78400 21.80700
C  19.98100 53.82500 22.61700
N  18.64500 51.06900 26.89100
C  19.48600 50.81400 25.85900
C  20.69200 50.24300 26.37700
C  20.48300 50.00200 27.72500
C  19.28100 50.59400 28.06600
C  21.86400 49.79900 25.51100
C  21.12100 49.58800 29.00700
O  22.19700 49.03600 29.23900
C  20.14800 49.99700 30.15300
C  19.79300 48.88800 31.06000
O  19.09700 47.93300 30.74200
O  20.58800 48.97500 32.22200
C  20.13000 48.03000 33.22900
H  13.82300 52.75500 30.02900
H  14.34800 53.65500 23.49700
H  19.92700 50.88500 23.71600
H  17.43100 50.42100 32.00200
H  15.73000 52.69500 31.71700
H  14.42600 50.09000 31.16200
H  14.11700 51.30900 32.50300
H  15.33400 50.11300 32.72600
H  17.98400 53.37200 31.65800
H  19.20000 52.21700 31.51800
H  18.54500 53.31400 33.81200
H  19.71900 52.11200 33.52200
H  12.39900 54.02800 29.38100
H  11.17900 53.16400 28.31500
H  11.39000 54.97400 28.32200
H  10.35400 55.80100 24.92800
H  11.20400 55.91200 26.50100
H  10.29800 54.36400 25.98300
H  16.79300 53.68200 22.21100
H  17.94100 50.93100 22.03900
H  16.06400 51.25200 20.78900
H  15.44500 52.68200 20.37600
H  14.68000 51.73300 21.69800
H  18.77000 53.26200 20.89400
H  19.83400 52.01000 21.51200
H  19.67500 53.66400 23.65100
H  19.74600 54.83300 22.27600
H  21.04300 53.57900 22.59300
H  21.32200 48.97900 25.04000
H  22.70700 49.46000 26.11400
H  22.09200 50.54800 24.75300
H  20.54900 50.85900 30.68600
H  20.36800 47.01600 32.90700
H  19.07800 48.02500 33.51200
H  20.67600 48.35500 34.11400
Mg -2.82700 35.45600 26.55300
C  -4.53600 33.37100 28.82700
C  -1.41900 37.12900 29.10000
C  -1.44400 37.42100 24.26700
C  -4.70900 33.75800 23.98900
N  -3.11400 35.36700 28.60200
C  -3.70500 34.30600 29.39500
C  -3.43100 34.49400 30.86300
C  -2.55900 35.81900 30.92700
C  -2.34800 36.13400 29.40400
C  -3.15400 37.07500 31.72800
C  -2.68200 33.29200 31.50600
C  -3.47600 32.61500 32.69000
H  -2.69900 32.64700 33.97000
N  -1.43600 36.89300 26.69000
C  -0.89800 37.44400 27.84600
C  0.12500 38.45400 27.46100
C  0.10000 38.55400 26.02200
C  -0.96500 37.54500 25.58400
C  1.00000 39.11100 28.46700
C  0.96100 39.41900 25.07800
O  0.93000 39.43200 23.82300
C  1.98000 40.25700 25.76100
N  -3.24400 35.73900 24.53000
C  -2.46900 36.57800 23.77600
C  -2.87400 36.49600 22.28600
C  -3.75600 35.22700 22.19400
C  -4.02200 34.93800 23.66200
C  -3.50000 37.78300 21.71100
C  -3.01300 34.04600 21.34000
C  -1.86400 33.35600 22.12600
N  -4.44800 34.00700 26.36400
C  -5.05500 33.36600 25.27500
C  -5.94900 32.32200 25.76300
C  -5.76300 32.21500 27.10800
C  -4.89000 33.28100 27.41400
C  -6.85600 31.41900 24.90400
C  -6.19400 31.58600 28.30700
O  -6.98300 30.69300 28.49600
C  -5.35300 32.28800 29.43700
C  -6.42900 32.87600 30.34600
O  -7.24300 33.69100 30.02900
O  -6.42200 32.29500 31.59400
C  -7.42200 32.83100 32.55900
H  -0.97900 37.66000 29.94700
H  -0.90100 38.04000 23.55000
H  -5.25700 33.28400 23.17200
H  -4.40400 34.62400 31.33500
H  -1.56700 35.69700 31.36200
H  -2.87900 36.85100 32.75900
H  -4.21600 37.22600 31.53500
H  -2.56400 37.94800 31.44600
H  -1.71100 33.68100 31.80900
H  -2.62800 32.55500 30.70400
H  -3.66300 31.55200 32.53500
H  -4.43600 33.02800 33.00200
H  0.88200 38.74100 29.48500
H  0.84500 40.18900 28.51400
H  2.02100 38.87500 28.16600
H  2.48000 40.88000 25.01900
H  2.78800 39.72300 26.26000
H  1.41200 40.87200 26.46000
H  -1.89600 36.38000 21.81900
H  -4.66500 35.44800 21.63400
H  -4.54900 37.63900 21.45200
H  -3.00500 38.08700 20.78800
H  -3.37000 38.53400 22.49000
H  -2.60100 34.30500 20.36500
H  -3.78100 33.29600 21.15300
H  -2.20400 32.41600 22.56200
H  -1.60100 34.10000 22.87800
H  -0.97900 33.27600 21.49600
H  -7.20900 30.53300 25.43200
H  -6.19900 31.16300 24.07300
H  -7.65600 31.95000 24.38800
H  -4.77400 31.55500 29.99900
H  -7.92400 31.99500 33.04600
H  -8.23000 33.41400 32.11700
H  -6.96100 33.55200 33.23500

