158

Mg 47.37800 44.41600 44.03100
C  43.96600 43.90500 43.65600
C  47.73600 41.09200 42.86500
C  50.72000 44.86400 43.71000
C  46.85700 47.82000 44.27000
N  46.02000 42.63400 43.65300
C  44.70500 42.74600 43.37600
C  44.08800 41.53900 42.65000
C  45.27700 40.56700 42.77900
C  46.45400 41.46500 43.14900
C  45.17700 39.39300 43.78100
C  43.51600 41.88700 41.18700
C  42.09100 41.36800 40.89700
H  41.84100 40.95300 39.49500
N  49.01700 43.09100 43.56900
C  48.94900 41.80600 43.15200
C  50.28100 41.36200 42.80700
C  51.16800 42.37800 43.21900
C  50.31600 43.54800 43.53800
C  50.59200 39.94000 42.31600
C  52.64600 42.18700 43.28100
O  53.20800 41.14000 42.93900
C  53.63500 43.26500 43.67600
N  48.61000 46.13900 43.84500
C  49.99500 46.02300 43.87900
C  50.65500 47.40200 43.98400
C  49.39200 48.40900 44.07700
C  48.21700 47.44400 44.05700
C  51.66100 47.54200 45.21100
C  49.40800 49.51500 42.96200
C  49.17100 50.96200 43.42100
N  45.76700 45.61400 43.99100
C  45.71100 47.02400 44.23900
C  44.29300 47.37800 44.27400
C  43.57900 46.14000 44.06800
C  44.54400 45.15100 43.92300
C  43.67600 48.78000 44.42800
C  42.29000 45.59600 43.90100
O  41.18300 46.13500 43.84700
C  42.49400 44.07400 43.56300
C  41.74900 43.21000 44.50800
O  40.83200 42.47000 44.17900
O  42.33400 43.30700 45.74200
C  41.53800 42.60900 46.75000
H  47.96800 40.07600 42.53800
H  51.78000 45.04600 43.52200
H  46.67700 48.89700 44.31000
H  43.25100 41.14200 43.22400
H  45.50600 40.26700 41.75600
H  44.14400 39.30500 44.11900
H  45.71500 39.68500 44.68300
H  45.66300 38.50000 43.38800
H  44.23500 41.59200 40.42300
H  43.46900 42.96800 41.05500
H  41.32900 42.13200 41.05000
H  41.88000 40.51900 41.54800
H  49.78600 39.39000 41.82900
H  50.83200 39.40300 43.23300
H  51.55600 39.82900 41.81900
H  53.53000 44.00500 42.88200
H  54.61600 42.80100 43.57100
H  53.45100 43.57600 44.70500
H  51.27400 47.57000 43.10300
H  49.22000 48.84300 45.06200
H  51.48500 46.78300 45.97300
H  51.65000 48.54500 45.63700
H  52.66300 47.40200 44.80600
H  48.73800 49.21000 42.15700
H  50.36600 49.47700 42.44500
H  48.13900 51.26800 43.25000
H  49.80000 51.55900 42.76100
H  49.52700 51.27500 44.40200
H  44.23500 49.58500 44.90500
H  42.74400 48.73900 44.99300
H  43.40100 49.01200 43.40000
H  42.14300 43.96000 42.53700
H  41.54800 41.53100 46.58600
H  40.52300 43.00400 46.78700
H  41.98000 42.84700 47.71800
Mg 15.96700 51.81400 25.91800
C  17.73700 51.07200 28.86200
C  13.23600 52.60400 27.91300
C  14.37700 52.61100 23.24100
C  18.63500 50.64100 24.00500
N  15.49500 51.71700 28.11500
C  16.44500 51.57100 29.11200
C  15.88800 51.85600 30.43700
C  14.32600 52.12600 30.07300
C  14.31200 52.20000 28.58200
C  13.20800 51.13900 30.59700
C  16.76900 53.00900 31.06200
C  17.00300 52.98800 32.54900
H  16.02700 52.12100 33.32200
N  14.00200 52.47800 25.53600
C  13.13700 52.67500 26.48000
C  11.92800 53.29400 25.83500
C  12.30000 53.41700 24.45900
C  13.60100 52.85500 24.35900
C  10.70600 53.79500 26.59300
C  11.55200 54.13700 23.36300
O  11.95400 54.18200 22.25400
C  10.26700 54.95600 23.60800
N  16.45300 51.58800 23.87500
C  15.61400 51.98900 22.97200
C  16.13600 51.66400 21.51300
C  17.57100 51.18500 21.71500
C  17.65200 51.13700 23.26100
C  15.19900 50.69200 20.69600
C  18.62300 52.16100 21.14400
C  19.33500 51.75400 19.78800
N  17.73600 50.97200 26.31200
C  18.75300 50.63800 25.44500
C  19.92400 50.18200 26.14600
C  19.53200 50.27700 27.50900
C  18.26400 50.78100 27.54100
C  21.25700 49.66900 25.49100
C  19.95900 49.99000 28.89300
O  20.97800 49.48600 29.33700
C  18.84500 50.64100 29.76000
C  18.38500 49.61000 30.79700
O  17.61200 48.70800 30.65300
O  19.13800 49.86100 31.94700
C  18.83800 48.91600 32.97600
H  12.42900 53.06800 28.48400
H  13.92800 52.88000 22.28200
H  19.53200 50.27300 23.50100
H  15.91400 50.88800 30.93700
H  14.25600 53.17200 30.36900
H  13.60800 50.54600 31.41900
H  12.92200 50.41700 29.83100
H  12.32600 51.63200 31.00700
H  16.07700 53.84500 30.96700
H  17.56700 53.23700 30.35500
H  16.95000 54.00700 32.93300
H  18.00400 52.56300 32.63300
H  10.66500 53.24600 27.53400
H  9.80400 53.61900 26.00700
H  10.66100 54.88400 26.58100
H  10.37400 55.64400 24.44700
H  9.50500 54.18000 23.67800
H  10.20400 55.66200 22.77900
H  16.15600 52.55200 20.88100
H  17.75200 50.18000 21.33500
H  14.57500 50.08400 21.35100
H  15.80000 50.13500 19.97800
H  14.51500 51.29500 20.09800
H  19.38000 52.30100 21.91500
H  18.14400 53.12600 20.98100
H  20.39400 51.53100 19.92500
H  19.16200 52.52400 19.03600
H  18.85300 50.82200 19.49500
H  21.55400 50.23200 24.60600
H  21.08100 48.62800 25.21700
H  22.01400 49.77000 26.26800
H  19.25200 51.49100 30.30700
H  18.90400 47.90200 32.58000
H  17.86700 49.05200 33.45200
H  19.56600 49.02300 33.78000

