158

Mg 35.45600 1.00300 29.17700
C  33.08000 2.18700 31.64800
C  37.91500 0.94600 31.71900
C  37.65100 -0.07100 26.91700
C  32.99800 1.56800 26.70100
N  35.42900 1.50200 31.40100
C  34.31900 1.94800 32.21400
C  34.68400 1.77900 33.72800
C  36.22800 1.51200 33.63100
C  36.55300 1.35400 32.17000
C  37.14900 2.62600 34.42300
C  33.86300 0.63500 34.40300
C  33.16700 0.87000 35.79300
H  33.66100 2.12800 36.62100
N  37.42400 0.47700 29.28900
C  38.27900 0.52300 30.41900
C  39.62100 0.11000 30.02500
C  39.57500 -0.24400 28.66500
C  38.15500 0.03600 28.24400
C  40.74000 -0.11900 31.03300
C  40.62000 -0.91300 27.75600
O  40.33100 -1.36700 26.60800
C  41.98600 -1.15200 28.33000
N  35.33300 0.92400 27.03900
C  36.34800 0.30700 26.34600
C  35.99300 0.10900 24.85600
C  34.51100 0.55300 24.83400
C  34.30100 1.10700 26.27300
C  37.00100 0.68900 23.90900
C  33.53700 -0.63600 24.49100
C  33.46100 -0.97900 23.00000
N  33.44700 1.80700 29.07200
C  32.62800 1.90200 28.03000
C  31.32800 2.39700 28.48800
C  31.45300 2.53100 29.90100
C  32.76200 2.14000 30.20600
C  30.07500 2.68700 27.66200
C  30.81100 2.89800 31.12300
O  29.68600 3.33000 31.39300
C  31.81900 2.65100 32.31300
C  31.93500 3.95000 33.00900
O  32.90600 4.60700 33.19100
O  30.79600 4.26300 33.74700
C  30.83800 5.48200 34.59100
H  38.71500 1.15800 32.43200
H  38.25400 -0.54900 26.14200
H  32.24900 1.62300 25.90800
H  34.49900 2.77000 34.14500
H  36.43400 0.56500 34.13000
H  36.58500 3.20000 35.15800
H  37.68600 3.28900 33.74500
H  37.94400 2.18200 35.02200
H  34.53300 -0.21300 34.54800
H  33.05600 0.38000 33.71600
H  33.16300 -0.03100 36.40700
H  32.10500 1.09500 35.70000
H  41.54000 0.58400 30.80100
H  41.09400 -1.14800 30.97200
H  40.45600 0.02100 32.07600
H  42.75200 -1.22100 27.55800
H  41.97800 -2.04000 28.96100
H  42.33700 -0.27100 28.86800
H  36.06600 -0.96300 24.67100
H  34.42100 1.36800 24.11600
H  37.53000 1.50700 24.40000
H  36.51500 1.26400 23.12100
H  37.57700 -0.12600 23.47400
H  32.51600 -0.33000 24.71900
H  33.68400 -1.53300 25.09200
H  34.35700 -0.65200 22.47200
H  32.53500 -0.64000 22.53600
H  33.52300 -2.06200 22.89400
H  29.63300 1.83800 27.14100
H  30.46400 3.45200 26.99100
H  29.32200 3.23900 28.22400
H  31.40700 1.89600 32.98200
H  29.92100 5.73200 35.12400
H  31.22300 6.31200 33.99800
H  31.55700 5.39500 35.40600
Mg 41.44900 40.51400 26.13600
C  40.79700 43.15200 28.50000
C  42.59600 38.65400 28.73500
C  42.39200 38.24200 23.90200
C  41.05600 42.88400 23.59000
N  41.69000 41.00000 28.41900
C  41.12900 41.95600 29.09500
C  41.15500 41.65800 30.56600
C  42.01800 40.34600 30.67300
C  42.13300 39.93000 29.20500
C  43.39700 40.44800 31.39800
C  39.72400 41.81500 31.33400
C  39.55800 40.99900 32.66200
H  38.74600 41.68000 33.80200
N  42.25600 38.68900 26.35500
C  42.74600 38.09100 27.48300
C  43.20700 36.71600 27.17800
C  43.17200 36.56900 25.75000
C  42.52400 37.88500 25.28000
C  43.54800 35.75000 28.23800
C  43.75800 35.45100 24.96300
O  43.94400 35.59000 23.81700
C  44.26500 34.25400 25.60700
N  41.91400 40.66600 23.98600
C  42.16800 39.49200 23.34100
C  42.20800 39.75000 21.80000
C  41.56500 41.20500 21.68800
C  41.43300 41.58800 23.12900
C  43.63100 39.45200 21.15000
C  40.29800 41.36100 20.81300
C  38.96100 41.16600 21.53500
N  40.96100 42.56600 26.04600
C  40.91200 43.41200 24.90900
C  40.52900 44.71900 25.31100
C  40.51000 44.68700 26.73500
C  40.76600 43.34600 27.06600
C  40.13900 45.80800 24.34400
C  40.30600 45.47400 27.92900
O  39.95300 46.64700 28.00800
C  40.39800 44.53900 29.14000
C  41.25800 45.14500 30.17100
O  42.45200 45.26600 30.24000
O  40.45800 45.52600 31.22800
C  41.06700 46.33800 32.36100
H  42.89400 38.03000 29.58000
H  42.52600 37.38500 23.23900
H  41.05500 43.51500 22.69900
H  41.79700 42.36200 31.09600
H  41.38400 39.64300 31.21300
H  43.29500 40.27400 32.46900
H  43.69500 41.48300 31.23300
H  44.15800 39.90800 30.83400
H  39.01400 41.50600 30.56700
H  39.45900 42.85600 31.51500
H  40.50600 40.67600 33.09300
H  39.12100 40.04200 32.37600
H  43.14400 34.80300 27.88100
H  43.07400 35.98100 29.19200
H  44.63500 35.70400 28.29100
H  45.07800 34.60700 26.24100
H  44.49400 33.51500 24.84000
H  43.49300 33.73800 26.17800
H  41.41900 39.09500 21.43000
H  42.29500 41.93400 21.33700
H  44.13000 40.38200 20.87700
H  43.52300 38.79300 20.28900
H  44.21500 39.05400 21.98000
H  40.34600 40.66000 19.98000
H  40.44100 42.34700 20.37300
H  39.00300 40.79800 22.56000
H  38.36600 40.41500 21.01400
H  38.48300 42.14500 21.51500
H  40.85800 45.66500 23.53800
H  40.28800 46.87400 24.51800
H  39.15400 45.54400 23.95900
H  39.34100 44.52200 29.40600
H  41.34700 45.85000 33.29400
H  40.38100 47.11100 32.70800
H  41.92000 46.93400 32.03400

