158

Mg 25.17000 1.11900 29.97400
C  27.23900 0.86800 32.86100
C  22.38100 1.14200 31.99900
C  23.31400 0.91500 27.18800
C  28.04900 0.61100 27.99400
N  24.88700 1.07700 32.21700
C  25.84700 1.11300 33.20900
C  25.20000 1.22500 34.62100
C  23.70400 1.14900 34.21800
C  23.63600 1.13200 32.68300
C  22.79000 0.05700 34.92100
C  25.70400 2.50100 35.42700
C  26.37700 2.19900 36.80900
H  26.16700 3.14200 37.97300
N  23.13500 1.03200 29.58900
C  22.12100 1.01200 30.56200
C  20.86100 0.70300 29.95300
C  21.12500 0.66500 28.55300
C  22.60000 0.92300 28.39000
C  19.58100 0.61100 30.65900
C  20.21500 0.30000 27.33900
O  20.56500 0.43500 26.18900
C  18.86400 -0.26200 27.62600
N  25.66400 0.91200 27.81600
C  24.72300 0.93000 26.85300
C  25.32600 0.99300 25.47900
C  26.79800 1.11600 25.81300
C  26.90200 0.91500 27.25200
C  24.97800 -0.19100 24.65200
C  27.56100 2.48100 25.38900
C  26.91000 3.80200 25.75700
N  27.16300 0.74400 30.30000
C  28.18600 0.49400 29.39400
C  29.38300 0.05600 30.12500
C  29.06700 0.29300 31.47600
C  27.72700 0.70500 31.56400
C  30.60500 -0.47000 29.53400
C  29.66300 0.21000 32.84700
O  30.81600 -0.11400 33.25600
C  28.47000 0.60900 33.81000
C  28.26700 -0.47600 34.73900
O  27.65100 -1.51300 34.47800
O  29.03200 -0.25000 35.84500
C  28.95900 -1.21400 36.82700
H  21.50000 1.00500 32.63000
H  22.71700 0.98000 26.27600
H  28.90900 0.44900 27.34100
H  25.57000 0.29800 35.06100
H  23.25700 2.09500 34.52500
H  21.90200 0.46700 35.40200
H  23.35300 -0.15800 35.83000
H  22.61000 -0.66200 34.12200
H  24.78200 3.07200 35.53100
H  26.22600 3.23900 34.81800
H  27.43300 2.16200 36.54300
H  26.07600 1.22000 37.18200
H  19.54100 0.90200 31.70900
H  19.28800 -0.43900 30.66500
H  18.90000 1.25100 30.09800
H  18.60100 -0.69800 26.66200
H  18.17200 0.56000 27.80800
H  18.99400 -0.97200 28.44300
H  24.99600 1.91600 25.00100
H  27.46300 0.33500 25.44500
H  25.79800 -0.88200 24.45900
H  24.65900 0.30800 23.73700
H  24.17300 -0.75900 25.11900
H  27.58200 2.59100 24.30400
H  28.60700 2.38800 25.68200
H  26.10700 3.63600 26.47500
H  26.51600 4.31500 24.88000
H  27.61700 4.51200 26.18600
H  31.26400 0.39300 29.43900
H  30.45500 -1.09700 28.65500
H  31.05700 -1.00400 30.37000
H  28.76500 1.51400 34.34000
H  27.95400 -1.17400 37.24800
H  29.64800 -0.86300 37.59500
H  29.17500 -2.23900 36.52400
Mg 39.93400 9.72500 30.05600
C  41.78000 10.84300 32.80200
C  37.99200 7.88000 32.25000
C  38.29800 8.59500 27.41900
C  42.44200 11.04400 28.03600
N  40.04900 9.28200 32.25200
C  40.75700 9.97800 33.21500
C  40.36700 9.52200 34.65900
C  39.35000 8.43500 34.35600
C  39.01700 8.54100 32.87700
C  39.84200 6.95900 34.70300
C  39.90600 10.75700 35.55200
C  40.37600 10.72500 36.98200
H  39.32500 11.16900 38.12100
N  38.27900 8.48000 29.89900
C  37.56000 7.90700 30.87600
C  36.43400 7.18400 30.25200
C  36.53300 7.44100 28.88100
C  37.71100 8.19200 28.69000
C  35.44100 6.29700 30.99400
C  35.52000 7.05600 27.76500
O  35.51700 7.69500 26.67600
C  34.38100 6.04700 28.10100
N  40.45200 9.62000 28.09800
C  39.48000 9.27700 27.14100
C  39.96400 9.59800 25.69200
C  41.26500 10.47400 26.02000
C  41.45300 10.26700 27.46400
C  40.23400 8.26600 24.85900
C  41.17900 11.95800 25.57900
C  39.96500 12.76300 26.16500
N  41.77500 10.73700 30.26800
C  42.69400 11.20200 29.34300
C  43.81900 11.83000 30.04800
C  43.41200 11.78100 31.44300
C  42.19200 11.08700 31.52800
C  45.06200 12.27200 29.42200
C  43.78900 12.15000 32.78100
O  44.69200 12.82600 33.14000
C  42.82500 11.51900 33.77400
C  43.55700 10.64100 34.81800
O  43.80300 9.48800 34.68200
O  43.58800 11.30300 35.95600
C  44.28300 10.71600 37.09100
H  37.35000 7.26900 32.88800
H  37.79700 8.46700 26.45700
H  43.19400 11.50600 27.39300
H  41.20200 9.06900 35.19400
H  38.37800 8.60300 34.82000
H  39.93900 6.29300 33.84600
H  39.00400 6.48500 35.21500
H  40.77500 6.78000 35.23800
H  38.82300 10.87300 35.59600
H  40.29000 11.64400 35.04700
H  41.11000 11.52700 37.05800
H  40.71400 9.73800 37.29700
H  35.58300 6.31000 32.07500
H  35.67700 5.30800 30.60200
H  34.43600 6.68600 30.83000
H  33.84100 5.84000 27.17700
H  33.71900 6.46900 28.85600
H  34.72700 5.06700 28.43000
H  39.23400 10.11600 25.07000
H  42.08300 9.93300 25.54500
H  40.03700 8.40300 23.79600
H  39.57600 7.47200 25.21100
H  41.24700 7.86500 24.88600
H  40.96500 11.81700 24.52000
H  42.06700 12.56400 25.76300
H  39.25900 12.16000 26.73500
H  39.49200 13.17000 25.27100
H  40.31500 13.55400 26.82900
H  44.80600 13.15900 28.84300
H  45.49200 11.51800 28.76300
H  45.65200 12.64300 30.26000
H  42.36900 12.34000 34.32700
H  43.53500 10.02300 37.47400
H  44.64300 11.44400 37.81800
H  45.09100 10.09200 36.70900

