158

Mg 1.66600 -2.00500 44.15900
C  5.02700 -1.69500 43.67300
C  1.30900 1.02700 42.35600
C  -1.62900 -2.53600 43.92800
C  2.11600 -5.16400 45.45400
N  3.01500 -0.55300 43.02700
C  4.38500 -0.63700 43.16100
C  5.03100 0.58300 42.45200
C  3.78200 1.62700 42.42700
C  2.57900 0.67600 42.65800
C  3.85400 2.66600 43.52300
C  5.73200 0.23600 41.07700
C  4.80700 0.15200 39.82900
H  4.82700 1.22700 38.76600
N  0.03900 -0.93300 43.34700
C  0.14500 0.29500 42.70400
C  -1.19900 0.73900 42.32400
C  -2.11000 -0.19100 42.74700
C  -1.27500 -1.28900 43.43100
C  -1.45900 2.15100 41.76700
C  -3.59100 -0.03800 42.69300
O  -4.09800 0.97300 42.21000
C  -4.50400 -1.07200 43.28900
N  0.43400 -3.79700 44.38000
C  -0.90800 -3.64200 44.40700
C  -1.56900 -4.94900 44.77100
C  -0.33000 -5.85600 45.20500
C  0.81500 -4.92800 44.91500
C  -2.70400 -4.94300 45.90900
C  -0.12000 -7.16600 44.37700
C  -1.38500 -8.03300 44.41400
N  3.24500 -3.20000 44.63200
C  3.34100 -4.40200 45.28900
C  4.74000 -4.65500 45.68100
C  5.45100 -3.59400 45.01500
C  4.52500 -2.78000 44.38700
C  5.22600 -5.89500 46.41400
C  6.76100 -3.07700 44.74000
O  7.91300 -3.42000 45.03200
C  6.49300 -1.83700 43.76800
C  7.14200 -0.70200 44.40800
O  6.76000 -0.03400 45.38200
O  8.20800 -0.30300 43.63300
C  8.63700 1.12700 43.73000
H  1.18800 1.95400 41.79100
H  -2.68100 -2.82200 43.97700
H  2.27400 -6.11200 45.97300
H  5.82800 1.03500 43.04300
H  3.64900 2.08700 41.44700
H  4.87500 2.76600 43.89000
H  3.16800 2.28800 44.28200
H  3.56700 3.65200 43.15800
H  6.09600 -0.78000 41.23200
H  6.59100 0.90700 41.06800
H  3.78800 0.17800 40.21600
H  5.08700 -0.78700 39.35100
H  -2.49600 2.47200 41.66600
H  -0.91300 2.30900 40.83700
H  -0.89200 2.72200 42.50200
H  -4.23100 -1.97400 42.74100
H  -5.58100 -0.98500 43.14800
H  -4.36900 -1.15900 44.36700
H  -2.00500 -5.43100 43.89600
H  -0.33800 -6.13000 46.26000
H  -3.67900 -5.19300 45.49200
H  -2.76500 -3.90300 46.22900
H  -2.64500 -5.52300 46.83000
H  0.70700 -7.70100 44.84300
H  0.24800 -6.93100 43.37900
H  -2.13400 -7.62800 45.09400
H  -1.13800 -9.00200 44.84800
H  -1.75500 -8.31300 43.42800
H  5.60700 -6.48400 45.58000
H  4.35600 -6.34700 46.88900
H  5.94800 -5.61500 47.18100
H  6.99700 -2.02800 42.82100
H  9.53400 1.24800 44.33800
H  7.87700 1.76100 44.18700
H  8.81600 1.48200 42.71600
Mg 6.49000 53.67000 41.10400
C  5.62200 50.30000 41.14300
C  9.48900 52.75500 39.97600
C  7.04400 57.00400 40.46400
C  3.15700 54.45500 41.81800
N  7.29900 51.76500 40.33100
C  6.85600 50.49200 40.48700
C  7.77200 49.41100 40.01300
C  9.11000 50.16200 40.15500
C  8.61400 51.66200 40.09000
C  9.93200 49.88400 41.46200
C  7.55500 48.96400 38.58000
C  6.42600 49.56900 37.65200
H  5.91000 48.62500 36.56500
N  8.00600 54.78400 40.48000
C  9.17500 54.19700 40.08800
C  10.09400 55.21800 39.85800
C  9.49800 56.46000 39.93400
C  8.08000 56.12700 40.30500
C  11.66600 54.98200 39.56900
C  10.11400 57.76100 39.63200
O  11.21900 57.73900 39.08600
C  9.52400 59.07500 39.90700
N  5.25100 55.43500 41.00100
C  5.73100 56.69100 40.78500
C  4.64600 57.73700 40.88300
C  3.32800 56.93000 41.29900
C  3.98400 55.50000 41.38600
C  4.95200 58.86200 41.85100
C  2.21100 57.02400 40.22600
C  0.80400 57.28100 40.68900
N  4.65300 52.61100 41.45500
C  3.45900 53.07400 41.90500
C  2.72200 51.90300 42.33600
C  3.57400 50.82700 42.05100
C  4.74000 51.28100 41.54300
C  1.38500 51.88300 43.03900
C  3.59900 49.42100 42.13200
O  2.72200 48.62600 42.49200
C  4.95200 49.01500 41.60400
C  4.82300 47.99000 40.49500
O  4.15900 48.18300 39.48100
O  5.45200 46.77200 40.73400
C  5.19500 45.74700 39.81700
H  10.53300 52.50900 39.76800
H  7.22500 58.03600 40.15800
H  2.13500 54.74700 42.06900
H  7.74600 48.57800 40.71500
H  9.74400 49.92300 39.30200
H  11.00900 49.87400 41.29400
H  9.66200 48.91500 41.88200
H  9.70700 50.66400 42.18900
H  7.36400 47.90000 38.72000
H  8.48700 48.97200 38.01500
H  6.91200 50.44400 37.22000
H  5.58000 49.90600 38.25000
H  12.14000 55.46200 38.71300
H  11.76000 53.89800 39.51000
H  12.20100 55.41100 40.41500
H  9.03700 59.16600 40.87800
H  8.77800 59.24600 39.13100
H  10.26400 59.87500 39.93300
H  4.61800 58.17300 39.88400
H  2.96700 57.22000 42.28600
H  5.71700 58.41400 42.48600
H  4.13500 59.10700 42.52900
H  5.29000 59.69300 41.23200
H  2.11300 56.15200 39.58000
H  2.34300 57.90000 39.59000
H  0.57300 57.30600 41.75400
H  0.21200 56.45400 40.29700
H  0.58400 58.28200 40.31600
H  0.78300 51.05200 42.67200
H  0.92000 52.86000 42.91500
H  1.57300 51.77400 44.10700
H  5.62300 48.59400 42.35300
H  5.70800 44.84200 40.14300
H  5.59800 46.04700 38.84900
H  4.12000 45.59800 39.91400

