158

Mg 8.82800 2.97900 28.39100
C  10.36500 1.60400 31.10700
C  7.59700 5.54500 30.49200
C  7.11400 4.23300 25.80200
C  10.13400 0.47400 26.43700
N  8.69300 3.35100 30.57800
C  9.52500 2.68500 31.48700
C  9.40600 3.27200 32.92200
C  8.46000 4.46400 32.61800
C  8.16100 4.43600 31.13000
C  7.12300 4.69600 33.44300
C  10.76000 3.72700 33.62500
C  10.50900 4.32800 35.03400
H  10.96800 3.41400 36.17100
N  7.54400 4.72800 28.17300
C  7.38800 5.73600 29.10000
C  6.47100 6.69300 28.49200
C  6.33200 6.29300 27.12400
C  7.02200 5.05300 26.95500
C  5.95900 7.85000 29.26000
C  5.41800 7.05100 26.09900
O  5.12000 6.60100 24.97400
C  4.78500 8.36300 26.48300
N  8.63500 2.44800 26.51900
C  7.83100 3.12600 25.56000
C  7.67200 2.29800 24.30500
C  8.94400 1.45600 24.38400
C  9.32300 1.47600 25.85800
C  6.36700 1.43300 24.30400
C  10.11600 2.06600 23.58300
C  10.22200 1.75100 22.11500
N  9.99100 1.29200 28.61900
C  10.57300 0.45400 27.74600
C  11.35400 -0.51100 28.46200
C  11.33200 -0.10700 29.78000
C  10.51600 1.03400 29.82700
C  12.08500 -1.61500 27.78100
C  11.82500 -0.42000 31.05300
O  12.58200 -1.29100 31.43600
C  11.20500 0.70900 32.00300
C  10.44000 0.02800 33.08200
O  9.42100 -0.60800 32.96400
O  10.93800 0.32100 34.28700
C  10.21200 -0.27100 35.47600
H  7.38800 6.37900 31.16500
H  6.56600 4.63400 24.94700
H  10.68600 -0.27500 25.86600
H  8.89500 2.54300 33.55100
H  9.00500 5.40000 32.74400
H  6.85500 5.73300 33.64700
H  7.10100 4.02900 34.30500
H  6.33500 4.37900 32.76000
H  11.20100 4.41000 32.90000
H  11.41200 2.85700 33.70200
H  9.47300 4.65600 35.11900
H  11.13500 5.21700 35.10500
H  4.89200 7.69700 29.42300
H  6.27900 8.73500 28.71000
H  6.46700 7.93200 30.22100
H  4.23800 8.77300 25.63400
H  5.63600 9.03200 26.61800
H  4.16200 8.37000 27.37700
H  7.64200 2.93000 23.41700
H  8.80000 0.42300 24.06800
H  6.45900 0.58300 24.97900
H  6.13800 1.09500 23.29300
H  5.57600 2.10700 24.63100
H  11.08800 1.85700 24.02800
H  10.10000 3.15100 23.68700
H  10.17300 2.70400 21.58900
H  9.27100 1.26300 21.90100
H  11.07000 1.12100 21.84600
H  13.12700 -1.33900 27.62400
H  11.63900 -2.06200 26.89200
H  12.10800 -2.42700 28.50800
H  12.02700 1.28100 32.43400
H  9.15600 -0.02800 35.35600
H  10.52300 0.16000 36.42800
H  10.37400 -1.34900 35.46000
Mg 46.69300 44.58300 44.38700
C  43.25500 44.72400 43.60300
C  46.82600 41.39700 42.97300
C  50.08000 44.92600 44.22900
C  46.41600 48.03600 45.29800
N  45.21700 43.25300 43.45800
C  43.91500 43.52200 43.22400
C  43.24400 42.37600 42.39900
C  44.33300 41.22100 42.58000
C  45.59600 41.99100 43.08500
C  44.09700 40.05700 43.56900
C  43.05200 42.86300 40.91300
C  41.75200 42.34300 40.23900
H  41.89600 41.90400 38.72500
N  48.30200 43.23100 43.87300
C  48.09600 41.97500 43.36700
C  49.37200 41.38600 43.21500
C  50.37100 42.36600 43.49200
C  49.61800 43.58400 43.94300
C  49.62300 39.97500 42.73800
C  51.83400 42.25100 43.23000
O  52.31500 41.27900 42.67000
C  52.80700 43.26800 43.53300
N  48.03900 46.33200 44.62600
C  49.42400 46.11300 44.66400
C  50.13700 47.33600 45.15000
C  48.99300 48.37700 45.43900
C  47.74400 47.57600 45.11400
C  50.98200 46.96700 46.37600
C  49.23100 49.78300 44.77000
C  49.25400 50.97200 45.68200
N  45.14700 46.13000 44.49400
C  45.21100 47.43000 44.93200
C  43.85400 48.01300 45.01800
C  43.09500 46.96600 44.43100
C  43.89400 45.85700 44.22500
C  43.42700 49.41800 45.41300
C  41.78600 46.66700 43.91400
O  40.77400 47.38200 43.84700
C  41.78000 45.23600 43.37700
C  40.72900 44.42700 44.02200
O  39.86700 43.90600 43.41200
O  40.96200 44.18000 45.34400
C  40.02400 43.15900 45.85900
H  46.89000 40.36900 42.60900
H  51.17100 44.93400 44.24400
H  46.14300 49.07400 45.50200
H  42.28400 42.14500 42.86100
H  44.78800 40.86200 41.65700
H  43.41900 40.36700 44.36500
H  44.98600 39.61600 44.02000
H  43.58300 39.28600 42.99600
H  43.92400 42.61300 40.30800
H  43.01600 43.95000 40.98600
H  41.07000 43.18900 40.32600
H  41.42600 41.56000 40.92400
H  50.58400 39.53700 43.00800
H  49.53400 40.05600 41.65500
H  48.81600 39.25800 42.88900
H  52.77800 43.41800 44.61300
H  52.61000 44.18200 42.97200
H  53.79000 42.90400 43.23400
H  50.70700 47.79400 44.34200
H  48.71000 48.54100 46.47900
H  51.11500 45.89200 46.50000
H  50.52200 47.31200 47.30200
H  52.01900 47.25200 46.20100
H  48.42600 49.87600 44.04100
H  50.21400 49.89500 44.31400
H  48.51600 51.67900 45.30400
H  50.21500 51.48600 45.65500
H  49.14300 50.70900 46.73400
H  43.51500 50.13100 44.59300
H  43.93200 49.78600 46.30700
H  42.35600 49.27300 45.55400
H  41.46600 45.23800 42.33400
H  40.25400 43.00100 46.91300
H  40.12100 42.22900 45.29900
H  38.98500 43.48400 45.90100

