158

Mg 41.02600 41.23800 27.56200
C  40.14800 43.71200 29.79300
C  41.72400 39.26200 30.12700
C  41.83900 38.73000 25.21100
C  40.60100 43.35000 24.89900
N  40.84500 41.49500 29.78100
C  40.34400 42.53100 30.50100
C  40.07300 42.21200 31.97400
C  40.63600 40.72300 31.98100
C  41.08700 40.42300 30.53400
C  41.68100 40.37000 33.06100
C  38.59300 42.37500 32.41800
C  38.41500 41.93500 33.82300
H  38.75400 42.83500 35.06900
N  41.67300 39.27100 27.70400
C  41.92900 38.62300 28.91600
C  42.34400 37.28900 28.63400
C  42.41600 37.19000 27.20900
C  41.95200 38.46000 26.59500
C  42.58800 36.26400 29.78200
C  42.96300 36.03500 26.39500
O  43.22100 36.05500 25.22800
C  43.20700 34.66500 27.08600
N  41.17900 41.05000 25.39700
C  41.41800 39.91400 24.66100
C  41.36000 40.12300 23.13200
C  40.71200 41.54200 23.07200
C  40.79900 42.03400 24.55300
C  42.73100 40.04900 22.46800
C  39.24700 41.63500 22.52800
C  38.12500 41.13700 23.48300
N  40.52500 43.17600 27.35100
C  40.47200 43.92200 26.19300
C  40.14600 45.31000 26.57500
C  40.02800 45.25100 27.99400
C  40.24900 43.94800 28.40200
C  39.92500 46.51400 25.59500
C  39.79200 46.02000 29.19800
O  39.71400 47.23000 29.29500
C  39.78100 45.07100 30.37000
C  40.87800 45.46600 31.29200
O  42.04900 45.26800 31.15800
O  40.35700 46.08900 32.40100
C  41.30700 46.24800 33.54300
H  41.86100 38.69700 31.05100
H  42.24500 38.02600 24.48100
H  40.61600 44.01900 24.03600
H  40.68100 42.84100 32.62300
H  39.74100 40.10400 32.03800
H  41.24500 39.65200 33.75600
H  41.99200 41.27600 33.58200
H  42.58200 39.88200 32.69000
H  37.86800 41.82600 31.81600
H  38.41500 43.44800 32.47900
H  39.00000 41.03400 34.00400
H  37.35500 41.71500 33.95100
H  43.62400 35.94900 29.90600
H  41.91500 35.41900 29.63300
H  42.39400 36.71900 30.75300
H  42.35100 34.46400 27.73100
H  44.14700 34.92400 27.57200
H  43.36000 33.87200 26.35300
H  40.67900 39.41900 22.65300
H  41.37500 42.21700 22.53000
H  42.95500 40.71800 21.63700
H  42.88700 39.06200 22.03300
H  43.43800 40.08200 23.29700
H  39.22900 41.13400 21.56000
H  39.02100 42.67500 22.29000
H  38.61500 40.83400 24.40900
H  37.55500 40.30000 23.08000
H  37.46600 41.95300 23.77800
H  39.81900 46.17800 24.56300
H  40.70900 47.22500 25.85300
H  38.99700 46.93200 25.98400
H  38.83100 45.07300 30.90400
H  42.16900 46.76600 33.12300
H  41.59200 45.26800 33.92600
H  40.81300 46.74500 34.37800
Mg 26.21700 52.23900 27.06100
C  23.65900 52.46600 29.40000
C  28.30900 51.10600 29.35800
C  28.59700 51.83200 24.54800
C  23.91000 53.07000 24.51700
N  25.89500 51.68700 29.21900
C  24.89000 51.97800 30.03500
C  25.19400 51.77200 31.52000
C  26.66700 51.23000 31.40500
C  27.02200 51.38400 29.94200
C  27.70200 51.98800 32.24800
C  24.22800 50.79200 32.34600
C  23.73000 51.28100 33.70100
H  24.79700 51.69700 34.73800
N  28.19900 51.61700 27.00500
C  28.90500 51.27600 28.07700
C  30.25800 50.89200 27.65200
C  30.35100 51.02700 26.23200
C  29.03600 51.54100 25.86900
C  31.20800 50.26100 28.56400
C  31.51500 50.73600 25.32100
O  31.43100 51.02700 24.11200
C  32.70900 50.16400 25.88200
N  26.29200 52.67600 24.84600
C  27.31600 52.27200 24.10700
C  27.04300 52.66100 22.57500
C  25.50600 52.88900 22.48300
C  25.20300 52.86300 23.98800
C  28.01500 53.82400 22.08800
C  24.72100 51.79100 21.71700
C  24.64100 51.99600 20.22900
N  24.21600 52.71200 26.96500
C  23.46600 53.05700 25.86200
C  22.16800 53.32500 26.29700
C  22.15000 53.15500 27.71000
C  23.44800 52.65900 28.04100
C  21.02100 53.50300 25.52300
C  21.30700 53.25800 28.91500
O  20.20600 53.68800 29.06500
C  22.32100 53.00600 30.12300
C  22.57100 54.26000 30.79800
O  23.11700 55.22200 30.28900
O  22.03300 54.25100 32.07000
C  22.37800 55.34300 32.93700
H  29.12400 50.91100 30.05800
H  29.26200 51.76700 23.68400
H  23.17600 53.27900 23.73600
H  25.18100 52.70400 32.08600
H  26.90900 50.17400 31.52200
H  28.42100 51.24600 32.59500
H  27.18200 52.45800 33.08300
H  28.25900 52.65200 31.58600
H  24.71900 49.82000 32.37500
H  23.27000 50.63700 31.85000
H  22.98300 50.61000 34.12600
H  23.24700 52.23000 33.47100
H  30.97500 50.14900 29.62300
H  32.11800 50.85800 28.50800
H  31.52000 49.27500 28.22200
H  33.47600 50.12300 25.10900
H  32.54300 49.12500 26.16800
H  33.17300 50.59100 26.77100
H  27.26000 51.73600 22.04000
H  25.32100 53.90000 22.11900
H  28.83100 53.85100 22.80900
H  27.51100 54.77100 21.89500
H  28.36000 53.52300 21.09800
H  23.68800 51.64600 22.03300
H  25.21400 50.83000 21.86400
H  24.83200 51.04100 19.73900
H  25.33900 52.69300 19.76500
H  23.65300 52.31400 19.89700
H  20.93600 52.83200 24.66800
H  20.81900 54.54000 25.25700
H  20.20200 53.24300 26.19300
H  22.01500 52.22700 30.82200
H  22.50800 56.27200 32.38200
H  23.30600 55.04300 33.42400
H  21.56000 55.37800 33.65600

