158

Mg 40.51700 7.44900 29.22600
C  42.23100 8.94900 32.01400
C  38.65200 5.84700 31.43700
C  39.28900 5.95600 26.68000
C  43.03500 8.83700 27.23200
N  40.45000 7.50900 31.50300
C  41.12600 8.30000 32.40800
C  40.61800 8.00900 33.81500
C  39.66500 6.78600 33.61300
C  39.59200 6.66300 32.12600
C  39.85100 5.52200 34.47000
C  39.97100 9.23100 34.58900
C  40.02500 9.09100 36.10400
H  40.85600 10.13600 36.89700
N  39.06900 6.12500 29.05100
C  38.32200 5.64100 30.06200
C  37.39300 4.69500 29.49300
C  37.54100 4.67300 28.08300
C  38.63500 5.60800 27.85300
C  36.48200 3.93700 30.43800
C  36.85000 3.80700 27.04500
O  37.16100 3.75000 25.85700
C  35.62800 2.97800 27.59100
N  41.19500 7.24400 27.28900
C  40.36800 6.73300 26.36300
C  40.95400 6.81100 24.95800
C  41.94300 7.96400 25.14900
C  42.03200 8.05500 26.67800
C  41.59000 5.61400 24.33700
C  41.44500 9.31100 24.56100
C  40.37000 10.10100 25.35500
N  42.27100 8.59600 29.51500
C  43.17000 9.07700 28.56100
C  44.22000 9.93000 29.22600
C  43.78700 9.97900 30.54500
C  42.67900 9.12000 30.66000
C  45.36900 10.67800 28.56400
C  44.16300 10.47800 31.84600
O  45.13700 11.16300 32.16700
C  43.06800 9.90100 32.85700
C  43.80200 9.14500 33.95600
O  44.49800 8.15000 33.79200
O  43.77100 9.84500 35.20200
C  44.81100 9.48600 36.16700
H  38.14000 5.26200 32.20400
H  38.74900 5.53200 25.83100
H  43.60900 9.45000 26.53300
H  41.45000 7.54800 34.34800
H  38.67200 7.18400 33.82200
H  40.62100 5.61200 35.23700
H  40.06800 4.59400 33.94200
H  38.92800 5.28500 34.99800
H  38.91100 9.14000 34.35100
H  40.35600 10.19500 34.25600
H  40.47000 8.17600 36.49400
H  39.00300 8.87300 36.41400
H  36.43300 4.35400 31.44400
H  36.68900 2.86800 30.48700
H  35.44200 4.15800 30.19900
H  35.02300 2.52900 26.80300
H  34.93100 3.69000 28.03200
H  35.99700 2.16400 28.21500
H  40.16300 7.12400 24.27700
H  42.89400 7.72700 24.67300
H  40.75700 4.91000 24.34600
H  42.35400 5.25600 25.02700
H  42.03600 5.70600 23.34600
H  40.90700 9.09200 23.63900
H  42.22600 10.05600 24.41000
H  39.57700 10.35100 24.65000
H  40.78700 11.02600 25.75500
H  39.90600 9.48300 26.12300
H  45.60500 11.48900 29.25300
H  44.94900 11.03800 27.62500
H  46.15000 9.91700 28.53300
H  42.47300 10.69900 33.30100
H  44.59200 8.49500 36.56400
H  44.84500 10.28300 36.90900
H  45.74200 9.36500 35.61400
Mg -0.17900 43.89700 26.47900
C  2.31700 43.42700 28.84200
C  -2.33700 42.72800 28.80700
C  -2.58800 43.85500 24.08800
C  2.25500 44.20200 24.07300
N  0.02900 42.97900 28.54300
C  1.01700 43.27100 29.36600
C  0.67100 43.03800 30.84800
C  -0.70900 42.42000 30.72400
C  -1.07100 42.73100 29.25600
C  -0.80700 40.85500 31.00700
C  0.69400 44.34900 31.60000
C  1.09300 44.19200 33.13700
H  0.72200 42.91600 33.75300
N  -2.12400 43.42700 26.49800
C  -2.86100 43.07200 27.56400
C  -4.28900 42.99800 27.15400
C  -4.45200 43.24800 25.78600
C  -3.01400 43.47200 25.39700
C  -5.33200 42.83200 28.25500
C  -5.70100 43.31100 24.92600
O  -5.62800 43.45000 23.70800
C  -7.15800 43.14800 25.52800
N  -0.11700 43.73600 24.29400
C  -1.27600 44.04000 23.63100
C  -0.93000 44.58400 22.24700
C  0.61700 44.83500 22.35300
C  0.93700 44.16700 23.66100
C  -1.29500 43.80400 21.00600
C  1.18400 46.29500 22.39300
C  0.47000 47.39700 21.56100
N  1.86200 44.00200 26.41700
C  2.70100 44.12300 25.35500
C  4.09900 44.08900 25.83200
C  3.96300 43.90900 27.22800
C  2.64600 43.74300 27.49000
C  5.34400 44.17900 24.94800
C  4.64700 43.75500 28.44300
O  5.83900 43.81500 28.71500
C  3.58900 43.61100 29.56400
C  3.97000 42.36600 30.34600
O  3.81500 41.21100 29.90200
O  4.38800 42.54000 31.61500
C  4.57500 41.37900 32.49100
H  -3.05900 42.50000 29.59400
H  -3.35700 43.95600 23.31900
H  3.03000 44.32300 23.31400
H  1.46100 42.39000 31.22800
H  -1.43100 42.86300 31.41000
H  -1.66700 40.72300 31.66400
H  0.13300 40.52500 31.44900
H  -1.01300 40.29800 30.09400
H  -0.25900 44.87800 31.59800
H  1.54600 44.96200 31.30400
H  0.61100 45.03100 33.63800
H  2.17400 44.28400 33.23800
H  -6.18600 43.47500 28.04200
H  -5.02200 43.19000 29.23700
H  -5.64300 41.79100 28.34600
H  -7.50900 44.15500 25.75500
H  -7.20800 42.44700 26.36100
H  -7.73100 42.76200 24.68500
H  -1.51300 45.50200 22.17800
H  1.25600 44.34800 21.61600
H  -1.99700 43.00900 21.26000
H  -0.37900 43.45900 20.52700
H  -1.67500 44.48200 20.24200
H  2.20800 46.45200 22.05600
H  1.12000 46.64100 23.42500
H  1.24000 47.86800 20.95000
H  0.24500 48.17200 22.29300
H  -0.35000 47.07800 20.91700
H  5.79500 43.18800 24.99500
H  6.12900 44.74600 25.45000
H  5.06500 44.49700 23.94300
H  3.54500 44.44700 30.26100
H  4.17200 41.47300 33.50000
H  5.63100 41.12900 32.58500
H  4.13300 40.43300 32.17700

