158

Mg 40.65700 9.03600 29.49700
C  42.14500 10.55100 32.20300
C  38.30500 7.64000 31.71600
C  39.03300 7.70200 26.93500
C  43.07000 10.35800 27.43300
N  40.32300 9.05200 31.73200
C  41.05400 9.77700 32.60500
C  40.50100 9.56700 34.00500
C  39.33900 8.51300 33.83800
C  39.34600 8.25300 32.35500
C  39.43200 7.26900 34.69100
C  40.11000 10.98300 34.65500
C  39.38600 10.90900 35.99900
H  39.78600 11.78500 37.21000
N  38.93000 7.82700 29.36800
C  38.15200 7.38600 30.33700
C  37.01700 6.71300 29.78600
C  37.20400 6.63700 28.37800
C  38.43200 7.39500 28.16100
C  35.89100 6.04800 30.62200
C  36.44800 5.87900 27.27800
O  36.80200 5.87800 26.14900
C  35.15100 5.18700 27.62200
N  41.04300 8.92400 27.38700
C  40.22800 8.33200 26.56700
C  40.75600 8.55700 25.08200
C  41.93100 9.54500 25.21600
C  42.01200 9.66800 26.75700
C  41.01700 7.21900 24.38600
C  41.60800 10.90000 24.43700
C  40.50600 11.82700 24.97200
N  42.29600 10.07200 29.71800
C  43.20600 10.49900 28.82100
C  44.21800 11.39500 29.43800
C  43.83100 11.46200 30.80200
C  42.68900 10.64600 30.92500
C  45.34900 12.12500 28.72300
C  44.17200 11.98000 32.04200
O  45.13900 12.59800 32.34100
C  43.08200 11.39400 33.05900
C  43.72200 10.47200 34.06600
O  44.26200 9.38200 33.81600
O  43.64400 11.05100 35.31400
C  44.20500 10.34300 36.42600
H  37.61500 7.19000 32.43200
H  38.39900 7.62300 26.04900
H  43.79700 10.68800 26.68800
H  41.32700 9.07800 34.52100
H  38.40100 8.99000 34.12200
H  40.27000 7.27400 35.38900
H  39.57100 6.46900 33.96500
H  38.51300 7.08200 35.24500
H  39.54900 11.48000 33.86400
H  40.90800 11.69600 34.86600
H  39.50100 9.86700 36.29800
H  38.30800 10.96200 35.84800
H  36.27200 5.76500 31.60300
H  35.55800 5.07700 30.25300
H  35.03500 6.70500 30.76900
H  34.45800 5.90900 28.05300
H  35.37500 4.37300 28.31100
H  34.71200 4.78300 26.71000
H  39.88100 8.89900 24.52900
H  42.87600 9.07700 24.93900
H  42.06700 7.15000 24.10000
H  40.41600 7.06400 23.49000
H  40.82800 6.39600 25.07600
H  41.45600 10.67600 23.38100
H  42.52900 11.45700 24.26600
H  40.88100 12.79000 25.32000
H  40.02900 11.39700 25.85300
H  39.69700 11.79000 24.24200
H  45.88600 12.74000 29.44600
H  44.92700 12.88500 28.06600
H  45.96100 11.41000 28.17400
H  42.43500 12.16400 33.47900
H  43.79900 9.33200 36.46100
H  44.05200 10.76600 37.41900
H  45.28000 10.18700 36.33500
Mg 0.28300 43.70600 26.06900
C  2.35500 43.66300 28.97000
C  -2.40600 42.82100 28.01900
C  -1.38200 42.81000 23.38000
C  3.22500 44.16000 24.18100
N  0.04700 43.14600 28.27600
C  0.93000 43.43000 29.25800
C  0.20000 43.41900 30.60400
C  -1.21000 42.90900 30.30900
C  -1.21300 42.96200 28.76100
C  -1.52200 41.46600 30.80700
C  0.27100 44.82600 31.29800
C  1.01600 44.87000 32.67900
H  0.87300 43.72400 33.67900
N  -1.71600 43.27800 25.70200
C  -2.67700 42.86700 26.60400
C  -3.95400 42.63500 25.94500
C  -3.57300 42.57700 24.54100
C  -2.16300 42.86700 24.54200
C  -5.29500 42.54500 26.73700
C  -4.46300 42.14000 23.34100
O  -4.01200 42.11100 22.19100
C  -5.97800 41.82700 23.62400
N  0.82200 43.63600 23.98400
C  -0.10300 43.25800 23.16600
C  0.52000 43.07200 21.81200
C  1.95500 43.77600 21.93400
C  2.04500 43.87700 23.41200
C  0.63300 41.53600 21.36600
C  1.97300 45.16800 21.24700
C  1.67300 46.47700 22.03000
N  2.41300 43.88300 26.43400
C  3.43100 44.06000 25.57100
C  4.64300 44.37000 26.35400
C  4.25600 44.13800 27.66400
C  2.90100 43.86700 27.67400
C  5.91600 44.97100 25.84700
C  4.76700 44.10300 29.01700
O  5.89200 44.31800 29.46500
C  3.49500 44.03400 29.99800
C  3.77600 42.89400 30.89400
O  3.55400 41.68600 30.64600
O  4.42800 43.27900 32.08700
C  4.84200 42.14700 33.03200
H  -3.33300 42.53200 28.51800
H  -1.83900 42.41700 22.46900
H  4.17700 44.22400 23.65000
H  0.58000 42.72000 31.34900
H  -2.02400 43.55300 30.64200
H  -2.33500 41.44300 31.53200
H  -0.62100 41.04900 31.25700
H  -1.97700 40.92100 29.98000
H  -0.67800 45.32700 31.48900
H  0.83000 45.45800 30.60700
H  0.78300 45.75400 33.27100
H  2.08500 44.92700 32.47500
H  -6.15400 42.94000 26.19400
H  -5.15400 42.84400 27.77600
H  -5.41300 41.46900 26.86200
H  -6.13300 41.10300 24.42400
H  -6.43000 41.53100 22.67700
H  -6.47400 42.73400 23.96700
H  -0.15200 43.52300 21.08200
H  2.71300 43.08200 21.57200
H  0.23800 40.87100 22.13400
H  1.67400 41.26400 21.19000
H  0.15700 41.25300 20.42800
H  1.23800 45.21600 20.44300
H  3.00400 45.22800 20.90000
H  1.02000 46.39100 22.89900
H  1.32100 47.14900 21.24800
H  2.53000 46.96900 22.49100
H  6.51300 45.51700 26.57700
H  5.71800 45.64900 25.01700
H  6.50300 44.16500 25.40600
H  3.36900 44.92900 30.60800
H  5.92600 42.13000 33.14400
H  4.48400 41.16900 32.70800
H  4.40600 42.39800 33.99900

