158

Mg 44.77500 5.59100 47.56600
C  42.51600 8.34700 47.08100
C  42.02600 3.48700 47.33100
C  46.80100 3.10800 47.51900
C  47.38300 7.91600 46.99100
N  42.51800 5.93700 47.11800
C  41.84000 7.11300 46.82900
C  40.39000 6.86500 46.38100
C  40.20100 5.38300 46.83600
C  41.63700 4.88300 47.04500
C  39.42200 5.13500 48.14900
C  40.17500 7.02500 44.86100
C  39.50400 8.29900 44.39300
H  40.22400 9.12000 43.27300
N  44.43200 3.52300 47.43800
C  43.24300 2.84200 47.51700
C  43.47700 1.44100 47.64800
C  44.91600 1.30200 47.56700
C  45.48000 2.63700 47.45500
C  42.38600 0.30600 47.65500
C  45.68600 0.04100 47.64600
O  45.14800 -1.04400 47.94600
C  47.20800 -0.08100 47.37500
N  46.91300 5.52100 47.08900
C  47.43800 4.32500 47.43000
C  48.95400 4.53000 47.48700
C  49.15700 6.03100 47.23200
C  47.74900 6.55700 47.06000
C  49.52700 4.01700 48.90400
C  50.00000 6.45800 46.01300
C  51.08100 5.53200 45.51800
N  44.96500 7.71100 47.16500
C  46.11400 8.48400 47.08300
C  45.72100 9.89900 47.16500
C  44.25400 9.88200 47.22300
C  43.90500 8.51500 47.11000
C  46.61100 11.12800 47.26900
C  43.05700 10.65100 47.33300
O  42.98300 11.86400 47.60800
C  41.89100 9.71100 47.00100
C  40.80400 9.78200 48.08700
O  40.78900 9.09300 49.11400
O  39.87600 10.81000 47.71400
C  38.75000 10.95800 48.63000
H  41.27700 2.69300 47.35600
H  47.69000 2.49100 47.66800
H  48.22200 8.61300 47.05600
H  39.67100 7.46800 46.93600
H  39.63100 4.81500 46.10000
H  38.66600 4.36300 48.00800
H  38.75800 5.99200 48.25800
H  40.07100 5.10400 49.02400
H  39.54800 6.20300 44.51500
H  41.15100 6.98600 44.37800
H  39.32200 9.06200 45.15000
H  38.51100 8.05100 44.02100
H  42.47600 -0.01800 48.69200
H  42.58800 -0.46200 46.90800
H  41.34900 0.62000 47.54300
H  47.42500 -1.15000 47.38100
H  47.73900 0.50500 48.12500
H  47.41400 0.33600 46.38900
H  49.40400 3.90100 46.72000
H  49.66100 6.46600 48.09500
H  48.82100 3.34900 49.39600
H  49.83300 4.78200 49.61800
H  50.36200 3.33900 48.72700
H  50.48800 7.40800 46.23100
H  49.41600 6.57000 45.09900
H  51.46500 4.96100 46.36300
H  51.94200 6.05800 45.10600
H  50.77400 4.82200 44.75000
H  47.42200 10.91700 46.57300
H  46.86600 11.33100 48.30900
H  46.09800 12.03700 46.95300
H  41.59500 9.95000 45.98000
H  38.09700 11.79100 48.37000
H  39.19700 11.13200 49.60800
H  38.12600 10.06700 48.70100
Mg 47.28100 25.08500 28.47000
C  47.97500 27.53100 30.91400
C  46.49500 23.00500 31.08300
C  46.84600 22.69200 26.22300
C  48.75100 27.13700 26.17200
N  47.22200 25.19900 30.78200
C  47.43300 26.38400 31.51400
C  47.09500 26.15900 32.99500
C  46.62000 24.66000 33.03600
C  46.75600 24.24000 31.58400
C  47.38900 23.77900 33.97000
C  46.02800 27.15000 33.46900
C  46.44600 28.05500 34.65300
H  45.61500 28.34100 35.89200
N  46.70800 23.18500 28.58700
C  46.40800 22.45800 29.75200
C  45.95800 21.14000 29.46400
C  45.99300 21.03700 28.05100
C  46.55100 22.28400 27.57200
C  45.53500 20.19900 30.52400
C  45.74800 19.82000 27.23500
O  45.95400 19.72400 26.01100
C  45.37100 18.54500 27.89700
N  47.55000 24.98800 26.54500
C  47.40200 23.86700 25.79300
C  47.78400 24.00200 24.29800
C  48.23200 25.47800 24.28200
C  48.20300 25.90800 25.72500
C  48.64600 22.87300 23.68700
C  47.44900 26.40200 23.21300
C  48.06500 26.41000 21.78600
N  48.11600 26.91400 28.44000
C  48.72400 27.64200 27.46000
C  49.14500 28.91000 27.87900
C  48.87200 28.94200 29.24300
C  48.26100 27.65400 29.55000
C  49.81100 29.89900 26.92700
C  48.91200 29.72000 30.44000
O  49.28000 30.81200 30.64400
C  48.52400 28.74500 31.58100
C  49.72300 28.51500 32.42300
O  50.71600 27.96400 32.00200
O  49.55800 29.03600 33.75200
C  50.73900 28.73100 34.56800
H  46.28400 22.18000 31.76600
H  46.53300 22.01000 25.42900
H  49.30700 27.60900 25.35900
H  48.00600 26.34800 33.56300
H  45.55500 24.57500 33.25000
H  48.25400 23.26200 33.55500
H  46.79200 23.02800 34.48500
H  47.57700 24.38200 34.85900
H  45.09800 26.64000 33.71800
H  45.78000 27.83200 32.65700
H  46.81700 29.00900 34.27900
H  47.34300 27.62000 35.09400
H  46.19800 19.35400 30.71200
H  44.54500 19.79400 30.31700
H  45.34300 20.51600 31.54900
H  45.26200 17.77900 27.12900
H  44.41100 18.62200 28.40900
H  46.15200 18.22300 28.58600
H  46.90900 23.97100 23.64900
H  49.29100 25.50900 24.02300
H  49.60900 23.25400 23.34800
H  48.03400 22.38100 22.93100
H  48.86500 22.07100 24.39200
H  47.48400 27.40000 23.65000
H  46.41800 26.04700 23.21000
H  49.12200 26.16800 21.89900
H  47.98200 27.39500 21.32700
H  47.50000 25.70000 21.18200
H  49.22800 29.88000 26.00600
H  50.85300 29.67100 26.69900
H  49.75100 30.88300 27.39100
H  47.81300 29.22900 32.25200
H  51.68000 28.88100 34.03900
H  50.66700 27.67300 34.82200
H  50.62600 29.29900 35.49100

