158

Mg 17.14500 50.90700 26.88300
C  19.18100 49.92100 29.57200
C  14.84500 52.14500 28.98700
C  15.38200 51.86200 24.27200
C  19.61300 49.52700 24.66600
N  17.03000 51.01300 28.94100
C  17.96600 50.56100 29.90800
C  17.43500 50.83700 31.34100
C  15.88900 51.14300 31.07900
C  15.92400 51.51300 29.55100
C  14.96500 49.99600 31.38200
C  18.23700 52.05400 31.91500
C  18.16900 52.41700 33.45100
H  17.07400 51.92500 34.37200
N  15.47700 52.03800 26.68500
C  14.57800 52.46800 27.63800
C  13.48500 53.22600 27.07400
C  13.64400 53.15100 25.68100
C  14.90000 52.35900 25.48900
C  12.31500 53.71100 27.89400
C  12.74000 53.66400 24.59300
O  12.87900 53.50300 23.39700
C  11.51600 54.41000 25.00200
N  17.43600 50.72700 24.76600
C  16.48200 51.18700 23.87400
C  16.78800 50.81800 22.43600
C  18.27400 50.16400 22.52800
C  18.51500 50.13600 24.04600
C  15.69800 49.98900 21.70000
C  19.33700 50.78200 21.56500
C  20.10400 51.97800 22.18000
N  18.95700 49.88900 26.97000
C  19.87600 49.46600 26.04000
C  20.97500 48.83300 26.67600
C  20.73500 48.96500 28.08400
C  19.54000 49.65800 28.21400
C  22.13900 48.08100 25.99100
C  21.27700 48.64900 29.36700
O  22.20500 47.99100 29.69600
C  20.25100 49.31600 30.42000
C  19.69400 48.31400 31.31300
O  19.22900 47.25600 30.96500
O  19.98000 48.68000 32.64100
C  19.53700 47.78400 33.71100
H  14.02900 52.49000 29.62500
H  14.79700 52.38300 23.51100
H  20.30500 49.04800 23.97000
H  17.52200 49.90900 31.90700
H  15.58000 51.99200 31.68900
H  14.13200 50.38800 31.96600
H  15.57700 49.21800 31.83900
H  14.55600 49.54900 30.47500
H  17.85200 52.99200 31.51500
H  19.26300 52.00400 31.55000
H  18.06700 53.50100 33.48900
H  19.11600 52.14600 33.91800
H  12.46300 53.69400 28.97300
H  11.35400 53.30700 27.57500
H  12.17900 54.78700 27.78100
H  11.71500 55.36000 25.49800
H  10.82800 53.69700 25.45400
H  10.94000 54.72400 24.13100
H  16.94100 51.87400 22.21200
H  18.13900 49.10700 22.30000
H  14.88400 49.76100 22.38900
H  16.21200 49.09800 21.34000
H  15.25200 50.56700 20.89000
H  18.91000 50.92700 20.57200
H  20.04500 49.97100 21.39900
H  19.73300 52.19900 23.18100
H  19.87800 52.89300 21.63300
H  21.19300 51.92200 22.20000
H  21.97500 47.01800 26.17100
H  23.14800 48.34200 26.31200
H  22.04400 48.18900 24.91000
H  20.78200 50.09200 30.97200
H  20.27100 46.97800 33.70600
H  18.53500 47.36700 33.61000
H  19.58900 48.43300 34.58500
Mg -6.03100 25.57800 24.59100
C  -4.31800 26.44800 27.41400
C  -7.74000 23.13900 26.59100
C  -7.23800 24.00900 21.73700
C  -4.01500 27.49900 22.60700
N  -6.14100 24.89700 26.72700
C  -5.27600 25.46700 27.68100
C  -5.71900 25.09300 29.06200
C  -6.61100 23.82500 28.87500
C  -6.88400 23.95400 27.33000
C  -5.91600 22.45800 29.27200
C  -6.53200 26.28000 29.73900
C  -6.27600 26.55600 31.25000
H  -5.66900 25.45700 32.14200
N  -7.41600 23.86400 24.22300
C  -8.03200 23.06100 25.21000
C  -8.82100 22.06400 24.53100
C  -8.71500 22.28100 23.10200
C  -7.71900 23.35600 22.94100
C  -9.75300 21.08900 25.22600
C  -9.46400 21.64600 21.93400
O  -9.19200 21.86800 20.74700
C  -10.61300 20.60900 22.16800
N  -5.73200 25.69600 22.46600
C  -6.34200 25.05000 21.51800
C  -6.08100 25.66500 20.10700
C  -5.16700 26.85600 20.42700
C  -4.95500 26.71800 21.93800
C  -5.47900 24.63300 19.06700
C  -5.73900 28.34100 20.08200
C  -6.36200 28.47400 18.64400
N  -4.44000 26.79500 24.88900
C  -3.74800 27.54400 24.03200
C  -2.77100 28.30500 24.80100
C  -3.01600 27.98600 26.09400
C  -3.94900 26.95800 26.11800
C  -1.85900 29.38800 24.29400
C  -2.65300 28.28500 27.50900
O  -1.92200 29.13200 28.01200
C  -3.60800 27.32800 28.35300
C  -2.67700 26.57600 29.28400
O  -2.15500 25.48100 29.06500
O  -2.48500 27.36300 30.39900
C  -1.63400 26.91400 31.49700
H  -8.29600 22.42700 27.20400
H  -7.61100 23.69600 20.76000
H  -3.48400 28.15300 21.91200
H  -4.85000 24.79000 29.64600
H  -7.56800 23.90200 29.39100
H  -5.74600 21.75600 28.45500
H  -6.48100 21.95700 30.05800
H  -4.94800 22.74200 29.68600
H  -7.61800 26.18400 29.72600
H  -6.41600 27.16000 29.10600
H  -7.20600 26.88500 31.71400
H  -5.57700 27.38900 31.31600
H  -9.45700 21.07900 26.27500
H  -9.67700 20.08000 24.81900
H  -10.78800 21.42900 25.20700
H  -11.30800 20.59400 21.32900
H  -11.17300 21.01000 23.01300
H  -10.15800 19.62300 22.25700
H  -7.03300 26.09000 19.78800
H  -4.32800 26.83800 19.73200
H  -4.98600 23.77800 19.53000
H  -4.74200 25.17400 18.47400
H  -6.31800 24.35900 18.42700
H  -4.96400 29.10100 20.17600
H  -6.48400 28.58400 20.83900
H  -6.06700 29.38700 18.12700
H  -7.44400 28.58000 18.71600
H  -6.04200 27.64600 18.01200
H  -2.39100 30.33700 24.35800
H  -1.52200 29.20700 23.27300
H  -0.99600 29.26900 24.94900
H  -4.30500 27.88000 28.98300
H  -1.16600 25.94200 31.34500
H  -2.36400 26.78800 32.29700
H  -0.88600 27.69500 31.63400

