158

Mg 17.65000 -1.26900 28.10000
C  16.56200 0.47000 30.88700
C  19.34100 -3.49500 30.00600
C  18.95300 -2.51600 25.34900
C  15.81800 1.03300 26.13000
N  17.96200 -1.34600 30.21100
C  17.44300 -0.56300 31.20700
C  17.79300 -1.01700 32.64700
C  18.77500 -2.19300 32.27100
C  18.67100 -2.40500 30.76600
C  20.27300 -2.02200 32.80800
C  16.68700 -1.38500 33.68200
C  16.76500 -1.06900 35.14600
H  18.16500 -0.73900 35.69200
N  18.93700 -2.91300 27.65700
C  19.49700 -3.74700 28.62100
C  20.29000 -4.70000 27.91400
C  20.28200 -4.41700 26.53900
C  19.35200 -3.22000 26.42700
C  21.28000 -5.69200 28.54000
C  20.96100 -5.11100 25.31600
O  20.88500 -4.69200 24.19100
C  21.81600 -6.30700 25.46100
N  17.45100 -0.78900 26.03100
C  18.00400 -1.55200 25.10500
C  17.58400 -1.08800 23.69200
C  16.45700 -0.07000 23.97500
C  16.54800 0.06200 25.46400
C  18.83000 -0.52300 22.97600
C  15.15400 -0.46500 23.24300
C  14.44400 0.70400 22.50900
N  16.52400 0.56300 28.40600
C  15.89700 1.40400 27.46000
C  15.17800 2.39300 28.16800
C  15.36900 2.05600 29.57600
C  16.20900 0.92400 29.62500
C  14.34200 3.47800 27.63200
C  15.12800 2.37900 30.95700
O  14.37400 3.25800 31.38200
C  15.83000 1.41400 31.86800
C  16.84100 2.17600 32.73500
O  17.95200 2.40100 32.39900
O  16.23500 2.47600 33.89300
C  16.95300 3.33300 34.74300
H  20.00500 -4.13000 30.59600
H  19.33600 -2.96000 24.42700
H  15.10900 1.54600 25.47800
H  18.39800 -0.17400 32.98000
H  18.40100 -3.11100 32.72400
H  20.42700 -1.05900 33.29500
H  20.94600 -1.83300 31.97100
H  20.63800 -2.96000 33.22600
H  16.45200 -2.44800 33.62900
H  15.82000 -0.86400 33.27700
H  16.35500 -1.93000 35.67400
H  16.18700 -0.15700 35.28800
H  21.01600 -6.72900 28.33600
H  21.28700 -5.63400 29.62900
H  22.33400 -5.57800 28.28700
H  21.34100 -7.01000 26.14500
H  22.74000 -5.97800 25.93600
H  21.90500 -6.74800 24.46800
H  17.32200 -1.88600 22.99700
H  16.84600 0.91000 23.70000
H  19.72300 -0.76900 23.55100
H  18.82200 0.56600 23.01400
H  18.82900 -0.92000 21.96100
H  14.46400 -0.86000 23.98700
H  15.31200 -1.23100 22.48300
H  13.96800 0.47800 21.55500
H  15.25000 1.38200 22.22800
H  13.67500 1.24300 23.06100
H  13.28900 3.23300 27.49700
H  14.69900 3.93800 26.71100
H  14.32400 4.29800 28.35000
H  15.08500 0.93100 32.50000
H  18.01400 3.09300 34.67500
H  16.63900 3.38900 35.78600
H  16.72100 4.34500 34.41200
Mg 43.41500 4.29000 47.33600
C  41.26000 7.08200 47.40900
C  40.41600 2.37500 46.97500
C  45.30200 1.62800 46.65500
C  46.11000 6.35000 47.34300
N  41.08600 4.74000 46.88000
C  40.56000 5.92900 47.29800
C  39.05600 5.83900 47.49500
C  38.77000 4.26800 47.52000
C  40.17900 3.75800 47.09600
C  38.25300 3.69100 48.86000
C  38.13800 6.62600 46.37600
C  38.59000 6.40600 44.86000
H  38.81600 7.63600 43.99200
N  43.00500 2.32700 46.98200
C  41.69900 1.79500 46.93900
C  41.87100 0.40100 46.84700
C  43.22100 0.08400 46.57900
C  43.92600 1.36900 46.66300
C  40.67900 -0.57200 47.02700
C  43.78600 -1.27700 46.29800
O  43.03700 -2.24600 46.19900
C  45.16000 -1.53100 46.12700
N  45.43100 4.09000 47.06700
C  46.02900 2.81100 46.94000
C  47.52700 3.02800 46.90600
C  47.90500 4.57300 47.10900
C  46.40000 5.01400 47.19500
C  48.45800 2.05900 47.73800
C  48.75100 5.36300 46.06300
C  49.94000 4.67900 45.52200
N  43.69800 6.34500 47.31900
C  44.87900 7.06800 47.49600
C  44.60700 8.44200 47.67700
C  43.16800 8.47100 47.67000
C  42.68000 7.16900 47.36700
C  45.67700 9.53900 47.93900
C  42.04200 9.39400 47.88400
O  42.01800 10.59200 48.16600
C  40.76000 8.52800 47.70000
C  39.94100 8.54800 48.93900
O  40.21100 7.95800 50.01200
O  38.86300 9.39400 48.69300
C  37.82800 9.43800 49.84300
H  39.55300 1.71100 47.04900
H  46.05900 0.85500 46.50700
H  46.99400 6.98900 47.37200
H  38.87800 6.22800 48.49800
H  38.05800 4.08100 46.71600
H  37.59400 4.35200 49.42400
H  39.08400 3.33700 49.47100
H  37.70900 2.77500 48.62900
H  37.97200 7.65400 46.69600
H  37.16400 6.13800 46.35700
H  37.84600 5.76400 44.38600
H  39.50600 5.82200 44.77300
H  40.17100 -0.78200 46.08600
H  40.06000 -0.09800 47.78900
H  41.11900 -1.49700 47.40000
H  45.79300 -1.02100 46.85300
H  45.50200 -0.98900 45.24500
H  45.25700 -2.61100 46.02000
H  47.77500 2.71000 45.89300
H  48.41000 4.70000 48.06700
H  49.17500 1.57100 47.07800
H  47.82100 1.27600 48.15100
H  49.03500 2.55700 48.51700
H  48.96100 6.33300 46.51500
H  48.00400 5.52200 45.28500
H  49.70500 4.35900 44.50700
H  50.42600 3.86700 46.06300
H  50.68700 5.45800 45.37000
H  45.31700 10.56800 47.91300
H  46.46800 9.49200 47.19000
H  46.11700 9.21100 48.88000
H  40.20700 8.85200 46.81700
H  38.30300 9.98800 50.65500
H  37.67100 8.45300 50.28200
H  36.88100 9.80400 49.44400

