158

Mg 41.06600 8.31400 29.93200
C  43.06200 9.24500 32.66100
C  38.65000 7.19700 31.99400
C  39.53400 7.02600 27.23200
C  43.72600 9.21200 27.89300
N  41.00100 8.05900 32.02400
C  41.84900 8.64400 33.00200
C  41.24300 8.48900 34.44400
C  39.86600 7.64300 34.20100
C  39.83800 7.52700 32.66300
C  39.54200 6.40700 35.01900
C  40.98300 9.97300 35.06800
C  40.24700 9.94800 36.39100
H  40.81200 10.73600 37.49500
N  39.34200 7.25600 29.63000
C  38.48500 7.00400 30.61100
C  37.37900 6.15200 30.08200
C  37.49300 6.07800 28.67100
C  38.80200 6.88500 28.39700
C  36.28500 5.49300 30.95600
C  36.64200 5.42100 27.59900
O  36.76200 5.62000 26.38200
C  35.49700 4.64700 28.02700
N  41.51000 8.18000 27.80100
C  40.70500 7.61200 26.91300
C  41.26000 7.64800 25.45800
C  42.57600 8.54800 25.72200
C  42.59100 8.69500 27.22900
C  41.63600 6.29900 24.85700
C  42.67200 9.88400 25.04100
C  41.80700 11.06900 25.55400
N  43.03900 9.12200 30.18900
C  44.00500 9.48300 29.28400
C  45.22800 9.92800 29.94800
C  44.83800 10.01300 31.28900
C  43.55200 9.42900 31.37300
C  46.45400 10.35400 29.23500
C  45.28100 10.46000 32.59600
O  46.28800 11.04000 32.98100
C  44.19100 9.87100 33.56800
C  44.91400 8.89200 34.40700
O  45.00000 7.71800 34.18400
O  45.50100 9.53000 35.45600
C  46.35800 8.80100 36.36700
H  37.84100 6.92800 32.67600
H  39.00600 6.56400 26.39600
H  44.59900 9.46300 27.28800
H  42.01700 7.98200 35.02000
H  39.06700 8.36000 34.39000
H  38.51600 6.13200 35.26100
H  40.13400 6.35900 35.93400
H  39.93600 5.52900 34.50700
H  40.34700 10.52400 34.37500
H  41.95300 10.39200 35.33500
H  40.22700 8.89500 36.67100
H  39.25500 10.36600 36.22100
H  35.30200 5.74800 30.56000
H  36.31900 5.66300 32.03200
H  36.24900 4.40700 30.87200
H  34.79700 5.34900 28.48000
H  35.83300 3.84100 28.67900
H  35.09100 4.36200 27.05700
H  40.57000 8.14100 24.77300
H  43.42800 7.94100 25.41500
H  42.63000 6.41800 24.42700
H  40.93100 6.01600 24.07600
H  41.62700 5.69000 25.76100
H  42.44400 9.57300 24.02200
H  43.73400 10.12400 25.07900
H  42.40800 11.93300 25.83800
H  41.07200 10.81000 26.31600
H  41.17600 11.37900 24.72100
H  46.80000 9.66400 28.46500
H  47.18700 10.20500 30.02800
H  46.47900 11.32400 28.73800
H  43.79200 10.56900 34.30400
H  46.64800 7.84000 35.94300
H  45.84500 8.67800 37.32100
H  47.27800 9.38100 36.43800
Mg 26.61800 49.94500 27.06300
C  24.43800 50.84500 29.59200
C  29.00100 49.16200 29.42600
C  28.62300 49.05900 24.69100
C  24.15400 51.00400 24.75600
N  26.77500 50.14000 29.23300
C  25.66800 50.32700 30.04400
C  26.06300 50.17100 31.57600
C  27.52200 49.78700 31.46800
C  27.81300 49.70200 29.99700
C  28.55600 50.67500 32.18700
C  25.09000 49.12300 32.29700
C  24.28100 49.60800 33.52700
H  24.39100 48.72800 34.80100
N  28.60500 49.25600 26.99800
C  29.41500 48.98100 28.10200
C  30.64600 48.48000 27.61600
C  30.59700 48.43700 26.17200
C  29.23600 48.91500 25.87400
C  31.70100 47.96300 28.48900
C  31.59900 48.00100 25.10200
O  31.38700 48.10000 23.91200
C  33.02400 47.52800 25.50800
N  26.44500 50.28700 24.99600
C  27.40500 49.70300 24.23300
C  26.88300 49.50200 22.77500
C  25.49200 50.07800 22.83500
C  25.30700 50.45700 24.28000
C  27.82800 50.16000 21.81000
C  24.30200 49.24600 22.27300
C  23.98700 47.90300 22.93100
N  24.77100 50.88500 27.10300
C  23.88400 51.25100 26.13600
C  22.74700 51.84700 26.69100
C  22.90900 51.66200 28.03600
C  24.15900 51.12800 28.27200
C  21.51500 52.27500 25.90400
C  22.26300 51.71400 29.27200
O  21.12300 52.14600 29.48100
C  23.23800 51.21600 30.42300
C  23.56900 52.45300 31.26900
O  24.20900 53.48500 30.95200
O  22.86400 52.28400 32.34400
C  22.82400 53.28800 33.31000
H  29.75300 48.80600 30.13300
H  29.06400 48.61300 23.79700
H  23.34500 51.25500 24.06700
H  26.01800 51.18300 31.97800
H  27.66300 48.77300 31.84200
H  28.71800 51.57900 31.60000
H  29.46500 50.13100 32.44200
H  28.09200 50.89500 33.14800
H  25.74500 48.31900 32.63300
H  24.50200 48.56200 31.57100
H  23.30600 49.61600 33.03800
H  24.52000 50.62900 33.82500
H  31.74400 46.87600 28.41200
H  31.88900 48.30100 29.50800
H  32.65700 48.34400 28.12800
H  33.57100 47.19700 24.62500
H  32.96400 46.63700 26.13300
H  33.50800 48.33700 26.05500
H  26.75100 48.43200 22.61200
H  25.50200 51.07800 22.40200
H  28.66000 50.68500 22.27800
H  27.31700 50.91600 21.21500
H  28.15000 49.36300 21.14000
H  24.46300 49.01200 21.22100
H  23.40000 49.85300 22.35800
H  22.91700 47.70000 22.96400
H  24.48300 47.85100 23.90000
H  24.50600 47.17200 22.31000
H  21.10700 51.50100 25.25400
H  21.87500 53.15100 25.36400
H  20.78100 52.42400 26.69600
H  22.76200 50.41600 30.99100
H  23.00700 54.30900 32.97300
H  23.62000 53.08200 34.02600
H  21.83000 53.25700 33.75600

