158

Mg 0.73400 7.51300 25.34100
C  1.43000 9.58500 28.16800
C  1.44600 4.79200 27.28700
C  0.08600 5.76000 22.81000
C  0.88400 10.45200 23.42700
N  1.43500 7.22000 27.52100
C  1.40100 8.13800 28.55600
C  1.49400 7.48600 29.94500
C  1.69200 5.96500 29.58100
C  1.60700 6.00300 28.04800
C  3.02700 5.34200 30.10600
C  0.32100 7.78800 30.91500
C  0.58400 8.09400 32.44900
H  1.63200 7.19200 33.06000
N  0.72800 5.52500 25.06400
C  1.04600 4.53300 25.98300
C  0.71400 3.22000 25.39300
C  0.34200 3.58200 24.03500
C  0.37800 4.98000 23.92400
C  0.97600 1.94800 26.17300
C  -0.04700 2.66400 22.87400
O  -0.44600 2.94700 21.73600
C  0.09900 1.20300 23.09100
N  0.63200 8.06100 23.29400
C  0.24700 7.07100 22.46400
C  -0.38000 7.70900 21.15300
C  0.00800 9.21600 21.25900
C  0.54400 9.31900 22.69700
C  -0.10800 6.99400 19.75200
C  -1.24700 10.23800 21.06700
C  -0.98400 11.38000 20.12700
N  1.15000 9.52400 25.68200
C  1.18500 10.61100 24.76200
C  1.59300 11.81400 25.48400
C  1.63800 11.44700 26.82200
C  1.35000 10.09000 26.86900
C  1.72000 13.20500 24.90400
C  1.73600 11.99100 28.16200
O  2.10300 13.09100 28.55400
C  1.67400 10.74700 29.13800
C  2.91100 10.67900 29.85000
O  3.99000 10.38400 29.40000
O  2.71100 10.95100 31.20500
C  3.84900 10.72400 32.08200
H  1.49300 3.84400 27.82700
H  -0.27200 5.20900 21.93800
H  0.87500 11.39600 22.87900
H  2.42900 7.91300 30.30700
H  0.82200 5.37300 29.86500
H  2.86400 4.42100 30.66700
H  3.60900 6.05700 30.68800
H  3.73500 5.02200 29.34200
H  -0.26400 6.86900 30.93300
H  -0.30900 8.61300 30.58300
H  -0.27400 7.91500 33.09700
H  0.88600 9.13500 32.56700
H  0.11300 1.29500 26.04800
H  1.05100 2.07400 27.25300
H  1.85600 1.41400 25.81400
H  -0.50200 0.85100 23.92900
H  1.13600 0.96000 23.32400
H  -0.32100 0.66500 22.24100
H  -1.44000 7.56400 21.36500
H  0.80300 9.44800 20.55000
H  0.80400 6.42600 19.93000
H  0.07900 7.78900 19.03000
H  -0.93500 6.31700 19.53400
H  -1.62100 10.63100 22.01200
H  -2.11900 9.84100 20.54700
H  -1.44000 11.25100 19.14600
H  0.09800 11.51400 20.14500
H  -1.53200 12.22900 20.53500
H  0.86800 13.57800 24.33600
H  2.66600 13.16900 24.36300
H  1.92600 13.80200 25.79200
H  0.84300 10.88600 29.83000
H  3.50300 10.23700 32.99400
H  4.25700 11.67800 32.41400
H  4.66200 10.19200 31.58700
Mg -11.36700 15.93500 42.86500
C  -7.96000 16.63700 42.67700
C  -12.06400 19.33400 42.56500
C  -14.52800 15.17900 42.14700
C  -10.50700 12.49500 42.72400
N  -10.12700 17.73300 42.77300
C  -8.76500 17.81600 42.70800
C  -8.31700 19.27400 42.54200
C  -9.60100 19.97800 43.08900
C  -10.73000 18.95600 42.73200
C  -9.63700 20.26200 44.62200
C  -7.81500 19.69500 41.07300
C  -6.31800 20.13400 40.96400
H  -5.48700 19.51200 39.90300
N  -13.07600 17.10500 42.42400
C  -13.14600 18.50400 42.32200
C  -14.48200 18.90700 41.91500
C  -15.25800 17.65400 41.73000
C  -14.35600 16.58900 42.17800
C  -14.99200 20.26500 41.76400
C  -16.67700 17.68000 41.32800
O  -17.24400 18.74900 41.02900
C  -17.56900 16.45000 41.32100
N  -12.29100 14.07500 42.54000
C  -13.65200 14.12600 42.42400
C  -14.26700 12.67200 42.50500
C  -12.99300 11.80100 42.68800
C  -11.85700 12.78800 42.60400
C  -15.27800 12.50700 43.62800
C  -12.79400 10.74000 41.56300
C  -12.80700 9.28100 42.06900
N  -9.63700 14.74100 42.80000
C  -9.41500 13.37100 42.79600
C  -8.00500 13.10000 42.83000
C  -7.46000 14.35800 42.84500
C  -8.47100 15.31100 42.73900
C  -7.29400 11.83500 42.97500
C  -6.13700 14.98800 42.96700
O  -5.04900 14.47200 42.99300
C  -6.45100 16.54900 42.81200
C  -6.01900 17.13100 44.14600
O  -6.50200 16.93600 45.27900
O  -4.99500 17.91900 43.93700
C  -4.33900 18.51900 45.12600
H  -12.11300 20.42500 42.54800
H  -15.53700 14.82300 41.92700
H  -10.35500 11.41300 42.71800
H  -7.48500 19.40200 43.23300
H  -9.80600 20.90700 42.55700
H  -8.62900 20.05800 44.98300
H  -10.43000 19.74500 45.16300
H  -9.80100 21.33900 44.64900
H  -8.46700 20.49200 40.71800
H  -8.05900 18.86300 40.41200
H  -5.91500 19.81500 41.92600
H  -6.31500 21.22300 40.90800
H  -14.99900 20.56100 40.71500
H  -14.36400 21.03700 42.20900
H  -15.96000 20.41600 42.24000
H  -18.62000 16.73500 41.36000
H  -17.55100 15.90300 42.26400
H  -17.28000 15.78800 40.50400
H  -14.68000 12.36800 41.54400
H  -12.93000 11.34400 43.67600
H  -15.29300 13.45400 44.16900
H  -14.93300 11.71200 44.29000
H  -16.27000 12.47000 43.17900
H  -11.95800 11.02500 40.92500
H  -13.65000 10.73900 40.88700
H  -12.86100 9.10000 43.14300
H  -11.96800 8.67100 41.73500
H  -13.68200 8.74100 41.70400
H  -6.60500 11.97400 43.80800
H  -6.65600 11.71700 42.09900
H  -7.97000 10.98100 43.02000
H  -5.80000 16.88800 42.00600
H  -4.07700 17.81900 45.91900
H  -4.83600 19.39400 45.54400
H  -3.33500 18.68100 44.73500

