158

Mg 50.49200 46.87600 42.02600
C  47.38900 47.59100 40.61800
C  50.10700 43.63100 40.75500
C  53.76700 46.53000 42.39200
C  50.79400 50.36800 42.83900
N  48.97300 45.83400 40.67900
C  47.76700 46.25800 40.42600
C  46.87600 45.16500 39.82100
C  47.57900 43.81500 40.13900
C  48.99200 44.46900 40.58300
C  46.98600 42.88900 41.26500
C  46.57400 45.44200 38.24900
C  45.10800 45.22000 37.81300
H  44.96200 44.14300 36.73600
N  51.74300 45.34500 41.48200
C  51.38200 44.10000 41.03400
C  52.56200 43.26600 41.05300
C  53.63900 44.11500 41.47700
C  53.03900 45.37800 41.82100
C  52.60100 41.74900 40.54800
C  55.09200 43.60000 41.67500
O  55.33000 42.40500 41.52000
C  56.22600 44.49500 41.93800
N  52.10200 48.36000 42.51700
C  53.36700 47.83700 42.74500
C  54.27400 48.85200 43.37300
C  53.31600 50.13100 43.43700
C  51.97500 49.61700 42.95500
C  54.93500 48.53100 44.71800
C  53.90100 51.42500 42.76500
C  54.23300 52.60900 43.69500
N  49.23600 48.57900 42.09500
C  49.52600 49.88700 42.36200
C  48.40200 50.70600 42.01600
C  47.55500 49.81800 41.36700
C  48.09600 48.56100 41.41200
C  48.26500 52.15900 42.23200
C  46.21900 49.73200 40.74100
O  45.41600 50.68800 40.44200
C  46.10200 48.31600 40.18300
C  44.83000 47.75900 40.73000
O  44.65700 47.43200 41.89800
O  43.87500 47.80500 39.67900
C  42.48300 47.50600 40.11000
H  49.97200 42.56700 40.55100
H  54.75100 46.32100 42.81600
H  50.80500 51.39500 43.21000
H  45.93400 45.20300 40.36800
H  47.87600 43.35600 39.19600
H  46.47300 43.50600 42.00300
H  47.74500 42.27100 41.74400
H  46.30700 42.19600 40.76700
H  47.17900 44.76500 37.64700
H  46.92000 46.40300 37.86800
H  44.79000 46.19600 37.44600
H  44.38400 45.01400 38.60100
H  53.21000 41.08100 41.15600
H  52.97500 41.71400 39.52400
H  51.63000 41.25800 40.60900
H  56.41600 44.67200 42.99600
H  56.12700 45.43600 41.39700
H  57.09900 43.99900 41.51300
H  55.06300 49.07300 42.65400
H  53.21500 50.32900 44.50400
H  54.45800 47.82500 45.39800
H  54.86000 49.42200 45.34000
H  55.98500 48.24700 44.64000
H  53.19200 51.76600 42.01100
H  54.81200 51.25900 42.19100
H  55.22000 53.03100 43.50600
H  53.96400 52.31500 44.71000
H  53.61800 53.46900 43.43100
H  48.42900 52.69200 41.29500
H  48.99700 52.41400 42.99900
H  47.27700 52.34200 42.65300
H  46.11300 48.38500 39.09500
H  42.14700 48.22100 40.86100
H  42.25600 46.53600 40.55300
H  41.76000 47.54100 39.29400
Mg 35.30300 49.01000 25.93800
C  35.72100 47.02600 28.78200
C  34.03900 51.55000 28.00400
C  34.50300 50.77500 23.26000
C  36.48400 46.40900 24.05100
N  34.89200 49.23400 28.16100
C  35.27500 48.31200 29.10100
C  35.09900 48.89100 30.47700
C  34.35400 50.24600 30.21600
C  34.39300 50.41100 28.68000
C  32.92300 50.37100 30.89500
C  36.41700 49.11500 31.27300
C  36.34200 48.94800 32.80200
H  34.99400 48.92800 33.48100
N  34.45300 50.88300 25.62500
C  34.05900 51.80300 26.58600
C  33.83300 53.11000 26.03300
C  33.87800 52.92100 24.59800
C  34.30700 51.49100 24.43900
C  33.60700 54.41000 26.84400
C  33.70900 53.97600 23.53700
O  33.85900 53.70000 22.36800
C  33.31900 55.43500 23.93600
N  35.44700 48.68700 23.91700
C  34.93500 49.46400 23.00200
C  34.96500 48.83800 21.62700
C  35.74000 47.50500 21.87800
C  35.97100 47.57200 23.38100
C  33.63700 48.66700 20.85500
C  37.03000 47.26000 21.05900
C  38.32100 47.81300 21.68600
N  35.89600 47.03800 26.31600
C  36.39500 46.12000 25.44700
C  36.75400 44.94300 26.08600
C  36.55700 45.15300 27.46900
C  36.07600 46.49500 27.53000
C  37.28600 43.65400 25.38300
C  36.52900 44.67600 28.84000
O  36.79100 43.57500 29.37600
C  36.03000 45.93800 29.74800
C  34.85700 45.49200 30.53900
O  33.71400 45.40000 30.08800
O  35.25300 45.27900 31.86200
C  34.14700 44.84600 32.67800
H  33.84900 52.37000 28.69900
H  34.19300 51.33100 22.37300
H  36.99800 45.66500 23.44000
H  34.50800 48.12600 30.98300
H  34.92800 50.98200 30.77900
H  32.14000 50.63800 30.18500
H  32.90600 51.23600 31.55800
H  32.66600 49.45100 31.41900
H  36.75700 50.12400 31.03600
H  37.18800 48.46600 30.85600
H  37.06900 49.59000 33.29900
H  36.77300 47.94800 32.85500
H  32.73400 54.98100 26.52800
H  34.46300 55.08200 26.77200
H  33.45100 54.14900 27.89100
H  34.00100 55.74300 24.72900
H  32.30900 55.41500 24.34400
H  33.44700 56.12100 23.09900
H  35.51200 49.49000 20.94600
H  35.06800 46.65200 21.78800
H  33.54500 47.63000 20.53000
H  33.44800 49.36000 20.03500
H  32.81000 48.78400 21.55500
H  36.90700 47.85700 20.15600
H  37.04700 46.18600 20.87200
H  39.06800 47.31200 21.07100
H  38.42200 47.59300 22.74900
H  38.48500 48.87000 21.47600
H  37.37200 42.88500 26.15000
H  38.16200 43.91500 24.78900
H  36.43400 43.33700 24.78200
H  36.83300 46.23800 30.42100
H  33.31400 45.54600 32.74300
H  34.46900 44.73800 33.71400
H  33.72500 43.85300 32.52500

