158

Mg -2.87000 17.82000 27.32100
C  -2.90000 15.61600 29.93900
C  -3.17200 20.42900 29.34900
C  -3.06100 19.72400 24.46600
C  -2.69300 14.84100 25.13000
N  -3.06700 17.95700 29.39400
C  -2.89000 16.99500 30.31800
C  -3.15500 17.53900 31.74900
C  -3.26600 19.06800 31.53700
C  -3.18800 19.16800 29.98500
C  -4.55900 19.71800 32.07700
C  -2.06100 17.09500 32.77800
C  -1.80500 17.91000 34.03400
H  -1.87400 17.20400 35.40000
N  -2.92200 19.81100 26.96100
C  -3.02600 20.73900 27.92800
C  -3.19800 22.09100 27.33100
C  -2.93000 21.85700 25.91200
C  -3.01900 20.38400 25.70600
C  -3.41200 23.41400 28.13200
C  -2.53400 22.86400 24.81900
O  -2.43800 22.53500 23.65700
C  -2.22300 24.31900 25.19100
N  -3.04000 17.31600 25.10500
C  -3.14700 18.31800 24.16000
C  -3.25500 17.67500 22.69700
C  -3.03800 16.17300 22.95200
C  -2.93300 16.07600 24.47000
C  -4.43000 18.08000 21.87700
C  -1.73300 15.52900 22.32000
C  -0.45300 15.92100 22.85600
N  -2.89700 15.63900 27.44800
C  -2.63600 14.61700 26.49800
C  -2.67800 13.33800 27.17600
C  -2.87900 13.68800 28.52400
C  -2.85500 15.07000 28.64200
C  -2.62200 11.99800 26.52100
C  -3.12800 13.14100 29.79900
O  -3.17300 11.91900 30.16800
C  -2.99200 14.39200 30.77600
C  -1.80100 14.25200 31.58900
O  -0.67800 14.66600 31.27200
O  -2.13900 13.29300 32.55400
C  -1.06600 12.93500 33.48700
H  -2.96200 21.30400 29.96800
H  -3.00800 20.25900 23.51600
H  -2.45100 13.91300 24.60800
H  -4.08100 17.08100 32.09600
H  -2.45300 19.62600 32.00000
H  -5.25800 20.02200 31.29800
H  -4.26200 20.47900 32.79800
H  -5.10700 19.03100 32.72100
H  -1.13600 17.05600 32.20200
H  -2.39100 16.11200 33.11300
H  -2.59500 18.66000 34.00200
H  -0.84700 18.35800 33.77100
H  -3.94800 24.10700 27.48300
H  -2.52600 24.01200 28.34500
H  -3.94600 23.23400 29.06500
H  -3.11300 24.86200 25.51000
H  -2.06700 24.70900 24.18500
H  -1.34800 24.58000 25.78700
H  -2.36900 18.18000 22.31100
H  -3.88100 15.67800 22.47000
H  -4.93500 17.19700 21.48600
H  -4.30000 18.58700 20.92100
H  -5.13300 18.68400 22.45000
H  -1.65000 15.70100 21.24700
H  -1.82200 14.45800 22.50100
H  -0.13000 14.94500 23.21700
H  -0.52400 16.68200 23.63300
H  0.24800 16.23100 22.08100
H  -3.46600 11.94100 25.83400
H  -2.71300 11.10500 27.13900
H  -1.66200 11.87700 26.01800
H  -3.96300 14.35600 31.26900
H  -0.09300 13.13400 33.03700
H  -1.15800 11.91900 33.87000
H  -1.14200 13.61300 34.33800
Mg -9.98700 39.55200 40.47100
C  -8.54300 36.32900 39.45500
C  -6.92500 40.93900 39.70600
C  -11.38400 42.67200 40.44400
C  -12.94900 38.01100 40.87500
N  -7.97900 38.73200 39.56200
C  -7.57600 37.43100 39.49600
C  -6.09000 37.33300 39.25100
C  -5.59800 38.74900 39.57500
C  -6.94000 39.53300 39.66800
C  -4.65400 38.90000 40.75100
C  -5.80900 36.87000 37.77200
C  -6.53800 37.67600 36.65000
H  -7.27600 36.85700 35.53500
N  -9.29600 41.49600 40.07100
C  -7.95500 41.82700 39.85100
C  -7.86000 43.20500 39.59600
C  -9.09200 43.76600 39.87800
C  -10.05600 42.65200 40.23900
C  -6.51800 43.87400 39.18800
C  -9.43300 45.26400 39.80200
O  -8.61900 46.08900 39.44700
C  -10.71300 45.72700 40.22400
N  -11.93400 40.29300 40.64900
C  -12.35300 41.61800 40.60100
C  -13.82600 41.72800 41.04900
C  -14.24800 40.20300 41.34400
C  -12.97900 39.46000 40.92500
C  -14.14000 42.70300 42.25800
C  -15.59500 39.71800 40.65200
C  -16.77100 39.12000 41.48300
N  -10.66900 37.59400 40.31700
C  -11.94700 37.10100 40.47500
C  -12.02300 35.68700 40.09400
C  -10.68300 35.34300 39.77000
C  -9.91300 36.48300 39.87800
C  -13.18800 34.78300 40.14000
C  -9.86800 34.26200 39.26800
O  -10.14400 33.11000 38.98900
C  -8.37200 34.80000 39.13800
C  -7.56000 34.12700 40.25600
O  -7.96800 33.70900 41.34700
O  -6.17700 34.08100 39.83900
C  -5.31600 33.25200 40.74100
H  -5.91200 41.32700 39.57800
H  -11.91400 43.61500 40.29300
H  -13.93100 37.54300 40.96900
H  -5.73300 36.61500 39.98900
H  -5.10300 39.09800 38.66900
H  -5.29500 39.21200 41.57600
H  -3.93800 39.66200 40.44000
H  -4.23700 37.90800 40.92500
H  -5.89900 35.79700 37.60200
H  -4.74800 37.09200 37.65900
H  -5.78200 38.18900 36.05700
H  -7.03200 38.55200 37.07100
H  -6.75700 44.33800 38.23100
H  -5.64100 43.30400 38.88200
H  -6.20400 44.63500 39.90200
H  -10.99600 45.45500 41.24100
H  -11.46400 45.31800 39.54800
H  -10.85500 46.79400 40.05100
H  -14.27700 42.10200 40.13000
H  -14.28500 40.05100 42.42300
H  -14.87800 43.43700 41.93500
H  -13.29200 43.28100 42.62700
H  -14.67400 42.13300 43.01800
H  -15.32200 39.02600 39.85600
H  -15.97900 40.47500 39.96800
H  -17.65000 39.72700 41.26200
H  -16.45200 39.34300 42.50100
H  -16.91000 38.04200 41.40900
H  -14.06300 35.20800 40.63100
H  -12.90100 33.84300 40.61200
H  -13.52800 34.63900 39.11400
H  -7.79600 34.63700 38.22700
H  -5.79000 32.50400 41.37800
H  -4.83900 33.95500 41.42400
H  -4.54300 32.78600 40.13000

