158

Mg 16.44200 51.51800 25.20300
C  18.02700 50.46300 27.97400
C  13.52800 52.08200 27.18200
C  14.73200 52.52600 22.52100
C  18.80100 50.04000 23.21800
N  15.84700 51.23100 27.30700
C  16.72700 50.94200 28.25900
C  16.31900 51.37900 29.70200
C  14.82300 51.63200 29.37200
C  14.71500 51.71400 27.88200
C  13.85700 50.63300 30.06900
C  17.03500 52.64600 30.24700
C  17.40700 52.70000 31.78700
H  16.55500 51.81200 32.73300
N  14.47100 52.41800 24.94700
C  13.45600 52.58400 25.90700
C  12.38100 53.46300 25.30500
C  12.71300 53.57900 23.90700
C  14.02800 52.87400 23.73600
C  11.23600 54.16500 26.07700
C  11.97600 54.28500 22.74200
O  12.29100 54.20500 21.54900
C  10.78600 55.05200 23.00400
N  16.72200 51.29700 23.14800
C  15.88000 51.80100 22.27600
C  16.37700 51.53600 20.87400
C  17.79700 50.83700 21.07300
C  17.74400 50.73700 22.59200
C  15.43800 50.60800 20.02000
C  18.86200 51.66900 20.40800
C  19.64700 50.94300 19.21600
N  18.10100 50.50000 25.52800
C  19.04200 49.93100 24.61800
C  20.13200 49.34200 25.35700
C  19.75700 49.55400 26.67100
C  18.48200 50.12700 26.69700
C  21.37500 48.70200 24.76700
C  20.23100 49.32200 28.01000
O  21.26600 48.81900 28.42900
C  19.09700 49.91000 28.90900
C  18.54400 48.87300 29.80800
O  17.64900 48.07800 29.63700
O  19.37900 48.83700 30.88700
C  19.01900 47.97200 32.03900
H  12.67800 52.34100 27.81700
H  14.12600 52.87200 21.68100
H  19.49100 49.46800 22.59500
H  16.50000 50.53200 30.36400
H  14.40700 52.55900 29.76700
H  14.38600 50.12100 30.87300
H  13.39100 49.90100 29.40900
H  13.07300 51.17500 30.59800
H  16.27100 53.42300 30.21500
H  17.93700 52.90600 29.69300
H  17.36000 53.71900 32.17000
H  18.37800 52.22100 31.91300
H  10.25300 53.88400 25.70000
H  11.34300 55.22600 25.85000
H  11.29400 53.91900 27.13800
H  11.01900 55.82100 23.74000
H  10.08600 54.41000 23.53800
H  10.30500 55.36700 22.07700
H  16.47600 52.58700 20.60500
H  17.87000 49.81000 20.71600
H  14.66700 50.15400 20.64200
H  15.93100 49.73600 19.58900
H  15.00800 51.14400 19.17400
H  19.58800 52.06700 21.11700
H  18.36200 52.52600 19.95600
H  20.69300 51.23700 19.30000
H  19.09600 51.12000 18.29200
H  19.63800 49.86800 19.39600
H  22.27200 49.02600 25.29600
H  21.52100 49.18400 23.80000
H  21.28200 47.61900 24.68500
H  19.53200 50.62400 29.60900
H  17.97500 47.69900 31.88700
H  19.00700 48.40100 33.04100
H  19.70500 47.12700 31.97400
Mg -2.76700 34.94700 26.47500
C  -3.60300 33.40000 29.50500
C  -0.88500 37.20400 28.26900
C  -2.45500 36.83300 23.67800
C  -5.20700 32.94900 24.81300
N  -2.36400 35.19300 28.68500
C  -2.87200 34.52800 29.74700
C  -2.31000 35.18200 31.09600
C  -1.37200 36.32400 30.66100
C  -1.58100 36.30200 29.11900
C  -1.55900 37.66300 31.30000
C  -1.61700 34.17000 32.10200
C  -2.26200 34.22000 33.59200
H  -1.36400 34.16800 34.80700
N  -1.64700 36.60800 25.98700
C  -0.98300 37.39300 26.89600
C  -0.39700 38.52300 26.24500
C  -0.80200 38.48700 24.80200
C  -1.69000 37.27200 24.78100
C  0.39000 39.49400 27.02100
C  -0.49500 39.34800 23.57200
O  -0.83100 39.09300 22.42300
C  0.30300 40.62500 23.77400
N  -3.64900 34.78700 24.57400
C  -3.29500 35.73700 23.53600
C  -4.18300 35.47200 22.23600
C  -4.69600 34.00300 22.54100
C  -4.57300 33.95800 24.07500
C  -5.25400 36.59400 21.99800
C  -3.89100 32.83800 21.84800
C  -4.28600 32.63700 20.39400
N  -4.12800 33.47800 26.98100
C  -4.98800 32.70100 26.19000
C  -5.53000 31.62700 26.98900
C  -5.05200 31.88700 28.28100
C  -4.16400 32.99700 28.22700
C  -6.51400 30.56600 26.55800
C  -5.05200 31.40200 29.59800
O  -5.51900 30.40500 30.09900
C  -4.35300 32.47700 30.51300
C  -5.37800 33.11700 31.47500
O  -6.07000 34.06800 31.21800
O  -5.34100 32.42900 32.65300
C  -6.10200 32.98600 33.78800
H  -0.23300 37.80200 28.90900
H  -2.39800 37.27100 22.67900
H  -5.91800 32.28300 24.32100
H  -3.16600 35.54400 31.66600
H  -0.34200 36.13900 30.96600
H  -1.63500 38.48900 30.59300
H  -0.81300 37.97100 32.03300
H  -2.42000 37.68900 31.96800
H  -0.54400 34.31200 32.23100
H  -1.73500 33.15200 31.73100
H  -3.01500 33.43200 33.59900
H  -2.73400 35.20100 33.64500
H  1.00700 40.09800 26.35400
H  1.10700 39.15600 27.77000
H  -0.31100 40.25600 27.35900
H  0.03900 41.28000 24.60500
H  0.53100 41.15300 22.84800
H  1.23500 40.16200 24.09900
H  -3.58200 35.46200 21.32600
H  -5.77200 34.04200 22.36900
H  -5.16500 37.26800 22.85000
H  -6.26600 36.18900 22.01300
H  -5.07400 37.12600 21.06400
H  -3.89300 31.90900 22.41700
H  -2.84600 33.11400 21.70800
H  -5.13200 33.27300 20.13200
H  -4.72300 31.64000 20.32900
H  -3.43900 32.81100 19.73100
H  -6.10300 29.55600 26.53400
H  -7.06800 30.78600 25.64600
H  -7.28900 30.63600 27.32200
H  -3.55700 32.01900 31.10000
H  -7.01300 33.43100 33.38800
H  -5.44600 33.79900 34.10000
H  -6.37100 32.24800 34.54400

