158

Mg 29.16100 57.90800 41.33200
C  26.40900 55.90900 40.21900
C  31.24200 55.74600 39.63300
C  31.64100 60.18000 41.35200
C  26.86700 60.28700 42.54300
N  28.82400 56.07100 40.04600
C  27.63500 55.39600 39.65000
C  27.89000 54.15300 38.88400
C  29.41800 53.96300 39.23000
C  29.85000 55.39300 39.62300
C  29.76300 52.97400 40.32800
C  27.45000 54.22400 37.39900
C  28.34700 54.60000 36.16800
H  27.61100 55.27100 34.97000
N  31.23900 57.89300 40.75200
C  31.90700 56.88200 40.14200
C  33.28400 57.23700 40.00200
C  33.44300 58.55100 40.39000
C  32.08100 58.95700 40.86900
C  34.25300 56.21200 39.38600
C  34.70300 59.33500 40.29800
O  35.67200 58.84500 39.70500
C  34.79200 60.71900 40.72100
N  29.19800 59.93500 41.89600
C  30.40200 60.56600 41.91100
C  30.16200 62.04000 42.45300
C  28.62500 62.07800 42.88400
C  28.17300 60.70500 42.35500
C  31.14500 62.64200 43.54500
C  27.89800 63.27100 42.23600
C  26.98500 64.05600 43.10700
N  27.06800 57.99300 41.63400
C  26.29600 59.06600 42.12700
C  24.88600 58.66400 42.11200
C  24.90000 57.44200 41.37000
C  26.26300 57.13800 41.00700
C  23.75400 59.53400 42.55000
C  24.03600 56.49100 40.64200
O  22.83500 56.36800 40.51400
C  25.00200 55.43200 39.94900
C  24.68700 54.08600 40.39200
O  24.55500 53.73900 41.59800
O  24.45600 53.24900 39.21500
C  23.69000 52.05700 39.42700
H  31.91000 54.93600 39.33400
H  32.41600 60.94900 41.34600
H  26.11700 60.96000 42.96400
H  27.36700 53.37600 39.44200
H  29.86300 53.63500 38.29100
H  30.64400 52.37600 40.09300
H  28.91100 52.33000 40.54800
H  29.92300 53.61900 41.19200
H  26.65000 54.96400 37.35900
H  27.01100 53.27200 37.10100
H  28.75300 53.63800 35.85600
H  29.16100 55.21700 36.54800
H  35.28500 56.40800 39.67500
H  33.96900 56.16000 38.33500
H  34.06500 55.23200 39.82500
H  34.15400 61.34400 40.09500
H  35.80300 61.08100 40.53300
H  34.48200 60.72100 41.76600
H  30.23700 62.68200 41.57600
H  28.48800 62.03000 43.96400
H  30.57400 63.19700 44.28900
H  31.70500 63.34100 42.92300
H  31.82000 61.98700 44.09500
H  27.43500 62.91000 41.31800
H  28.66700 63.97600 41.92000
H  27.03700 65.13300 42.94500
H  27.48400 63.95500 44.07100
H  25.96900 63.66100 43.11300
H  23.94600 60.57800 42.30300
H  23.43800 59.23700 43.55000
H  22.93600 59.27900 41.87500
H  24.75600 55.52000 38.89100
H  23.62300 51.82300 40.49000
H  24.34900 51.31900 38.96900
H  22.64400 52.10600 39.12400
Mg 27.31300 49.82300 25.88100
C  25.56100 51.10800 28.45000
C  29.90500 48.93600 28.16100
C  29.11200 48.50300 23.21400
C  25.05100 50.88700 23.58600
N  27.72600 49.99200 28.02800
C  26.72100 50.40800 28.91900
C  27.08000 50.03800 30.33900
C  28.62100 49.66500 30.23900
C  28.79900 49.54300 28.73200
C  29.55600 50.77400 30.75200
C  26.16900 48.88200 30.92200
C  25.53700 49.17100 32.33100
H  26.31700 49.66900 33.51500
N  29.21500 48.89000 25.72900
C  30.12200 48.58800 26.77100
C  31.27300 47.80400 26.20000
C  30.91800 47.57300 24.84300
C  29.62900 48.29100 24.56000
C  32.50200 47.36100 27.01900
C  31.68100 46.71900 23.91700
O  31.45200 46.55100 22.72900
C  32.78500 45.85200 24.34900
N  27.19500 49.89300 23.62900
C  27.98600 49.15400 22.83200
C  27.41400 49.11100 21.37400
C  26.09800 49.96800 21.55300
C  26.14000 50.33800 22.95800
C  28.36300 49.69000 20.27100
C  24.85100 49.18400 21.17100
C  24.52400 48.99700 19.67900
N  25.68800 50.89000 25.97200
C  24.79900 51.24600 24.95800
C  23.64400 51.93600 25.57600
C  23.92600 51.82200 26.98800
C  25.17300 51.20200 27.13200
C  22.56700 52.68000 24.79800
C  23.45400 52.17200 28.31200
O  22.46800 52.87200 28.62000
C  24.46000 51.60200 29.31800
C  24.92700 52.67900 30.26600
O  25.62200 53.65900 29.98400
O  24.43500 52.42700 31.53100
C  25.08700 53.09500 32.59800
H  30.66500 48.68700 28.90400
H  29.54200 47.88600 22.42300
H  24.20900 51.15200 22.94300
H  27.01100 50.91600 30.98200
H  28.84900 48.73200 30.75400
H  29.78500 50.57700 31.79900
H  28.99900 51.70100 30.62000
H  30.48200 50.79100 30.17600
H  26.78700 47.99600 31.06500
H  25.45100 48.63400 30.14000
H  25.04500 48.25700 32.66500
H  24.70100 49.87100 32.31300
H  32.46700 47.49000 28.10100
H  33.24200 48.04800 26.60800
H  32.78700 46.32400 26.84100
H  32.31300 45.05200 24.92000
H  33.51700 46.49500 24.83800
H  33.25400 45.40600 23.47200
H  27.16700 48.11000 21.01900
H  26.17700 50.81600 20.87300
H  29.34600 49.78900 20.73200
H  28.10800 50.70900 19.97900
H  28.44100 49.11300 19.34900
H  23.90900 49.50300 21.61600
H  25.00400 48.19900 21.61200
H  23.47000 49.03900 19.40500
H  24.82700 47.95200 19.62100
H  25.19900 49.53400 19.01200
H  22.54100 52.57400 23.71400
H  22.59300 53.75700 24.96000
H  21.63000 52.37500 25.26500
H  24.02100 50.81900 29.93600
H  24.87300 54.16200 32.53300
H  26.14400 52.83800 32.66500
H  24.67100 52.71900 33.53300

