158

Mg 0.23600 7.31100 26.34400
C  1.10100 9.32800 29.03900
C  -0.00200 4.52200 28.49400
C  -0.40100 5.39100 23.69000
C  0.62400 10.10900 24.26000
N  0.54100 7.05500 28.47500
C  0.84100 8.01500 29.43400
C  0.81900 7.40400 30.78800
C  0.73100 5.90200 30.56400
C  0.31700 5.81200 29.06000
C  2.06800 5.12500 30.84800
C  -0.47300 7.93400 31.56400
C  -0.48500 7.82400 33.16700
H  0.72900 7.15900 33.77000
N  -0.06700 5.20000 26.08800
C  -0.15100 4.25800 27.05600
C  -0.41500 2.94900 26.44000
C  -0.45000 3.20300 25.07800
C  -0.27400 4.62600 24.87700
C  -0.58800 1.60400 27.17600
C  -0.64800 2.19500 23.88400
O  -0.55800 2.51900 22.71100
C  -0.92800 0.73600 24.24800
N  0.29500 7.65800 24.30900
C  -0.21000 6.75800 23.46700
C  -0.40100 7.28500 22.02500
C  -0.41000 8.80300 22.31200
C  0.18100 8.89500 23.69100
C  0.87600 6.82800 21.14800
C  -1.85200 9.43800 22.20400
C  -2.00900 10.30800 20.92600
N  0.78000 9.34900 26.52600
C  0.96900 10.33400 25.60700
C  1.33500 11.55000 26.26900
C  1.48400 11.22600 27.60600
C  1.03800 9.83700 27.71200
C  1.57600 12.88400 25.59100
C  1.72900 11.72300 28.93700
O  1.92500 12.88900 29.29300
C  1.47000 10.47000 29.94600
C  2.79900 10.18400 30.60000
O  3.59700 9.35400 30.23800
O  2.78300 10.81500 31.85900
C  3.74500 10.24400 32.85200
H  0.02400 3.66300 29.16800
H  -0.50100 4.79200 22.78200
H  0.69200 10.95200 23.56900
H  1.66100 7.80000 31.35500
H  -0.01700 5.44200 31.20800
H  2.73600 5.77200 31.41600
H  2.59200 4.97000 29.90400
H  1.88900 4.15600 31.31200
H  -1.33500 7.46100 31.09400
H  -0.60800 9.00300 31.39900
H  -1.44100 7.34300 33.37400
H  -0.58300 8.89400 33.34900
H  0.12000 0.83100 26.87700
H  -1.61900 1.26600 27.07000
H  -0.40800 1.69700 28.24700
H  -1.84500 0.69600 24.83700
H  -0.10800 0.17300 24.69300
H  -1.16000 0.20800 23.32300
H  -1.30800 6.93000 21.53600
H  0.23700 9.29300 21.58500
H  1.77700 6.77900 21.75900
H  0.94000 7.49800 20.29100
H  0.69100 5.79800 20.84300
H  -2.01800 10.12700 23.03200
H  -2.66900 8.71700 22.19300
H  -1.16000 10.14900 20.26200
H  -2.01500 11.35500 21.23200
H  -2.93000 10.05600 20.40100
H  0.70400 13.49800 25.81700
H  1.55000 12.76100 24.50900
H  2.35600 13.48200 26.06200
H  0.74200 10.88400 30.64500
H  3.75400 9.15800 32.95100
H  3.56000 10.64700 33.84800
H  4.79600 10.43800 32.63500
Mg -5.36000 24.95200 26.09100
C  -3.78200 26.03800 28.94000
C  -7.27800 22.79200 28.05300
C  -6.27400 23.40400 23.32400
C  -3.01900 26.87500 24.11500
N  -5.55800 24.57300 28.21600
C  -4.92400 25.24700 29.16200
C  -5.35700 24.90900 30.52400
C  -6.24800 23.63400 30.21000
C  -6.37100 23.60500 28.77400
C  -5.71400 22.33700 30.79200
C  -6.05500 26.04800 31.19800
C  -5.89100 26.16000 32.77100
H  -5.11700 25.08200 33.55800
N  -6.73000 23.41200 25.72400
C  -7.42100 22.71200 26.61200
C  -8.31600 21.91100 25.92500
C  -8.09300 22.15600 24.51000
C  -6.94400 22.94000 24.45400
C  -9.32900 21.05200 26.56800
C  -8.86800 21.46200 23.33900
O  -8.45500 21.54600 22.19000
C  -10.06600 20.55000 23.55800
N  -4.61200 25.08600 24.00700
C  -5.21300 24.28500 23.09800
C  -4.66500 24.59900 21.63700
C  -3.61200 25.75700 21.89700
C  -3.79100 25.94900 23.44500
C  -4.13800 23.42000 20.86700
C  -3.98000 27.13100 21.20800
C  -3.32600 27.24100 19.79400
N  -3.72400 26.17200 26.39400
C  -2.91700 26.94700 25.52500
C  -2.04400 27.79900 26.39000
C  -2.39100 27.42100 27.74700
C  -3.40300 26.48300 27.65100
C  -1.08800 28.78100 25.93000
C  -2.05200 27.70500 29.05300
O  -1.11900 28.37200 29.42900
C  -3.01900 26.89400 30.02100
C  -2.19000 26.17900 30.99400
O  -1.59200 25.15200 30.74400
O  -2.00800 26.85000 32.12800
C  -1.13800 26.28800 33.14800
H  -7.91900 22.07900 28.57600
H  -6.56000 22.96600 22.36500
H  -2.33800 27.48000 23.51200
H  -4.43100 24.63700 31.03200
H  -7.16700 23.70300 30.79100
H  -4.74700 22.45800 31.28000
H  -5.47600 21.60500 30.02100
H  -6.32300 21.84400 31.55000
H  -7.12200 25.90100 31.03200
H  -5.87400 27.03300 30.76800
H  -6.94000 26.06300 33.05200
H  -5.56000 27.17700 32.98300
H  -9.63100 20.16300 26.01600
H  -10.24300 21.63400 26.68600
H  -8.95000 20.69500 27.52600
H  -10.84000 21.14000 24.04900
H  -9.69700 19.65500 24.05700
H  -10.46200 20.19000 22.60900
H  -5.55200 24.99800 21.14600
H  -2.61600 25.45700 21.57200
H  -4.83100 23.28400 20.03600
H  -4.18700 22.50900 21.46300
H  -3.10200 23.59200 20.57400
H  -3.73000 28.02200 21.78400
H  -5.06200 27.06700 21.09300
H  -4.07700 27.28000 19.00400
H  -2.61600 26.45500 19.53600
H  -2.75800 28.16900 19.84800
H  -0.87800 29.41100 26.79500
H  -1.74400 29.36400 25.28300
H  -0.18000 28.35800 25.50100
H  -3.65300 27.61800 30.53200
H  -0.07300 26.45000 32.97900
H  -1.20800 25.20100 33.19400
H  -1.48000 26.69900 34.09800

