158

Mg 25.59900 1.64200 29.02200
C  27.74100 1.24000 31.89200
C  22.98500 2.08200 31.10300
C  23.64400 1.69000 26.31700
C  28.33100 0.65400 27.05500
N  25.39900 1.39900 31.22800
C  26.37700 1.54700 32.25300
C  25.78700 1.74200 33.61700
C  24.21100 1.80000 33.35000
C  24.15400 1.81100 31.82300
C  23.32900 0.60300 33.91100
C  26.28200 3.03900 34.25200
C  26.79100 2.87700 35.67100
H  26.31800 3.83500 36.75900
N  23.54200 1.78900 28.76700
C  22.64400 1.99800 29.76500
C  21.34900 2.26200 29.19000
C  21.49900 2.15500 27.70600
C  22.92500 1.84200 27.58100
C  20.18400 2.70700 30.13900
C  20.42200 2.27300 26.62100
O  20.66300 2.15200 25.43800
C  19.03600 2.60000 27.06700
N  25.88400 1.11800 27.02100
C  24.99900 1.34400 26.06100
C  25.64900 1.37300 24.64300
C  27.04400 0.84900 24.99400
C  27.12000 0.84800 26.44100
C  24.66800 0.72400 23.58900
C  28.11000 1.79400 24.30000
C  28.63100 3.05200 25.01400
N  27.68900 1.20100 29.33800
C  28.61300 0.77100 28.40600
C  29.89500 0.60800 29.06200
C  29.61100 0.75900 30.45200
C  28.26800 1.06800 30.56800
C  31.21700 0.43400 28.53900
C  30.09800 0.65300 31.80000
O  31.12800 0.32000 32.30300
C  28.91800 1.03200 32.79400
C  28.77200 -0.10300 33.82400
O  28.13500 -1.12100 33.72300
O  29.47700 0.27500 34.95900
C  29.42400 -0.77700 36.03100
H  22.16700 2.36300 31.76900
H  23.02200 1.95600 25.45900
H  29.16300 0.22900 26.48900
H  25.92100 0.86700 34.25400
H  23.75500 2.65600 33.84800
H  23.89100 -0.11400 34.51000
H  22.85200 0.01900 33.12400
H  22.66800 0.99400 34.68600
H  25.51500 3.81100 34.19600
H  27.18200 3.36300 33.72900
H  27.86900 3.04000 35.69500
H  26.62900 1.84500 35.98000
H  19.37700 3.28300 29.68700
H  20.42800 3.40500 30.94000
H  19.77300 1.89400 30.73700
H  18.84500 1.89400 27.87500
H  18.31300 2.60800 26.25100
H  19.13200 3.65500 27.32200
H  25.59100 2.44200 24.43700
H  27.16600 -0.17100 24.63000
H  24.26300 1.44200 22.87600
H  23.87700 0.24200 24.16300
H  25.21200 -0.03000 23.02000
H  27.61300 2.23700 23.43700
H  28.89700 1.08500 24.04100
H  29.67700 2.96800 25.31100
H  28.03400 3.24800 25.90400
H  28.44300 3.92000 24.38200
H  31.31700 0.55100 27.45900
H  31.61500 -0.50800 28.91600
H  31.82600 1.23300 28.96100
H  29.26900 1.94600 33.27200
H  30.44300 -0.85300 36.41200
H  28.95700 -1.73700 35.80800
H  28.96800 -0.31600 36.90600
Mg 26.73700 49.18500 25.78400
C  24.79100 50.66800 28.33400
C  28.95600 48.23400 28.24200
C  28.91600 48.36000 23.34000
C  24.77000 50.84400 23.38500
N  26.83800 49.53600 28.02700
C  25.88100 50.03000 28.89200
C  26.18200 49.75000 30.36800
C  27.56400 48.93100 30.21800
C  27.85600 48.93800 28.70300
C  28.77500 49.38600 31.16400
C  24.98800 48.92400 31.09000
C  24.45800 49.49900 32.42000
H  24.37300 48.65300 33.68700
N  28.60100 48.37100 25.80100
C  29.32800 47.90700 26.89900
C  30.45000 47.10100 26.44200
C  30.61800 47.29400 25.03600
C  29.33700 48.01500 24.67200
C  31.38700 46.37300 27.34400
C  31.72600 46.89300 24.05700
O  31.63700 47.01100 22.86300
C  33.02400 46.40500 24.57800
N  26.72800 49.41100 23.56600
C  27.74900 48.95100 22.82400
C  27.52500 49.20700 21.32900
C  26.14600 49.98400 21.30500
C  25.74500 50.00200 22.82600
C  28.61900 50.05100 20.58000
C  25.09600 49.26700 20.42000
C  24.48600 47.99400 20.98400
N  25.06800 50.39200 25.77500
C  24.35300 51.03600 24.74600
C  23.27700 51.76000 25.27900
C  23.44400 51.60000 26.65600
C  24.56600 50.81800 26.94700
C  22.23200 52.42400 24.50000
C  22.82300 52.02000 27.93100
O  21.93100 52.85000 28.14200
C  23.70900 51.37800 29.06600
C  24.13500 52.32800 30.13500
O  24.97700 53.21600 30.03600
O  23.25600 52.24600 31.15500
C  23.61400 52.96000 32.40000
H  29.60100 47.76100 28.98500
H  29.67300 48.10400 22.59500
H  24.23600 51.39400 22.60700
H  26.30500 50.72800 30.83300
H  27.42500 47.86400 30.39400
H  29.53500 49.66100 30.43300
H  29.14300 48.51600 31.70900
H  28.38400 50.16500 31.81900
H  25.43100 47.97500 31.39200
H  24.15500 48.67200 30.43300
H  23.41700 49.74000 32.20600
H  25.03500 50.37800 32.70500
H  31.77600 45.44600 26.92100
H  30.90500 46.23000 28.31100
H  32.22500 46.99400 27.66200
H  33.44000 47.24300 25.13800
H  33.53600 46.22200 23.63400
H  32.82600 45.46000 25.08500
H  27.35500 48.31900 20.71900
H  26.26200 51.05300 21.12400
H  29.35200 50.28200 21.35300
H  28.18400 50.93600 20.11700
H  29.08100 49.52900 19.74200
H  25.63100 49.12300 19.48200
H  24.25300 49.94700 20.28700
H  24.89500 47.69600 21.95000
H  24.73900 47.13800 20.35900
H  23.40000 48.02600 21.06600
H  22.01600 53.36800 24.99900
H  21.42500 51.75200 24.20800
H  22.65300 52.68700 23.53000
H  23.09800 50.62500 29.56500
H  24.58900 52.64500 32.77000
H  22.99200 52.49800 33.16700
H  23.53100 54.04700 32.41600

