158

Mg 42.36600 41.57000 26.37200
C  41.14800 43.95200 28.79000
C  43.64900 39.78800 28.90200
C  43.65900 39.67400 24.02500
C  41.64900 43.99700 23.82000
N  42.36300 41.85600 28.60200
C  41.82200 42.84200 29.37200
C  42.07200 42.58700 30.91100
C  43.03700 41.37000 30.87100
C  42.98200 40.90000 29.40200
C  44.46000 41.71500 31.31900
C  40.66200 42.34600 31.65400
C  40.39500 43.02700 32.98200
H  41.53400 43.29700 33.94700
N  43.36300 39.83800 26.48000
C  43.85400 39.30100 27.65000
C  44.53300 38.09300 27.32000
C  44.43500 37.89700 25.89700
C  43.80300 39.17200 25.39400
C  45.15600 37.27200 28.33800
C  44.85000 36.71500 24.95400
O  44.50800 36.74300 23.78300
C  45.68600 35.57400 25.54500
N  42.64900 41.81700 24.21800
C  43.09900 40.81400 23.49500
C  43.06400 41.09100 22.00300
C  42.24700 42.42200 21.93400
C  42.25500 42.79000 23.42300
C  44.44100 41.11300 21.24200
C  40.73500 42.25800 21.44800
C  39.76500 41.62000 22.45000
N  41.47500 43.55200 26.25700
C  41.35300 44.38900 25.15600
C  40.64100 45.52000 25.64000
C  40.51800 45.48300 27.05200
C  41.12000 44.25600 27.41800
C  40.15200 46.68800 24.78800
C  40.18800 46.22900 28.28400
O  39.76200 47.34900 28.45800
C  40.51400 45.16300 29.43300
C  41.56400 45.81100 30.45200
O  42.74200 45.78000 30.18900
O  40.96900 46.45100 31.52200
C  41.80700 46.87900 32.55600
H  44.02800 39.16800 29.71800
H  44.00700 38.91900 23.31600
H  41.41700 44.70900 23.02500
H  42.52300 43.50100 31.29800
H  42.66200 40.52600 31.44900
H  44.56600 42.76400 31.59400
H  45.21600 41.38000 30.60800
H  44.62000 41.11100 32.21200
H  40.48700 41.27900 31.79000
H  39.94700 42.79000 30.96200
H  39.63100 42.44200 33.49300
H  40.04300 44.03400 32.75900
H  44.51000 36.54900 28.83600
H  45.67100 37.86900 29.09200
H  45.98100 36.68600 27.93100
H  45.38700 35.20300 26.52500
H  46.67800 36.01100 25.42800
H  45.74200 34.73800 24.84800
H  42.46600 40.30000 21.55100
H  42.71200 43.27000 21.43000
H  45.30500 40.90100 21.87200
H  44.53000 42.00400 20.62200
H  44.34200 40.35800 20.46200
H  40.75400 41.59100 20.58600
H  40.42400 43.25700 21.14000
H  40.04100 41.66200 23.50300
H  39.60900 40.57600 22.17600
H  38.78400 42.04400 22.23300
H  39.31000 46.35700 24.18000
H  40.96000 47.06900 24.16400
H  39.97900 47.52800 25.46100
H  39.60900 44.98700 30.01500
H  41.62600 46.35500 33.49500
H  41.69900 47.92200 32.85600
H  42.85300 46.65000 32.35500
Mg 30.77300 58.57000 40.65500
C  28.17700 56.63300 39.64500
C  33.00600 56.03200 39.54300
C  33.38800 60.73000 40.84900
C  28.52100 61.29100 41.12300
N  30.61900 56.61400 39.69400
C  29.42500 55.98800 39.48400
C  29.53100 54.55000 38.92300
C  31.04900 54.38300 39.10600
C  31.62300 55.77300 39.54400
C  31.52900 53.16900 40.10000
C  29.10700 54.47200 37.33000
C  28.03700 53.46600 36.84300
H  27.15500 53.94200 35.69700
N  32.93200 58.39200 40.24500
C  33.61600 57.29300 39.82300
C  35.01900 57.59500 39.72600
C  35.18000 58.96900 40.18300
C  33.80300 59.47400 40.42200
C  36.02500 56.53200 39.17300
C  36.54300 59.69600 40.36300
O  37.58100 59.26600 39.94700
C  36.60700 60.99400 40.97100
N  30.92600 60.70600 40.76900
C  32.09300 61.32900 41.07000
C  31.90400 62.84300 41.27700
C  30.39400 62.95700 41.60000
C  29.87700 61.60100 41.03100
C  32.91600 63.54700 42.18600
C  29.66100 64.16800 40.90000
C  28.51100 64.70900 41.64400
N  28.71800 58.88100 40.66100
C  27.92300 60.02400 40.85100
C  26.51700 59.63100 40.69500
C  26.60000 58.26900 40.21900
C  27.96200 57.93700 40.18600
C  25.25800 60.50900 40.83100
C  25.75900 57.18300 39.75800
O  24.54100 57.07400 39.59900
C  26.73900 56.01100 39.44500
C  26.34700 54.88800 40.35300
O  26.88700 54.57200 41.42300
O  25.19600 54.33700 39.86300
C  24.61800 53.33900 40.77500
H  33.64700 55.18600 39.28600
H  34.16800 61.48000 40.99600
H  27.74900 62.03400 41.33500
H  28.90400 53.90100 39.53600
H  31.53300 54.15100 38.15700
H  30.67800 52.97400 40.75200
H  32.43900 53.46800 40.62100
H  31.73000 52.29800 39.47700
H  30.06200 54.28100 36.84100
H  28.73400 55.37600 36.84800
H  27.45300 53.23800 37.73500
H  28.44400 52.50300 36.53500
H  36.66800 56.88200 38.36500
H  35.57000 55.60300 38.82700
H  36.73600 56.18200 39.92200
H  36.03700 60.86800 41.89200
H  36.16600 61.74000 40.31000
H  37.58300 61.34500 41.30600
H  31.99800 63.25000 40.27100
H  30.25100 62.89600 42.67900
H  33.48000 64.34500 41.70300
H  33.53700 62.86600 42.76700
H  32.36200 64.07100 42.96400
H  29.31500 63.76500 39.94900
H  30.27900 65.01500 40.60200
H  28.94200 65.60000 42.10000
H  28.29700 64.06900 42.50000
H  27.62200 64.96500 41.06800
H  24.98800 60.91900 39.85800
H  25.50300 61.36100 41.46500
H  24.39300 60.02000 41.28000
H  26.38900 55.77400 38.44100
H  25.32900 52.67300 41.26400
H  23.90900 52.71400 40.23300
H  24.15600 53.85500 41.61700

