158

Mg 9.00800 3.02100 27.51000
C  10.19600 1.27600 30.26100
C  7.17700 5.03800 29.54900
C  7.55400 4.48500 24.76300
C  10.13100 0.45400 25.45900
N  8.74200 3.08100 29.66900
C  9.40500 2.35800 30.64200
C  9.04700 2.82700 32.07900
C  7.92300 3.85900 31.77200
C  7.93300 4.02400 30.21200
C  6.41500 3.61100 32.31000
C  10.34200 3.24400 32.81100
C  10.19800 4.25000 34.00200
H  11.08900 4.15500 35.22100
N  7.59900 4.64500 27.22500
C  6.90000 5.36600 28.20900
C  6.09100 6.44600 27.62300
C  6.22100 6.25200 26.19900
C  7.19400 5.09700 25.97100
C  5.35400 7.57100 28.35600
C  5.56400 7.05700 25.08000
O  5.66900 6.73500 23.86200
C  4.71400 8.23700 25.43000
N  8.78000 2.53400 25.43200
C  8.21200 3.27600 24.53200
C  8.36000 2.65800 23.12800
C  9.19400 1.41100 23.44300
C  9.36400 1.45000 24.86100
C  7.01500 2.24000 22.44100
C  10.55400 1.29700 22.70500
C  10.94800 -0.09400 22.14000
N  10.03300 1.30000 27.75800
C  10.37600 0.34200 26.85300
C  11.02200 -0.71400 27.47800
C  11.09900 -0.31700 28.80500
C  10.37900 0.86200 28.94500
C  11.68500 -1.89800 26.80800
C  11.59900 -0.69500 30.08200
O  12.39100 -1.59100 30.42900
C  11.02500 0.34900 31.10700
C  10.15200 -0.17800 32.11700
O  8.97300 -0.54200 31.89900
O  10.75600 -0.09900 33.33200
C  9.87700 -0.29000 34.45600
H  6.63800 5.61600 30.30300
H  7.24500 4.92700 23.81300
H  10.47200 -0.37100 24.83000
H  8.53800 2.06700 32.67300
H  8.24000 4.84600 32.11000
H  5.74100 3.49900 31.46100
H  5.96400 4.47200 32.80400
H  6.38300 2.60200 32.72100
H  11.13900 3.62600 32.17200
H  10.75900 2.38200 33.33100
H  9.17600 4.21400 34.37800
H  10.31900 5.21200 33.50300
H  5.78000 8.51900 28.02900
H  5.39200 7.34700 29.42200
H  4.31700 7.64800 28.02800
H  3.86600 7.77200 25.93400
H  4.37600 8.78000 24.54800
H  5.28300 9.02400 25.92400
H  8.99800 3.33800 22.56300
H  8.59100 0.50400 23.39400
H  6.12600 2.39700 23.05100
H  6.95700 1.18800 22.16300
H  6.77100 2.73200 21.49900
H  11.37800 1.49400 23.39000
H  10.62000 1.93700 21.82500
H  11.80600 -0.40400 22.73600
H  11.33100 -0.16900 21.12200
H  10.09700 -0.77600 22.14600
H  11.17300 -2.18600 25.89000
H  11.60100 -2.68700 27.55600
H  12.67000 -1.54700 26.50100
H  11.76600 0.85800 31.72300
H  8.96800 -0.88600 34.37600
H  9.56000 0.72500 34.69700
H  10.46500 -0.58000 35.32700
Mg -10.26900 39.96100 42.12600
C  -9.95800 36.61000 41.15300
C  -7.48100 40.62000 40.49400
C  -11.11700 43.23400 42.36500
C  -13.41800 39.24400 43.52000
N  -8.89600 38.76900 40.98200
C  -8.95600 37.43900 40.73600
C  -7.80300 36.93200 39.84800
C  -6.91600 38.21600 39.72400
C  -7.72900 39.26200 40.51400
C  -5.45000 38.10500 40.19300
C  -8.19300 36.28000 38.41600
C  -7.20000 35.19700 37.90800
H  -6.18900 35.57600 36.82700
N  -9.40800 41.67300 41.58700
C  -8.16200 41.71300 40.97100
C  -7.75500 43.14300 40.85500
C  -8.81400 43.91400 41.38000
C  -9.88300 42.98900 41.82400
C  -6.48200 43.60200 40.13000
C  -8.78400 45.40600 41.36500
O  -7.75700 46.04500 41.04300
C  -10.08300 46.24900 41.51900
N  -12.10100 41.08100 42.64900
C  -12.23100 42.38200 42.75600
C  -13.53700 42.88400 43.43300
C  -14.24900 41.57900 43.86800
C  -13.16300 40.59300 43.31200
C  -13.34200 44.11100 44.39900
C  -15.65300 41.20500 43.37600
C  -16.67900 40.82500 44.48000
N  -11.47700 38.25900 42.30700
C  -12.70000 38.12400 42.98200
C  -13.07500 36.67500 42.87700
C  -11.96900 36.03000 42.26300
C  -11.11800 37.04000 41.86000
C  -14.23900 36.04700 43.50500
C  -11.31800 34.71800 41.90000
O  -11.74800 33.58800 42.14700
C  -10.05900 35.10200 41.09700
C  -8.83400 34.48200 41.62100
O  -8.40000 34.54300 42.71500
O  -8.36200 33.62800 40.68000
C  -7.23800 32.70600 40.85000
H  -6.57100 40.80200 39.91700
H  -11.40800 44.28400 42.43800
H  -14.29700 38.99200 44.11800
H  -7.29500 36.17100 40.44100
H  -7.09500 38.54700 38.70000
H  -5.01000 37.14000 39.94200
H  -5.30800 38.15700 41.27200
H  -4.73300 38.78300 39.73100
H  -7.99400 36.98200 37.60600
H  -9.27200 36.14200 38.35700
H  -7.79200 34.37800 37.50000
H  -6.67300 34.79700 38.77500
H  -6.47100 44.23800 39.24500
H  -5.79300 42.76900 39.99700
H  -6.03300 44.25100 40.88200
H  -10.24000 46.24300 42.59800
H  -10.95400 45.88500 40.97400
H  -9.91600 47.29800 41.27200
H  -14.10900 43.28000 42.59500
H  -14.17300 41.71200 44.94700
H  -13.80400 43.82900 45.34500
H  -13.92600 44.92800 43.97500
H  -12.29200 44.37900 44.51700
H  -15.71500 40.49400 42.55100
H  -16.00700 42.14900 42.96300
H  -17.39500 41.63800 44.59600
H  -16.24800 40.68500 45.47100
H  -17.21400 39.91400 44.21200
H  -15.10100 36.23800 42.86600
H  -14.46000 36.53700 44.45400
H  -14.11600 34.96800 43.59400
H  -10.27900 34.65800 40.12600
H  -7.47700 31.76300 41.34100
H  -6.49200 33.18100 41.48800
H  -6.79600 32.51400 39.87200

