158

Mg 1.43500 -1.55400 44.17400
C  4.87700 -0.97600 43.51000
C  0.68500 1.23900 42.41100
C  -1.72300 -2.56800 44.40000
C  2.40400 -4.68400 45.70400
N  2.61500 -0.10100 43.05900
C  3.96300 -0.07000 42.86100
C  4.39000 1.15600 42.03600
C  3.06200 1.91900 41.85200
C  2.04600 0.98200 42.43800
C  3.13000 3.24700 42.60200
C  5.00500 0.63200 40.73900
C  6.46000 1.10000 40.55200
H  6.63700 2.22800 39.53400
N  -0.30300 -0.75400 43.53500
C  -0.40800 0.46200 42.89400
C  -1.81200 0.79300 42.69800
C  -2.61000 -0.28300 43.37500
C  -1.54100 -1.24100 43.79300
C  -2.21600 2.09300 42.08300
C  -4.10200 -0.24900 43.42600
O  -4.69000 0.67000 42.86200
C  -5.06600 -1.34000 44.02900
N  0.45900 -3.47200 44.91200
C  -0.85200 -3.58700 44.83100
C  -1.35300 -4.95300 45.38400
C  -0.03900 -5.60300 45.89400
C  1.02100 -4.53200 45.43500
C  -2.40700 -4.81800 46.48100
C  0.28700 -7.03800 45.37000
C  0.25200 -8.25600 46.25800
N  3.24300 -2.62800 44.60800
C  3.45200 -3.82800 45.22000
C  4.90000 -4.08500 45.26100
C  5.48800 -2.94700 44.69900
C  4.47700 -2.11500 44.20900
C  5.59800 -5.24900 45.98400
C  6.86400 -2.34900 44.43500
O  7.97600 -2.63300 44.70400
C  6.42000 -1.03400 43.56800
C  6.94300 0.09500 44.36800
O  6.49200 0.52700 45.37600
O  7.99500 0.73800 43.71200
C  8.59300 1.95900 44.30000
H  0.33000 2.13100 41.89100
H  -2.78600 -2.79700 44.49100
H  2.81200 -5.59700 46.14100
H  5.14200 1.72700 42.58100
H  2.77700 2.18400 40.83400
H  4.12600 3.58200 42.89100
H  2.54700 3.19100 43.52100
H  2.59500 3.93800 41.95100
H  4.30600 0.80200 39.92000
H  4.98900 -0.45500 40.66200
H  7.13600 0.30400 40.23900
H  6.99500 1.47800 41.42300
H  -3.19800 1.92400 41.64200
H  -1.58200 2.41500 41.25700
H  -2.37400 2.87400 42.82600
H  -4.64600 -1.85000 44.89600
H  -5.30900 -2.10300 43.28900
H  -5.86900 -0.71700 44.42100
H  -1.69100 -5.64100 44.61000
H  -0.10800 -5.63200 46.98200
H  -2.81500 -3.81200 46.56600
H  -2.04600 -5.06500 47.47900
H  -3.24800 -5.50400 46.38000
H  1.17400 -7.08800 44.73900
H  -0.51500 -7.18900 44.64800
H  -0.39800 -8.95100 45.72600
H  -0.16800 -7.98400 47.22700
H  1.27300 -8.63500 46.29700
H  6.59600 -5.24300 45.54600
H  5.10900 -6.19300 45.74100
H  5.63300 -5.18200 47.07100
H  6.86700 -1.04800 42.57400
H  8.86200 1.88200 45.35400
H  7.92300 2.80500 44.14400
H  9.50900 2.06800 43.72000
Mg 30.55100 58.69600 41.03200
C  27.78800 56.89700 39.93600
C  32.55600 56.28800 39.65300
C  33.08500 60.99600 41.01800
C  28.31300 61.40500 41.77700
N  30.12000 56.88400 39.81100
C  28.96600 56.23500 39.65300
C  29.11200 54.76500 39.27700
C  30.64600 54.58400 39.34500
C  31.16700 55.98200 39.67400
C  31.17400 53.39700 40.17900
C  28.40300 54.26700 38.03300
C  28.20200 55.22000 36.80900
H  28.36100 54.82800 35.37800
N  32.53300 58.61900 40.55400
C  33.15300 57.56000 39.92700
C  34.57800 57.88400 39.83100
C  34.78100 59.20800 40.15200
C  33.46400 59.66500 40.59600
C  35.64000 56.94800 39.27800
C  36.13000 59.92400 40.08900
O  37.07600 59.38900 39.49600
C  36.40400 61.29700 40.65200
N  30.61000 60.81000 41.59400
C  31.81700 61.49200 41.52800
C  31.71600 62.98000 41.88000
C  30.18500 63.10400 42.21200
C  29.65700 61.74400 41.81500
C  32.65600 63.39900 43.03300
C  29.35700 64.29000 41.68100
C  29.08600 65.49200 42.69300
N  28.43000 59.06500 41.08200
C  27.64800 60.18500 41.37200
C  26.26800 59.91600 41.15100
C  26.32400 58.61300 40.59400
C  27.62300 58.16900 40.48000
C  25.18600 60.90800 41.35800
C  25.43500 57.54900 40.07600
O  24.23200 57.56700 39.92900
C  26.39200 56.36700 39.76300
C  26.10000 55.32100 40.78100
O  26.58800 55.16800 41.87600
O  25.14800 54.43700 40.26300
C  24.70500 53.22900 41.05300
H  33.24600 55.53600 39.26400
H  33.74900 61.85300 40.89000
H  27.59100 62.21400 41.90600
H  28.68100 54.33100 40.17900
H  31.07300 54.44700 38.35200
H  31.92200 53.72900 40.89800
H  31.55000 52.69100 39.43800
H  30.44700 52.89100 40.81400
H  27.43700 53.88700 38.36500
H  29.00700 53.48100 37.58000
H  28.92800 56.02200 36.94200
H  27.18000 55.57900 36.92600
H  35.68000 57.22400 38.22500
H  35.33700 55.90600 39.38800
H  36.57600 57.08800 39.81800
H  35.92900 61.54600 41.60200
H  36.14200 62.01600 39.87500
H  37.47900 61.36700 40.81400
H  31.80000 63.54000 40.94900
H  30.15700 63.07300 43.30200
H  33.16300 62.52200 43.43600
H  32.19000 63.90200 43.88000
H  33.32700 64.17300 42.66200
H  28.47400 63.91300 41.16500
H  29.93000 64.61200 40.81100
H  29.32000 65.24700 43.72900
H  28.00600 65.63800 42.66200
H  29.56600 66.40300 42.33600
H  25.40500 61.47400 42.26300
H  24.30600 60.29300 41.54800
H  25.04600 61.45500 40.42600
H  26.09600 56.08700 38.75100
H  24.26900 53.60500 41.97900
H  25.51900 52.57500 41.36600
H  24.00200 52.68100 40.42600

