158

Mg 43.13400 42.21600 26.23100
C  42.11500 44.43300 28.64500
C  44.24300 40.05000 28.55600
C  44.19100 40.20700 23.72000
C  42.04200 44.44500 23.83000
N  43.26200 42.24800 28.30900
C  42.65500 43.22800 29.15000
C  42.64500 42.75800 30.61700
C  43.46400 41.43100 30.60300
C  43.65200 41.20700 29.02000
C  44.86300 41.42900 31.35900
C  41.13800 42.54300 31.09900
C  41.02200 41.78000 32.42300
H  40.22400 42.55200 33.45600
N  44.18900 40.46600 26.14600
C  44.52000 39.69100 27.24900
C  44.99400 38.35700 26.80400
C  44.87900 38.33600 25.36800
C  44.52100 39.70500 24.98700
C  45.62300 37.31800 27.67900
C  45.20000 37.23000 24.30600
O  45.29800 37.43600 23.10300
C  45.11800 35.84400 24.81300
N  43.16100 42.35900 24.09900
C  43.63600 41.38000 23.28700
C  43.53800 41.69900 21.72800
C  42.64800 42.93400 21.79100
C  42.59300 43.29600 23.34500
C  44.96500 41.96700 21.25200
C  41.24800 42.71500 21.21600
C  40.52100 41.55100 21.88300
N  42.25400 44.14200 26.18500
C  41.91700 44.98200 25.14400
C  41.47300 46.23700 25.66800
C  41.42500 46.04800 27.06100
C  41.90300 44.74100 27.34500
C  41.01300 47.48600 24.83700
C  41.04600 46.57000 28.28600
O  40.69000 47.72900 28.51100
C  41.48900 45.50800 29.43700
C  42.55100 46.09100 30.29300
O  43.63900 46.44800 29.90600
O  42.07200 46.20400 31.62400
C  42.78900 47.08900 32.55300
H  44.48500 39.28000 29.29100
H  44.44900 39.53600 22.89800
H  41.61700 45.07100 23.04300
H  43.10500 43.55700 31.19800
H  42.91800 40.59900 31.04700
H  45.02900 42.41400 31.79500
H  45.66700 41.27000 30.64000
H  44.87600 40.58500 32.04900
H  40.63800 41.97400 30.31400
H  40.58200 43.46700 31.25600
H  42.02300 41.55900 32.79500
H  40.59800 40.80100 32.20200
H  45.94200 37.79400 28.60600
H  46.49400 36.88000 27.19100
H  44.83800 36.58700 27.87200
H  44.45700 35.68800 25.66500
H  46.14500 35.57300 25.06000
H  44.73000 35.24100 23.99200
H  42.97900 40.94100 21.17800
H  43.07700 43.83600 21.35400
H  45.10300 41.65000 20.21900
H  45.69700 41.34300 21.76500
H  45.15400 43.03100 21.39100
H  41.31300 42.46100 20.15800
H  40.72900 43.66900 21.31600
H  40.24300 40.84300 21.10200
H  39.63100 41.87400 22.42300
H  41.22700 40.96300 22.46900
H  41.90200 48.03700 24.53000
H  40.40300 48.15200 25.44700
H  40.41100 47.09700 24.01600
H  40.61000 45.19200 29.99800
H  42.63000 46.79600 33.59100
H  42.41900 48.08900 32.32700
H  43.84700 47.08100 32.29000
Mg 10.12400 48.12100 26.07100
C  8.21600 48.16100 29.01900
C  12.57500 49.59400 27.63300
C  11.74900 48.32400 23.10100
C  7.27900 47.10300 24.30800
N  10.29000 48.84400 28.06600
C  9.53000 48.61900 29.15700
C  10.17200 49.08700 30.43100
C  11.32800 49.97500 29.82100
C  11.42600 49.46200 28.43500
C  11.06700 51.52200 29.82200
C  10.76000 47.92800 31.37900
C  10.85400 48.24300 32.90000
H  10.32200 47.25400 33.90500
N  11.97300 48.83900 25.44500
C  12.86500 49.42400 26.25300
C  14.14900 49.66800 25.59900
C  13.88900 49.20800 24.23000
C  12.48800 48.81200 24.17300
C  15.35800 50.10700 26.23500
C  14.90400 49.13400 23.08000
O  14.59600 48.58700 22.04000
C  16.29100 49.59800 23.24000
N  9.57700 47.86100 23.92800
C  10.46000 47.87700 22.91800
C  9.86400 47.28100 21.57700
C  8.43100 46.88400 22.07800
C  8.43700 47.26700 23.52100
C  9.96200 48.12000 20.27300
C  8.36900 45.34000 21.88300
C  9.18000 44.41600 22.80200
N  8.19300 47.73200 26.47300
C  7.13200 47.28000 25.69600
C  5.92600 47.10300 26.50200
C  6.34500 47.40300 27.80900
C  7.65900 47.73300 27.79700
C  4.56900 46.87300 26.07500
C  5.92700 47.37600 29.14000
O  4.83000 47.09400 29.68300
C  7.12800 47.73500 30.03600
C  7.39700 46.48900 30.88900
O  8.41900 45.79400 30.77800
O  6.45800 46.30200 31.82400
C  6.65900 45.12900 32.73800
H  13.32100 50.07600 28.26900
H  12.19200 48.44600 22.11100
H  6.39500 46.81900 23.73300
H  9.50100 49.59300 31.12500
H  12.21000 49.67700 30.38800
H  11.06900 51.85700 28.78500
H  11.86700 52.08300 30.30600
H  10.13500 51.91300 30.23200
H  11.81200 47.83800 31.10600
H  10.31700 46.96300 31.13200
H  10.38700 49.22500 32.96400
H  11.89000 48.38800 33.20800
H  15.18500 49.98300 27.30400
H  15.55000 51.16400 26.05400
H  16.19000 49.49100 25.89300
H  16.94800 49.61100 22.37100
H  16.68500 48.77800 23.84000
H  16.24100 50.61000 23.64200
H  10.44200 46.37700 21.38700
H  7.68000 47.42200 21.49900
H  8.97600 48.34700 19.86800
H  10.54300 47.51700 19.57500
H  10.43800 49.08600 20.44100
H  8.75800 45.18600 20.87600
H  7.33800 45.01800 22.03200
H  8.42600 43.76200 23.24000
H  9.83800 44.77300 23.59500
H  9.80700 43.76900 22.18800
H  4.03200 47.80900 25.91900
H  3.99800 46.19800 26.71200
H  4.65700 46.30600 25.14800
H  7.05900 48.61200 30.67900
H  5.92400 44.36900 32.47000
H  6.34400 45.49100 33.71600
H  7.68400 44.76000 32.72200

