158

Mg 47.18000 34.62400 27.39600
C  45.68000 33.36000 30.47900
C  48.12200 37.47300 29.35400
C  48.58700 35.83100 24.66300
C  45.89700 31.99200 25.77500
N  47.14400 35.17300 29.78900
C  46.36200 34.59500 30.77100
C  46.51600 35.33900 32.08300
C  47.03500 36.74500 31.62800
C  47.49700 36.48000 30.16200
C  46.14100 38.02000 31.87500
C  47.52300 34.62400 33.08700
C  47.17700 34.73700 34.61800
H  46.77600 36.09200 35.11000
N  48.16200 36.42200 27.01100
C  48.47100 37.43800 27.91800
C  49.23100 38.41000 27.23600
C  49.45600 37.94300 25.91300
C  48.72800 36.66200 25.84200
C  49.77900 39.73800 27.87900
C  50.20300 38.51900 24.77600
O  50.34500 38.00900 23.66500
C  50.84200 39.92800 24.88000
N  47.09900 34.02500 25.41400
C  47.81500 34.66800 24.40600
C  47.85900 33.84500 23.13500
C  46.96300 32.59600 23.47800
C  46.63000 32.83100 24.99400
C  47.49700 34.73100 21.93400
C  47.68800 31.28700 23.39300
C  46.87300 30.06700 22.89300
N  46.12000 32.96600 27.91200
C  45.69600 31.96300 27.15300
C  44.95300 30.95000 27.91000
C  44.86900 31.48900 29.16800
C  45.65000 32.68000 29.18700
C  44.37600 29.65800 27.32000
C  44.42000 31.26800 30.54700
O  43.80800 30.35500 31.02800
C  44.60500 32.63100 31.30200
C  44.87600 32.37100 32.69400
O  45.79800 31.80100 33.14300
O  43.77100 32.90800 33.40700
C  43.55900 32.27500 34.71600
H  48.37800 38.39200 29.88500
H  49.24000 36.02500 23.80900
H  45.40700 31.20300 25.20100
H  45.54100 35.41800 32.56400
H  47.97900 37.04100 32.08600
H  45.61700 38.29500 30.95900
H  46.66700 38.91700 32.19900
H  45.46500 37.77800 32.69500
H  48.58300 34.83300 32.94500
H  47.51900 33.58400 32.76100
H  48.06000 34.54400 35.22800
H  46.28600 34.14600 34.82700
H  49.43100 39.70100 28.91100
H  49.38300 40.63300 27.40000
H  50.85700 39.81100 28.02200
H  51.64000 39.83200 25.61600
H  50.15200 40.73700 25.12100
H  51.19800 40.21200 23.89000
H  48.87700 33.52200 22.91800
H  46.05700 32.63000 22.87300
H  48.41100 34.97800 21.39500
H  47.04300 35.68400 22.20400
H  46.85500 34.19900 21.23100
H  47.99800 30.96800 24.38800
H  48.54600 31.45800 22.74300
H  47.48900 29.39300 22.29800
H  45.95000 30.32300 22.37400
H  46.53500 29.36600 23.65700
H  44.17000 29.07400 28.21700
H  45.12900 29.10500 26.75900
H  43.50700 29.77800 26.67300
H  43.68200 33.20600 31.23500
H  43.89000 31.23800 34.65700
H  42.49300 32.25000 34.94200
H  44.01600 32.85600 35.51700
Mg -4.32800 24.82100 25.99300
C  -2.93800 26.69300 28.52400
C  -5.60600 22.56400 28.30400
C  -5.27900 22.84900 23.53300
C  -2.87800 27.02500 23.68800
N  -4.21200 24.62200 28.06600
C  -3.67900 25.58400 28.94500
C  -4.17100 25.32500 30.38500
C  -4.70200 23.81900 30.27800
C  -4.88500 23.66500 28.77500
C  -3.69600 22.80400 30.94300
C  -5.25600 26.39500 30.83100
C  -5.04600 26.92500 32.24900
H  -4.38600 25.97000 33.30100
N  -5.32800 22.97900 25.96500
C  -5.80000 22.18800 26.99800
C  -6.38900 20.98700 26.45300
C  -6.47100 21.17400 25.03900
C  -5.68100 22.36100 24.76800
C  -6.90500 19.83400 27.35000
C  -7.16500 20.27900 24.01600
O  -7.16800 20.48900 22.79700
C  -7.97000 19.08300 24.57600
N  -4.14300 24.92300 23.99700
C  -4.64400 23.99800 23.18700
C  -4.68600 24.47500 21.72600
C  -4.00400 25.83800 21.77600
C  -3.60100 25.97400 23.20800
C  -4.10400 23.46100 20.70600
C  -4.89600 27.05500 21.26600
C  -4.29000 27.89000 20.14100
N  -3.21700 26.60500 26.05200
C  -2.63400 27.32100 25.03200
C  -1.81700 28.37200 25.55900
C  -1.90200 28.19700 26.98600
C  -2.74000 27.07000 27.19500
C  -1.00100 29.47700 24.88100
C  -1.47500 28.69700 28.28400
O  -0.73600 29.61500 28.56900
C  -2.18800 27.71200 29.28700
C  -1.04400 27.16300 30.17600
O  -0.20800 26.29400 29.93800
O  -1.03900 27.88500 31.26000
C  -0.10000 27.55400 32.31200
H  -5.89500 21.88200 29.10700
H  -5.56500 22.21400 22.69200
H  -2.47600 27.78200 23.01000
H  -3.34600 25.47400 31.08100
H  -5.69800 23.91200 30.71100
H  -4.28800 22.36100 31.74500
H  -2.93300 23.44600 31.38300
H  -3.16300 22.05400 30.35900
H  -6.27700 26.02800 30.93500
H  -5.23000 27.20000 30.09700
H  -6.01500 26.98000 32.74600
H  -4.44100 27.83100 32.25800
H  -7.98300 19.72300 27.22800
H  -6.73900 19.90200 28.42500
H  -6.40300 18.95200 26.95200
H  -7.20200 18.41000 24.95700
H  -8.45600 18.70200 23.67800
H  -8.78000 19.38900 25.23900
H  -5.76600 24.55900 21.60400
H  -3.09800 25.86900 21.17100
H  -3.92400 22.47700 21.13800
H  -3.16700 23.75000 20.22900
H  -4.89700 23.08800 20.05900
H  -5.28300 27.73800 22.02200
H  -5.75000 26.60100 20.76300
H  -3.37900 27.53100 19.66200
H  -3.95600 28.85700 20.51500
H  -5.04500 28.01400 19.36500
H  -0.08100 29.04700 24.48400
H  -0.82100 30.23000 25.64800
H  -1.58200 29.88200 24.05300
H  -2.90400 28.22600 29.92900
H  0.86000 28.03000 32.10700
H  0.12800 26.48900 32.26500
H  -0.39900 27.58400 33.35900

