158

Mg 1.03900 8.23500 26.77300
C  1.84600 10.26800 29.48300
C  0.81400 5.54500 29.05900
C  0.69600 6.12200 24.06200
C  1.77600 10.86200 24.71100
N  1.47000 7.84700 28.91100
C  1.62300 8.90200 29.79200
C  1.38400 8.39800 31.31600
C  1.60100 6.86500 31.18100
C  1.28700 6.68600 29.63100
C  2.98300 6.34900 31.75700
C  0.01600 8.78300 31.80300
C  -0.23400 8.86300 33.31600
H  0.80400 8.42300 34.38300
N  0.75600 6.13000 26.64900
C  0.69400 5.18200 27.71100
C  0.40400 3.85300 27.15300
C  0.27600 3.99100 25.70600
C  0.66600 5.46700 25.38900
C  0.40600 2.55800 27.91700
C  0.00600 2.89800 24.62100
O  0.02700 3.24700 23.48700
C  -0.41000 1.48000 24.94100
N  1.29700 8.41900 24.71000
C  0.96900 7.43900 23.82300
C  1.05200 8.03100 22.38700
C  1.03200 9.56600 22.60800
C  1.45700 9.61100 24.13400
C  2.28100 7.56100 21.56100
C  -0.41500 10.19800 22.53600
C  -0.81600 10.86200 21.16300
N  1.59700 10.20400 26.99200
C  1.86600 11.16100 26.08200
C  2.20400 12.37500 26.72300
C  2.18700 12.07400 28.04900
C  1.84400 10.76000 28.16000
C  2.67300 13.66600 26.10700
C  2.40600 12.63700 29.42300
O  2.82700 13.75300 29.74200
C  2.09600 11.40700 30.46200
C  3.23100 11.15300 31.28300
O  4.22400 10.47800 30.98800
O  2.98900 11.76700 32.47600
C  3.95100 11.48600 33.51700
H  0.70500 4.69500 29.73600
H  0.36500 5.52500 23.20900
H  1.83100 11.73400 24.05700
H  2.18500 8.73600 31.97300
H  0.86500 6.37200 31.81600
H  2.79200 5.56600 32.49000
H  3.62000 7.14400 32.14400
H  3.52700 5.82300 30.97200
H  -0.73100 8.05900 31.47700
H  -0.27300 9.71800 31.32200
H  -1.09700 8.28100 33.64100
H  -0.48200 9.91200 33.48100
H  0.69100 2.70800 28.95800
H  1.18100 1.98200 27.41200
H  -0.50500 1.96400 27.84200
H  -0.68100 0.89500 24.06200
H  -1.27300 1.49200 25.60700
H  0.45500 1.10000 25.48400
H  0.14600 7.88000 21.79900
H  1.73100 10.12100 21.98200
H  2.48400 8.31800 20.80300
H  1.97300 6.56700 21.23700
H  3.08600 7.37200 22.27100
H  -0.60500 11.03000 23.21500
H  -1.15900 9.44500 22.79400
H  -1.76100 10.51300 20.74700
H  -0.01900 10.96500 20.42700
H  -0.96900 11.87200 21.54300
H  2.76300 14.45300 26.85600
H  1.90100 13.95500 25.39300
H  3.59900 13.48400 25.56200
H  1.19600 11.58300 31.05200
H  3.76300 10.46400 33.84500
H  4.03200 12.18400 34.35000
H  4.95500 11.67400 33.13600
Mg 24.35100 -4.62500 45.98000
C  26.39800 -2.16200 44.74400
C  21.85600 -3.68700 43.76300
C  22.58400 -7.35000 46.90100
C  26.98200 -5.70000 48.10400
N  24.04700 -2.90700 44.59500
C  25.07300 -2.04700 44.23000
C  24.61000 -1.18500 42.95700
C  23.06200 -1.43300 42.98700
C  22.95200 -2.80500 43.76600
C  22.22400 -0.30500 43.65200
C  25.33300 -1.88900 41.69000
C  25.73800 -0.96800 40.59300
H  25.15300 -1.13100 39.20000
N  22.50400 -5.38800 45.42000
C  21.63100 -4.84700 44.51000
C  20.41300 -5.65400 44.42400
C  20.55000 -6.68100 45.39500
C  21.89900 -6.54400 45.94500
C  19.24400 -5.32700 43.32200
C  19.53900 -7.75700 45.66400
O  18.43500 -7.62100 45.19000
C  19.80300 -9.06200 46.37600
N  24.84000 -6.38600 47.25600
C  23.84800 -7.34900 47.50900
C  24.39300 -8.51900 48.43600
C  25.63600 -7.81200 48.98300
C  25.87200 -6.62800 47.98400
C  23.43300 -8.94100 49.52000
C  26.95600 -8.71700 49.13800
C  27.65500 -8.68600 50.44900
N  26.37600 -4.14400 46.30700
C  27.28400 -4.62000 47.20900
C  28.49400 -3.83000 47.15500
C  28.22700 -2.85800 46.11500
C  26.87500 -3.04500 45.69200
C  29.71900 -3.96500 47.99300
C  28.77100 -1.78100 45.30400
O  29.83700 -1.17100 45.24100
C  27.53800 -1.28700 44.42500
C  27.24400 0.12400 44.71000
O  26.62300 0.72900 45.59100
O  27.68300 0.83300 43.65300
C  27.48400 2.28300 43.54900
H  21.04400 -3.41200 43.08600
H  22.06200 -8.26300 47.19400
H  27.73000 -5.90800 48.87300
H  24.87900 -0.13000 43.01000
H  22.68800 -1.39700 41.96400
H  21.78500 0.36300 42.91100
H  22.93700 0.28100 44.23200
H  21.43000 -0.72000 44.27200
H  24.62800 -2.60100 41.26200
H  26.16900 -2.51200 42.00700
H  26.82500 -1.04200 40.61500
H  25.59800 0.08100 40.85600
H  19.72500 -4.80600 42.49400
H  18.43100 -4.74800 43.76000
H  18.92900 -6.31700 42.99300
H  18.91100 -9.68700 46.41300
H  19.98100 -8.94400 47.44500
H  20.57900 -9.55600 45.79100
H  24.75500 -9.26300 47.72600
H  25.32100 -7.42400 49.95100
H  22.55300 -8.31000 49.64400
H  23.82000 -8.97100 50.53900
H  22.99200 -9.89000 49.21400
H  27.66800 -8.44000 48.36000
H  26.73000 -9.77200 48.98100
H  27.40500 -7.80400 51.04000
H  28.72600 -8.66100 50.25300
H  27.50500 -9.59900 51.02500
H  29.43200 -4.36300 48.96700
H  30.08500 -2.96100 48.20800
H  30.57400 -4.44000 47.51300
H  27.89300 -1.32400 43.39500
H  26.92700 2.48300 42.63300
H  28.41700 2.84500 43.50300
H  26.86700 2.75900 44.31000

