158

Mg 54.51500 23.55900 45.15800
C  52.01500 25.94200 44.53400
C  52.41100 21.14200 43.87000
C  57.20500 21.63100 44.62300
C  56.67200 26.14800 46.21800
N  52.51700 23.61300 44.38600
C  51.66400 24.65100 44.14300
C  50.40900 24.16400 43.45000
C  50.39200 22.60700 43.91600
C  51.87500 22.40000 44.11300
C  49.45200 22.21800 45.15800
C  50.49000 24.45100 41.81900
C  49.41000 23.69900 40.94600
H  48.85700 24.41100 39.73600
N  54.72600 21.67800 44.39000
C  53.79400 20.81600 43.91400
C  54.36300 19.49900 43.60200
C  55.75500 19.62000 43.80600
C  55.96000 21.06000 44.19600
C  53.58200 18.19500 43.25300
C  56.80100 18.47800 43.75800
O  56.46500 17.33900 43.43900
C  58.25800 18.65200 44.14000
N  56.58500 23.83000 45.39200
C  57.41800 22.79100 45.29600
C  58.82300 23.21000 45.81900
C  58.62000 24.54400 46.44000
C  57.15800 24.90400 46.02500
C  59.41900 22.04800 46.84700
C  59.63500 25.61000 46.15400
C  59.82800 26.54300 47.37800
N  54.35500 25.65200 45.45900
C  55.34800 26.60600 45.87700
C  54.77300 27.88500 45.78600
C  53.48500 27.67300 45.22600
C  53.25700 26.33000 45.13500
C  55.44400 29.20700 46.11800
C  52.22000 28.36600 44.86800
O  51.87100 29.51700 44.94700
C  51.25900 27.28200 44.40400
C  50.77900 27.61000 43.03500
O  51.51000 27.93700 42.09600
O  49.40300 27.50400 42.98500
C  48.68800 27.88100 41.75900
H  51.68500 20.36800 43.61200
H  58.12700 21.06800 44.46100
H  57.33500 26.92900 46.59700
H  49.58400 24.70600 43.91300
H  50.03000 22.02500 43.06800
H  48.80800 21.36100 44.96100
H  48.93800 23.05600 45.62800
H  50.07100 22.03200 46.03600
H  51.48000 24.06800 41.56800
H  50.34200 25.51800 41.65200
H  48.53600 23.35000 41.49600
H  49.89200 22.77000 40.64400
H  53.78900 17.94300 42.21300
H  52.53800 18.48400 43.13700
H  53.57200 17.47100 44.06900
H  58.71600 19.33800 43.42800
H  58.68400 17.64900 44.13300
H  58.26200 19.08400 45.14100
H  59.47000 23.35500 44.95300
H  58.39700 24.33700 47.48700
H  59.77300 22.39500 47.81700
H  60.24800 21.53400 46.36200
H  58.62400 21.30900 46.95100
H  59.27500 26.14800 45.27800
H  60.63400 25.21800 45.96400
H  60.88900 26.73500 47.53500
H  59.17400 26.34300 48.22700
H  59.35600 27.47800 47.07300
H  56.03200 29.05900 47.02400
H  54.81200 30.06500 46.34300
H  56.01300 29.37200 45.20400
H  50.43300 27.28600 45.11600
H  47.80500 28.33300 42.21300
H  48.40100 26.96600 41.24100
H  49.24000 28.64800 41.21600
Mg 27.14500 50.16500 25.50900
C  25.31100 51.58400 28.18700
C  29.60500 49.42800 27.75700
C  28.70300 48.77000 23.06900
C  24.58500 51.13600 23.36600
N  27.36200 50.42400 27.80700
C  26.51200 50.99400 28.63300
C  27.03300 50.82100 30.08100
C  28.50000 50.46500 29.85200
C  28.53700 50.11500 28.35900
C  29.64000 51.52000 30.12700
C  26.13300 49.87500 30.94400
C  25.42600 50.55900 32.15700
H  26.34000 50.96000 33.26300
N  28.96300 49.28300 25.42100
C  29.85500 49.07100 26.44000
C  31.01100 48.28600 25.89500
C  30.70700 47.97400 24.57400
C  29.47500 48.73400 24.27900
C  32.26200 47.83600 26.72000
C  31.46500 47.29400 23.53200
O  31.11600 47.32700 22.33100
C  32.83000 46.67600 23.81200
N  26.86000 50.30500 23.41800
C  27.60500 49.51600 22.66000
C  27.08500 49.48900 21.18500
C  25.61500 49.98200 21.35600
C  25.64900 50.50700 22.76500
C  27.91400 50.40500 20.26100
C  24.41200 49.04900 20.93100
C  24.25200 47.84200 21.94000
N  25.36700 51.29500 25.65900
C  24.45600 51.60400 24.69900
C  23.35200 52.42900 25.23900
C  23.58500 52.27500 26.65700
C  24.88100 51.65400 26.85900
C  22.10300 52.94900 24.53200
C  23.07200 52.56100 27.97900
O  22.01300 53.00800 28.36700
C  24.18200 52.18000 29.04900
C  24.57100 53.37500 29.77100
O  25.38300 54.23400 29.47700
O  23.87500 53.35900 30.95200
C  24.02300 54.45500 31.92100
H  30.38700 49.15000 28.46700
H  29.14900 48.21200 22.24200
H  23.72400 51.39100 22.74400
H  27.18400 51.77900 30.57900
H  28.75500 49.57300 30.42500
H  29.20000 52.50700 30.27200
H  30.31400 51.58900 29.27300
H  30.26900 51.33700 30.99800
H  26.82500 49.09100 31.25300
H  25.41000 49.42700 30.26300
H  24.60700 49.97000 32.57100
H  25.04500 51.54500 31.89100
H  32.27500 46.77200 26.48300
H  32.08800 47.90400 27.79400
H  33.21500 48.25500 26.39800
H  33.32500 46.65500 22.84100
H  32.71200 45.66600 24.20400
H  33.38800 47.28500 24.52300
H  27.12900 48.47400 20.79100
H  25.44900 50.91100 20.81100
H  28.93500 50.34100 20.63500
H  27.61300 51.45100 20.20500
H  27.93800 50.02100 19.24100
H  24.59000 48.68100 19.92000
H  23.50800 49.65900 20.91800
H  23.18100 47.63900 21.97500
H  24.83800 47.84000 22.85900
H  24.59500 47.01200 21.32200
H  21.56400 52.04300 24.25600
H  22.19300 53.47400 23.58100
H  21.42100 53.43200 25.23300
H  23.97900 51.37900 29.76000
H  24.61100 55.22900 31.42800
H  24.59900 54.15700 32.79800
H  23.03900 54.90200 32.06200

