158

Mg 49.08300 46.82800 42.81000
C  45.70000 47.03600 42.15500
C  49.10100 43.50600 42.10400
C  52.47800 46.85400 43.12800
C  49.11200 50.33300 43.29900
N  47.63100 45.55300 41.99600
C  46.25700 45.80300 41.84000
C  45.57300 44.56800 41.25200
C  46.61400 43.41800 41.42000
C  47.85500 44.24100 41.91000
C  46.29000 42.33700 42.47500
C  45.09700 44.93000 39.80400
C  43.86500 44.10500 39.19200
H  44.17700 43.04100 38.07600
N  50.62800 45.37500 42.53400
C  50.43900 44.03200 42.18900
C  51.70900 43.38600 41.97200
C  52.72900 44.31500 42.37700
C  51.98400 45.61700 42.67500
C  51.88500 41.86500 41.58000
C  54.19400 44.04300 42.47100
O  54.58300 42.87500 42.28700
C  55.33300 45.09200 42.78300
N  50.58200 48.43000 43.00300
C  51.86600 48.15100 43.30200
C  52.69900 49.47700 43.59900
C  51.61900 50.61400 43.54400
C  50.39400 49.76500 43.26700
C  53.46800 49.53600 44.95000
C  51.89400 51.75400 42.56900
C  51.81400 51.47800 41.01000
N  47.73900 48.39700 42.79200
C  47.87200 49.74500 43.08100
C  46.54800 50.38500 43.11100
C  45.67000 49.35500 42.72000
C  46.40200 48.20800 42.58200
C  46.31700 51.89600 43.39100
C  44.29200 49.05600 42.42000
O  43.35400 49.84100 42.51200
C  44.18000 47.52400 42.02900
C  43.30600 46.84600 43.04200
O  43.63000 46.56300 44.18600
O  42.04000 46.66000 42.50100
C  41.18300 45.96200 43.50600
H  49.09500 42.42200 41.97100
H  53.56700 46.87900 43.19700
H  49.03900 51.41500 43.42900
H  44.62500 44.39900 41.76400
H  46.73400 42.81700 40.51900
H  46.59800 41.30000 42.34100
H  45.21000 42.21800 42.56100
H  46.80300 42.62900 43.39100
H  45.97200 44.96500 39.15500
H  44.80900 45.98100 39.81400
H  43.15800 44.84300 38.81100
H  43.35500 43.52500 39.96100
H  50.98900 41.31800 41.87300
H  52.69300 41.42300 42.16200
H  52.20900 41.73700 40.54700
H  55.15100 45.87200 42.04400
H  56.35300 44.70900 42.77300
H  55.10200 45.50800 43.76400
H  53.50700 49.67200 42.89300
H  51.50100 51.06300 44.53000
H  53.12100 48.71800 45.58100
H  53.44100 50.47300 45.50500
H  54.52500 49.42600 44.70800
H  52.93400 52.03800 42.73200
H  51.37500 52.61400 42.99200
H  51.55000 50.43500 40.83400
H  52.75000 51.86800 40.61000
H  51.04300 52.08500 40.53500
H  45.24700 51.99200 43.57700
H  46.59000 52.40500 42.46700
H  46.81000 52.23000 44.30400
H  43.67700 47.42300 41.06700
H  41.67000 45.03400 43.80700
H  40.22900 45.66000 43.07300
H  41.02400 46.58700 44.38400
Mg 27.03900 49.32700 26.11900
C  25.01900 50.52300 28.78700
C  29.28800 48.16800 28.41600
C  28.93700 48.44400 23.53600
C  24.78300 50.82600 23.87900
N  27.11000 49.33600 28.41500
C  26.14200 49.77100 29.24400
C  26.52600 49.52500 30.71800
C  27.97300 48.84500 30.57800
C  28.16000 48.74300 29.04300
C  29.14400 49.57300 31.27900
C  25.31400 48.75600 31.49200
C  25.00100 49.03400 33.00200
H  25.96800 49.73000 33.99000
N  28.86300 48.44200 26.01300
C  29.66200 47.99600 27.02300
C  30.88200 47.48300 26.47100
C  30.84700 47.65100 25.07100
C  29.49100 48.19500 24.80200
C  31.98500 46.89700 27.44500
C  31.92400 47.26900 24.07800
O  31.74100 47.41200 22.84800
C  33.31300 46.70800 24.55800
N  27.04200 49.81200 24.00700
C  27.82900 49.18700 23.14200
C  27.41400 49.33100 21.66400
C  26.17400 50.21700 21.75500
C  25.96200 50.24200 23.29700
C  28.52000 49.98500 20.74400
C  25.02200 49.65400 20.86000
C  23.95800 48.81800 21.59600
N  25.26600 50.34800 26.16000
C  24.49100 51.03700 25.21900
C  23.35500 51.74300 25.86700
C  23.64700 51.60200 27.22000
C  24.77000 50.72400 27.36200
C  22.35000 52.44000 25.15200
C  23.14000 52.05500 28.56100
O  22.23500 52.79400 28.83900
C  23.93500 51.19600 29.60100
C  24.26100 52.08900 30.70300
O  25.22800 52.84800 30.64300
O  23.25200 52.15000 31.66700
C  23.43400 53.03500 32.80200
H  29.94900 47.79500 29.20100
H  29.42400 47.93500 22.70100
H  23.97500 51.21200 23.25400
H  26.74200 50.52500 31.09300
H  27.88400 47.83800 30.98600
H  29.91500 49.92400 30.59400
H  29.64700 48.96400 32.03100
H  28.70100 50.40800 31.82200
H  25.38800 47.69200 31.27100
H  24.42400 49.02500 30.92300
H  24.68700 48.10900 33.48600
H  24.13500 49.68800 32.90600
H  31.58500 46.65500 28.43000
H  32.73500 47.68700 27.48700
H  32.32700 45.97400 26.97900
H  33.23800 45.65100 24.81400
H  33.60600 47.30600 25.42100
H  34.02000 46.70300 23.72800
H  27.22600 48.32600 21.28700
H  26.43300 51.22800 21.44200
H  29.34700 50.48200 21.25000
H  28.08700 50.67400 20.01900
H  28.76200 49.13600 20.10500
H  25.37700 49.07600 20.00700
H  24.55400 50.54400 20.44100
H  23.03100 49.37900 21.71900
H  24.17700 48.52400 22.62200
H  23.77500 47.86300 21.10300
H  22.50700 53.47300 25.46300
H  21.34200 52.10900 25.40300
H  22.47300 52.27600 24.08100
H  23.27500 50.43200 30.01000
H  24.40100 53.03500 33.30600
H  22.63900 52.82500 33.51700
H  23.16800 54.07100 32.59300

