158

Mg 47.41000 16.60700 27.83000
C  45.52100 16.30600 30.75000
C  49.48100 18.86400 29.45500
C  49.23700 16.97200 25.01900
C  44.92900 15.08300 26.11700
N  47.46800 17.44800 29.84200
C  46.71200 17.02900 30.94900
C  47.30700 17.48500 32.30500
C  48.37200 18.52600 31.81100
C  48.43400 18.32600 30.29200
C  48.10200 20.04000 32.12500
C  47.78500 16.26500 33.27600
C  48.56400 16.60000 34.54900
H  48.59600 18.00200 35.15400
N  49.07100 17.74400 27.26900
C  49.81000 18.61600 28.07700
C  50.93500 19.18600 27.33000
C  51.02900 18.47300 26.12100
C  49.74800 17.67300 26.10700
C  52.06400 19.99200 27.95200
C  52.18000 18.32200 25.13800
O  52.18700 17.41600 24.33100
C  53.39100 19.26000 25.12000
N  47.23200 15.95100 25.92800
C  48.07100 16.22700 24.88400
C  47.57900 15.78500 23.53500
C  46.27500 14.98400 23.95600
C  46.07900 15.39900 25.41900
C  47.30400 16.91800 22.52600
C  46.37100 13.47000 23.87500
C  46.05700 12.85100 22.44100
N  45.54600 15.93900 28.27400
C  44.61200 15.27300 27.47400
C  43.46000 14.84700 28.24500
C  43.86800 15.23800 29.51800
C  45.06100 15.85100 29.46900
C  42.25400 14.05800 27.84700
C  43.36100 15.18200 30.84400
O  42.36400 14.73500 31.31400
C  44.46300 15.96600 31.77000
C  43.82500 17.17200 32.30400
O  43.47000 18.13900 31.67400
O  43.72100 16.99700 33.61500
C  43.16700 18.13800 34.43800
H  50.04800 19.63600 29.97800
H  49.72900 17.29300 24.09800
H  44.26800 14.63900 25.37000
H  46.51100 18.01100 32.83400
H  49.36200 18.39700 32.24800
H  48.96500 20.41600 32.67600
H  47.22600 20.16100 32.76100
H  47.94400 20.64100 31.23000
H  48.40200 15.49000 32.82200
H  46.91400 15.68500 33.57900
H  49.56400 16.17400 34.47800
H  48.19000 16.01100 35.38600
H  52.31600 20.88200 27.37500
H  52.96500 19.38600 27.86200
H  51.92300 20.22500 29.00800
H  53.05000 20.28700 25.25500
H  53.78800 19.16200 24.11000
H  54.06800 18.92300 25.90500
H  48.27700 15.17200 22.96500
H  45.40300 15.35100 23.41500
H  46.33900 16.88700 22.01900
H  48.04700 16.91000 21.72800
H  47.48400 17.85100 23.05900
H  45.76700 13.01300 24.65900
H  47.37500 13.14600 24.14900
H  47.04900 12.54800 22.10800
H  45.64700 13.45200 21.63000
H  45.33800 12.05700 22.64500
H  42.60600 13.26900 27.18300
H  41.48900 14.69800 27.40700
H  41.81700 13.64400 28.75600
H  44.81400 15.30900 32.56700
H  42.16100 17.85800 34.75200
H  43.07500 19.02600 33.81300
H  43.74900 18.33700 35.33700
Mg 5.48800 54.39500 41.45400
C  3.20900 51.60500 41.57300
C  7.68500 52.36800 39.86700
C  7.13100 57.11200 40.57500
C  2.53700 56.41700 41.82000
N  5.34500 52.30700 40.60500
C  4.33800 51.36200 40.74200
C  4.71200 50.12800 39.94600
C  6.21900 50.23000 39.81800
C  6.46000 51.70400 40.16000
C  7.14400 49.19600 40.49200
C  3.98300 50.13100 38.56700
C  3.44600 48.83500 38.00600
H  4.15900 48.27800 36.75700
N  7.33800 54.68700 40.61900
C  8.12200 53.69400 40.06400
C  9.44000 54.33400 39.76800
C  9.26900 55.74900 40.00300
C  7.87200 55.93400 40.44900
C  10.50300 53.46900 39.22800
C  10.43500 56.74800 39.88100
O  11.52700 56.41000 39.41300
C  10.30100 58.16000 40.25600
N  4.84700 56.42200 41.17800
C  5.75200 57.37300 40.81100
C  5.09100 58.80900 40.77900
C  3.58600 58.58900 41.16300
C  3.64100 57.04200 41.38300
C  5.80300 59.95600 41.57100
C  2.55900 59.07800 40.10200
C  2.03800 60.53700 40.29800
N  3.35900 54.13100 41.97400
C  2.30900 55.05000 42.07400
C  1.17100 54.34000 42.58300
C  1.49600 52.95700 42.45700
C  2.81300 52.91900 42.02500
C  -0.09700 54.98200 42.91500
C  0.97500 51.63400 42.58400
O  -0.08400 51.21200 43.00900
C  2.14300 50.73400 42.10700
C  1.59500 49.76800 41.10700
O  1.14900 50.13900 40.05100
O  1.92000 48.51100 41.58000
C  1.45300 47.42800 40.69100
H  8.47700 51.69100 39.53900
H  7.79100 57.97300 40.45500
H  1.65800 57.04400 41.98300
H  4.37600 49.20200 40.41300
H  6.52700 50.19100 38.77300
H  6.55900 48.33400 40.81300
H  7.47500 49.55400 41.46700
H  8.02700 48.99900 39.88400
H  4.58900 50.47400 37.72800
H  3.19800 50.88400 38.64000
H  2.37000 48.87300 37.83400
H  3.52500 48.02900 38.73500
H  10.50000 53.58400 38.14400
H  10.48400 52.41200 39.49700
H  11.44900 53.88600 39.57100
H  11.28000 58.57100 40.50200
H  9.75200 58.28600 41.18900
H  9.87900 58.71400 39.41700
H  5.18300 59.12600 39.74000
H  3.32300 59.05000 42.11500
H  5.15400 60.50800 42.25100
H  6.19400 60.65000 40.82700
H  6.67800 59.80400 42.20200
H  1.60600 58.55000 40.13200
H  3.13200 58.97400 39.18000
H  2.77700 61.16200 39.79700
H  2.07200 60.80000 41.35500
H  1.01100 60.76100 40.00800
H  0.15500 55.72000 43.67600
H  -0.85500 54.37400 43.40800
H  -0.58800 55.40100 42.03600
H  2.47800 50.17400 42.98000
H  1.17900 47.71800 39.67700
H  0.67100 46.87500 41.21300
H  2.42000 46.93500 40.59000

